MODEL        1
REMARK 921   NORMALIZED FREE ENERGY PREDICTED BY IDOCK:   -7.02 KCAL/MOL
REMARK 922        TOTAL FREE ENERGY PREDICTED BY IDOCK:  -10.53 KCAL/MOL
REMARK 923 INTER-LIGAND FREE ENERGY PREDICTED BY IDOCK:   -9.49 KCAL/MOL
REMARK 924 INTRA-LIGAND FREE ENERGY PREDICTED BY IDOCK:   -1.04 KCAL/MOL
REMARK 927      BINDING AFFINITY PREDICTED BY RF-SCORE:    0.00 PKD
ROOT
HETATM    1  C   UNL     1      -9.963  14.551  67.351  1.00  0.00    -0.227 C  
HETATM    2  C   UNL     1     -10.248  13.971  68.745  1.00  0.00    -0.197 C  
ENDROOT
BRANCH   2   3
HETATM    3  N   UNL     1      -9.666  12.618  68.901  1.00  0.00    -0.403 NA 
HETATM    4  H   UNL     1      -9.126  12.570  69.765  1.00  0.00     0.000 HD 
BRANCH   3   5
HETATM    5  C   UNL     1     -10.618  11.509  68.844  1.00  0.00    -0.204 C  
BRANCH   5   6
HETATM    6  C   UNL     1     -10.196  10.304  69.697  1.00  0.00    -0.268 C  
BRANCH   6   7
HETATM    7  C   UNL     1     -11.258   9.927  70.698  1.00  0.00    -0.416 A  
HETATM    8  C   UNL     1     -11.160   8.724  71.412  1.00  0.00    -0.361 A  
HETATM    9  C   UNL     1     -13.254   9.190  72.497  1.00  0.00    -0.397 A  
HETATM   10  C   UNL     1     -12.157   8.357  72.315  1.00  0.00    -0.456 A  
HETATM   11  O   UNL     1     -14.258   8.863  73.359  1.00  0.00    -1.241 OA 
HETATM   12  C   UNL     1     -13.362  10.391  71.802  1.00  0.00    -0.456 A  
HETATM   13  H   UNL     1     -15.008   9.433  73.483  1.00  0.00     0.000 HD 
HETATM   14  C   UNL     1     -12.366  10.759  70.898  1.00  0.00    -0.497 A  
ENDBRANCH   6   7
ENDBRANCH   5   6
ENDBRANCH   3   5
ENDBRANCH   2   3
BRANCH   2  15
HETATM   15  C   UNL     1     -11.778  13.887  69.048  1.00  0.00    -0.338 C  
HETATM   16  O   UNL     1     -12.533  14.436  67.959  1.00  0.00    -0.585 OA 
HETATM   17  H   UNL     1     -13.464  14.384  68.144  1.00  0.00     0.000 HD 
BRANCH  15  18
HETATM   18  C   UNL     1     -12.171  14.541  70.361  1.00  0.00    -0.394 A  
HETATM   19  C   UNL     1     -13.269  14.053  71.089  1.00  0.00    -0.337 A  
HETATM   20  C   UNL     1     -11.800  16.199  72.102  1.00  0.00    -0.626 A  
HETATM   21  H   UNL     1     -12.738  17.070  74.294  1.00  0.00     0.000 HD 
HETATM   22  C   UNL     1     -13.637  14.643  72.302  1.00  0.00    -0.536 A  
HETATM   23  C   UNL     1     -12.904  15.718  72.792  1.00  0.00    -0.472 A  
HETATM   24  C   UNL     1     -11.433  15.613  70.892  1.00  0.00    -0.425 A  
HETATM   25  O   UNL     1     -13.239  16.335  73.960  1.00  0.00    -0.651 OA 
ENDBRANCH  15  18
ENDBRANCH   2  15
TORSDOF 6
ENDMDL
MODEL        2
REMARK 921   NORMALIZED FREE ENERGY PREDICTED BY IDOCK:   -6.92 KCAL/MOL
REMARK 922        TOTAL FREE ENERGY PREDICTED BY IDOCK:  -10.39 KCAL/MOL
REMARK 923 INTER-LIGAND FREE ENERGY PREDICTED BY IDOCK:   -9.55 KCAL/MOL
REMARK 924 INTRA-LIGAND FREE ENERGY PREDICTED BY IDOCK:   -0.84 KCAL/MOL
REMARK 927      BINDING AFFINITY PREDICTED BY RF-SCORE:    0.00 PKD
ROOT
HETATM    1  C   UNL     1      -9.666  10.011  67.604  1.00  0.00    -0.185 C  
HETATM    2  C   UNL     1     -10.717  11.116  67.415  1.00  0.00    -0.250 C  
ENDROOT
BRANCH   2   3
HETATM    3  N   UNL     1     -11.949  10.832  68.187  1.00  0.00    -0.801 NA 
HETATM    4  H   UNL     1     -12.032   9.828  68.353  1.00  0.00     0.000 HD 
BRANCH   3   5
HETATM    5  C   UNL     1     -12.088  11.560  69.448  1.00  0.00    -0.279 C  
BRANCH   5   6
HETATM    6  C   UNL     1     -11.662  13.032  69.348  1.00  0.00    -0.386 C  
BRANCH   6   7
HETATM    7  C   UNL     1     -12.186  13.847  70.502  1.00  0.00    -0.443 A  
HETATM    8  C   UNL     1     -11.866  15.208  70.608  1.00  0.00    -0.371 A  
HETATM    9  C   UNL     1     -13.092  15.343  72.672  1.00  0.00    -0.442 A  
HETATM   10  C   UNL     1     -12.322  15.958  71.691  1.00  0.00    -0.519 A  
HETATM   11  O   UNL     1     -13.547  16.034  73.754  1.00  0.00    -0.851 OA 
HETATM   12  C   UNL     1     -13.424  13.995  72.578  1.00  0.00    -0.661 A  
HETATM   13  H   UNL     1     -14.073  15.614  74.424  1.00  0.00     0.000 HD 
HETATM   14  C   UNL     1     -12.968  13.244  71.495  1.00  0.00    -0.426 A  
ENDBRANCH   6   7
ENDBRANCH   5   6
ENDBRANCH   3   5
ENDBRANCH   2   3
BRANCH   2  15
HETATM   15  C   UNL     1     -11.109  11.309  65.916  1.00  0.00    -0.101 C  
HETATM   16  O   UNL     1     -10.217  10.573  65.068  1.00  0.00    -0.315 OA 
HETATM   17  H   UNL     1     -10.456  10.690  64.156  1.00  0.00     0.000 HD 
BRANCH  15  18
HETATM   18  C   UNL     1     -11.176  12.766  65.492  1.00  0.00    -0.329 A  
HETATM   19  C   UNL     1     -10.166  13.660  65.884  1.00  0.00    -0.318 A  
HETATM   20  C   UNL     1     -12.262  14.579  64.287  1.00  0.00    -0.441 A  
HETATM   21  H   UNL     1     -12.084  17.061  63.784  1.00  0.00     0.000 HD 
HETATM   22  C   UNL     1     -10.212  15.001  65.494  1.00  0.00    -0.406 A  
HETATM   23  C   UNL     1     -11.267  15.450  64.707  1.00  0.00    -0.395 A  
HETATM   24  C   UNL     1     -12.217  13.241  64.675  1.00  0.00    -0.460 A  
HETATM   25  O   UNL     1     -11.363  16.754  64.321  1.00  0.00    -1.170 OA 
ENDBRANCH  15  18
ENDBRANCH   2  15
TORSDOF 6
ENDMDL
MODEL        3
REMARK 921   NORMALIZED FREE ENERGY PREDICTED BY IDOCK:   -6.91 KCAL/MOL
REMARK 922        TOTAL FREE ENERGY PREDICTED BY IDOCK:  -10.38 KCAL/MOL
REMARK 923 INTER-LIGAND FREE ENERGY PREDICTED BY IDOCK:   -9.40 KCAL/MOL
REMARK 924 INTRA-LIGAND FREE ENERGY PREDICTED BY IDOCK:   -0.98 KCAL/MOL
REMARK 927      BINDING AFFINITY PREDICTED BY RF-SCORE:    0.00 PKD
ROOT
HETATM    1  C   UNL     1     -11.972  15.702  72.258  1.00  0.00    -0.562 C  
HETATM    2  C   UNL     1     -12.205  14.755  71.072  1.00  0.00    -0.329 C  
ENDROOT
BRANCH   2   3
HETATM    3  N   UNL     1     -12.670  15.490  69.872  1.00  0.00    -0.605 NA 
HETATM    4  H   UNL     1     -13.339  16.210  70.143  1.00  0.00     0.000 HD 
BRANCH   3   5
HETATM    5  C   UNL     1     -11.617  16.073  69.040  1.00  0.00    -0.349 C  
BRANCH   5   6
HETATM    6  C   UNL     1     -10.731  15.021  68.357  1.00  0.00    -0.245 C  
BRANCH   6   7
HETATM    7  C   UNL     1     -11.177  14.745  66.945  1.00  0.00    -0.347 A  
HETATM    8  C   UNL     1     -10.751  15.572  65.895  1.00  0.00    -0.346 A  
HETATM    9  C   UNL     1     -12.055  14.283  64.340  1.00  0.00    -0.468 A  
HETATM   10  C   UNL     1     -11.186  15.339  64.591  1.00  0.00    -0.366 A  
HETATM   11  O   UNL     1     -12.516  14.029  63.084  1.00  0.00    -1.137 OA 
HETATM   12  C   UNL     1     -12.481  13.449  65.369  1.00  0.00    -0.543 A  
HETATM   13  H   UNL     1     -13.110  13.307  62.912  1.00  0.00     0.000 HD 
HETATM   14  C   UNL     1     -12.046  13.681  66.673  1.00  0.00    -0.459 A  
ENDBRANCH   6   7
ENDBRANCH   5   6
ENDBRANCH   3   5
ENDBRANCH   2   3
BRANCH   2  15
HETATM   15  C   UNL     1     -13.249  13.640  71.400  1.00  0.00    -0.283 C  
HETATM   16  O   UNL     1     -13.696  13.762  72.758  1.00  0.00    -0.699 OA 
HETATM   17  H   UNL     1     -14.332  13.084  72.958  1.00  0.00     0.000 HD 
BRANCH  15  18
HETATM   18  C   UNL     1     -12.741  12.236  71.125  1.00  0.00    -0.340 A  
HETATM   19  C   UNL     1     -11.829  12.010  70.080  1.00  0.00    -0.392 A  
HETATM   20  C   UNL     1     -12.656   9.865  71.662  1.00  0.00    -0.519 A  
HETATM   21  H   UNL     1     -11.641   7.661  70.916  1.00  0.00     0.000 HD 
HETATM   22  C   UNL     1     -11.349  10.724  69.820  1.00  0.00    -0.372 A  
HETATM   23  C   UNL     1     -11.776   9.661  70.608  1.00  0.00    -0.280 A  
HETATM   24  C   UNL     1     -13.136  11.147  71.921  1.00  0.00    -0.513 A  
HETATM   25  O   UNL     1     -11.349   8.387  70.378  1.00  0.00    -0.250 OA 
ENDBRANCH  15  18
ENDBRANCH   2  15
TORSDOF 6
ENDMDL
MODEL        4
REMARK 921   NORMALIZED FREE ENERGY PREDICTED BY IDOCK:   -6.85 KCAL/MOL
REMARK 922        TOTAL FREE ENERGY PREDICTED BY IDOCK:  -10.29 KCAL/MOL
REMARK 923 INTER-LIGAND FREE ENERGY PREDICTED BY IDOCK:   -9.26 KCAL/MOL
REMARK 924 INTRA-LIGAND FREE ENERGY PREDICTED BY IDOCK:   -1.03 KCAL/MOL
REMARK 927      BINDING AFFINITY PREDICTED BY RF-SCORE:    0.00 PKD
ROOT
HETATM    1  C   UNL     1     -12.272  15.604  73.121  1.00  0.00    -0.587 C  
HETATM    2  C   UNL     1     -11.883  15.074  71.733  1.00  0.00    -0.388 C  
ENDROOT
BRANCH   2   3
HETATM    3  N   UNL     1     -11.554  16.177  70.801  1.00  0.00    -0.503 NA 
HETATM    4  H   UNL     1     -10.561  16.403  70.866  1.00  0.00     0.000 HD 
BRANCH   3   5
HETATM    5  C   UNL     1     -11.926  15.958  69.403  1.00  0.00    -0.256 C  
BRANCH   5   6
HETATM    6  C   UNL     1     -10.742  15.541  68.519  1.00  0.00    -0.259 C  
BRANCH   6   7
HETATM    7  C   UNL     1     -11.188  15.147  67.134  1.00  0.00    -0.320 A  
HETATM    8  C   UNL     1     -12.148  14.139  66.962  1.00  0.00    -0.449 A  
HETATM    9  C   UNL     1     -11.965  14.364  64.576  1.00  0.00    -0.472 A  
HETATM   10  C   UNL     1     -12.540  13.750  65.682  1.00  0.00    -0.551 A  
HETATM   11  O   UNL     1     -12.308  14.004  63.307  1.00  0.00    -1.133 OA 
HETATM   12  C   UNL     1     -11.017  15.370  64.730  1.00  0.00    -0.411 A  
HETATM   13  H   UNL     1     -11.915  14.424  62.551  1.00  0.00     0.000 HD 
HETATM   14  C   UNL     1     -10.624  15.761  66.009  1.00  0.00    -0.334 A  
ENDBRANCH   6   7
ENDBRANCH   5   6
ENDBRANCH   3   5
ENDBRANCH   2   3
BRANCH   2  15
HETATM   15  C   UNL     1     -13.015  14.210  71.091  1.00  0.00    -0.349 C  
HETATM   16  O   UNL     1     -14.260  14.438  71.767  1.00  0.00    -0.446 OA 
HETATM   17  H   UNL     1     -14.949  13.912  71.377  1.00  0.00     0.000 HD 
BRANCH  15  18
HETATM   18  C   UNL     1     -12.691  12.726  71.045  1.00  0.00    -0.331 A  
HETATM   19  C   UNL     1     -13.283  11.848  71.968  1.00  0.00    -0.461 A  
HETATM   20  C   UNL     1     -11.549  10.833  70.031  1.00  0.00    -0.417 A  
HETATM   21  H   UNL     1     -11.207   8.327  70.252  1.00  0.00     0.000 HD 
HETATM   22  C   UNL     1     -12.999  10.480  71.932  1.00  0.00    -0.553 A  
HETATM   23  C   UNL     1     -12.125   9.987  70.969  1.00  0.00    -0.373 A  
HETATM   24  C   UNL     1     -11.832  12.197  70.067  1.00  0.00    -0.383 A  
HETATM   25  O   UNL     1     -11.804   8.664  70.910  1.00  0.00    -0.284 OA 
ENDBRANCH  15  18
ENDBRANCH   2  15
TORSDOF 6
ENDMDL
MODEL        5
REMARK 921   NORMALIZED FREE ENERGY PREDICTED BY IDOCK:   -6.76 KCAL/MOL
REMARK 922        TOTAL FREE ENERGY PREDICTED BY IDOCK:  -10.18 KCAL/MOL
REMARK 923 INTER-LIGAND FREE ENERGY PREDICTED BY IDOCK:   -9.32 KCAL/MOL
REMARK 924 INTRA-LIGAND FREE ENERGY PREDICTED BY IDOCK:   -0.86 KCAL/MOL
REMARK 927      BINDING AFFINITY PREDICTED BY RF-SCORE:    0.00 PKD
ROOT
HETATM    1  C   UNL     1      -9.443  10.344  67.762  1.00  0.00    -0.159 C  
HETATM    2  C   UNL     1     -10.672  11.258  67.640  1.00  0.00    -0.226 C  
ENDROOT
BRANCH   2   3
HETATM    3  N   UNL     1     -11.806  10.754  68.450  1.00  0.00    -0.747 NA 
HETATM    4  H   UNL     1     -11.637   9.785  68.721  1.00  0.00     0.000 HD 
BRANCH   3   5
HETATM    5  C   UNL     1     -12.145  11.552  69.629  1.00  0.00    -0.296 C  
BRANCH   5   6
HETATM    6  C   UNL     1     -11.668  13.008  69.533  1.00  0.00    -0.381 C  
BRANCH   6   7
HETATM    7  C   UNL     1     -12.183  13.842  70.678  1.00  0.00    -0.434 A  
HETATM    8  C   UNL     1     -12.997  13.264  71.663  1.00  0.00    -0.441 A  
HETATM    9  C   UNL     1     -13.197  15.394  72.758  1.00  0.00    -0.490 A  
HETATM   10  C   UNL     1     -13.502  14.039  72.706  1.00  0.00    -0.576 A  
HETATM   11  O   UNL     1     -13.681  16.192  73.751  1.00  0.00    -0.868 OA 
HETATM   12  C   UNL     1     -12.385  15.982  71.793  1.00  0.00    -0.496 A  
HETATM   13  H   UNL     1     -13.473  17.118  73.787  1.00  0.00     0.000 HD 
HETATM   14  C   UNL     1     -11.880  15.207  70.749  1.00  0.00    -0.371 A  
ENDBRANCH   6   7
ENDBRANCH   5   6
ENDBRANCH   3   5
ENDBRANCH   2   3
BRANCH   2  15
HETATM   15  C   UNL     1     -11.152  11.409  66.162  1.00  0.00    -0.198 C  
HETATM   16  O   UNL     1     -10.345  10.604  65.291  1.00  0.00    -0.290 OA 
HETATM   17  H   UNL     1     -10.638  10.696  64.391  1.00  0.00     0.000 HD 
BRANCH  15  18
HETATM   18  C   UNL     1     -11.189  12.850  65.683  1.00  0.00    -0.325 A  
HETATM   19  C   UNL     1     -12.166  13.259  64.759  1.00  0.00    -0.466 A  
HETATM   20  C   UNL     1     -10.334  15.127  65.731  1.00  0.00    -0.359 A  
HETATM   21  H   UNL     1     -10.658  17.427  64.709  1.00  0.00     0.000 HD 
HETATM   22  C   UNL     1     -12.215  14.584  64.315  1.00  0.00    -0.441 A  
HETATM   23  C   UNL     1     -11.291  15.503  64.799  1.00  0.00    -0.357 A  
HETATM   24  C   UNL     1     -10.284  13.806  66.174  1.00  0.00    -0.305 A  
HETATM   25  O   UNL     1     -11.289  16.800  64.379  1.00  0.00    -1.089 OA 
ENDBRANCH  15  18
ENDBRANCH   2  15
TORSDOF 6
ENDMDL
MODEL        6
REMARK 921   NORMALIZED FREE ENERGY PREDICTED BY IDOCK:   -6.73 KCAL/MOL
REMARK 922        TOTAL FREE ENERGY PREDICTED BY IDOCK:  -10.13 KCAL/MOL
REMARK 923 INTER-LIGAND FREE ENERGY PREDICTED BY IDOCK:   -7.99 KCAL/MOL
REMARK 924 INTRA-LIGAND FREE ENERGY PREDICTED BY IDOCK:   -2.14 KCAL/MOL
REMARK 927      BINDING AFFINITY PREDICTED BY RF-SCORE:    0.00 PKD
ROOT
HETATM    1  C   UNL     1     -13.492  14.563  71.385  1.00  0.00    -0.445 C  
HETATM    2  C   UNL     1     -12.332  14.393  70.392  1.00  0.00    -0.342 C  
ENDROOT
BRANCH   2   3
HETATM    3  N   UNL     1     -11.704  13.056  70.514  1.00  0.00    -0.520 NA 
HETATM    4  H   UNL     1     -12.097  12.559  71.313  1.00  0.00     0.000 HD 
BRANCH   3   5
HETATM    5  C   UNL     1     -11.770  12.215  69.319  1.00  0.00    -0.328 C  
BRANCH   5   6
HETATM    6  C   UNL     1     -10.586  12.424  68.364  1.00  0.00    -0.251 C  
BRANCH   6   7
HETATM    7  C   UNL     1     -11.039  12.898  67.007  1.00  0.00    -0.309 A  
HETATM    8  C   UNL     1     -10.111  13.047  65.965  1.00  0.00    -0.286 A  
HETATM    9  C   UNL     1     -11.855  13.844  64.516  1.00  0.00    -0.426 A  
HETATM   10  C   UNL     1     -10.520  13.517  64.718  1.00  0.00    -0.430 A  
HETATM   11  O   UNL     1     -12.295  14.319  63.317  1.00  0.00    -1.118 OA 
HETATM   12  C   UNL     1     -12.789  13.695  65.536  1.00  0.00    -0.443 A  
HETATM   13  H   UNL     1     -13.208  14.542  63.179  1.00  0.00     0.000 HD 
HETATM   14  C   UNL     1     -12.382  13.226  66.785  1.00  0.00    -0.239 A  
ENDBRANCH   6   7
ENDBRANCH   5   6
ENDBRANCH   3   5
ENDBRANCH   2   3
BRANCH   2  15
HETATM   15  C   UNL     1     -11.224  15.476  70.584  1.00  0.00    -0.347 C  
HETATM   16  O   UNL     1     -11.779  16.654  71.188  1.00  0.00    -0.577 OA 
HETATM   17  H   UNL     1     -11.104  17.313  71.305  1.00  0.00     0.000 HD 
BRANCH  15  18
HETATM   18  C   UNL     1     -10.488  15.823  69.302  1.00  0.00    -0.247 A  
HETATM   19  C   UNL     1     -11.173  16.443  68.244  1.00  0.00    -0.300 A  
HETATM   20  C   UNL     1      -8.448  15.901  67.979  1.00  0.00    -0.162 A  
HETATM   21  H   UNL     1      -7.539  16.581  65.709  1.00  0.00     0.000 HD 
HETATM   22  C   UNL     1     -10.506  16.774  67.061  1.00  0.00    -0.285 A  
HETATM   23  C   UNL     1      -9.150  16.489  66.937  1.00  0.00    -0.220 A  
HETATM   24  C   UNL     1      -9.113  15.570  69.158  1.00  0.00    -0.248 A  
HETATM   25  O   UNL     1      -8.465  16.776  65.794  1.00  0.00    -0.472 OA 
ENDBRANCH  15  18
ENDBRANCH   2  15
TORSDOF 6
ENDMDL
MODEL        7
REMARK 921   NORMALIZED FREE ENERGY PREDICTED BY IDOCK:   -6.71 KCAL/MOL
REMARK 922        TOTAL FREE ENERGY PREDICTED BY IDOCK:  -10.11 KCAL/MOL
REMARK 923 INTER-LIGAND FREE ENERGY PREDICTED BY IDOCK:   -9.25 KCAL/MOL
REMARK 924 INTRA-LIGAND FREE ENERGY PREDICTED BY IDOCK:   -0.86 KCAL/MOL
REMARK 927      BINDING AFFINITY PREDICTED BY RF-SCORE:    0.00 PKD
ROOT
HETATM    1  C   UNL     1      -9.609  10.133  67.626  1.00  0.00    -0.170 C  
HETATM    2  C   UNL     1     -10.595  11.273  67.328  1.00  0.00    -0.233 C  
ENDROOT
BRANCH   2   3
HETATM    3  N   UNL     1     -11.928  11.007  67.915  1.00  0.00    -0.727 NA 
HETATM    4  H   UNL     1     -12.058  10.003  68.044  1.00  0.00     0.000 HD 
BRANCH   3   5
HETATM    5  C   UNL     1     -12.223  11.713  69.162  1.00  0.00    -0.137 C  
BRANCH   5   6
HETATM    6  C   UNL     1     -11.764  13.178  69.152  1.00  0.00    -0.376 C  
BRANCH   6   7
HETATM    7  C   UNL     1     -12.213  13.915  70.388  1.00  0.00    -0.438 A  
HETATM    8  C   UNL     1     -12.948  13.248  71.379  1.00  0.00    -0.398 A  
HETATM    9  C   UNL     1     -13.109  15.287  72.642  1.00  0.00    -0.427 A  
HETATM   10  C   UNL     1     -13.393  13.933  72.509  1.00  0.00    -0.656 A  
HETATM   11  O   UNL     1     -13.536  15.998  73.722  1.00  0.00    -0.851 OA 
HETATM   12  C   UNL     1     -12.375  15.961  71.671  1.00  0.00    -0.519 A  
HETATM   13  H   UNL     1     -13.342  16.924  73.813  1.00  0.00     0.000 HD 
HETATM   14  C   UNL     1     -11.929  15.277  70.540  1.00  0.00    -0.384 A  
ENDBRANCH   6   7
ENDBRANCH   5   6
ENDBRANCH   3   5
ENDBRANCH   2   3
BRANCH   2  15
HETATM   15  C   UNL     1     -10.772  11.515  65.795  1.00  0.00    -0.271 C  
HETATM   16  O   UNL     1      -9.691  10.914  65.068  1.00  0.00    -0.229 OA 
HETATM   17  H   UNL     1      -9.799  11.061  64.135  1.00  0.00     0.000 HD 
BRANCH  15  18
HETATM   18  C   UNL     1     -10.918  12.982  65.428  1.00  0.00    -0.297 A  
HETATM   19  C   UNL     1      -9.968  13.916  65.872  1.00  0.00    -0.317 A  
HETATM   20  C   UNL     1     -12.092  14.775  64.278  1.00  0.00    -0.415 A  
HETATM   21  H   UNL     1     -12.053  17.282  63.877  1.00  0.00     0.000 HD 
HETATM   22  C   UNL     1     -10.089  15.268  65.536  1.00  0.00    -0.408 A  
HETATM   23  C   UNL     1     -11.156  15.686  64.749  1.00  0.00    -0.412 A  
HETATM   24  C   UNL     1     -11.973  13.428  64.613  1.00  0.00    -0.441 A  
HETATM   25  O   UNL     1     -11.324  16.996  64.414  1.00  0.00    -1.140 OA 
ENDBRANCH  15  18
ENDBRANCH   2  15
TORSDOF 6
ENDMDL
MODEL        8
REMARK 921   NORMALIZED FREE ENERGY PREDICTED BY IDOCK:   -6.61 KCAL/MOL
REMARK 922        TOTAL FREE ENERGY PREDICTED BY IDOCK:   -9.97 KCAL/MOL
REMARK 923 INTER-LIGAND FREE ENERGY PREDICTED BY IDOCK:   -8.91 KCAL/MOL
REMARK 924 INTRA-LIGAND FREE ENERGY PREDICTED BY IDOCK:   -1.06 KCAL/MOL
REMARK 927      BINDING AFFINITY PREDICTED BY RF-SCORE:    0.00 PKD
ROOT
HETATM    1  C   UNL     1     -10.442  18.278  67.771  1.00  0.00    -0.430 C  
HETATM    2  C   UNL     1     -10.567  16.748  67.819  1.00  0.00    -0.341 C  
ENDROOT
BRANCH   2   3
HETATM    3  N   UNL     1      -9.927  16.188  69.032  1.00  0.00    -0.229 NA 
HETATM    4  H   UNL     1      -9.140  16.774  69.313  1.00  0.00     0.000 HD 
BRANCH   3   5
HETATM    5  C   UNL     1     -10.816  15.966  70.172  1.00  0.00    -0.353 C  
BRANCH   5   6
HETATM    6  C   UNL     1     -12.175  15.371  69.774  1.00  0.00    -0.336 C  
BRANCH   6   7
HETATM    7  C   UNL     1     -12.455  14.081  70.500  1.00  0.00    -0.429 A  
HETATM    8  C   UNL     1     -11.907  12.876  70.036  1.00  0.00    -0.356 A  
HETATM    9  C   UNL     1     -13.028  11.680  71.793  1.00  0.00    -0.377 A  
HETATM   10  C   UNL     1     -12.190  11.675  70.685  1.00  0.00    -0.461 A  
HETATM   11  O   UNL     1     -13.343  10.528  72.449  1.00  0.00    -0.602 OA 
HETATM   12  C   UNL     1     -13.575  12.867  72.271  1.00  0.00    -0.611 A  
HETATM   13  H   UNL     1     -13.916  10.531  73.207  1.00  0.00     0.000 HD 
HETATM   14  C   UNL     1     -13.292  14.069  71.622  1.00  0.00    -0.442 A  
ENDBRANCH   6   7
ENDBRANCH   5   6
ENDBRANCH   3   5
ENDBRANCH   2   3
BRANCH   2  15
HETATM   15  C   UNL     1      -9.932  16.063  66.567  1.00  0.00    -0.279 C  
HETATM   16  O   UNL     1      -9.555  17.050  65.597  1.00  0.00    -0.536 OA 
HETATM   17  H   UNL     1      -9.168  16.633  64.835  1.00  0.00     0.000 HD 
BRANCH  15  18
HETATM   18  C   UNL     1     -10.823  15.004  65.941  1.00  0.00    -0.339 A  
HETATM   19  C   UNL     1     -11.127  13.831  66.651  1.00  0.00    -0.316 A  
HETATM   20  C   UNL     1     -12.210  14.210  64.107  1.00  0.00    -0.423 A  
HETATM   21  H   UNL     1     -13.626  12.244  63.351  1.00  0.00     0.000 HD 
HETATM   22  C   UNL     1     -11.951  12.852  66.088  1.00  0.00    -0.491 A  
HETATM   23  C   UNL     1     -12.477  13.047  64.816  1.00  0.00    -0.427 A  
HETATM   24  C   UNL     1     -11.388  15.187  64.667  1.00  0.00    -0.362 A  
HETATM   25  O   UNL     1     -13.268  12.111  64.220  1.00  0.00    -0.768 OA 
ENDBRANCH  15  18
ENDBRANCH   2  15
TORSDOF 6
ENDMDL
MODEL        9
REMARK 921   NORMALIZED FREE ENERGY PREDICTED BY IDOCK:   -6.57 KCAL/MOL
REMARK 922        TOTAL FREE ENERGY PREDICTED BY IDOCK:   -9.92 KCAL/MOL
REMARK 923 INTER-LIGAND FREE ENERGY PREDICTED BY IDOCK:   -9.08 KCAL/MOL
REMARK 924 INTRA-LIGAND FREE ENERGY PREDICTED BY IDOCK:   -0.84 KCAL/MOL
REMARK 927      BINDING AFFINITY PREDICTED BY RF-SCORE:    0.00 PKD
ROOT
HETATM    1  C   UNL     1     -11.178  10.685  67.501  1.00  0.00    -0.326 C  
HETATM    2  C   UNL     1     -11.129  11.758  68.599  1.00  0.00    -0.238 C  
ENDROOT
BRANCH   2   3
HETATM    3  N   UNL     1      -9.738  12.033  69.029  1.00  0.00    -0.404 NA 
HETATM    4  H   UNL     1      -9.340  11.203  69.470  1.00  0.00     0.000 HD 
BRANCH   3   5
HETATM    5  C   UNL     1      -8.838  12.525  67.986  1.00  0.00    -0.187 C  
BRANCH   5   6
HETATM    6  C   UNL     1      -8.709  14.055  67.969  1.00  0.00    -0.180 C  
BRANCH   6   7
HETATM    7  C   UNL     1      -9.485  14.670  66.833  1.00  0.00    -0.259 A  
HETATM    8  C   UNL     1      -9.639  16.062  66.754  1.00  0.00    -0.248 A  
HETATM    9  C   UNL     1     -10.979  15.809  64.774  1.00  0.00    -0.393 A  
HETATM   10  C   UNL     1     -10.383  16.632  65.722  1.00  0.00    -0.338 A  
HETATM   11  O   UNL     1     -11.726  16.323  63.758  1.00  0.00    -1.511 OA 
HETATM   12  C   UNL     1     -10.830  14.427  64.834  1.00  0.00    -0.430 A  
HETATM   13  H   UNL     1     -12.133  15.761  63.110  1.00  0.00     0.000 HD 
HETATM   14  C   UNL     1     -10.086  13.855  65.866  1.00  0.00    -0.331 A  
ENDBRANCH   6   7
ENDBRANCH   5   6
ENDBRANCH   3   5
ENDBRANCH   2   3
BRANCH   2  15
HETATM   15  C   UNL     1     -11.962  11.356  69.857  1.00  0.00    -0.359 C  
HETATM   16  O   UNL     1     -13.026  10.468  69.487  1.00  0.00    -0.602 OA 
HETATM   17  H   UNL     1     -13.533  10.223  70.253  1.00  0.00     0.000 HD 
BRANCH  15  18
HETATM   18  C   UNL     1     -12.500  12.547  70.633  1.00  0.00    -0.323 A  
HETATM   19  C   UNL     1     -12.336  13.847  70.127  1.00  0.00    -0.400 A  
HETATM   20  C   UNL     1     -13.693  13.476  72.538  1.00  0.00    -0.664 A  
HETATM   21  H   UNL     1     -14.433  15.668  73.582  1.00  0.00     0.000 HD 
HETATM   22  C   UNL     1     -12.832  14.950  70.828  1.00  0.00    -0.428 A  
HETATM   23  C   UNL     1     -13.497  14.754  72.033  1.00  0.00    -0.379 A  
HETATM   24  C   UNL     1     -13.198  12.376  71.840  1.00  0.00    -0.486 A  
HETATM   25  O   UNL     1     -13.979  15.802  72.759  1.00  0.00    -0.590 OA 
ENDBRANCH  15  18
ENDBRANCH   2  15
TORSDOF 6
ENDMDL
MODEL       10
REMARK 921   NORMALIZED FREE ENERGY PREDICTED BY IDOCK:   -6.55 KCAL/MOL
REMARK 922        TOTAL FREE ENERGY PREDICTED BY IDOCK:   -9.89 KCAL/MOL
REMARK 923 INTER-LIGAND FREE ENERGY PREDICTED BY IDOCK:   -9.33 KCAL/MOL
REMARK 924 INTRA-LIGAND FREE ENERGY PREDICTED BY IDOCK:   -0.57 KCAL/MOL
REMARK 927      BINDING AFFINITY PREDICTED BY RF-SCORE:    0.00 PKD
ROOT
HETATM    1  C   UNL     1     -10.961  13.765  64.564  1.00  0.00    -0.399 C  
HETATM    2  C   UNL     1     -10.915  14.703  65.779  1.00  0.00    -0.330 C  
ENDROOT
BRANCH   2   3
HETATM    3  N   UNL     1     -11.872  14.279  66.829  1.00  0.00    -0.412 NA 
HETATM    4  H   UNL     1     -12.008  13.269  66.789  1.00  0.00     0.000 HD 
BRANCH   3   5
HETATM    5  C   UNL     1     -11.534  14.685  68.194  1.00  0.00    -0.323 C  
BRANCH   5   6
HETATM    6  C   UNL     1     -12.068  13.720  69.262  1.00  0.00    -0.374 C  
BRANCH   6   7
HETATM    7  C   UNL     1     -12.387  14.432  70.551  1.00  0.00    -0.413 A  
HETATM    8  C   UNL     1     -11.757  15.647  70.861  1.00  0.00    -0.423 A  
HETATM    9  C   UNL     1     -12.916  15.718  72.965  1.00  0.00    -0.525 A  
HETATM   10  C   UNL     1     -12.025  16.293  72.067  1.00  0.00    -0.544 A  
HETATM   11  O   UNL     1     -13.196  16.308  74.161  1.00  0.00    -0.954 OA 
HETATM   12  C   UNL     1     -13.555  14.518  72.670  1.00  0.00    -0.577 A  
HETATM   13  H   UNL     1     -13.805  15.916  74.776  1.00  0.00     0.000 HD 
HETATM   14  C   UNL     1     -13.288  13.871  71.464  1.00  0.00    -0.406 A  
ENDBRANCH   6   7
ENDBRANCH   5   6
ENDBRANCH   3   5
ENDBRANCH   2   3
BRANCH   2  15
HETATM   15  C   UNL     1     -11.230  16.184  65.396  1.00  0.00    -0.006 C  
HETATM   16  O   UNL     1     -11.434  16.299  63.981  1.00  0.00    -1.371 OA 
HETATM   17  H   UNL     1     -11.625  17.201  63.748  1.00  0.00     0.000 HD 
BRANCH  15  18
HETATM   18  C   UNL     1     -10.175  17.168  65.871  1.00  0.00    -0.290 A  
HETATM   19  C   UNL     1      -8.867  16.725  66.133  1.00  0.00    -0.298 A  
HETATM   20  C   UNL     1      -9.487  19.428  66.449  1.00  0.00    -0.432 A  
HETATM   21  H   UNL     1      -7.509  20.787  67.276  1.00  0.00     0.000 HD 
HETATM   22  C   UNL     1      -7.886  17.622  66.564  1.00  0.00    -0.307 A  
HETATM   23  C   UNL     1      -8.209  18.965  66.727  1.00  0.00    -0.279 A  
HETATM   24  C   UNL     1     -10.466  18.535  66.020  1.00  0.00    -0.433 A  
HETATM   25  O   UNL     1      -7.288  19.871  67.165  1.00  0.00    -0.229 OA 
ENDBRANCH  15  18
ENDBRANCH   2  15
TORSDOF 6
ENDMDL
MODEL       11
REMARK 921   NORMALIZED FREE ENERGY PREDICTED BY IDOCK:   -6.50 KCAL/MOL
REMARK 922        TOTAL FREE ENERGY PREDICTED BY IDOCK:   -9.82 KCAL/MOL
REMARK 923 INTER-LIGAND FREE ENERGY PREDICTED BY IDOCK:   -8.92 KCAL/MOL
REMARK 924 INTRA-LIGAND FREE ENERGY PREDICTED BY IDOCK:   -0.90 KCAL/MOL
REMARK 927      BINDING AFFINITY PREDICTED BY RF-SCORE:    0.00 PKD
ROOT
HETATM    1  C   UNL     1      -9.956  14.629  67.636  1.00  0.00    -0.227 C  
HETATM    2  C   UNL     1     -10.268  13.857  68.926  1.00  0.00    -0.127 C  
ENDROOT
BRANCH   2   3
HETATM    3  N   UNL     1      -9.816  12.448  68.841  1.00  0.00    -0.424 NA 
HETATM    4  H   UNL     1      -9.493  12.131  69.755  1.00  0.00     0.000 HD 
BRANCH   3   5
HETATM    5  C   UNL     1     -10.791  11.502  68.299  1.00  0.00    -0.216 C  
BRANCH   5   6
HETATM    6  C   UNL     1     -10.352  10.875  66.968  1.00  0.00    -0.276 C  
BRANCH   6   7
HETATM    7  C   UNL     1     -10.944  11.599  65.786  1.00  0.00    -0.329 A  
HETATM    8  C   UNL     1     -10.289  11.579  64.546  1.00  0.00    -0.354 A  
HETATM    9  C   UNL     1     -11.994  12.994  63.615  1.00  0.00    -0.539 A  
HETATM   10  C   UNL     1     -10.816  12.274  63.458  1.00  0.00    -0.508 A  
HETATM   11  O   UNL     1     -12.537  13.699  62.583  1.00  0.00    -0.645 OA 
HETATM   12  C   UNL     1     -12.660  13.018  64.837  1.00  0.00    -0.490 A  
HETATM   13  H   UNL     1     -13.342  14.192  62.690  1.00  0.00     0.000 HD 
HETATM   14  C   UNL     1     -12.134  12.324  65.925  1.00  0.00    -0.261 A  
ENDBRANCH   6   7
ENDBRANCH   5   6
ENDBRANCH   3   5
ENDBRANCH   2   3
BRANCH   2  15
HETATM   15  C   UNL     1     -11.792  13.864  69.266  1.00  0.00    -0.348 C  
HETATM   16  O   UNL     1     -12.526  14.558  68.247  1.00  0.00    -0.592 OA 
HETATM   17  H   UNL     1     -13.454  14.562  68.453  1.00  0.00     0.000 HD 
BRANCH  15  18
HETATM   18  C   UNL     1     -12.104  14.437  70.638  1.00  0.00    -0.404 A  
HETATM   19  C   UNL     1     -12.892  13.706  71.542  1.00  0.00    -0.445 A  
HETATM   20  C   UNL     1     -11.873  16.189  72.310  1.00  0.00    -0.631 A  
HETATM   21  H   UNL     1     -12.603  16.858  74.647  1.00  0.00     0.000 HD 
HETATM   22  C   UNL     1     -13.180  14.219  72.811  1.00  0.00    -0.614 A  
HETATM   23  C   UNL     1     -12.675  15.462  73.178  1.00  0.00    -0.479 A  
HETATM   24  C   UNL     1     -11.586  15.679  71.045  1.00  0.00    -0.434 A  
HETATM   25  O   UNL     1     -12.947  16.009  74.396  1.00  0.00    -0.580 OA 
ENDBRANCH  15  18
ENDBRANCH   2  15
TORSDOF 6
ENDMDL
MODEL       12
REMARK 921   NORMALIZED FREE ENERGY PREDICTED BY IDOCK:   -6.35 KCAL/MOL
REMARK 922        TOTAL FREE ENERGY PREDICTED BY IDOCK:   -9.62 KCAL/MOL
REMARK 923 INTER-LIGAND FREE ENERGY PREDICTED BY IDOCK:   -8.53 KCAL/MOL
REMARK 924 INTRA-LIGAND FREE ENERGY PREDICTED BY IDOCK:   -1.10 KCAL/MOL
REMARK 927      BINDING AFFINITY PREDICTED BY RF-SCORE:    0.00 PKD
ROOT
HETATM    1  C   UNL     1      -9.627  12.250  66.644  1.00  0.00    -0.227 C  
HETATM    2  C   UNL     1     -10.167  12.143  68.078  1.00  0.00    -0.201 C  
ENDROOT
BRANCH   2   3
HETATM    3  N   UNL     1      -9.765  13.308  68.899  1.00  0.00    -0.419 NA 
HETATM    4  H   UNL     1      -8.798  13.562  68.693  1.00  0.00     0.000 HD 
BRANCH   3   5
HETATM    5  C   UNL     1     -10.625  14.486  68.791  1.00  0.00    -0.248 C  
BRANCH   5   6
HETATM    6  C   UNL     1     -12.069  14.226  69.244  1.00  0.00    -0.351 C  
BRANCH   6   7
HETATM    7  C   UNL     1     -12.299  14.672  70.665  1.00  0.00    -0.398 A  
HETATM    8  C   UNL     1     -13.160  13.948  71.503  1.00  0.00    -0.441 A  
HETATM    9  C   UNL     1     -12.786  15.532  73.271  1.00  0.00    -0.509 A  
HETATM   10  C   UNL     1     -13.401  14.375  72.807  1.00  0.00    -0.606 A  
HETATM   11  O   UNL     1     -13.004  15.994  74.534  1.00  0.00    -0.920 OA 
HETATM   12  C   UNL     1     -11.923  16.258  72.455  1.00  0.00    -0.648 A  
HETATM   13  H   UNL     1     -12.583  16.785  74.851  1.00  0.00     0.000 HD 
HETATM   14  C   UNL     1     -11.682  15.832  71.150  1.00  0.00    -0.476 A  
ENDBRANCH   6   7
ENDBRANCH   5   6
ENDBRANCH   3   5
ENDBRANCH   2   3
BRANCH   2  15
HETATM   15  C   UNL     1      -9.683  10.843  68.796  1.00  0.00    -0.189 C  
HETATM   16  O   UNL     1      -9.399   9.818  67.834  1.00  0.00    -0.128 OA 
HETATM   17  H   UNL     1      -9.104   9.027  68.271  1.00  0.00     0.000 HD 
BRANCH  15  18
HETATM   18  C   UNL     1     -10.653  10.338  69.851  1.00  0.00    -0.324 A  
HETATM   19  C   UNL     1     -11.990  10.769  69.840  1.00  0.00    -0.418 A  
HETATM   20  C   UNL     1     -11.152   8.950  71.785  1.00  0.00    -0.433 A  
HETATM   21  H   UNL     1     -13.009   8.335  73.403  1.00  0.00     0.000 HD 
HETATM   22  C   UNL     1     -12.893  10.306  70.801  1.00  0.00    -0.427 A  
HETATM   23  C   UNL     1     -12.462   9.409  71.772  1.00  0.00    -0.391 A  
HETATM   24  C   UNL     1     -10.250   9.411  70.828  1.00  0.00    -0.368 A  
HETATM   25  O   UNL     1     -13.304   8.948  72.740  1.00  0.00    -0.405 OA 
ENDBRANCH  15  18
ENDBRANCH   2  15
TORSDOF 6
ENDMDL
MODEL       13
REMARK 921   NORMALIZED FREE ENERGY PREDICTED BY IDOCK:   -6.32 KCAL/MOL
REMARK 922        TOTAL FREE ENERGY PREDICTED BY IDOCK:   -9.58 KCAL/MOL
REMARK 923 INTER-LIGAND FREE ENERGY PREDICTED BY IDOCK:   -8.75 KCAL/MOL
REMARK 924 INTRA-LIGAND FREE ENERGY PREDICTED BY IDOCK:   -0.83 KCAL/MOL
REMARK 927      BINDING AFFINITY PREDICTED BY RF-SCORE:    0.00 PKD
ROOT
HETATM    1  C   UNL     1     -10.656  11.110  64.364  1.00  0.00    -0.411 C  
HETATM    2  C   UNL     1     -10.488  11.686  65.778  1.00  0.00    -0.263 C  
ENDROOT
BRANCH   2   3
HETATM    3  N   UNL     1     -10.178  10.625  66.765  1.00  0.00    -0.224 NA 
HETATM    4  H   UNL     1      -9.240  10.763  67.141  1.00  0.00     0.000 HD 
BRANCH   3   5
HETATM    5  C   UNL     1     -11.139  10.476  67.858  1.00  0.00    -0.304 C  
BRANCH   5   6
HETATM    6  C   UNL     1     -10.530  10.749  69.241  1.00  0.00    -0.243 C  
BRANCH   6   7
HETATM    7  C   UNL     1     -11.445  10.306  70.353  1.00  0.00    -0.415 A  
HETATM    8  C   UNL     1     -11.382   8.991  70.838  1.00  0.00    -0.351 A  
HETATM    9  C   UNL     1     -13.183   9.458  72.360  1.00  0.00    -0.403 A  
HETATM   10  C   UNL     1     -12.249   8.568  71.845  1.00  0.00    -0.411 A  
HETATM   11  O   UNL     1     -14.059   9.083  73.334  1.00  0.00    -1.231 OA 
HETATM   12  C   UNL     1     -13.254  10.768  71.895  1.00  0.00    -0.524 A  
HETATM   13  H   UNL     1     -14.697   9.691  73.686  1.00  0.00     0.000 HD 
HETATM   14  C   UNL     1     -12.388  11.192  70.888  1.00  0.00    -0.500 A  
ENDBRANCH   6   7
ENDBRANCH   5   6
ENDBRANCH   3   5
ENDBRANCH   2   3
BRANCH   2  15
HETATM   15  C   UNL     1     -11.763  12.449  66.262  1.00  0.00    -0.395 C  
HETATM   16  O   UNL     1     -12.709  12.567  65.190  1.00  0.00    -0.659 OA 
HETATM   17  H   UNL     1     -13.484  13.031  65.484  1.00  0.00     0.000 HD 
BRANCH  15  18
HETATM   18  C   UNL     1     -11.460  13.809  66.866  1.00  0.00    -0.368 A  
HETATM   19  C   UNL     1     -10.857  14.808  66.084  1.00  0.00    -0.321 A  
HETATM   20  C   UNL     1     -11.531  15.365  68.734  1.00  0.00    -0.352 A  
HETATM   21  H   UNL     1     -10.866  17.714  69.431  1.00  0.00     0.000 HD 
HETATM   22  C   UNL     1     -10.580  16.066  66.626  1.00  0.00    -0.297 A  
HETATM   23  C   UNL     1     -10.911  16.329  67.951  1.00  0.00    -0.330 A  
HETATM   24  C   UNL     1     -11.807  14.110  68.195  1.00  0.00    -0.387 A  
HETATM   25  O   UNL     1     -10.640  17.534  68.527  1.00  0.00    -0.357 OA 
ENDBRANCH  15  18
ENDBRANCH   2  15
TORSDOF 6
ENDMDL
MODEL       14
REMARK 921   NORMALIZED FREE ENERGY PREDICTED BY IDOCK:   -6.32 KCAL/MOL
REMARK 922        TOTAL FREE ENERGY PREDICTED BY IDOCK:   -9.57 KCAL/MOL
REMARK 923 INTER-LIGAND FREE ENERGY PREDICTED BY IDOCK:   -9.14 KCAL/MOL
REMARK 924 INTRA-LIGAND FREE ENERGY PREDICTED BY IDOCK:   -0.43 KCAL/MOL
REMARK 927      BINDING AFFINITY PREDICTED BY RF-SCORE:    0.00 PKD
ROOT
HETATM    1  C   UNL     1     -10.036  14.645  65.948  1.00  0.00    -0.352 C  
HETATM    2  C   UNL     1     -11.563  14.537  65.823  1.00  0.00    -0.347 C  
ENDROOT
BRANCH   2   3
HETATM    3  N   UNL     1     -12.189  14.160  67.112  1.00  0.00    -0.570 NA 
HETATM    4  H   UNL     1     -12.568  13.215  67.051  1.00  0.00     0.000 HD 
BRANCH   3   5
HETATM    5  C   UNL     1     -11.331  14.279  68.291  1.00  0.00    -0.289 C  
BRANCH   5   6
HETATM    6  C   UNL     1     -11.751  13.353  69.442  1.00  0.00    -0.382 C  
BRANCH   6   7
HETATM    7  C   UNL     1     -12.129  14.130  70.676  1.00  0.00    -0.421 A  
HETATM    8  C   UNL     1     -11.530  15.371  70.941  1.00  0.00    -0.396 A  
HETATM    9  C   UNL     1     -12.769  15.539  72.994  1.00  0.00    -0.454 A  
HETATM   10  C   UNL     1     -11.853  16.078  72.098  1.00  0.00    -0.623 A  
HETATM   11  O   UNL     1     -13.102  16.189  74.144  1.00  0.00    -0.920 OA 
HETATM   12  C   UNL     1     -13.377  14.313  72.743  1.00  0.00    -0.621 A  
HETATM   13  H   UNL     1     -13.728  15.821  74.756  1.00  0.00     0.000 HD 
HETATM   14  C   UNL     1     -13.055  13.605  71.586  1.00  0.00    -0.455 A  
ENDBRANCH   6   7
ENDBRANCH   5   6
ENDBRANCH   3   5
ENDBRANCH   2   3
BRANCH   2  15
HETATM   15  C   UNL     1     -11.995  13.495  64.743  1.00  0.00    -0.390 C  
HETATM   16  O   UNL     1     -13.333  13.041  64.996  1.00  0.00    -0.671 OA 
HETATM   17  H   UNL     1     -13.596  12.408  64.338  1.00  0.00     0.000 HD 
BRANCH  15  18
HETATM   18  C   UNL     1     -11.042  12.320  64.620  1.00  0.00    -0.358 A  
HETATM   19  C   UNL     1     -10.892  11.421  65.689  1.00  0.00    -0.280 A  
HETATM   20  C   UNL     1      -9.457  10.996  63.334  1.00  0.00    -0.331 A  
HETATM   21  H   UNL     1      -7.941   8.965  63.473  1.00  0.00     0.000 HD 
HETATM   22  C   UNL     1     -10.023  10.331  65.586  1.00  0.00    -0.347 A  
HETATM   23  C   UNL     1      -9.305  10.136  64.412  1.00  0.00    -0.293 A  
HETATM   24  C   UNL     1     -10.323  12.084  63.436  1.00  0.00    -0.468 A  
HETATM   25  O   UNL     1      -8.431   9.098  64.275  1.00  0.00    -0.175 OA 
ENDBRANCH  15  18
ENDBRANCH   2  15
TORSDOF 6
ENDMDL
MODEL       15
REMARK 921   NORMALIZED FREE ENERGY PREDICTED BY IDOCK:   -6.30 KCAL/MOL
REMARK 922        TOTAL FREE ENERGY PREDICTED BY IDOCK:   -9.55 KCAL/MOL
REMARK 923 INTER-LIGAND FREE ENERGY PREDICTED BY IDOCK:   -8.21 KCAL/MOL
REMARK 924 INTRA-LIGAND FREE ENERGY PREDICTED BY IDOCK:   -1.34 KCAL/MOL
REMARK 927      BINDING AFFINITY PREDICTED BY RF-SCORE:    0.00 PKD
ROOT
HETATM    1  C   UNL     1     -12.351  15.288  73.625  1.00  0.00    -0.693 C  
HETATM    2  C   UNL     1     -12.088  14.917  72.157  1.00  0.00    -0.344 C  
ENDROOT
BRANCH   2   3
HETATM    3  N   UNL     1     -11.934  16.123  71.311  1.00  0.00    -0.601 NA 
HETATM    4  H   UNL     1     -11.654  16.918  71.885  1.00  0.00     0.000 HD 
BRANCH   3   5
HETATM    5  C   UNL     1     -11.027  15.985  70.171  1.00  0.00    -0.367 C  
BRANCH   5   6
HETATM    6  C   UNL     1     -11.754  15.935  68.820  1.00  0.00    -0.355 C  
BRANCH   6   7
HETATM    7  C   UNL     1     -11.135  14.926  67.888  1.00  0.00    -0.304 A  
HETATM    8  C   UNL     1     -11.934  14.235  66.965  1.00  0.00    -0.463 A  
HETATM    9  C   UNL     1     -10.011  13.006  66.211  1.00  0.00    -0.283 A  
HETATM   10  C   UNL     1     -11.371  13.277  66.123  1.00  0.00    -0.335 A  
HETATM   11  O   UNL     1      -9.422  12.067  65.417  1.00  0.00    -0.387 OA 
HETATM   12  C   UNL     1      -9.203  13.687  67.116  1.00  0.00    -0.244 A  
HETATM   13  H   UNL     1      -8.492  11.882  65.477  1.00  0.00     0.000 HD 
HETATM   14  C   UNL     1      -9.765  14.646  67.959  1.00  0.00    -0.216 A  
ENDBRANCH   6   7
ENDBRANCH   5   6
ENDBRANCH   3   5
ENDBRANCH   2   3
BRANCH   2  15
HETATM   15  C   UNL     1     -13.230  14.037  71.556  1.00  0.00    -0.359 C  
HETATM   16  O   UNL     1     -14.378  14.056  72.416  1.00  0.00    -0.614 OA 
HETATM   17  H   UNL     1     -15.073  13.520  72.050  1.00  0.00     0.000 HD 
BRANCH  15  18
HETATM   18  C   UNL     1     -12.801  12.610  71.261  1.00  0.00    -0.344 A  
HETATM   19  C   UNL     1     -11.905  12.348  70.212  1.00  0.00    -0.315 A  
HETATM   20  C   UNL     1     -12.848  10.231  71.767  1.00  0.00    -0.565 A  
HETATM   21  H   UNL     1     -11.959   7.984  70.991  1.00  0.00     0.000 HD 
HETATM   22  C   UNL     1     -11.498  11.039  69.934  1.00  0.00    -0.400 A  
HETATM   23  C   UNL     1     -11.983   9.992  70.709  1.00  0.00    -0.335 A  
HETATM   24  C   UNL     1     -13.256  11.535  72.044  1.00  0.00    -0.443 A  
HETATM   25  O   UNL     1     -11.628   8.699  70.461  1.00  0.00    -0.243 OA 
ENDBRANCH  15  18
ENDBRANCH   2  15
TORSDOF 6
ENDMDL
MODEL       16
REMARK 921   NORMALIZED FREE ENERGY PREDICTED BY IDOCK:   -6.25 KCAL/MOL
REMARK 922        TOTAL FREE ENERGY PREDICTED BY IDOCK:   -9.48 KCAL/MOL
REMARK 923 INTER-LIGAND FREE ENERGY PREDICTED BY IDOCK:   -9.05 KCAL/MOL
REMARK 924 INTRA-LIGAND FREE ENERGY PREDICTED BY IDOCK:   -0.43 KCAL/MOL
REMARK 927      BINDING AFFINITY PREDICTED BY RF-SCORE:    0.00 PKD
ROOT
HETATM    1  C   UNL     1     -12.799  12.239  71.226  1.00  0.00    -0.337 C  
HETATM    2  C   UNL     1     -12.247  10.899  70.717  1.00  0.00    -0.383 C  
ENDROOT
BRANCH   2   3
HETATM    3  N   UNL     1     -12.323  10.805  69.240  1.00  0.00    -0.691 NA 
HETATM    4  H   UNL     1     -13.272  10.560  68.955  1.00  0.00     0.000 HD 
BRANCH   3   5
HETATM    5  C   UNL     1     -11.870  11.987  68.506  1.00  0.00    -0.311 C  
BRANCH   5   6
HETATM    6  C   UNL     1     -11.518  11.692  67.041  1.00  0.00    -0.336 C  
BRANCH   6   7
HETATM    7  C   UNL     1     -11.576  12.935  66.191  1.00  0.00    -0.423 A  
HETATM    8  C   UNL     1     -12.190  12.900  64.930  1.00  0.00    -0.504 A  
HETATM    9  C   UNL     1     -11.623  15.210  64.583  1.00  0.00    -0.357 A  
HETATM   10  C   UNL     1     -12.217  14.039  64.127  1.00  0.00    -0.433 A  
HETATM   11  O   UNL     1     -11.614  16.343  63.824  1.00  0.00    -1.605 OA 
HETATM   12  C   UNL     1     -11.017  15.264  65.834  1.00  0.00    -0.325 A  
HETATM   13  H   UNL     1     -11.209  17.143  64.136  1.00  0.00     0.000 HD 
HETATM   14  C   UNL     1     -10.989  14.125  66.638  1.00  0.00    -0.303 A  
ENDBRANCH   6   7
ENDBRANCH   5   6
ENDBRANCH   3   5
ENDBRANCH   2   3
BRANCH   2  15
HETATM   15  C   UNL     1     -13.005   9.677  71.327  1.00  0.00    -0.360 C  
HETATM   16  O   UNL     1     -13.684  10.062  72.530  1.00  0.00    -0.632 OA 
HETATM   17  H   UNL     1     -14.145   9.318  72.901  1.00  0.00     0.000 HD 
BRANCH  15  18
HETATM   18  C   UNL     1     -12.111   8.473  71.574  1.00  0.00    -0.351 A  
HETATM   19  C   UNL     1     -10.921   8.620  72.305  1.00  0.00    -0.392 A  
HETATM   20  C   UNL     1     -11.643   6.096  71.357  1.00  0.00    -0.283 A  
HETATM   21  H   UNL     1      -9.921   4.318  71.920  1.00  0.00     0.000 HD 
HETATM   22  C   UNL     1     -10.094   7.519  72.545  1.00  0.00    -0.262 A  
HETATM   23  C   UNL     1     -10.458   6.269  72.059  1.00  0.00    -0.207 A  
HETATM   24  C   UNL     1     -12.468   7.193  71.116  1.00  0.00    -0.400 A  
HETATM   25  O   UNL     1      -9.672   5.172  72.252  1.00  0.00    -0.156 OA 
ENDBRANCH  15  18
ENDBRANCH   2  15
TORSDOF 6
ENDMDL
MODEL       17
REMARK 921   NORMALIZED FREE ENERGY PREDICTED BY IDOCK:   -6.23 KCAL/MOL
REMARK 922        TOTAL FREE ENERGY PREDICTED BY IDOCK:   -9.46 KCAL/MOL
REMARK 923 INTER-LIGAND FREE ENERGY PREDICTED BY IDOCK:   -8.65 KCAL/MOL
REMARK 924 INTRA-LIGAND FREE ENERGY PREDICTED BY IDOCK:   -0.82 KCAL/MOL
REMARK 927      BINDING AFFINITY PREDICTED BY RF-SCORE:    0.00 PKD
ROOT
HETATM    1  C   UNL     1      -7.383  10.593  66.150  1.00  0.00    -0.138 C  
HETATM    2  C   UNL     1      -8.721  10.231  66.811  1.00  0.00    -0.126 C  
ENDROOT
BRANCH   2   3
HETATM    3  N   UNL     1      -8.582   9.070  67.720  1.00  0.00    -0.121 NA 
HETATM    4  H   UNL     1      -7.716   9.146  68.253  1.00  0.00     0.000 HD 
BRANCH   3   5
HETATM    5  C   UNL     1      -9.707   8.836  68.626  1.00  0.00    -0.162 C  
BRANCH   5   6
HETATM    6  C   UNL     1     -10.199  10.113  69.323  1.00  0.00    -0.238 C  
BRANCH   6   7
HETATM    7  C   UNL     1     -11.274   9.818  70.337  1.00  0.00    -0.362 A  
HETATM    8  C   UNL     1     -12.168  10.825  70.731  1.00  0.00    -0.480 A  
HETATM    9  C   UNL     1     -13.220   9.301  72.263  1.00  0.00    -0.460 A  
HETATM   10  C   UNL     1     -13.144  10.565  71.692  1.00  0.00    -0.551 A  
HETATM   11  O   UNL     1     -14.149   9.008  73.216  1.00  0.00    -1.218 OA 
HETATM   12  C   UNL     1     -12.346   8.289  71.878  1.00  0.00    -0.379 A  
HETATM   13  H   UNL     1     -14.201   8.143  73.607  1.00  0.00     0.000 HD 
HETATM   14  C   UNL     1     -11.369   8.547  70.917  1.00  0.00    -0.304 A  
ENDBRANCH   6   7
ENDBRANCH   5   6
ENDBRANCH   3   5
ENDBRANCH   2   3
BRANCH   2  15
HETATM   15  C   UNL     1      -9.831   9.905  65.762  1.00  0.00    -0.287 C  
HETATM   16  O   UNL     1      -9.275   9.175  64.659  1.00  0.00    -0.434 OA 
HETATM   17  H   UNL     1      -9.950   8.976  64.021  1.00  0.00     0.000 HD 
BRANCH  15  18
HETATM   18  C   UNL     1     -10.580  11.132  65.273  1.00  0.00    -0.303 A  
HETATM   19  C   UNL     1     -11.103  12.052  66.197  1.00  0.00    -0.367 A  
HETATM   20  C   UNL     1     -11.417  12.528  63.465  1.00  0.00    -0.570 A  
HETATM   21  H   UNL     1     -12.736  14.646  62.994  1.00  0.00     0.000 HD 
HETATM   22  C   UNL     1     -11.789  13.189  65.759  1.00  0.00    -0.442 A  
HETATM   23  C   UNL     1     -11.948  13.410  64.396  1.00  0.00    -0.411 A  
HETATM   24  C   UNL     1     -10.734  11.394  63.900  1.00  0.00    -0.462 A  
HETATM   25  O   UNL     1     -12.627  14.494  63.925  1.00  0.00    -0.827 OA 
ENDBRANCH  15  18
ENDBRANCH   2  15
TORSDOF 6
ENDMDL
MODEL       18
REMARK 921   NORMALIZED FREE ENERGY PREDICTED BY IDOCK:   -6.23 KCAL/MOL
REMARK 922        TOTAL FREE ENERGY PREDICTED BY IDOCK:   -9.46 KCAL/MOL
REMARK 923 INTER-LIGAND FREE ENERGY PREDICTED BY IDOCK:   -8.21 KCAL/MOL
REMARK 924 INTRA-LIGAND FREE ENERGY PREDICTED BY IDOCK:   -1.25 KCAL/MOL
REMARK 927      BINDING AFFINITY PREDICTED BY RF-SCORE:    0.00 PKD
ROOT
HETATM    1  C   UNL     1     -11.666  12.728  66.263  1.00  0.00    -0.460 C  
HETATM    2  C   UNL     1     -11.200  12.962  67.708  1.00  0.00    -0.280 C  
ENDROOT
BRANCH   2   3
HETATM    3  N   UNL     1     -10.353  14.173  67.817  1.00  0.00    -0.240 NA 
HETATM    4  H   UNL     1     -10.093  14.501  66.887  1.00  0.00     0.000 HD 
BRANCH   3   5
HETATM    5  C   UNL     1     -10.921  15.274  68.595  1.00  0.00    -0.257 C  
BRANCH   5   6
HETATM    6  C   UNL     1     -12.388  15.047  68.987  1.00  0.00    -0.056 C  
BRANCH   6   7
HETATM    7  C   UNL     1     -12.629  15.335  70.446  1.00  0.00    -0.421 A  
HETATM    8  C   UNL     1     -11.630  15.944  71.220  1.00  0.00    -0.509 A  
HETATM    9  C   UNL     1     -13.040  15.807  73.161  1.00  0.00    -0.564 A  
HETATM   10  C   UNL     1     -11.836  16.184  72.577  1.00  0.00    -0.630 A  
HETATM   11  O   UNL     1     -13.279  16.010  74.487  1.00  0.00    -0.782 OA 
HETATM   12  C   UNL     1     -14.044  15.209  72.406  1.00  0.00    -0.593 A  
HETATM   13  H   UNL     1     -14.101  15.752  74.887  1.00  0.00     0.000 HD 
HETATM   14  C   UNL     1     -13.838  14.968  71.048  1.00  0.00    -0.379 A  
ENDBRANCH   6   7
ENDBRANCH   5   6
ENDBRANCH   3   5
ENDBRANCH   2   3
BRANCH   2  15
HETATM   15  C   UNL     1     -10.398  11.748  68.274  1.00  0.00    -0.206 C  
HETATM   16  O   UNL     1     -10.161  10.781  67.241  1.00  0.00    -0.189 OA 
HETATM   17  H   UNL     1      -9.673  10.042  67.586  1.00  0.00     0.000 HD 
BRANCH  15  18
HETATM   18  C   UNL     1     -11.055  11.098  69.480  1.00  0.00    -0.311 A  
HETATM   19  C   UNL     1     -12.156  11.715  70.098  1.00  0.00    -0.414 A  
HETATM   20  C   UNL     1     -11.226   9.273  71.078  1.00  0.00    -0.392 A  
HETATM   21  H   UNL     1     -12.528   8.483  73.109  1.00  0.00     0.000 HD 
HETATM   22  C   UNL     1     -12.774  11.124  71.203  1.00  0.00    -0.510 A  
HETATM   23  C   UNL     1     -12.296   9.912  71.689  1.00  0.00    -0.406 A  
HETATM   24  C   UNL     1     -10.609   9.861  69.976  1.00  0.00    -0.335 A  
HETATM   25  O   UNL     1     -12.855   9.310  72.777  1.00  0.00    -0.276 OA 
ENDBRANCH  15  18
ENDBRANCH   2  15
TORSDOF 6
ENDMDL
MODEL       19
REMARK 921   NORMALIZED FREE ENERGY PREDICTED BY IDOCK:   -6.23 KCAL/MOL
REMARK 922        TOTAL FREE ENERGY PREDICTED BY IDOCK:   -9.46 KCAL/MOL
REMARK 923 INTER-LIGAND FREE ENERGY PREDICTED BY IDOCK:   -8.55 KCAL/MOL
REMARK 924 INTRA-LIGAND FREE ENERGY PREDICTED BY IDOCK:   -0.91 KCAL/MOL
REMARK 927      BINDING AFFINITY PREDICTED BY RF-SCORE:    0.00 PKD
ROOT
HETATM    1  C   UNL     1     -10.765  10.957  65.137  1.00  0.00    -0.209 C  
HETATM    2  C   UNL     1     -11.134  11.828  66.348  1.00  0.00    -0.307 C  
ENDROOT
BRANCH   2   3
HETATM    3  N   UNL     1     -11.623  11.006  67.480  1.00  0.00    -0.543 NA 
HETATM    4  H   UNL     1     -11.615  10.019  67.222  1.00  0.00     0.000 HD 
BRANCH   3   5
HETATM    5  C   UNL     1     -10.923  11.197  68.750  1.00  0.00    -0.219 C  
BRANCH   5   6
HETATM    6  C   UNL     1     -11.783  10.853  69.974  1.00  0.00    -0.427 C  
BRANCH   6   7
HETATM    7  C   UNL     1     -12.369  12.086  70.612  1.00  0.00    -0.394 A  
HETATM    8  C   UNL     1     -12.105  13.354  70.072  1.00  0.00    -0.404 A  
HETATM    9  C   UNL     1     -13.390  14.377  71.827  1.00  0.00    -0.366 A  
HETATM   10  C   UNL     1     -12.619  14.500  70.677  1.00  0.00    -0.416 A  
HETATM   11  O   UNL     1     -13.899  15.471  72.459  1.00  0.00    -0.517 OA 
HETATM   12  C   UNL     1     -13.667  13.127  72.371  1.00  0.00    -0.640 A  
HETATM   13  H   UNL     1     -14.427  15.387  73.245  1.00  0.00     0.000 HD 
HETATM   14  C   UNL     1     -13.154  11.980  71.767  1.00  0.00    -0.460 A  
ENDBRANCH   6   7
ENDBRANCH   5   6
ENDBRANCH   3   5
ENDBRANCH   2   3
BRANCH   2  15
HETATM   15  C   UNL     1     -12.226  12.889  66.003  1.00  0.00    -0.366 C  
HETATM   16  O   UNL     1     -12.919  12.518  64.802  1.00  0.00    -0.827 OA 
HETATM   17  H   UNL     1     -13.584  13.164  64.592  1.00  0.00     0.000 HD 
BRANCH  15  18
HETATM   18  C   UNL     1     -11.683  14.304  65.897  1.00  0.00    -0.375 A  
HETATM   19  C   UNL     1     -11.098  14.917  67.016  1.00  0.00    -0.338 A  
HETATM   20  C   UNL     1     -11.209  16.304  64.597  1.00  0.00    -0.264 A  
HETATM   21  H   UNL     1     -10.241  18.644  64.773  1.00  0.00     0.000 HD 
HETATM   22  C   UNL     1     -10.589  16.216  66.930  1.00  0.00    -0.283 A  
HETATM   23  C   UNL     1     -10.659  16.901  65.722  1.00  0.00    -0.230 A  
HETATM   24  C   UNL     1     -11.718  15.010  64.682  1.00  0.00    -0.383 A  
HETATM   25  O   UNL     1     -10.193  18.176  65.598  1.00  0.00    -0.578 OA 
ENDBRANCH  15  18
ENDBRANCH   2  15
TORSDOF 6
ENDMDL
MODEL       20
REMARK 921   NORMALIZED FREE ENERGY PREDICTED BY IDOCK:   -6.22 KCAL/MOL
REMARK 922        TOTAL FREE ENERGY PREDICTED BY IDOCK:   -9.44 KCAL/MOL
REMARK 923 INTER-LIGAND FREE ENERGY PREDICTED BY IDOCK:   -8.98 KCAL/MOL
REMARK 924 INTRA-LIGAND FREE ENERGY PREDICTED BY IDOCK:   -0.46 KCAL/MOL
REMARK 927      BINDING AFFINITY PREDICTED BY RF-SCORE:    0.00 PKD
ROOT
HETATM    1  C   UNL     1     -13.331  11.661  71.838  1.00  0.00    -0.403 C  
HETATM    2  C   UNL     1     -12.590  10.442  71.268  1.00  0.00    -0.419 C  
ENDROOT
BRANCH   2   3
HETATM    3  N   UNL     1     -12.580  10.455  69.787  1.00  0.00    -0.560 NA 
HETATM    4  H   UNL     1     -13.536  10.431  69.432  1.00  0.00     0.000 HD 
BRANCH   3   5
HETATM    5  C   UNL     1     -11.845  11.559  69.168  1.00  0.00    -0.340 C  
BRANCH   5   6
HETATM    6  C   UNL     1     -11.126  11.157  67.872  1.00  0.00    -0.331 C  
BRANCH   6   7
HETATM    7  C   UNL     1     -11.446  12.099  66.740  1.00  0.00    -0.418 A  
HETATM    8  C   UNL     1     -12.148  13.288  66.986  1.00  0.00    -0.375 A  
HETATM    9  C   UNL     1     -12.104  13.809  64.641  1.00  0.00    -0.421 A  
HETATM   10  C   UNL     1     -12.474  14.146  65.937  1.00  0.00    -0.479 A  
HETATM   11  O   UNL     1     -12.415  14.612  63.584  1.00  0.00    -1.070 OA 
HETATM   12  C   UNL     1     -11.401  12.638  64.380  1.00  0.00    -0.393 A  
HETATM   13  H   UNL     1     -12.161  14.382  62.698  1.00  0.00     0.000 HD 
HETATM   14  C   UNL     1     -11.074  11.778  65.428  1.00  0.00    -0.336 A  
ENDBRANCH   6   7
ENDBRANCH   5   6
ENDBRANCH   3   5
ENDBRANCH   2   3
BRANCH   2  15
HETATM   15  C   UNL     1     -13.216   9.093  71.744  1.00  0.00    -0.396 C  
HETATM   16  O   UNL     1     -13.954   9.288  72.959  1.00  0.00    -0.978 OA 
HETATM   17  H   UNL     1     -14.336   8.467  73.248  1.00  0.00     0.000 HD 
BRANCH  15  18
HETATM   18  C   UNL     1     -12.199   7.977  71.904  1.00  0.00    -0.359 A  
HETATM   19  C   UNL     1     -12.162   6.921  70.979  1.00  0.00    -0.427 A  
HETATM   20  C   UNL     1     -10.323   6.966  73.078  1.00  0.00    -0.269 A  
HETATM   21  H   UNL     1      -8.788   4.945  73.068  1.00  0.00     0.000 HD 
HETATM   22  C   UNL     1     -11.226   5.891  71.111  1.00  0.00    -0.281 A  
HETATM   23  C   UNL     1     -10.321   5.919  72.167  1.00  0.00    -0.201 A  
HETATM   24  C   UNL     1     -11.257   7.993  72.947  1.00  0.00    -0.389 A  
HETATM   25  O   UNL     1      -9.405   4.926  72.347  1.00  0.00    -0.131 OA 
ENDBRANCH  15  18
ENDBRANCH   2  15
TORSDOF 6
ENDMDL
MODEL       21
REMARK 921   NORMALIZED FREE ENERGY PREDICTED BY IDOCK:   -6.18 KCAL/MOL
REMARK 922        TOTAL FREE ENERGY PREDICTED BY IDOCK:   -9.39 KCAL/MOL
REMARK 923 INTER-LIGAND FREE ENERGY PREDICTED BY IDOCK:   -8.66 KCAL/MOL
REMARK 924 INTRA-LIGAND FREE ENERGY PREDICTED BY IDOCK:   -0.73 KCAL/MOL
REMARK 927      BINDING AFFINITY PREDICTED BY RF-SCORE:    0.00 PKD
ROOT
HETATM    1  C   UNL     1      -8.115   9.163  68.046  1.00  0.00    -0.105 C  
HETATM    2  C   UNL     1      -9.554   9.184  68.581  1.00  0.00    -0.152 C  
ENDROOT
BRANCH   2   3
HETATM    3  N   UNL     1     -10.500   9.725  67.578  1.00  0.00    -0.235 NA 
HETATM    4  H   UNL     1     -11.461   9.557  67.879  1.00  0.00     0.000 HD 
BRANCH   3   5
HETATM    5  C   UNL     1     -10.323  11.137  67.238  1.00  0.00    -0.208 C  
BRANCH   5   6
HETATM    6  C   UNL     1     -11.626  11.946  67.308  1.00  0.00    -0.364 C  
BRANCH   6   7
HETATM    7  C   UNL     1     -11.605  13.124  66.369  1.00  0.00    -0.394 A  
HETATM    8  C   UNL     1     -10.795  14.235  66.646  1.00  0.00    -0.301 A  
HETATM    9  C   UNL     1     -11.617  15.335  64.673  1.00  0.00    -0.333 A  
HETATM   10  C   UNL     1     -10.798  15.340  65.796  1.00  0.00    -0.363 A  
HETATM   11  O   UNL     1     -11.661  16.400  63.824  1.00  0.00    -1.605 OA 
HETATM   12  C   UNL     1     -12.420  14.238  64.380  1.00  0.00    -0.328 A  
HETATM   13  H   UNL     1     -12.220  16.397  63.056  1.00  0.00     0.000 HD 
HETATM   14  C   UNL     1     -12.419  13.132  65.229  1.00  0.00    -0.550 A  
ENDBRANCH   6   7
ENDBRANCH   5   6
ENDBRANCH   3   5
ENDBRANCH   2   3
BRANCH   2  15
HETATM   15  C   UNL     1      -9.687  10.028  69.889  1.00  0.00    -0.203 C  
HETATM   16  O   UNL     1      -8.514   9.876  70.701  1.00  0.00    -0.372 OA 
HETATM   17  H   UNL     1      -8.595  10.390  71.496  1.00  0.00     0.000 HD 
BRANCH  15  18
HETATM   18  C   UNL     1     -10.940   9.713  70.687  1.00  0.00    -0.386 A  
HETATM   19  C   UNL     1     -11.021   8.521  71.428  1.00  0.00    -0.329 A  
HETATM   20  C   UNL     1     -13.161  10.313  71.479  1.00  0.00    -0.534 A  
HETATM   21  H   UNL     1     -15.100   9.469  72.884  1.00  0.00     0.000 HD 
HETATM   22  C   UNL     1     -12.166   8.223  72.172  1.00  0.00    -0.418 A  
HETATM   23  C   UNL     1     -13.230   9.118  72.182  1.00  0.00    -0.458 A  
HETATM   24  C   UNL     1     -12.020  10.611  70.735  1.00  0.00    -0.477 A  
HETATM   25  O   UNL     1     -14.373   8.858  72.877  1.00  0.00    -0.548 OA 
ENDBRANCH  15  18
ENDBRANCH   2  15
TORSDOF 6
ENDMDL
MODEL       22
REMARK 921   NORMALIZED FREE ENERGY PREDICTED BY IDOCK:   -6.15 KCAL/MOL
REMARK 922        TOTAL FREE ENERGY PREDICTED BY IDOCK:   -9.35 KCAL/MOL
REMARK 923 INTER-LIGAND FREE ENERGY PREDICTED BY IDOCK:   -8.68 KCAL/MOL
REMARK 924 INTRA-LIGAND FREE ENERGY PREDICTED BY IDOCK:   -0.67 KCAL/MOL
REMARK 927      BINDING AFFINITY PREDICTED BY RF-SCORE:    0.00 PKD
ROOT
HETATM    1  C   UNL     1     -12.628  13.209  65.011  1.00  0.00    -0.499 C  
HETATM    2  C   UNL     1     -11.980  13.313  66.400  1.00  0.00    -0.410 C  
ENDROOT
BRANCH   2   3
HETATM    3  N   UNL     1     -12.044  14.695  66.929  1.00  0.00    -0.434 NA 
HETATM    4  H   UNL     1     -13.004  15.038  66.890  1.00  0.00     0.000 HD 
BRANCH   3   5
HETATM    5  C   UNL     1     -11.499  14.884  68.274  1.00  0.00    -0.324 C  
BRANCH   5   6
HETATM    6  C   UNL     1     -12.009  13.849  69.286  1.00  0.00    -0.402 C  
BRANCH   6   7
HETATM    7  C   UNL     1     -12.357  14.482  70.608  1.00  0.00    -0.407 A  
HETATM    8  C   UNL     1     -11.545  15.494  71.142  1.00  0.00    -0.446 A  
HETATM    9  C   UNL     1     -12.952  15.607  73.087  1.00  0.00    -0.535 A  
HETATM   10  C   UNL     1     -11.845  16.060  72.380  1.00  0.00    -0.639 A  
HETATM   11  O   UNL     1     -13.274  16.122  74.307  1.00  0.00    -0.915 OA 
HETATM   12  C   UNL     1     -13.772  14.609  72.569  1.00  0.00    -0.572 A  
HETATM   13  H   UNL     1     -14.030  15.812  74.791  1.00  0.00     0.000 HD 
HETATM   14  C   UNL     1     -13.473  14.042  71.331  1.00  0.00    -0.360 A  
ENDBRANCH   6   7
ENDBRANCH   5   6
ENDBRANCH   3   5
ENDBRANCH   2   3
BRANCH   2  15
HETATM   15  C   UNL     1     -10.485  12.859  66.391  1.00  0.00    -0.267 C  
HETATM   16  O   UNL     1      -9.817  13.369  65.229  1.00  0.00    -0.497 OA 
HETATM   17  H   UNL     1      -8.907  13.093  65.223  1.00  0.00     0.000 HD 
BRANCH  15  18
HETATM   18  C   UNL     1     -10.310  11.354  66.496  1.00  0.00    -0.277 A  
HETATM   19  C   UNL     1     -10.756  10.672  67.641  1.00  0.00    -0.315 A  
HETATM   20  C   UNL     1      -9.591   9.229  65.556  1.00  0.00    -0.291 A  
HETATM   21  H   UNL     1      -9.426   6.748  66.066  1.00  0.00     0.000 HD 
HETATM   22  C   UNL     1     -10.606   9.287  67.748  1.00  0.00    -0.307 A  
HETATM   23  C   UNL     1     -10.015   8.579  66.707  1.00  0.00    -0.281 A  
HETATM   24  C   UNL     1      -9.739  10.611  65.449  1.00  0.00    -0.306 A  
HETATM   25  O   UNL     1      -9.830   7.231  66.776  1.00  0.00    -0.197 OA 
ENDBRANCH  15  18
ENDBRANCH   2  15
TORSDOF 6
ENDMDL
MODEL       23
REMARK 921   NORMALIZED FREE ENERGY PREDICTED BY IDOCK:   -6.13 KCAL/MOL
REMARK 922        TOTAL FREE ENERGY PREDICTED BY IDOCK:   -9.32 KCAL/MOL
REMARK 923 INTER-LIGAND FREE ENERGY PREDICTED BY IDOCK:   -8.19 KCAL/MOL
REMARK 924 INTRA-LIGAND FREE ENERGY PREDICTED BY IDOCK:   -1.13 KCAL/MOL
REMARK 927      BINDING AFFINITY PREDICTED BY RF-SCORE:    0.00 PKD
ROOT
HETATM    1  C   UNL     1     -11.216  16.335  69.305  1.00  0.00    -0.312 C  
HETATM    2  C   UNL     1     -10.699  14.941  69.690  1.00  0.00    -0.229 C  
ENDROOT
BRANCH   2   3
HETATM    3  N   UNL     1      -9.247  14.808  69.428  1.00  0.00    -0.411 NA 
HETATM    4  H   UNL     1      -9.041  13.871  69.082  1.00  0.00     0.000 HD 
BRANCH   3   5
HETATM    5  C   UNL     1      -8.671  15.810  68.532  1.00  0.00    -0.184 C  
BRANCH   5   6
HETATM    6  C   UNL     1      -8.251  15.237  67.171  1.00  0.00    -0.250 C  
BRANCH   6   7
HETATM    7  C   UNL     1      -9.428  15.076  66.244  1.00  0.00    -0.342 A  
HETATM    8  C   UNL     1      -9.841  13.797  65.842  1.00  0.00    -0.279 A  
HETATM    9  C   UNL     1     -11.558  14.773  64.473  1.00  0.00    -0.361 A  
HETATM   10  C   UNL     1     -10.909  13.645  64.959  1.00  0.00    -0.358 A  
HETATM   11  O   UNL     1     -12.597  14.671  63.598  1.00  0.00    -1.017 OA 
HETATM   12  C   UNL     1     -11.166  16.049  64.868  1.00  0.00    -0.319 A  
HETATM   13  H   UNL     1     -13.042  15.443  63.266  1.00  0.00     0.000 HD 
HETATM   14  C   UNL     1     -10.098  16.202  65.751  1.00  0.00    -0.390 A  
ENDBRANCH   6   7
ENDBRANCH   5   6
ENDBRANCH   3   5
ENDBRANCH   2   3
BRANCH   2  15
HETATM   15  C   UNL     1     -11.444  13.802  68.925  1.00  0.00    -0.304 C  
HETATM   16  O   UNL     1     -12.477  14.351  68.095  1.00  0.00    -0.579 OA 
HETATM   17  H   UNL     1     -12.930  13.658  67.629  1.00  0.00     0.000 HD 
BRANCH  15  18
HETATM   18  C   UNL     1     -12.002  12.724  69.838  1.00  0.00    -0.368 A  
HETATM   19  C   UNL     1     -11.875  11.370  69.487  1.00  0.00    -0.426 A  
HETATM   20  C   UNL     1     -13.120  12.050  71.891  1.00  0.00    -0.475 A  
HETATM   21  H   UNL     1     -13.958  10.017  73.159  1.00  0.00     0.000 HD 
HETATM   22  C   UNL     1     -12.378  10.368  70.322  1.00  0.00    -0.327 A  
HETATM   23  C   UNL     1     -13.006  10.720  71.512  1.00  0.00    -0.456 A  
HETATM   24  C   UNL     1     -12.619  13.049  71.058  1.00  0.00    -0.386 A  
HETATM   25  O   UNL     1     -13.529   9.777  72.347  1.00  0.00    -0.413 OA 
ENDBRANCH  15  18
ENDBRANCH   2  15
TORSDOF 6
ENDMDL
MODEL       24
REMARK 921   NORMALIZED FREE ENERGY PREDICTED BY IDOCK:   -6.13 KCAL/MOL
REMARK 922        TOTAL FREE ENERGY PREDICTED BY IDOCK:   -9.32 KCAL/MOL
REMARK 923 INTER-LIGAND FREE ENERGY PREDICTED BY IDOCK:   -8.78 KCAL/MOL
REMARK 924 INTRA-LIGAND FREE ENERGY PREDICTED BY IDOCK:   -0.54 KCAL/MOL
REMARK 927      BINDING AFFINITY PREDICTED BY RF-SCORE:    0.00 PKD
ROOT
HETATM    1  C   UNL     1     -12.008  16.056  72.650  1.00  0.00    -0.646 C  
HETATM    2  C   UNL     1     -11.598  15.639  71.229  1.00  0.00    -0.428 C  
ENDROOT
BRANCH   2   3
HETATM    3  N   UNL     1     -11.226  16.811  70.404  1.00  0.00    -0.386 NA 
HETATM    4  H   UNL     1     -10.831  17.542  70.996  1.00  0.00     0.000 HD 
BRANCH   3   5
HETATM    5  C   UNL     1     -10.328  16.537  69.282  1.00  0.00    -0.318 C  
BRANCH   5   6
HETATM    6  C   UNL     1     -10.731  17.263  67.991  1.00  0.00    -0.367 C  
BRANCH   6   7
HETATM    7  C   UNL     1      -9.774  18.376  67.652  1.00  0.00    -0.306 A  
HETATM    8  C   UNL     1      -9.921  19.095  66.457  1.00  0.00    -0.448 A  
HETATM    9  C   UNL     1      -7.965  20.388  66.985  1.00  0.00    -0.312 A  
HETATM   10  C   UNL     1      -9.019  20.104  66.124  1.00  0.00    -0.273 A  
HETATM   11  O   UNL     1      -7.052  21.357  66.693  1.00  0.00    -0.740 OA 
HETATM   12  C   UNL     1      -7.810  19.690  68.179  1.00  0.00    -0.346 A  
HETATM   13  H   UNL     1      -6.332  21.551  67.281  1.00  0.00     0.000 HD 
HETATM   14  C   UNL     1      -8.711  18.680  68.512  1.00  0.00    -0.362 A  
ENDBRANCH   6   7
ENDBRANCH   5   6
ENDBRANCH   3   5
ENDBRANCH   2   3
BRANCH   2  15
HETATM   15  C   UNL     1     -12.731  14.857  70.492  1.00  0.00    -0.347 C  
HETATM   16  O   UNL     1     -14.018  15.332  70.912  1.00  0.00    -0.717 OA 
HETATM   17  H   UNL     1     -14.708  14.857  70.463  1.00  0.00     0.000 HD 
BRANCH  15  18
HETATM   18  C   UNL     1     -12.633  13.350  70.657  1.00  0.00    -0.325 A  
HETATM   19  C   UNL     1     -11.851  12.595  69.768  1.00  0.00    -0.379 A  
HETATM   20  C   UNL     1     -13.178  11.306  71.858  1.00  0.00    -0.491 A  
HETATM   21  H   UNL     1     -12.825   8.792  71.828  1.00  0.00     0.000 HD 
HETATM   22  C   UNL     1     -11.747  11.208  69.913  1.00  0.00    -0.433 A  
HETATM   23  C   UNL     1     -12.421  10.576  70.952  1.00  0.00    -0.390 A  
HETATM   24  C   UNL     1     -13.283  12.688  71.713  1.00  0.00    -0.457 A  
HETATM   25  O   UNL     1     -12.364   9.224  71.119  1.00  0.00    -0.307 OA 
ENDBRANCH  15  18
ENDBRANCH   2  15
TORSDOF 6
ENDMDL
MODEL       25
REMARK 921   NORMALIZED FREE ENERGY PREDICTED BY IDOCK:   -6.11 KCAL/MOL
REMARK 922        TOTAL FREE ENERGY PREDICTED BY IDOCK:   -9.30 KCAL/MOL
REMARK 923 INTER-LIGAND FREE ENERGY PREDICTED BY IDOCK:   -8.58 KCAL/MOL
REMARK 924 INTRA-LIGAND FREE ENERGY PREDICTED BY IDOCK:   -0.72 KCAL/MOL
REMARK 927      BINDING AFFINITY PREDICTED BY RF-SCORE:    0.00 PKD
ROOT
HETATM    1  C   UNL     1     -10.620   9.970  66.285  1.00  0.00    -0.115 C  
HETATM    2  C   UNL     1      -9.943  11.182  66.941  1.00  0.00    -0.198 C  
ENDROOT
BRANCH   2   3
HETATM    3  N   UNL     1      -9.088  10.776  68.081  1.00  0.00    -0.146 NA 
HETATM    4  H   UNL     1      -9.027  11.537  68.758  1.00  0.00     0.000 HD 
BRANCH   3   5
HETATM    5  C   UNL     1      -9.477   9.537  68.755  1.00  0.00    -0.147 C  
BRANCH   5   6
HETATM    6  C   UNL     1      -9.314   9.601  70.281  1.00  0.00    -0.292 C  
BRANCH   6   7
HETATM    7  C   UNL     1     -10.635   9.452  70.991  1.00  0.00    -0.400 A  
HETATM    8  C   UNL     1     -10.897   8.310  71.762  1.00  0.00    -0.332 A  
HETATM    9  C   UNL     1     -13.101   9.137  72.249  1.00  0.00    -0.438 A  
HETATM   10  C   UNL     1     -12.130   8.154  72.395  1.00  0.00    -0.406 A  
HETATM   11  O   UNL     1     -14.324   9.018  72.838  1.00  0.00    -1.047 OA 
HETATM   12  C   UNL     1     -12.854  10.279  71.494  1.00  0.00    -0.557 A  
HETATM   13  H   UNL     1     -14.988   9.690  72.739  1.00  0.00     0.000 HD 
HETATM   14  C   UNL     1     -11.622  10.436  70.860  1.00  0.00    -0.428 A  
ENDBRANCH   6   7
ENDBRANCH   5   6
ENDBRANCH   3   5
ENDBRANCH   2   3
BRANCH   2  15
HETATM   15  C   UNL     1     -10.979  12.233  67.453  1.00  0.00    -0.253 C  
HETATM   16  O   UNL     1     -12.279  11.636  67.569  1.00  0.00    -0.501 OA 
HETATM   17  H   UNL     1     -12.909  12.275  67.881  1.00  0.00     0.000 HD 
BRANCH  15  18
HETATM   18  C   UNL     1     -11.037  13.489  66.602  1.00  0.00    -0.309 A  
HETATM   19  C   UNL     1     -10.300  14.625  66.974  1.00  0.00    -0.263 A  
HETATM   20  C   UNL     1     -11.829  14.689  64.640  1.00  0.00    -0.459 A  
HETATM   21  H   UNL     1     -11.726  16.941  63.473  1.00  0.00     0.000 HD 
HETATM   22  C   UNL     1     -10.340  15.785  66.195  1.00  0.00    -0.333 A  
HETATM   23  C   UNL     1     -11.113  15.809  65.040  1.00  0.00    -0.370 A  
HETATM   24  C   UNL     1     -11.791  13.532  65.416  1.00  0.00    -0.379 A  
HETATM   25  O   UNL     1     -11.197  16.925  64.261  1.00  0.00    -1.204 OA 
ENDBRANCH  15  18
ENDBRANCH   2  15
TORSDOF 6
ENDMDL
MODEL       26
REMARK 921   NORMALIZED FREE ENERGY PREDICTED BY IDOCK:   -6.11 KCAL/MOL
REMARK 922        TOTAL FREE ENERGY PREDICTED BY IDOCK:   -9.30 KCAL/MOL
REMARK 923 INTER-LIGAND FREE ENERGY PREDICTED BY IDOCK:   -7.84 KCAL/MOL
REMARK 924 INTRA-LIGAND FREE ENERGY PREDICTED BY IDOCK:   -1.46 KCAL/MOL
REMARK 927      BINDING AFFINITY PREDICTED BY RF-SCORE:    0.00 PKD
ROOT
HETATM    1  C   UNL     1      -9.375  11.339  66.935  1.00  0.00    -0.190 C  
HETATM    2  C   UNL     1      -9.703  11.523  68.424  1.00  0.00    -0.202 C  
ENDROOT
BRANCH   2   3
HETATM    3  N   UNL     1      -8.598  11.046  69.288  1.00  0.00    -0.379 NA 
HETATM    4  H   UNL     1      -8.677  11.462  70.216  1.00  0.00     0.000 HD 
BRANCH   3   5
HETATM    5  C   UNL     1      -8.464   9.594  69.401  1.00  0.00    -0.156 C  
BRANCH   5   6
HETATM    6  C   UNL     1      -8.456   9.097  70.853  1.00  0.00    -0.251 C  
BRANCH   6   7
HETATM    7  C   UNL     1      -9.745   8.405  71.215  1.00  0.00    -0.245 A  
HETATM    8  C   UNL     1     -10.227   8.454  72.531  1.00  0.00    -0.369 A  
HETATM    9  C   UNL     1     -12.090   7.068  71.908  1.00  0.00    -0.323 A  
HETATM   10  C   UNL     1     -11.402   7.789  72.878  1.00  0.00    -0.406 A  
HETATM   11  O   UNL     1     -13.234   6.392  72.206  1.00  0.00    -0.516 OA 
HETATM   12  C   UNL     1     -11.629   7.015  70.596  1.00  0.00    -0.379 A  
HETATM   13  H   UNL     1     -13.704   5.899  71.543  1.00  0.00     0.000 HD 
HETATM   14  C   UNL     1     -10.453   7.680  70.249  1.00  0.00    -0.224 A  
ENDBRANCH   6   7
ENDBRANCH   5   6
ENDBRANCH   3   5
ENDBRANCH   2   3
BRANCH   2  15
HETATM   15  C   UNL     1     -11.009  10.774  68.839  1.00  0.00    -0.241 C  
HETATM   16  O   UNL     1     -11.808  10.488  67.682  1.00  0.00    -0.598 OA 
HETATM   17  H   UNL     1     -12.603  10.032  67.935  1.00  0.00     0.000 HD 
BRANCH  15  18
HETATM   18  C   UNL     1     -11.823  11.513  69.887  1.00  0.00    -0.430 A  
HETATM   19  C   UNL     1     -12.498  10.794  70.888  1.00  0.00    -0.500 A  
HETATM   20  C   UNL     1     -12.633  13.582  70.877  1.00  0.00    -0.414 A  
HETATM   21  H   UNL     1     -14.094  14.491  72.744  1.00  0.00     0.000 HD 
HETATM   22  C   UNL     1     -13.246  11.462  71.862  1.00  0.00    -0.485 A  
HETATM   23  C   UNL     1     -13.314  12.851  71.841  1.00  0.00    -0.435 A  
HETATM   24  C   UNL     1     -11.889  12.916  69.905  1.00  0.00    -0.373 A  
HETATM   25  O   UNL     1     -14.047  13.542  72.759  1.00  0.00    -0.719 OA 
ENDBRANCH  15  18
ENDBRANCH   2  15
TORSDOF 6
ENDMDL
MODEL       27
REMARK 921   NORMALIZED FREE ENERGY PREDICTED BY IDOCK:   -6.09 KCAL/MOL
REMARK 922        TOTAL FREE ENERGY PREDICTED BY IDOCK:   -9.27 KCAL/MOL
REMARK 923 INTER-LIGAND FREE ENERGY PREDICTED BY IDOCK:   -8.25 KCAL/MOL
REMARK 924 INTRA-LIGAND FREE ENERGY PREDICTED BY IDOCK:   -1.02 KCAL/MOL
REMARK 927      BINDING AFFINITY PREDICTED BY RF-SCORE:    0.00 PKD
ROOT
HETATM    1  C   UNL     1     -12.230  12.155  63.615  1.00  0.00    -0.663 C  
HETATM    2  C   UNL     1     -11.694  12.909  64.841  1.00  0.00    -0.348 C  
ENDROOT
BRANCH   2   3
HETATM    3  N   UNL     1     -12.224  12.342  66.103  1.00  0.00    -0.585 NA 
HETATM    4  H   UNL     1     -12.815  11.535  65.900  1.00  0.00     0.000 HD 
BRANCH   3   5
HETATM    5  C   UNL     1     -11.222  11.988  67.108  1.00  0.00    -0.316 C  
BRANCH   5   6
HETATM    6  C   UNL     1     -11.823  11.720  68.495  1.00  0.00    -0.365 C  
BRANCH   6   7
HETATM    7  C   UNL     1     -11.953  12.986  69.302  1.00  0.00    -0.331 A  
HETATM    8  C   UNL     1     -11.489  14.205  68.785  1.00  0.00    -0.333 A  
HETATM    9  C   UNL     1     -12.125  15.318  70.818  1.00  0.00    -0.351 A  
HETATM   10  C   UNL     1     -11.578  15.372  69.542  1.00  0.00    -0.346 A  
HETATM   11  O   UNL     1     -12.219  16.432  71.597  1.00  0.00    -0.607 OA 
HETATM   12  C   UNL     1     -12.597  14.119  71.343  1.00  0.00    -0.445 A  
HETATM   13  H   UNL     1     -12.593  16.395  72.470  1.00  0.00     0.000 HD 
HETATM   14  C   UNL     1     -12.508  12.950  70.588  1.00  0.00    -0.333 A  
ENDBRANCH   6   7
ENDBRANCH   5   6
ENDBRANCH   3   5
ENDBRANCH   2   3
BRANCH   2  15
HETATM   15  C   UNL     1     -12.045  14.430  64.800  1.00  0.00    -0.452 C  
HETATM   16  O   UNL     1     -12.428  14.817  63.472  1.00  0.00    -1.053 OA 
HETATM   17  H   UNL     1     -12.641  15.743  63.447  1.00  0.00     0.000 HD 
BRANCH  15  18
HETATM   18  C   UNL     1     -10.931  15.322  65.321  1.00  0.00    -0.403 A  
HETATM   19  C   UNL     1     -11.128  16.709  65.416  1.00  0.00     0.014 A  
HETATM   20  C   UNL     1      -8.696  15.613  66.235  1.00  0.00    -0.325 A  
HETATM   21  H   UNL     1      -7.052  17.378  67.025  1.00  0.00     0.000 HD 
HETATM   22  C   UNL     1     -10.114  17.540  65.901  1.00  0.00    -0.197 A  
HETATM   23  C   UNL     1      -8.902  16.984  66.296  1.00  0.00    -0.254 A  
HETATM   24  C   UNL     1      -9.706  14.784  65.751  1.00  0.00    -0.347 A  
HETATM   25  O   UNL     1      -7.879  17.758  66.755  1.00  0.00    -0.209 OA 
ENDBRANCH  15  18
ENDBRANCH   2  15
TORSDOF 6
ENDMDL
MODEL       28
REMARK 921   NORMALIZED FREE ENERGY PREDICTED BY IDOCK:   -6.08 KCAL/MOL
REMARK 922        TOTAL FREE ENERGY PREDICTED BY IDOCK:   -9.26 KCAL/MOL
REMARK 923 INTER-LIGAND FREE ENERGY PREDICTED BY IDOCK:   -8.57 KCAL/MOL
REMARK 924 INTRA-LIGAND FREE ENERGY PREDICTED BY IDOCK:   -0.68 KCAL/MOL
REMARK 927      BINDING AFFINITY PREDICTED BY RF-SCORE:    0.00 PKD
ROOT
HETATM    1  C   UNL     1     -12.640  12.419  70.851  1.00  0.00    -0.337 C  
HETATM    2  C   UNL     1     -12.046  11.089  70.365  1.00  0.00    -0.373 C  
ENDROOT
BRANCH   2   3
HETATM    3  N   UNL     1     -12.373  10.834  68.943  1.00  0.00    -0.786 NA 
HETATM    4  H   UNL     1     -12.926  11.606  68.569  1.00  0.00     0.000 HD 
BRANCH   3   5
HETATM    5  C   UNL     1     -11.231  10.569  68.068  1.00  0.00    -0.294 C  
BRANCH   5   6
HETATM    6  C   UNL     1     -10.480  11.842  67.650  1.00  0.00    -0.223 C  
BRANCH   6   7
HETATM    7  C   UNL     1     -11.071  12.458  66.407  1.00  0.00    -0.343 A  
HETATM    8  C   UNL     1     -10.652  12.029  65.139  1.00  0.00    -0.330 A  
HETATM    9  C   UNL     1     -12.105  13.642  64.107  1.00  0.00    -0.435 A  
HETATM   10  C   UNL     1     -11.172  12.619  63.988  1.00  0.00    -0.459 A  
HETATM   11  O   UNL     1     -12.629  14.255  63.009  1.00  0.00    -0.884 OA 
HETATM   12  C   UNL     1     -12.536  14.074  65.357  1.00  0.00    -0.529 A  
HETATM   13  H   UNL     1     -13.266  14.955  63.090  1.00  0.00     0.000 HD 
HETATM   14  C   UNL     1     -12.016  13.485  66.510  1.00  0.00    -0.460 A  
ENDBRANCH   6   7
ENDBRANCH   5   6
ENDBRANCH   3   5
ENDBRANCH   2   3
BRANCH   2  15
HETATM   15  C   UNL     1     -12.546   9.874  71.209  1.00  0.00    -0.381 C  
HETATM   16  O   UNL     1     -13.466  10.314  72.219  1.00  0.00    -0.588 OA 
HETATM   17  H   UNL     1     -13.770   9.574  72.732  1.00  0.00     0.000 HD 
BRANCH  15  18
HETATM   18  C   UNL     1     -11.420   9.060  71.824  1.00  0.00    -0.442 A  
HETATM   19  C   UNL     1     -11.712   8.030  72.734  1.00  0.00    -0.352 A  
HETATM   20  C   UNL     1      -9.056   8.531  72.040  1.00  0.00    -0.317 A  
HETATM   21  H   UNL     1      -7.430   7.014  73.264  1.00  0.00     0.000 HD 
HETATM   22  C   UNL     1     -10.685   7.270  73.301  1.00  0.00    -0.428 A  
HETATM   23  C   UNL     1      -9.365   7.536  72.956  1.00  0.00    -0.191 A  
HETATM   24  C   UNL     1     -10.078   9.290  71.474  1.00  0.00    -0.306 A  
HETATM   25  O   UNL     1      -8.331   6.833  73.500  1.00  0.00    -0.115 OA 
ENDBRANCH  15  18
ENDBRANCH   2  15
TORSDOF 6
ENDMDL
MODEL       29
REMARK 921   NORMALIZED FREE ENERGY PREDICTED BY IDOCK:   -6.06 KCAL/MOL
REMARK 922        TOTAL FREE ENERGY PREDICTED BY IDOCK:   -9.23 KCAL/MOL
REMARK 923 INTER-LIGAND FREE ENERGY PREDICTED BY IDOCK:   -8.43 KCAL/MOL
REMARK 924 INTRA-LIGAND FREE ENERGY PREDICTED BY IDOCK:   -0.80 KCAL/MOL
REMARK 927      BINDING AFFINITY PREDICTED BY RF-SCORE:    0.00 PKD
ROOT
HETATM    1  C   UNL     1      -8.813  10.341  68.756  1.00  0.00    -0.148 C  
HETATM    2  C   UNL     1     -10.203  10.623  68.167  1.00  0.00    -0.168 C  
ENDROOT
BRANCH   2   3
HETATM    3  N   UNL     1     -11.255   9.838  68.854  1.00  0.00    -0.455 NA 
HETATM    4  H   UNL     1     -11.142   8.846  68.643  1.00  0.00     0.000 HD 
BRANCH   3   5
HETATM    5  C   UNL     1     -11.347  10.034  70.301  1.00  0.00    -0.308 C  
BRANCH   5   6
HETATM    6  C   UNL     1     -12.742  10.478  70.765  1.00  0.00    -0.471 C  
BRANCH   6   7
HETATM    7  C   UNL     1     -12.784  11.951  71.082  1.00  0.00    -0.384 A  
HETATM    8  C   UNL     1     -13.526  12.417  72.177  1.00  0.00    -0.481 A  
HETATM    9  C   UNL     1     -12.925  14.679  71.631  1.00  0.00    -0.335 A  
HETATM   10  C   UNL     1     -13.594  13.781  72.454  1.00  0.00    -0.690 A  
HETATM   11  O   UNL     1     -12.976  16.022  71.857  1.00  0.00    -0.445 OA 
HETATM   12  C   UNL     1     -12.178  14.233  70.545  1.00  0.00    -0.427 A  
HETATM   13  H   UNL     1     -12.519  16.636  71.294  1.00  0.00     0.000 HD 
HETATM   14  C   UNL     1     -12.110  12.868  70.266  1.00  0.00    -0.377 A  
ENDBRANCH   6   7
ENDBRANCH   5   6
ENDBRANCH   3   5
ENDBRANCH   2   3
BRANCH   2  15
HETATM   15  C   UNL     1     -10.273  10.308  66.639  1.00  0.00    -0.233 C  
HETATM   16  O   UNL     1      -8.968   9.991  66.136  1.00  0.00    -0.144 OA 
HETATM   17  H   UNL     1      -9.010   9.798  65.206  1.00  0.00     0.000 HD 
BRANCH  15  18
HETATM   18  C   UNL     1     -10.911  11.417  65.821  1.00  0.00    -0.256 A  
HETATM   19  C   UNL     1     -11.610  12.452  66.464  1.00  0.00    -0.447 A  
HETATM   20  C   UNL     1     -11.371  12.484  63.684  1.00  0.00    -0.555 A  
HETATM   21  H   UNL     1     -12.572  14.456  62.628  1.00  0.00     0.000 HD 
HETATM   22  C   UNL     1     -12.196  13.482  65.723  1.00  0.00    -0.505 A  
HETATM   23  C   UNL     1     -12.079  13.482  64.338  1.00  0.00    -0.420 A  
HETATM   24  C   UNL     1     -10.787  11.456  64.422  1.00  0.00    -0.397 A  
HETATM   25  O   UNL     1     -12.652  14.456  63.575  1.00  0.00    -0.784 OA 
ENDBRANCH  15  18
ENDBRANCH   2  15
TORSDOF 6
ENDMDL
MODEL       30
REMARK 921   NORMALIZED FREE ENERGY PREDICTED BY IDOCK:   -6.06 KCAL/MOL
REMARK 922        TOTAL FREE ENERGY PREDICTED BY IDOCK:   -9.22 KCAL/MOL
REMARK 923 INTER-LIGAND FREE ENERGY PREDICTED BY IDOCK:   -7.94 KCAL/MOL
REMARK 924 INTRA-LIGAND FREE ENERGY PREDICTED BY IDOCK:   -1.28 KCAL/MOL
REMARK 927      BINDING AFFINITY PREDICTED BY RF-SCORE:    0.00 PKD
ROOT
HETATM    1  C   UNL     1     -14.411   7.028  71.527  1.00  0.00    -0.435 C  
HETATM    2  C   UNL     1     -12.994   7.610  71.633  1.00  0.00    -0.350 C  
ENDROOT
BRANCH   2   3
HETATM    3  N   UNL     1     -12.073   6.678  72.325  1.00  0.00    -0.497 NA 
HETATM    4  H   UNL     1     -12.491   5.749  72.376  1.00  0.00     0.000 HD 
BRANCH   3   5
HETATM    5  C   UNL     1     -10.724   6.589  71.766  1.00  0.00    -0.228 C  
BRANCH   5   6
HETATM    6  C   UNL     1     -10.637   5.672  70.537  1.00  0.00    -0.354 C  
BRANCH   6   7
HETATM    7  C   UNL     1     -10.382   6.452  69.273  1.00  0.00    -0.248 A  
HETATM    8  C   UNL     1      -9.525   7.562  69.289  1.00  0.00    -0.154 A  
HETATM    9  C   UNL     1      -9.963   7.942  66.956  1.00  0.00    -0.252 A  
HETATM   10  C   UNL     1      -9.312   8.305  68.129  1.00  0.00    -0.140 A  
HETATM   11  O   UNL     1      -9.795   8.649  65.804  1.00  0.00    -0.466 OA 
HETATM   12  C   UNL     1     -10.811   6.839  66.922  1.00  0.00    -0.402 A  
HETATM   13  H   UNL     1     -10.240   8.400  65.002  1.00  0.00     0.000 HD 
HETATM   14  C   UNL     1     -11.025   6.095  68.082  1.00  0.00    -0.398 A  
ENDBRANCH   6   7
ENDBRANCH   5   6
ENDBRANCH   3   5
ENDBRANCH   2   3
BRANCH   2  15
HETATM   15  C   UNL     1     -12.970   8.976  72.389  1.00  0.00    -0.405 C  
HETATM   16  O   UNL     1     -14.204   9.177  73.093  1.00  0.00    -1.118 OA 
HETATM   17  H   UNL     1     -14.189  10.008  73.553  1.00  0.00     0.000 HD 
BRANCH  15  18
HETATM   18  C   UNL     1     -12.666  10.161  71.488  1.00  0.00    -0.541 A  
HETATM   19  C   UNL     1     -13.106  11.446  71.844  1.00  0.00    -0.505 A  
HETATM   20  C   UNL     1     -11.634  11.104  69.497  1.00  0.00    -0.392 A  
HETATM   21  H   UNL     1     -11.328  13.275  68.218  1.00  0.00     0.000 HD 
HETATM   22  C   UNL     1     -12.826  12.546  71.027  1.00  0.00    -0.246 A  
HETATM   23  C   UNL     1     -12.101  12.361  69.855  1.00  0.00    -0.247 A  
HETATM   24  C   UNL     1     -11.913  10.008  70.311  1.00  0.00    -0.264 A  
HETATM   25  O   UNL     1     -11.823  13.401  69.018  1.00  0.00    -0.301 OA 
ENDBRANCH  15  18
ENDBRANCH   2  15
TORSDOF 6
ENDMDL
MODEL       31
REMARK 921   NORMALIZED FREE ENERGY PREDICTED BY IDOCK:   -6.06 KCAL/MOL
REMARK 922        TOTAL FREE ENERGY PREDICTED BY IDOCK:   -9.22 KCAL/MOL
REMARK 923 INTER-LIGAND FREE ENERGY PREDICTED BY IDOCK:   -8.84 KCAL/MOL
REMARK 924 INTRA-LIGAND FREE ENERGY PREDICTED BY IDOCK:   -0.38 KCAL/MOL
REMARK 927      BINDING AFFINITY PREDICTED BY RF-SCORE:    0.00 PKD
ROOT
HETATM    1  C   UNL     1     -12.492   9.955  71.343  1.00  0.00    -0.495 C  
HETATM    2  C   UNL     1     -11.492  10.570  70.353  1.00  0.00    -0.341 C  
ENDROOT
BRANCH   2   3
HETATM    3  N   UNL     1     -12.107  10.789  69.023  1.00  0.00    -0.701 NA 
HETATM    4  H   UNL     1     -13.118  10.668  69.083  1.00  0.00     0.000 HD 
BRANCH   3   5
HETATM    5  C   UNL     1     -11.794  12.067  68.383  1.00  0.00    -0.300 C  
BRANCH   5   6
HETATM    6  C   UNL     1     -10.953  11.916  67.107  1.00  0.00    -0.319 C  
BRANCH   6   7
HETATM    7  C   UNL     1     -11.110  13.101  66.190  1.00  0.00    -0.301 A  
HETATM    8  C   UNL     1     -10.131  14.105  66.159  1.00  0.00    -0.324 A  
HETATM    9  C   UNL     1     -11.428  15.330  64.549  1.00  0.00    -0.315 A  
HETATM   10  C   UNL     1     -10.288  15.219  65.336  1.00  0.00    -0.421 A  
HETATM   11  O   UNL     1     -11.628  16.408  63.740  1.00  0.00    -1.605 OA 
HETATM   12  C   UNL     1     -12.404  14.339  64.561  1.00  0.00    -0.432 A  
HETATM   13  H   UNL     1     -12.407  16.485  63.202  1.00  0.00     0.000 HD 
HETATM   14  C   UNL     1     -12.249  13.225  65.385  1.00  0.00    -0.501 A  
ENDBRANCH   6   7
ENDBRANCH   5   6
ENDBRANCH   3   5
ENDBRANCH   2   3
BRANCH   2  15
HETATM   15  C   UNL     1     -10.221   9.681  70.166  1.00  0.00    -0.264 C  
HETATM   16  O   UNL     1      -9.096  10.491  69.796  1.00  0.00    -0.409 OA 
HETATM   17  H   UNL     1      -8.323   9.950  69.683  1.00  0.00     0.000 HD 
BRANCH  15  18
HETATM   18  C   UNL     1     -10.417   8.546  69.176  1.00  0.00    -0.217 A  
HETATM   19  C   UNL     1     -10.941   7.317  69.610  1.00  0.00    -0.204 A  
HETATM   20  C   UNL     1     -10.310   7.660  66.913  1.00  0.00    -0.388 A  
HETATM   21  H   UNL     1     -10.732   5.565  65.543  1.00  0.00     0.000 HD 
HETATM   22  C   UNL     1     -11.132   6.267  68.708  1.00  0.00    -0.424 A  
HETATM   23  C   UNL     1     -10.805   6.446  67.368  1.00  0.00    -0.375 A  
HETATM   24  C   UNL     1     -10.118   8.708  67.812  1.00  0.00    -0.266 A  
HETATM   25  O   UNL     1     -10.956   5.443  66.458  1.00  0.00    -0.239 OA 
ENDBRANCH  15  18
ENDBRANCH   2  15
TORSDOF 6
ENDMDL
MODEL       32
REMARK 921   NORMALIZED FREE ENERGY PREDICTED BY IDOCK:   -6.04 KCAL/MOL
REMARK 922        TOTAL FREE ENERGY PREDICTED BY IDOCK:   -9.20 KCAL/MOL
REMARK 923 INTER-LIGAND FREE ENERGY PREDICTED BY IDOCK:   -8.56 KCAL/MOL
REMARK 924 INTRA-LIGAND FREE ENERGY PREDICTED BY IDOCK:   -0.64 KCAL/MOL
REMARK 927      BINDING AFFINITY PREDICTED BY RF-SCORE:    0.00 PKD
ROOT
HETATM    1  C   UNL     1      -9.821  10.193  67.445  1.00  0.00    -0.225 C  
HETATM    2  C   UNL     1     -10.914   9.939  68.494  1.00  0.00    -0.180 C  
ENDROOT
BRANCH   2   3
HETATM    3  N   UNL     1     -11.991  10.954  68.414  1.00  0.00    -0.779 NA 
HETATM    4  H   UNL     1     -12.866  10.511  68.134  1.00  0.00     0.000 HD 
BRANCH   3   5
HETATM    5  C   UNL     1     -12.199  11.752  69.623  1.00  0.00    -0.185 C  
BRANCH   5   6
HETATM    6  C   UNL     1     -11.853  13.236  69.436  1.00  0.00    -0.386 C  
BRANCH   6   7
HETATM    7  C   UNL     1     -12.233  14.055  70.643  1.00  0.00    -0.442 A  
HETATM    8  C   UNL     1     -11.641  15.308  70.861  1.00  0.00    -0.382 A  
HETATM    9  C   UNL     1     -12.877  15.544  72.908  1.00  0.00    -0.457 A  
HETATM   10  C   UNL     1     -11.965  16.055  71.992  1.00  0.00    -0.622 A  
HETATM   11  O   UNL     1     -13.213  16.234  74.035  1.00  0.00    -0.942 OA 
HETATM   12  C   UNL     1     -13.479  14.307  72.703  1.00  0.00    -0.623 A  
HETATM   13  H   UNL     1     -13.836  15.885  74.661  1.00  0.00     0.000 HD 
HETATM   14  C   UNL     1     -13.155  13.559  71.572  1.00  0.00    -0.427 A  
ENDBRANCH   6   7
ENDBRANCH   5   6
ENDBRANCH   3   5
ENDBRANCH   2   3
BRANCH   2  15
HETATM   15  C   UNL     1     -10.349   9.934  69.949  1.00  0.00    -0.258 C  
HETATM   16  O   UNL     1      -8.931  10.154  69.934  1.00  0.00    -0.344 OA 
HETATM   17  H   UNL     1      -8.587  10.151  70.820  1.00  0.00     0.000 HD 
BRANCH  15  18
HETATM   18  C   UNL     1     -10.691   8.675  70.727  1.00  0.00    -0.260 A  
HETATM   19  C   UNL     1     -10.846   8.731  72.122  1.00  0.00    -0.400 A  
HETATM   20  C   UNL     1     -11.216   6.302  70.800  1.00  0.00    -0.387 A  
HETATM   21  H   UNL     1     -11.750   4.400  72.394  1.00  0.00     0.000 HD 
HETATM   22  C   UNL     1     -11.167   7.581  72.849  1.00  0.00    -0.396 A  
HETATM   23  C   UNL     1     -11.339   6.374  72.180  1.00  0.00    -0.290 A  
HETATM   24  C   UNL     1     -10.896   7.447  70.075  1.00  0.00    -0.266 A  
HETATM   25  O   UNL     1     -11.633   5.224  72.851  1.00  0.00    -0.310 OA 
ENDBRANCH  15  18
ENDBRANCH   2  15
TORSDOF 6
ENDMDL
MODEL       33
REMARK 921   NORMALIZED FREE ENERGY PREDICTED BY IDOCK:   -6.03 KCAL/MOL
REMARK 922        TOTAL FREE ENERGY PREDICTED BY IDOCK:   -9.19 KCAL/MOL
REMARK 923 INTER-LIGAND FREE ENERGY PREDICTED BY IDOCK:   -8.42 KCAL/MOL
REMARK 924 INTRA-LIGAND FREE ENERGY PREDICTED BY IDOCK:   -0.76 KCAL/MOL
REMARK 927      BINDING AFFINITY PREDICTED BY RF-SCORE:    0.00 PKD
ROOT
HETATM    1  C   UNL     1     -12.244  13.067  66.057  1.00  0.00    -0.463 C  
HETATM    2  C   UNL     1     -11.463  13.662  67.238  1.00  0.00    -0.343 C  
ENDROOT
BRANCH   2   3
HETATM    3  N   UNL     1     -10.068  13.986  66.860  1.00  0.00    -0.255 NA 
HETATM    4  H   UNL     1      -9.708  13.278  66.219  1.00  0.00     0.000 HD 
BRANCH   3   5
HETATM    5  C   UNL     1      -9.857  15.321  66.300  1.00  0.00    -0.294 C  
BRANCH   5   6
HETATM    6  C   UNL     1     -10.644  16.417  67.032  1.00  0.00    -0.260 C  
BRANCH   6   7
HETATM    7  C   UNL     1      -9.900  17.727  67.045  1.00  0.00    -0.309 A  
HETATM    8  C   UNL     1     -10.476  18.872  66.475  1.00  0.00    -0.500 A  
HETATM    9  C   UNL     1      -8.501  20.136  67.000  1.00  0.00    -0.335 A  
HETATM   10  C   UNL     1      -9.778  20.078  66.456  1.00  0.00    -0.564 A  
HETATM   11  O   UNL     1      -7.777  21.291  66.990  1.00  0.00    -0.733 OA 
HETATM   12  C   UNL     1      -7.918  19.012  67.577  1.00  0.00    -0.276 A  
HETATM   13  H   UNL     1      -6.904  21.331  67.363  1.00  0.00     0.000 HD 
HETATM   14  C   UNL     1      -8.615  17.804  67.596  1.00  0.00    -0.230 A  
ENDBRANCH   6   7
ENDBRANCH   5   6
ENDBRANCH   3   5
ENDBRANCH   2   3
BRANCH   2  15
HETATM   15  C   UNL     1     -11.430  12.702  68.470  1.00  0.00    -0.311 C  
HETATM   16  O   UNL     1     -12.054  11.453  68.144  1.00  0.00    -0.623 OA 
HETATM   17  H   UNL     1     -12.033  10.868  68.894  1.00  0.00     0.000 HD 
BRANCH  15  18
HETATM   18  C   UNL     1     -12.045  13.303  69.722  1.00  0.00    -0.355 A  
HETATM   19  C   UNL     1     -12.096  14.698  69.881  1.00  0.00    -0.385 A  
HETATM   20  C   UNL     1     -13.175  13.054  71.861  1.00  0.00    -0.527 A  
HETATM   21  H   UNL     1     -14.096  14.374  73.824  1.00  0.00     0.000 HD 
HETATM   22  C   UNL     1     -12.665  15.263  71.026  1.00  0.00    -0.487 A  
HETATM   23  C   UNL     1     -13.191  14.433  72.010  1.00  0.00    -0.369 A  
HETATM   24  C   UNL     1     -12.606  12.489  70.721  1.00  0.00    -0.299 A  
HETATM   25  O   UNL     1     -13.738  14.940  73.151  1.00  0.00    -0.506 OA 
ENDBRANCH  15  18
ENDBRANCH   2  15
TORSDOF 6
ENDMDL
MODEL       34
REMARK 921   NORMALIZED FREE ENERGY PREDICTED BY IDOCK:   -6.01 KCAL/MOL
REMARK 922        TOTAL FREE ENERGY PREDICTED BY IDOCK:   -9.16 KCAL/MOL
REMARK 923 INTER-LIGAND FREE ENERGY PREDICTED BY IDOCK:   -8.68 KCAL/MOL
REMARK 924 INTRA-LIGAND FREE ENERGY PREDICTED BY IDOCK:   -0.48 KCAL/MOL
REMARK 927      BINDING AFFINITY PREDICTED BY RF-SCORE:    0.00 PKD
ROOT
HETATM    1  C   UNL     1     -11.681  15.181  71.706  1.00  0.00    -0.480 C  
HETATM    2  C   UNL     1     -12.046  13.994  70.803  1.00  0.00    -0.345 C  
ENDROOT
BRANCH   2   3
HETATM    3  N   UNL     1     -12.447  14.442  69.449  1.00  0.00    -0.548 NA 
HETATM    4  H   UNL     1     -12.225  15.431  69.331  1.00  0.00     0.000 HD 
BRANCH   3   5
HETATM    5  C   UNL     1     -11.894  13.669  68.337  1.00  0.00    -0.372 C  
BRANCH   5   6
HETATM    6  C   UNL     1     -12.309  14.208  66.960  1.00  0.00    -0.253 C  
BRANCH   6   7
HETATM    7  C   UNL     1     -11.840  13.311  65.843  1.00  0.00    -0.436 A  
HETATM    8  C   UNL     1     -10.941  12.267  66.106  1.00  0.00    -0.328 A  
HETATM    9  C   UNL     1     -10.914  11.693  63.772  1.00  0.00    -0.422 A  
HETATM   10  C   UNL     1     -10.480  11.455  65.071  1.00  0.00    -0.361 A  
HETATM   11  O   UNL     1     -10.478  10.933  62.728  1.00  0.00    -0.772 OA 
HETATM   12  C   UNL     1     -11.812  12.720  63.496  1.00  0.00    -0.618 A  
HETATM   13  H   UNL     1     -10.775  11.096  61.841  1.00  0.00     0.000 HD 
HETATM   14  C   UNL     1     -12.273  13.533  64.530  1.00  0.00    -0.445 A  
ENDBRANCH   6   7
ENDBRANCH   5   6
ENDBRANCH   3   5
ENDBRANCH   2   3
BRANCH   2  15
HETATM   15  C   UNL     1     -13.204  13.132  71.399  1.00  0.00    -0.207 C  
HETATM   16  O   UNL     1     -13.553  13.603  72.708  1.00  0.00    -0.672 OA 
HETATM   17  H   UNL     1     -14.258  13.079  73.070  1.00  0.00     0.000 HD 
BRANCH  15  18
HETATM   18  C   UNL     1     -12.899  11.644  71.426  1.00  0.00    -0.461 A  
HETATM   19  C   UNL     1     -13.625  10.792  72.274  1.00  0.00     0.028 A  
HETATM   20  C   UNL     1     -11.656   9.717  70.615  1.00  0.00    -0.371 A  
HETATM   21  H   UNL     1     -11.384   7.212  70.928  1.00  0.00     0.000 HD 
HETATM   22  C   UNL     1     -13.359   9.421  72.303  1.00  0.00    -0.539 A  
HETATM   23  C   UNL     1     -12.368   8.897  71.480  1.00  0.00    -0.324 A  
HETATM   24  C   UNL     1     -11.920  11.084  70.586  1.00  0.00    -0.464 A  
HETATM   25  O   UNL     1     -12.061   7.569  71.490  1.00  0.00    -0.290 OA 
ENDBRANCH  15  18
ENDBRANCH   2  15
TORSDOF 6
ENDMDL
MODEL       35
REMARK 921   NORMALIZED FREE ENERGY PREDICTED BY IDOCK:   -6.01 KCAL/MOL
REMARK 922        TOTAL FREE ENERGY PREDICTED BY IDOCK:   -9.16 KCAL/MOL
REMARK 923 INTER-LIGAND FREE ENERGY PREDICTED BY IDOCK:   -8.47 KCAL/MOL
REMARK 924 INTRA-LIGAND FREE ENERGY PREDICTED BY IDOCK:   -0.69 KCAL/MOL
REMARK 927      BINDING AFFINITY PREDICTED BY RF-SCORE:    0.00 PKD
ROOT
HETATM    1  C   UNL     1     -12.779  15.402  73.570  1.00  0.00    -0.689 C  
HETATM    2  C   UNL     1     -12.438  14.897  72.160  1.00  0.00    -0.338 C  
ENDROOT
BRANCH   2   3
HETATM    3  N   UNL     1     -12.442  16.000  71.171  1.00  0.00    -0.561 NA 
HETATM    4  H   UNL     1     -12.763  16.862  71.613  1.00  0.00     0.000 HD 
BRANCH   3   5
HETATM    5  C   UNL     1     -11.175  16.235  70.479  1.00  0.00    -0.309 C  
BRANCH   5   6
HETATM    6  C   UNL     1     -11.269  16.038  68.959  1.00  0.00    -0.347 C  
BRANCH   6   7
HETATM    7  C   UNL     1     -10.705  17.215  68.206  1.00  0.00    -0.363 A  
HETATM    8  C   UNL     1     -10.270  18.354  68.898  1.00  0.00    -0.284 A  
HETATM    9  C   UNL     1      -9.729  19.423  66.815  1.00  0.00    -0.350 A  
HETATM   10  C   UNL     1      -9.778  19.458  68.203  1.00  0.00    -0.470 A  
HETATM   11  O   UNL     1      -9.269  20.484  66.095  1.00  0.00    -0.606 OA 
HETATM   12  C   UNL     1     -10.149  18.298  66.113  1.00  0.00    -0.354 A  
HETATM   13  H   UNL     1      -9.235  20.461  65.146  1.00  0.00     0.000 HD 
HETATM   14  C   UNL     1     -10.642  17.193  66.807  1.00  0.00    -0.192 A  
ENDBRANCH   6   7
ENDBRANCH   5   6
ENDBRANCH   3   5
ENDBRANCH   2   3
BRANCH   2  15
HETATM   15  C   UNL     1     -13.430  13.794  71.671  1.00  0.00    -0.333 C  
HETATM   16  O   UNL     1     -14.371  13.477  72.706  1.00  0.00    -0.640 OA 
HETATM   17  H   UNL     1     -14.975  12.806  72.408  1.00  0.00     0.000 HD 
BRANCH  15  18
HETATM   18  C   UNL     1     -12.738  12.539  71.168  1.00  0.00    -0.340 A  
HETATM   19  C   UNL     1     -12.945  11.313  71.822  1.00  0.00    -0.519 A  
HETATM   20  C   UNL     1     -11.293  11.404  69.575  1.00  0.00    -0.357 A  
HETATM   21  H   UNL     1     -10.279   9.144  69.022  1.00  0.00     0.000 HD 
HETATM   22  C   UNL     1     -12.320  10.149  71.365  1.00  0.00    -0.515 A  
HETATM   23  C   UNL     1     -11.491  10.209  70.251  1.00  0.00    -0.306 A  
HETATM   24  C   UNL     1     -11.915  12.565  70.029  1.00  0.00    -0.372 A  
HETATM   25  O   UNL     1     -10.845   9.103  69.783  1.00  0.00    -0.228 OA 
ENDBRANCH  15  18
ENDBRANCH   2  15
TORSDOF 6
ENDMDL
MODEL       36
REMARK 921   NORMALIZED FREE ENERGY PREDICTED BY IDOCK:   -5.99 KCAL/MOL
REMARK 922        TOTAL FREE ENERGY PREDICTED BY IDOCK:   -9.14 KCAL/MOL
REMARK 923 INTER-LIGAND FREE ENERGY PREDICTED BY IDOCK:   -8.49 KCAL/MOL
REMARK 924 INTRA-LIGAND FREE ENERGY PREDICTED BY IDOCK:   -0.65 KCAL/MOL
REMARK 927      BINDING AFFINITY PREDICTED BY RF-SCORE:    0.00 PKD
ROOT
HETATM    1  C   UNL     1     -12.719  10.437  70.495  1.00  0.00    -0.355 C  
HETATM    2  C   UNL     1     -11.184  10.456  70.459  1.00  0.00    -0.314 C  
ENDROOT
BRANCH   2   3
HETATM    3  N   UNL     1     -10.675  11.450  69.487  1.00  0.00    -0.440 NA 
HETATM    4  H   UNL     1      -9.907  11.049  68.948  1.00  0.00     0.000 HD 
BRANCH   3   5
HETATM    5  C   UNL     1     -11.674  12.021  68.583  1.00  0.00    -0.326 C  
BRANCH   5   6
HETATM    6  C   UNL     1     -11.429  11.667  67.109  1.00  0.00    -0.344 C  
BRANCH   6   7
HETATM    7  C   UNL     1     -11.454  12.890  66.228  1.00  0.00    -0.395 A  
HETATM    8  C   UNL     1     -10.663  14.004  66.544  1.00  0.00    -0.281 A  
HETATM    9  C   UNL     1     -11.549  15.181  64.645  1.00  0.00    -0.357 A  
HETATM   10  C   UNL     1     -10.708  15.149  65.750  1.00  0.00    -0.359 A  
HETATM   11  O   UNL     1     -11.634  16.284  63.850  1.00  0.00    -1.489 OA 
HETATM   12  C   UNL     1     -12.334  14.081  64.313  1.00  0.00    -0.393 A  
HETATM   13  H   UNL     1     -12.209  16.306  63.094  1.00  0.00     0.000 HD 
HETATM   14  C   UNL     1     -12.291  12.935  65.106  1.00  0.00    -0.547 A  
ENDBRANCH   6   7
ENDBRANCH   5   6
ENDBRANCH   3   5
ENDBRANCH   2   3
BRANCH   2  15
HETATM   15  C   UNL     1     -10.583   9.061  70.096  1.00  0.00    -0.224 C  
HETATM   16  O   UNL     1     -11.217   8.536  68.920  1.00  0.00    -0.403 OA 
HETATM   17  H   UNL     1     -10.852   7.687  68.699  1.00  0.00     0.000 HD 
BRANCH  15  18
HETATM   18  C   UNL     1     -10.648   8.059  71.235  1.00  0.00    -0.245 A  
HETATM   19  C   UNL     1     -11.318   6.836  71.060  1.00  0.00    -0.356 A  
HETATM   20  C   UNL     1     -10.077   7.378  73.500  1.00  0.00    -0.390 A  
HETATM   21  H   UNL     1     -10.399   5.511  75.189  1.00  0.00     0.000 HD 
HETATM   22  C   UNL     1     -11.380   5.903  72.098  1.00  0.00    -0.344 A  
HETATM   23  C   UNL     1     -10.766   6.188  73.313  1.00  0.00    -0.260 A  
HETATM   24  C   UNL     1     -10.016   8.310  72.465  1.00  0.00    -0.373 A  
HETATM   25  O   UNL     1     -10.818   5.316  74.359  1.00  0.00    -0.294 OA 
ENDBRANCH  15  18
ENDBRANCH   2  15
TORSDOF 6
ENDMDL
MODEL       37
REMARK 921   NORMALIZED FREE ENERGY PREDICTED BY IDOCK:   -5.97 KCAL/MOL
REMARK 922        TOTAL FREE ENERGY PREDICTED BY IDOCK:   -9.11 KCAL/MOL
REMARK 923 INTER-LIGAND FREE ENERGY PREDICTED BY IDOCK:   -8.33 KCAL/MOL
REMARK 924 INTRA-LIGAND FREE ENERGY PREDICTED BY IDOCK:   -0.78 KCAL/MOL
REMARK 927      BINDING AFFINITY PREDICTED BY RF-SCORE:    0.00 PKD
ROOT
HETATM    1  C   UNL     1     -12.974  10.572  70.546  1.00  0.00    -0.289 C  
HETATM    2  C   UNL     1     -11.442  10.681  70.578  1.00  0.00    -0.317 C  
ENDROOT
BRANCH   2   3
HETATM    3  N   UNL     1     -10.960  11.827  69.773  1.00  0.00    -0.462 NA 
HETATM    4  H   UNL     1     -10.275  11.508  69.087  1.00  0.00     0.000 HD 
BRANCH   3   5
HETATM    5  C   UNL     1     -11.999  12.617  69.111  1.00  0.00    -0.243 C  
BRANCH   5   6
HETATM    6  C   UNL     1     -11.736  14.129  69.161  1.00  0.00    -0.368 C  
BRANCH   6   7
HETATM    7  C   UNL     1     -12.222  14.739  70.450  1.00  0.00    -0.395 A  
HETATM    8  C   UNL     1     -11.408  15.633  71.160  1.00  0.00    -0.446 A  
HETATM    9  C   UNL     1     -13.086  15.816  72.871  1.00  0.00    -0.521 A  
HETATM   10  C   UNL     1     -11.841  16.175  72.369  1.00  0.00    -0.637 A  
HETATM   11  O   UNL     1     -13.543  16.310  74.056  1.00  0.00    -0.856 OA 
HETATM   12  C   UNL     1     -13.910  14.936  72.176  1.00  0.00    -0.576 A  
HETATM   13  H   UNL     1     -14.394  16.065  74.399  1.00  0.00     0.000 HD 
HETATM   14  C   UNL     1     -13.477  14.393  70.966  1.00  0.00    -0.309 A  
ENDBRANCH   6   7
ENDBRANCH   5   6
ENDBRANCH   3   5
ENDBRANCH   2   3
BRANCH   2  15
HETATM   15  C   UNL     1     -10.746   9.385  70.054  1.00  0.00    -0.239 C  
HETATM   16  O   UNL     1     -11.272   9.022  68.769  1.00  0.00    -0.440 OA 
HETATM   17  H   UNL     1     -10.848   8.233  68.450  1.00  0.00     0.000 HD 
BRANCH  15  18
HETATM   18  C   UNL     1     -10.833   8.217  71.021  1.00  0.00    -0.269 A  
HETATM   19  C   UNL     1     -10.990   6.910  70.533  1.00  0.00    -0.313 A  
HETATM   20  C   UNL     1     -10.796   7.329  73.285  1.00  0.00    -0.404 A  
HETATM   21  H   UNL     1     -11.007   5.176  74.613  1.00  0.00     0.000 HD 
HETATM   22  C   UNL     1     -11.065   5.826  71.413  1.00  0.00    -0.273 A  
HETATM   23  C   UNL     1     -10.978   6.048  72.783  1.00  0.00    -0.264 A  
HETATM   24  C   UNL     1     -10.722   8.410  72.409  1.00  0.00    -0.405 A  
HETATM   25  O   UNL     1     -11.066   5.024  73.678  1.00  0.00    -0.308 OA 
ENDBRANCH  15  18
ENDBRANCH   2  15
TORSDOF 6
ENDMDL
MODEL       38
REMARK 921   NORMALIZED FREE ENERGY PREDICTED BY IDOCK:   -5.97 KCAL/MOL
REMARK 922        TOTAL FREE ENERGY PREDICTED BY IDOCK:   -9.10 KCAL/MOL
REMARK 923 INTER-LIGAND FREE ENERGY PREDICTED BY IDOCK:   -7.97 KCAL/MOL
REMARK 924 INTRA-LIGAND FREE ENERGY PREDICTED BY IDOCK:   -1.14 KCAL/MOL
REMARK 927      BINDING AFFINITY PREDICTED BY RF-SCORE:    0.00 PKD
ROOT
HETATM    1  C   UNL     1     -11.185  10.397  67.692  1.00  0.00    -0.287 C  
HETATM    2  C   UNL     1     -10.924  11.348  68.870  1.00  0.00    -0.226 C  
ENDROOT
BRANCH   2   3
HETATM    3  N   UNL     1      -9.550  11.193  69.400  1.00  0.00    -0.408 NA 
HETATM    4  H   UNL     1      -9.554  11.300  70.415  1.00  0.00     0.000 HD 
BRANCH   3   5
HETATM    5  C   UNL     1      -8.864   9.954  69.031  1.00  0.00    -0.156 C  
BRANCH   5   6
HETATM    6  C   UNL     1      -8.493   9.084  70.240  1.00  0.00    -0.180 C  
BRANCH   6   7
HETATM    7  C   UNL     1      -9.687   8.342  70.784  1.00  0.00    -0.207 A  
HETATM    8  C   UNL     1     -10.302   7.338  70.022  1.00  0.00    -0.222 A  
HETATM    9  C   UNL     1     -11.939   7.017  71.752  1.00  0.00    -0.326 A  
HETATM   10  C   UNL     1     -11.426   6.672  70.508  1.00  0.00    -0.432 A  
HETATM   11  O   UNL     1     -13.044   6.402  72.259  1.00  0.00    -0.532 OA 
HETATM   12  C   UNL     1     -11.337   8.006  72.524  1.00  0.00    -0.469 A  
HETATM   13  H   UNL     1     -13.395   6.638  73.110  1.00  0.00     0.000 HD 
HETATM   14  C   UNL     1     -10.212   8.673  72.039  1.00  0.00    -0.407 A  
ENDBRANCH   6   7
ENDBRANCH   5   6
ENDBRANCH   3   5
ENDBRANCH   2   3
BRANCH   2  15
HETATM   15  C   UNL     1     -11.932  11.127  70.042  1.00  0.00    -0.367 C  
HETATM   16  O   UNL     1     -13.051  10.347  69.597  1.00  0.00    -0.550 OA 
HETATM   17  H   UNL     1     -13.664  10.212  70.311  1.00  0.00     0.000 HD 
BRANCH  15  18
HETATM   18  C   UNL     1     -12.399  12.419  70.689  1.00  0.00    -0.367 A  
HETATM   19  C   UNL     1     -12.131  13.652  70.071  1.00  0.00    -0.417 A  
HETATM   20  C   UNL     1     -13.564  13.604  72.466  1.00  0.00    -0.675 A  
HETATM   21  H   UNL     1     -14.168  15.930  73.283  1.00  0.00     0.000 HD 
HETATM   22  C   UNL     1     -12.562  14.848  70.653  1.00  0.00    -0.420 A  
HETATM   23  C   UNL     1     -13.266  14.812  71.852  1.00  0.00    -0.345 A  
HETATM   24  C   UNL     1     -13.135  12.411  71.887  1.00  0.00    -0.471 A  
HETATM   25  O   UNL     1     -13.687  15.954  72.465  1.00  0.00    -0.502 OA 
ENDBRANCH  15  18
ENDBRANCH   2  15
TORSDOF 6
ENDMDL
MODEL       39
REMARK 921   NORMALIZED FREE ENERGY PREDICTED BY IDOCK:   -5.96 KCAL/MOL
REMARK 922        TOTAL FREE ENERGY PREDICTED BY IDOCK:   -9.10 KCAL/MOL
REMARK 923 INTER-LIGAND FREE ENERGY PREDICTED BY IDOCK:   -8.42 KCAL/MOL
REMARK 924 INTRA-LIGAND FREE ENERGY PREDICTED BY IDOCK:   -0.68 KCAL/MOL
REMARK 927      BINDING AFFINITY PREDICTED BY RF-SCORE:    0.00 PKD
ROOT
HETATM    1  C   UNL     1     -11.018  12.470  67.449  1.00  0.00    -0.297 C  
HETATM    2  C   UNL     1     -11.077  13.152  68.824  1.00  0.00    -0.269 C  
ENDROOT
BRANCH   2   3
HETATM    3  N   UNL     1     -11.182  12.160  69.919  1.00  0.00    -0.488 NA 
HETATM    4  H   UNL     1     -11.412  12.631  70.794  1.00  0.00     0.000 HD 
BRANCH   3   5
HETATM    5  C   UNL     1     -12.112  11.055  69.686  1.00  0.00    -0.340 C  
BRANCH   5   6
HETATM    6  C   UNL     1     -12.820  10.579  70.963  1.00  0.00    -0.502 C  
BRANCH   6   7
HETATM    7  C   UNL     1     -12.295   9.246  71.430  1.00  0.00    -0.421 A  
HETATM    8  C   UNL     1     -10.935   9.092  71.739  1.00  0.00    -0.443 A  
HETATM    9  C   UNL     1     -11.303   6.767  72.227  1.00  0.00    -0.273 A  
HETATM   10  C   UNL     1     -10.439   7.852  72.141  1.00  0.00    -0.308 A  
HETATM   11  O   UNL     1     -10.858   5.535  72.601  1.00  0.00    -0.226 OA 
HETATM   12  C   UNL     1     -12.655   6.905  71.931  1.00  0.00    -0.336 A  
HETATM   13  H   UNL     1     -11.448   4.793  72.660  1.00  0.00     0.000 HD 
HETATM   14  C   UNL     1     -13.152   8.144  71.528  1.00  0.00    -0.309 A  
ENDBRANCH   6   7
ENDBRANCH   5   6
ENDBRANCH   3   5
ENDBRANCH   2   3
BRANCH   2  15
HETATM   15  C   UNL     1     -12.279  14.142  68.941  1.00  0.00    -0.222 C  
HETATM   16  O   UNL     1     -12.147  15.201  67.982  1.00  0.00    -0.509 OA 
HETATM   17  H   UNL     1     -12.878  15.804  68.053  1.00  0.00     0.000 HD 
BRANCH  15  18
HETATM   18  C   UNL     1     -12.466  14.703  70.340  1.00  0.00    -0.410 A  
HETATM   19  C   UNL     1     -13.532  14.258  71.139  1.00  0.00    -0.335 A  
HETATM   20  C   UNL     1     -11.746  16.141  72.165  1.00  0.00    -0.569 A  
HETATM   21  H   UNL     1     -12.362  16.885  74.513  1.00  0.00     0.000 HD 
HETATM   22  C   UNL     1     -13.712  14.761  72.431  1.00  0.00    -0.576 A  
HETATM   23  C   UNL     1     -12.821  15.706  72.928  1.00  0.00    -0.471 A  
HETATM   24  C   UNL     1     -11.567  15.640  70.877  1.00  0.00    -0.424 A  
HETATM   25  O   UNL     1     -12.970  16.239  74.174  1.00  0.00    -0.688 OA 
ENDBRANCH  15  18
ENDBRANCH   2  15
TORSDOF 6
ENDMDL
MODEL       40
REMARK 921   NORMALIZED FREE ENERGY PREDICTED BY IDOCK:   -5.95 KCAL/MOL
REMARK 922        TOTAL FREE ENERGY PREDICTED BY IDOCK:   -9.09 KCAL/MOL
REMARK 923 INTER-LIGAND FREE ENERGY PREDICTED BY IDOCK:   -8.39 KCAL/MOL
REMARK 924 INTRA-LIGAND FREE ENERGY PREDICTED BY IDOCK:   -0.69 KCAL/MOL
REMARK 927      BINDING AFFINITY PREDICTED BY RF-SCORE:    0.00 PKD
ROOT
HETATM    1  C   UNL     1      -9.021  10.705  68.483  1.00  0.00    -0.156 C  
HETATM    2  C   UNL     1      -9.755  11.996  68.090  1.00  0.00    -0.199 C  
ENDROOT
BRANCH   2   3
HETATM    3  N   UNL     1     -10.566  12.524  69.211  1.00  0.00    -0.437 NA 
HETATM    4  H   UNL     1     -10.623  13.541  69.151  1.00  0.00     0.000 HD 
BRANCH   3   5
HETATM    5  C   UNL     1     -11.907  11.955  69.346  1.00  0.00    -0.327 C  
BRANCH   5   6
HETATM    6  C   UNL     1     -12.330  11.738  70.806  1.00  0.00    -0.433 C  
BRANCH   6   7
HETATM    7  C   UNL     1     -12.407  10.273  71.154  1.00  0.00    -0.501 A  
HETATM    8  C   UNL     1     -13.616   9.715  71.595  1.00  0.00    -0.402 A  
HETATM    9  C   UNL     1     -12.540   7.583  71.868  1.00  0.00    -0.294 A  
HETATM   10  C   UNL     1     -13.684   8.368  71.949  1.00  0.00    -0.433 A  
HETATM   11  O   UNL     1     -12.558   6.266  72.217  1.00  0.00    -0.537 OA 
HETATM   12  C   UNL     1     -11.335   8.120  71.425  1.00  0.00    -0.299 A  
HETATM   13  H   UNL     1     -11.776   5.729  72.162  1.00  0.00     0.000 HD 
HETATM   14  C   UNL     1     -11.266   9.467  71.071  1.00  0.00    -0.412 A  
ENDBRANCH   6   7
ENDBRANCH   5   6
ENDBRANCH   3   5
ENDBRANCH   2   3
BRANCH   2  15
HETATM   15  C   UNL     1     -10.693  11.792  66.858  1.00  0.00    -0.250 C  
HETATM   16  O   UNL     1     -10.183  10.753  66.011  1.00  0.00    -0.239 OA 
HETATM   17  H   UNL     1     -10.754  10.628  65.261  1.00  0.00     0.000 HD 
BRANCH  15  18
HETATM   18  C   UNL     1     -10.934  13.065  66.064  1.00  0.00    -0.296 A  
HETATM   19  C   UNL     1     -12.084  13.189  65.268  1.00  0.00    -0.471 A  
HETATM   20  C   UNL     1     -10.281  15.314  65.408  1.00  0.00    -0.414 A  
HETATM   21  H   UNL     1     -10.969  17.270  63.944  1.00  0.00     0.000 HD 
HETATM   22  C   UNL     1     -12.321  14.357  64.538  1.00  0.00    -0.440 A  
HETATM   23  C   UNL     1     -11.410  15.405  64.608  1.00  0.00    -0.355 A  
HETATM   24  C   UNL     1     -10.043  14.149  66.136  1.00  0.00    -0.324 A  
HETATM   25  O   UNL     1     -11.591  16.554  63.897  1.00  0.00    -1.175 OA 
ENDBRANCH  15  18
ENDBRANCH   2  15
TORSDOF 6
ENDMDL
MODEL       41
REMARK 921   NORMALIZED FREE ENERGY PREDICTED BY IDOCK:   -5.95 KCAL/MOL
REMARK 922        TOTAL FREE ENERGY PREDICTED BY IDOCK:   -9.07 KCAL/MOL
REMARK 923 INTER-LIGAND FREE ENERGY PREDICTED BY IDOCK:   -8.07 KCAL/MOL
REMARK 924 INTRA-LIGAND FREE ENERGY PREDICTED BY IDOCK:   -1.00 KCAL/MOL
REMARK 927      BINDING AFFINITY PREDICTED BY RF-SCORE:    0.00 PKD
ROOT
HETATM    1  C   UNL     1     -11.026   6.444  67.240  1.00  0.00    -0.474 C  
HETATM    2  C   UNL     1     -10.574   7.907  67.125  1.00  0.00    -0.313 C  
ENDROOT
BRANCH   2   3
HETATM    3  N   UNL     1      -9.693   8.114  65.952  1.00  0.00    -0.447 NA 
HETATM    4  H   UNL     1     -10.186   7.857  65.096  1.00  0.00     0.000 HD 
BRANCH   3   5
HETATM    5  C   UNL     1      -9.122   9.454  65.817  1.00  0.00    -0.200 C  
BRANCH   5   6
HETATM    6  C   UNL     1      -9.434  10.112  64.465  1.00  0.00    -0.364 C  
BRANCH   6   7
HETATM    7  C   UNL     1     -10.463  11.204  64.597  1.00  0.00    -0.400 A  
HETATM    8  C   UNL     1     -10.957  11.852  63.455  1.00  0.00    -0.505 A  
HETATM    9  C   UNL     1     -12.312  13.274  64.839  1.00  0.00    -0.425 A  
HETATM   10  C   UNL     1     -11.885  12.885  63.575  1.00  0.00    -0.605 A  
HETATM   11  O   UNL     1     -13.207  14.289  65.003  1.00  0.00    -0.638 OA 
HETATM   12  C   UNL     1     -11.838  12.638  65.982  1.00  0.00    -0.492 A  
HETATM   13  H   UNL     1     -13.500  14.555  65.867  1.00  0.00     0.000 HD 
HETATM   14  C   UNL     1     -10.909  11.604  65.863  1.00  0.00    -0.339 A  
ENDBRANCH   6   7
ENDBRANCH   5   6
ENDBRANCH   3   5
ENDBRANCH   2   3
BRANCH   2  15
HETATM   15  C   UNL     1      -9.817   8.395  68.401  1.00  0.00    -0.176 C  
HETATM   16  O   UNL     1      -9.163   7.292  69.044  1.00  0.00    -0.140 OA 
HETATM   17  H   UNL     1      -8.702   7.588  69.820  1.00  0.00     0.000 HD 
BRANCH  15  18
HETATM   18  C   UNL     1     -10.704   9.142  69.382  1.00  0.00    -0.210 A  
HETATM   19  C   UNL     1     -11.136  10.446  69.087  1.00  0.00    -0.296 A  
HETATM   20  C   UNL     1     -11.960   9.235  71.463  1.00  0.00    -0.439 A  
HETATM   21  H   UNL     1     -13.408  10.764  72.881  1.00  0.00     0.000 HD 
HETATM   22  C   UNL     1     -11.958  11.141  69.978  1.00  0.00    -0.447 A  
HETATM   23  C   UNL     1     -12.353  10.532  71.164  1.00  0.00    -0.405 A  
HETATM   24  C   UNL     1     -11.140   8.541  70.575  1.00  0.00    -0.265 A  
HETATM   25  O   UNL     1     -13.138  11.180  72.071  1.00  0.00    -0.492 OA 
ENDBRANCH  15  18
ENDBRANCH   2  15
TORSDOF 6
ENDMDL
MODEL       42
REMARK 921   NORMALIZED FREE ENERGY PREDICTED BY IDOCK:   -5.93 KCAL/MOL
REMARK 922        TOTAL FREE ENERGY PREDICTED BY IDOCK:   -9.05 KCAL/MOL
REMARK 923 INTER-LIGAND FREE ENERGY PREDICTED BY IDOCK:   -8.05 KCAL/MOL
REMARK 924 INTRA-LIGAND FREE ENERGY PREDICTED BY IDOCK:   -1.01 KCAL/MOL
REMARK 927      BINDING AFFINITY PREDICTED BY RF-SCORE:    0.00 PKD
ROOT
HETATM    1  C   UNL     1      -9.454  12.452  66.823  1.00  0.00    -0.228 C  
HETATM    2  C   UNL     1      -9.910  13.849  67.272  1.00  0.00    -0.244 C  
ENDROOT
BRANCH   2   3
HETATM    3  N   UNL     1     -11.361  14.046  67.047  1.00  0.00    -0.316 NA 
HETATM    4  H   UNL     1     -11.768  13.204  66.638  1.00  0.00     0.000 HD 
BRANCH   3   5
HETATM    5  C   UNL     1     -12.134  14.455  68.220  1.00  0.00    -0.225 C  
BRANCH   5   6
HETATM    6  C   UNL     1     -11.813  13.630  69.475  1.00  0.00    -0.394 C  
BRANCH   6   7
HETATM    7  C   UNL     1     -12.236  14.341  70.735  1.00  0.00    -0.423 A  
HETATM    8  C   UNL     1     -11.749  15.626  71.018  1.00  0.00    -0.444 A  
HETATM    9  C   UNL     1     -12.955  15.632  73.097  1.00  0.00    -0.535 A  
HETATM   10  C   UNL     1     -12.112  16.273  72.198  1.00  0.00    -0.530 A  
HETATM   11  O   UNL     1     -13.323  16.222  74.269  1.00  0.00    -0.883 OA 
HETATM   12  C   UNL     1     -13.452  14.360  72.828  1.00  0.00    -0.582 A  
HETATM   13  H   UNL     1     -13.900  15.783  74.884  1.00  0.00     0.000 HD 
HETATM   14  C   UNL     1     -13.090  13.711  71.648  1.00  0.00    -0.455 A  
ENDBRANCH   6   7
ENDBRANCH   5   6
ENDBRANCH   3   5
ENDBRANCH   2   3
BRANCH   2  15
HETATM   15  C   UNL     1      -9.139  14.988  66.534  1.00  0.00    -0.286 C  
HETATM   16  O   UNL     1      -7.724  14.758  66.603  1.00  0.00    -0.230 OA 
HETATM   17  H   UNL     1      -7.255  15.452  66.153  1.00  0.00     0.000 HD 
BRANCH  15  18
HETATM   18  C   UNL     1      -9.484  16.379  67.039  1.00  0.00    -0.240 A  
HETATM   19  C   UNL     1     -10.100  17.305  66.182  1.00  0.00    -0.312 A  
HETATM   20  C   UNL     1      -9.562  18.030  68.823  1.00  0.00    -0.309 A  
HETATM   21  H   UNL     1     -10.239  20.424  69.330  1.00  0.00     0.000 HD 
HETATM   22  C   UNL     1     -10.429  18.586  66.637  1.00  0.00    -0.436 A  
HETATM   23  C   UNL     1     -10.147  18.939  67.952  1.00  0.00    -0.371 A  
HETATM   24  C   UNL     1      -9.233  16.754  68.370  1.00  0.00    -0.229 A  
HETATM   25  O   UNL     1     -10.432  20.183  68.432  1.00  0.00    -0.373 OA 
ENDBRANCH  15  18
ENDBRANCH   2  15
TORSDOF 6
ENDMDL
MODEL       43
REMARK 921   NORMALIZED FREE ENERGY PREDICTED BY IDOCK:   -5.91 KCAL/MOL
REMARK 922        TOTAL FREE ENERGY PREDICTED BY IDOCK:   -9.02 KCAL/MOL
REMARK 923 INTER-LIGAND FREE ENERGY PREDICTED BY IDOCK:   -8.21 KCAL/MOL
REMARK 924 INTRA-LIGAND FREE ENERGY PREDICTED BY IDOCK:   -0.81 KCAL/MOL
REMARK 927      BINDING AFFINITY PREDICTED BY RF-SCORE:    0.00 PKD
ROOT
HETATM    1  C   UNL     1     -12.880  14.687  70.783  1.00  0.00    -0.418 C  
HETATM    2  C   UNL     1     -11.790  14.897  69.722  1.00  0.00    -0.315 C  
ENDROOT
BRANCH   2   3
HETATM    3  N   UNL     1     -10.954  13.685  69.553  1.00  0.00    -0.448 NA 
HETATM    4  H   UNL     1     -10.806  13.237  70.457  1.00  0.00     0.000 HD 
BRANCH   3   5
HETATM    5  C   UNL     1     -11.448  12.706  68.584  1.00  0.00    -0.308 C  
BRANCH   5   6
HETATM    6  C   UNL     1     -12.016  13.347  67.310  1.00  0.00    -0.393 C  
BRANCH   6   7
HETATM    7  C   UNL     1     -11.517  12.659  66.066  1.00  0.00    -0.414 A  
HETATM    8  C   UNL     1     -12.071  12.970  64.816  1.00  0.00    -0.465 A  
HETATM    9  C   UNL     1     -10.648  11.339  63.771  1.00  0.00    -0.392 A  
HETATM   10  C   UNL     1     -11.634  12.313  63.667  1.00  0.00    -0.581 A  
HETATM   11  O   UNL     1     -10.202  10.662  62.676  1.00  0.00    -0.751 OA 
HETATM   12  C   UNL     1     -10.083  11.024  65.002  1.00  0.00    -0.354 A  
HETATM   13  H   UNL     1      -9.528   9.996  62.747  1.00  0.00     0.000 HD 
HETATM   14  C   UNL     1     -10.519  11.680  66.152  1.00  0.00    -0.289 A  
ENDBRANCH   6   7
ENDBRANCH   5   6
ENDBRANCH   3   5
ENDBRANCH   2   3
BRANCH   2  15
HETATM   15  C   UNL     1     -10.851  16.097  70.067  1.00  0.00    -0.349 C  
HETATM   16  O   UNL     1     -11.380  16.841  71.174  1.00  0.00    -0.468 OA 
HETATM   17  H   UNL     1     -10.809  17.571  71.384  1.00  0.00     0.000 HD 
BRANCH  15  18
HETATM   18  C   UNL     1     -10.579  17.011  68.885  1.00  0.00    -0.328 A  
HETATM   19  C   UNL     1     -10.219  18.352  69.101  1.00  0.00    -0.090 A  
HETATM   20  C   UNL     1     -10.382  17.382  66.489  1.00  0.00    -0.312 A  
HETATM   21  H   UNL     1      -9.893  19.172  64.757  1.00  0.00     0.000 HD 
HETATM   22  C   UNL     1      -9.959  19.201  68.022  1.00  0.00    -0.458 A  
HETATM   23  C   UNL     1     -10.053  18.710  66.725  1.00  0.00    -0.380 A  
HETATM   24  C   UNL     1     -10.642  16.535  67.564  1.00  0.00    -0.313 A  
HETATM   25  O   UNL     1      -9.828  19.508  65.643  1.00  0.00    -0.380 OA 
ENDBRANCH  15  18
ENDBRANCH   2  15
TORSDOF 6
ENDMDL
MODEL       44
REMARK 921   NORMALIZED FREE ENERGY PREDICTED BY IDOCK:   -5.88 KCAL/MOL
REMARK 922        TOTAL FREE ENERGY PREDICTED BY IDOCK:   -8.99 KCAL/MOL
REMARK 923 INTER-LIGAND FREE ENERGY PREDICTED BY IDOCK:   -8.12 KCAL/MOL
REMARK 924 INTRA-LIGAND FREE ENERGY PREDICTED BY IDOCK:   -0.87 KCAL/MOL
REMARK 927      BINDING AFFINITY PREDICTED BY RF-SCORE:    0.00 PKD
ROOT
HETATM    1  C   UNL     1     -10.007  15.342  67.568  1.00  0.00    -0.226 C  
HETATM    2  C   UNL     1     -11.096  14.356  68.018  1.00  0.00    -0.272 C  
ENDROOT
BRANCH   2   3
HETATM    3  N   UNL     1     -12.284  14.418  67.135  1.00  0.00    -0.584 NA 
HETATM    4  H   UNL     1     -12.808  15.275  67.317  1.00  0.00     0.000 HD 
BRANCH   3   5
HETATM    5  C   UNL     1     -12.016  14.292  65.702  1.00  0.00    -0.386 C  
BRANCH   5   6
HETATM    6  C   UNL     1     -12.564  12.992  65.096  1.00  0.00    -0.530 C  
BRANCH   6   7
HETATM    7  C   UNL     1     -11.476  11.971  64.885  1.00  0.00    -0.352 A  
HETATM    8  C   UNL     1     -10.967  11.737  63.599  1.00  0.00    -0.513 A  
HETATM    9  C   UNL     1      -9.516  10.033  64.476  1.00  0.00    -0.296 A  
HETATM   10  C   UNL     1      -9.983  10.770  63.394  1.00  0.00    -0.385 A  
HETATM   11  O   UNL     1      -8.565   9.069  64.319  1.00  0.00    -0.231 OA 
HETATM   12  C   UNL     1     -10.005  10.258  65.759  1.00  0.00    -0.337 A  
HETATM   13  H   UNL     1      -8.246   8.565  65.058  1.00  0.00     0.000 HD 
HETATM   14  C   UNL     1     -10.989  11.224  65.965  1.00  0.00    -0.237 A  
ENDBRANCH   6   7
ENDBRANCH   5   6
ENDBRANCH   3   5
ENDBRANCH   2   3
BRANCH   2  15
HETATM   15  C   UNL     1     -11.560  14.616  69.486  1.00  0.00    -0.310 C  
HETATM   16  O   UNL     1     -10.507  15.234  70.239  1.00  0.00    -0.427 OA 
HETATM   17  H   UNL     1     -10.789  15.392  71.133  1.00  0.00     0.000 HD 
BRANCH  15  18
HETATM   18  C   UNL     1     -12.066  13.369  70.190  1.00  0.00    -0.415 A  
HETATM   19  C   UNL     1     -11.716  12.097  69.706  1.00  0.00    -0.381 A  
HETATM   20  C   UNL     1     -13.307  12.303  71.990  1.00  0.00    -0.491 A  
HETATM   21  H   UNL     1     -13.998  10.035  72.899  1.00  0.00     0.000 HD 
HETATM   22  C   UNL     1     -12.169  10.942  70.349  1.00  0.00    -0.453 A  
HETATM   23  C   UNL     1     -12.970  11.057  71.480  1.00  0.00    -0.448 A  
HETATM   24  C   UNL     1     -12.856  13.455  71.350  1.00  0.00    -0.420 A  
HETATM   25  O   UNL     1     -13.451   9.957  72.127  1.00  0.00    -0.429 OA 
ENDBRANCH  15  18
ENDBRANCH   2  15
TORSDOF 6
ENDMDL
MODEL       45
REMARK 921   NORMALIZED FREE ENERGY PREDICTED BY IDOCK:   -5.88 KCAL/MOL
REMARK 922        TOTAL FREE ENERGY PREDICTED BY IDOCK:   -8.98 KCAL/MOL
REMARK 923 INTER-LIGAND FREE ENERGY PREDICTED BY IDOCK:   -8.30 KCAL/MOL
REMARK 924 INTRA-LIGAND FREE ENERGY PREDICTED BY IDOCK:   -0.68 KCAL/MOL
REMARK 927      BINDING AFFINITY PREDICTED BY RF-SCORE:    0.00 PKD
ROOT
HETATM    1  C   UNL     1     -10.369   7.812  73.200  1.00  0.00    -0.403 C  
HETATM    2  C   UNL     1     -11.593   7.887  72.275  1.00  0.00    -0.350 C  
ENDROOT
BRANCH   2   3
HETATM    3  N   UNL     1     -12.731   8.570  72.933  1.00  0.00    -0.658 NA 
HETATM    4  H   UNL     1     -12.467   8.857  73.876  1.00  0.00     0.000 HD 
BRANCH   3   5
HETATM    5  C   UNL     1     -13.296   9.705  72.204  1.00  0.00    -0.454 C  
BRANCH   5   6
HETATM    6  C   UNL     1     -12.306  10.347  71.221  1.00  0.00    -0.507 C  
BRANCH   6   7
HETATM    7  C   UNL     1     -12.515  11.835  71.108  1.00  0.00    -0.390 A  
HETATM    8  C   UNL     1     -13.299  12.512  72.053  1.00  0.00    -0.528 A  
HETATM    9  C   UNL     1     -12.965  14.574  70.864  1.00  0.00    -0.361 A  
HETATM   10  C   UNL     1     -13.522  13.883  71.933  1.00  0.00    -0.511 A  
HETATM   11  O   UNL     1     -13.168  15.912  70.701  1.00  0.00    -0.723 OA 
HETATM   12  C   UNL     1     -12.178  13.919  69.922  1.00  0.00    -0.393 A  
HETATM   13  H   UNL     1     -12.787  16.384  69.970  1.00  0.00     0.000 HD 
HETATM   14  C   UNL     1     -11.955  12.548  70.040  1.00  0.00    -0.372 A  
ENDBRANCH   6   7
ENDBRANCH   5   6
ENDBRANCH   3   5
ENDBRANCH   2   3
BRANCH   2  15
HETATM   15  C   UNL     1     -12.069   6.475  71.809  1.00  0.00    -0.342 C  
HETATM   16  O   UNL     1     -12.133   5.577  72.926  1.00  0.00    -0.542 OA 
HETATM   17  H   UNL     1     -12.423   4.717  72.642  1.00  0.00     0.000 HD 
BRANCH  15  18
HETATM   18  C   UNL     1     -11.221   5.888  70.694  1.00  0.00    -0.284 A  
HETATM   19  C   UNL     1     -10.403   4.774  70.945  1.00  0.00    -0.187 A  
HETATM   20  C   UNL     1     -10.484   5.862  68.376  1.00  0.00    -0.294 A  
HETATM   21  H   UNL     1      -8.931   4.663  66.765  1.00  0.00     0.000 HD 
HETATM   22  C   UNL     1      -9.623   4.220  69.926  1.00  0.00    -0.279 A  
HETATM   23  C   UNL     1      -9.663   4.777  68.652  1.00  0.00    -0.157 A  
HETATM   24  C   UNL     1     -11.261   6.415  69.392  1.00  0.00    -0.459 A  
HETATM   25  O   UNL     1      -8.904   4.283  67.634  1.00  0.00    -0.104 OA 
ENDBRANCH  15  18
ENDBRANCH   2  15
TORSDOF 6
ENDMDL
MODEL       46
REMARK 921   NORMALIZED FREE ENERGY PREDICTED BY IDOCK:   -5.88 KCAL/MOL
REMARK 922        TOTAL FREE ENERGY PREDICTED BY IDOCK:   -8.98 KCAL/MOL
REMARK 923 INTER-LIGAND FREE ENERGY PREDICTED BY IDOCK:   -8.42 KCAL/MOL
REMARK 924 INTRA-LIGAND FREE ENERGY PREDICTED BY IDOCK:   -0.56 KCAL/MOL
REMARK 927      BINDING AFFINITY PREDICTED BY RF-SCORE:    0.00 PKD
ROOT
HETATM    1  C   UNL     1     -11.632  15.897  71.425  1.00  0.00    -0.529 C  
HETATM    2  C   UNL     1     -11.946  15.708  69.933  1.00  0.00    -0.360 C  
ENDROOT
BRANCH   2   3
HETATM    3  N   UNL     1     -12.732  14.476  69.694  1.00  0.00    -0.540 NA 
HETATM    4  H   UNL     1     -12.676  14.213  68.710  1.00  0.00     0.000 HD 
BRANCH   3   5
HETATM    5  C   UNL     1     -12.389  13.332  70.539  1.00  0.00    -0.316 C  
BRANCH   5   6
HETATM    6  C   UNL     1     -11.902  12.114  69.740  1.00  0.00    -0.397 C  
BRANCH   6   7
HETATM    7  C   UNL     1     -11.933  10.854  70.566  1.00  0.00    -0.466 A  
HETATM    8  C   UNL     1     -13.081  10.518  71.299  1.00  0.00    -0.478 A  
HETATM    9  C   UNL     1     -11.971   8.564  72.153  1.00  0.00    -0.383 A  
HETATM   10  C   UNL     1     -13.102   9.370  72.090  1.00  0.00    -0.526 A  
HETATM   11  O   UNL     1     -11.943   7.441  72.925  1.00  0.00    -0.557 OA 
HETATM   12  C   UNL     1     -10.827   8.879  71.427  1.00  0.00    -0.378 A  
HETATM   13  H   UNL     1     -11.171   6.890  72.968  1.00  0.00     0.000 HD 
HETATM   14  C   UNL     1     -10.805  10.027  70.635  1.00  0.00    -0.367 A  
ENDBRANCH   6   7
ENDBRANCH   5   6
ENDBRANCH   3   5
ENDBRANCH   2   3
BRANCH   2  15
HETATM   15  C   UNL     1     -10.652  15.643  69.060  1.00  0.00    -0.234 C  
HETATM   16  O   UNL     1      -9.501  15.436  69.890  1.00  0.00    -0.410 OA 
HETATM   17  H   UNL     1      -8.714  15.396  69.359  1.00  0.00     0.000 HD 
BRANCH  15  18
HETATM   18  C   UNL     1     -10.462  16.858  68.169  1.00  0.00    -0.350 A  
HETATM   19  C   UNL     1     -10.560  16.729  66.773  1.00  0.00    -0.203 A  
HETATM   20  C   UNL     1     -10.061  19.240  67.883  1.00  0.00    -0.492 A  
HETATM   21  H   UNL     1      -9.769  21.041  66.118  1.00  0.00     0.000 HD 
HETATM   22  C   UNL     1     -10.394  17.840  65.942  1.00  0.00    -0.257 A  
HETATM   23  C   UNL     1     -10.135  19.085  66.506  1.00  0.00    -0.403 A  
HETATM   24  C   UNL     1     -10.225  18.132  68.713  1.00  0.00    -0.353 A  
HETATM   25  O   UNL     1      -9.946  20.192  65.733  1.00  0.00    -0.422 OA 
ENDBRANCH  15  18
ENDBRANCH   2  15
TORSDOF 6
ENDMDL
MODEL       47
REMARK 921   NORMALIZED FREE ENERGY PREDICTED BY IDOCK:   -5.86 KCAL/MOL
REMARK 922        TOTAL FREE ENERGY PREDICTED BY IDOCK:   -8.96 KCAL/MOL
REMARK 923 INTER-LIGAND FREE ENERGY PREDICTED BY IDOCK:   -8.06 KCAL/MOL
REMARK 924 INTRA-LIGAND FREE ENERGY PREDICTED BY IDOCK:   -0.90 KCAL/MOL
REMARK 927      BINDING AFFINITY PREDICTED BY RF-SCORE:    0.00 PKD
ROOT
HETATM    1  C   UNL     1     -11.513  11.968  65.865  1.00  0.00    -0.392 C  
HETATM    2  C   UNL     1     -10.885  12.480  67.170  1.00  0.00    -0.250 C  
ENDROOT
BRANCH   2   3
HETATM    3  N   UNL     1      -9.442  12.769  67.003  1.00  0.00    -0.225 NA 
HETATM    4  H   UNL     1      -9.148  12.535  66.054  1.00  0.00     0.000 HD 
BRANCH   3   5
HETATM    5  C   UNL     1      -9.026  14.132  67.334  1.00  0.00    -0.202 C  
BRANCH   5   6
HETATM    6  C   UNL     1      -9.474  15.171  66.296  1.00  0.00    -0.341 C  
BRANCH   6   7
HETATM    7  C   UNL     1      -9.812  16.492  66.936  1.00  0.00    -0.262 A  
HETATM    8  C   UNL     1     -10.103  17.610  66.139  1.00  0.00    -0.307 A  
HETATM    9  C   UNL     1     -10.367  18.957  68.112  1.00  0.00    -0.366 A  
HETATM   10  C   UNL     1     -10.385  18.842  66.727  1.00  0.00    -0.464 A  
HETATM   11  O   UNL     1     -10.623  20.145  68.728  1.00  0.00    -0.481 OA 
HETATM   12  C   UNL     1     -10.088  17.857  68.917  1.00  0.00    -0.349 A  
HETATM   13  H   UNL     1     -10.611  20.224  69.675  1.00  0.00     0.000 HD 
HETATM   14  C   UNL     1      -9.805  16.624  68.330  1.00  0.00    -0.252 A  
ENDBRANCH   6   7
ENDBRANCH   5   6
ENDBRANCH   3   5
ENDBRANCH   2   3
BRANCH   2  15
HETATM   15  C   UNL     1     -11.051  11.465  68.345  1.00  0.00    -0.242 C  
HETATM   16  O   UNL     1     -11.671  10.258  67.876  1.00  0.00    -0.691 OA 
HETATM   17  H   UNL     1     -11.771   9.640  68.591  1.00  0.00     0.000 HD 
BRANCH  15  18
HETATM   18  C   UNL     1     -11.808  12.033  69.533  1.00  0.00    -0.390 A  
HETATM   19  C   UNL     1     -12.356  11.169  70.496  1.00  0.00    -0.454 A  
HETATM   20  C   UNL     1     -12.634  13.927  70.816  1.00  0.00    -0.424 A  
HETATM   21  H   UNL     1     -13.971  14.534  72.886  1.00  0.00     0.000 HD 
HETATM   22  C   UNL     1     -13.048  11.679  71.598  1.00  0.00    -0.456 A  
HETATM   23  C   UNL     1     -13.190  13.055  71.741  1.00  0.00    -0.392 A  
HETATM   24  C   UNL     1     -11.944  13.419  69.717  1.00  0.00    -0.396 A  
HETATM   25  O   UNL     1     -13.874  13.595  72.789  1.00  0.00    -0.727 OA 
ENDBRANCH  15  18
ENDBRANCH   2  15
TORSDOF 6
ENDMDL
MODEL       48
REMARK 921   NORMALIZED FREE ENERGY PREDICTED BY IDOCK:   -5.86 KCAL/MOL
REMARK 922        TOTAL FREE ENERGY PREDICTED BY IDOCK:   -8.96 KCAL/MOL
REMARK 923 INTER-LIGAND FREE ENERGY PREDICTED BY IDOCK:   -7.93 KCAL/MOL
REMARK 924 INTRA-LIGAND FREE ENERGY PREDICTED BY IDOCK:   -1.03 KCAL/MOL
REMARK 927      BINDING AFFINITY PREDICTED BY RF-SCORE:    0.00 PKD
ROOT
HETATM    1  C   UNL     1     -12.122  12.993  63.211  1.00  0.00    -0.499 C  
HETATM    2  C   UNL     1     -11.094  12.814  64.338  1.00  0.00    -0.349 C  
ENDROOT
BRANCH   2   3
HETATM    3  N   UNL     1     -10.245  14.018  64.497  1.00  0.00    -0.689 NA 
HETATM    4  H   UNL     1     -10.220  14.544  63.623  1.00  0.00     0.000 HD 
BRANCH   3   5
HETATM    5  C   UNL     1     -10.606  14.906  65.603  1.00  0.00    -0.344 C  
BRANCH   5   6
HETATM    6  C   UNL     1     -11.861  14.451  66.361  1.00  0.00    -0.402 C  
BRANCH   6   7
HETATM    7  C   UNL     1     -11.720  14.648  67.848  1.00  0.00    -0.379 A  
HETATM    8  C   UNL     1     -11.259  15.871  68.357  1.00  0.00    -0.368 A  
HETATM    9  C   UNL     1     -11.387  14.996  70.592  1.00  0.00    -0.271 A  
HETATM   10  C   UNL     1     -11.096  16.047  69.731  1.00  0.00    -0.337 A  
HETATM   11  O   UNL     1     -11.229  15.120  71.940  1.00  0.00    -0.536 OA 
HETATM   12  C   UNL     1     -11.853  13.779  70.104  1.00  0.00    -0.360 A  
HETATM   13  H   UNL     1     -11.428  14.402  72.529  1.00  0.00     0.000 HD 
HETATM   14  C   UNL     1     -12.016  13.602  68.730  1.00  0.00    -0.394 A  
ENDBRANCH   6   7
ENDBRANCH   5   6
ENDBRANCH   3   5
ENDBRANCH   2   3
BRANCH   2  15
HETATM   15  C   UNL     1     -10.162  11.584  64.100  1.00  0.00    -0.325 C  
HETATM   16  O   UNL     1     -10.552  10.888  62.907  1.00  0.00    -0.781 OA 
HETATM   17  H   UNL     1      -9.984  10.139  62.762  1.00  0.00     0.000 HD 
BRANCH  15  18
HETATM   18  C   UNL     1     -10.101  10.633  65.283  1.00  0.00    -0.363 A  
HETATM   19  C   UNL     1      -9.307   9.476  65.214  1.00  0.00    -0.317 A  
HETATM   20  C   UNL     1     -10.725  10.027  67.554  1.00  0.00    -0.339 A  
HETATM   21  H   UNL     1     -10.424   8.227  69.319  1.00  0.00     0.000 HD 
HETATM   22  C   UNL     1      -9.237   8.597  66.298  1.00  0.00    -0.257 A  
HETATM   23  C   UNL     1      -9.956   8.876  67.455  1.00  0.00    -0.203 A  
HETATM   24  C   UNL     1     -10.797  10.904  66.473  1.00  0.00    -0.234 A  
HETATM   25  O   UNL     1      -9.933   8.037  68.529  1.00  0.00    -0.180 OA 
ENDBRANCH  15  18
ENDBRANCH   2  15
TORSDOF 6
ENDMDL
MODEL       49
REMARK 921   NORMALIZED FREE ENERGY PREDICTED BY IDOCK:   -5.86 KCAL/MOL
REMARK 922        TOTAL FREE ENERGY PREDICTED BY IDOCK:   -8.95 KCAL/MOL
REMARK 923 INTER-LIGAND FREE ENERGY PREDICTED BY IDOCK:   -8.75 KCAL/MOL
REMARK 924 INTRA-LIGAND FREE ENERGY PREDICTED BY IDOCK:   -0.21 KCAL/MOL
REMARK 927      BINDING AFFINITY PREDICTED BY RF-SCORE:    0.00 PKD
ROOT
HETATM    1  C   UNL     1     -10.238  13.973  66.655  1.00  0.00    -0.275 C  
HETATM    2  C   UNL     1     -11.669  13.466  66.423  1.00  0.00    -0.368 C  
ENDROOT
BRANCH   2   3
HETATM    3  N   UNL     1     -12.022  12.381  67.369  1.00  0.00    -0.520 NA 
HETATM    4  H   UNL     1     -11.778  11.476  66.967  1.00  0.00     0.000 HD 
BRANCH   3   5
HETATM    5  C   UNL     1     -11.453  12.502  68.711  1.00  0.00    -0.310 C  
BRANCH   5   6
HETATM    6  C   UNL     1     -10.831  11.196  69.225  1.00  0.00    -0.277 C  
BRANCH   6   7
HETATM    7  C   UNL     1     -11.655  10.578  70.326  1.00  0.00    -0.417 A  
HETATM    8  C   UNL     1     -11.491   9.225  70.657  1.00  0.00    -0.327 A  
HETATM    9  C   UNL     1     -13.226   9.411  72.310  1.00  0.00    -0.446 A  
HETATM   10  C   UNL     1     -12.273   8.642  71.652  1.00  0.00    -0.388 A  
HETATM   11  O   UNL     1     -14.022   8.878  73.278  1.00  0.00    -1.203 OA 
HETATM   12  C   UNL     1     -13.397  10.756  71.998  1.00  0.00    -0.403 A  
HETATM   13  H   UNL     1     -14.673   9.404  73.728  1.00  0.00     0.000 HD 
HETATM   14  C   UNL     1     -12.614  11.341  71.003  1.00  0.00    -0.495 A  
ENDBRANCH   6   7
ENDBRANCH   5   6
ENDBRANCH   3   5
ENDBRANCH   2   3
BRANCH   2  15
HETATM   15  C   UNL     1     -11.882  12.938  64.969  1.00  0.00    -0.372 C  
HETATM   16  O   UNL     1     -13.217  12.438  64.810  1.00  0.00    -0.784 OA 
HETATM   17  H   UNL     1     -13.347  12.117  63.925  1.00  0.00     0.000 HD 
BRANCH  15  18
HETATM   18  C   UNL     1     -10.862  11.894  64.548  1.00  0.00    -0.368 A  
HETATM   19  C   UNL     1     -10.202  12.013  63.314  1.00  0.00    -0.398 A  
HETATM   20  C   UNL     1      -9.586   9.872  64.995  1.00  0.00    -0.364 A  
HETATM   21  H   UNL     1      -7.867   8.304  63.981  1.00  0.00     0.000 HD 
HETATM   22  C   UNL     1      -9.257  11.062  62.919  1.00  0.00    -0.362 A  
HETATM   23  C   UNL     1      -8.965   9.995  63.760  1.00  0.00    -0.247 A  
HETATM   24  C   UNL     1     -10.530  10.819  65.390  1.00  0.00    -0.272 A  
HETATM   25  O   UNL     1      -8.065   9.034  63.406  1.00  0.00    -0.149 OA 
ENDBRANCH  15  18
ENDBRANCH   2  15
TORSDOF 6
ENDMDL
MODEL       50
REMARK 921   NORMALIZED FREE ENERGY PREDICTED BY IDOCK:   -5.85 KCAL/MOL
REMARK 922        TOTAL FREE ENERGY PREDICTED BY IDOCK:   -8.95 KCAL/MOL
REMARK 923 INTER-LIGAND FREE ENERGY PREDICTED BY IDOCK:   -6.86 KCAL/MOL
REMARK 924 INTRA-LIGAND FREE ENERGY PREDICTED BY IDOCK:   -2.09 KCAL/MOL
REMARK 927      BINDING AFFINITY PREDICTED BY RF-SCORE:    0.00 PKD
ROOT
HETATM    1  C   UNL     1     -12.554  11.861  63.138  1.00  0.00    -0.329 C  
HETATM    2  C   UNL     1     -11.997  12.917  64.104  1.00  0.00    -0.423 C  
ENDROOT
BRANCH   2   3
HETATM    3  N   UNL     1     -12.162  14.287  63.566  1.00  0.00    -1.080 NA 
HETATM    4  H   UNL     1     -12.914  14.302  62.876  1.00  0.00     0.000 HD 
BRANCH   3   5
HETATM    5  C   UNL     1     -12.378  15.337  64.562  1.00  0.00    -0.133 C  
BRANCH   5   6
HETATM    6  C   UNL     1     -11.127  16.189  64.825  1.00  0.00    -0.345 C  
BRANCH   6   7
HETATM    7  C   UNL     1     -10.410  15.760  66.079  1.00  0.00    -0.356 A  
HETATM    8  C   UNL     1      -9.008  15.741  66.120  1.00  0.00    -0.372 A  
HETATM    9  C   UNL     1      -9.078  14.898  68.369  1.00  0.00    -0.185 A  
HETATM   10  C   UNL     1      -8.341  15.314  67.267  1.00  0.00    -0.225 A  
HETATM   11  O   UNL     1      -8.467  14.460  69.505  1.00  0.00    -0.362 OA 
HETATM   12  C   UNL     1     -10.469  14.917  68.348  1.00  0.00    -0.243 A  
HETATM   13  H   UNL     1      -8.970  14.175  70.259  1.00  0.00     0.000 HD 
HETATM   14  C   UNL     1     -11.137  15.344  67.201  1.00  0.00    -0.291 A  
ENDBRANCH   6   7
ENDBRANCH   5   6
ENDBRANCH   3   5
ENDBRANCH   2   3
BRANCH   2  15
HETATM   15  C   UNL     1     -10.484  12.691  64.418  1.00  0.00    -0.373 C  
HETATM   16  O   UNL     1      -9.877  11.890  63.395  1.00  0.00    -0.448 OA 
HETATM   17  H   UNL     1      -8.956  11.753  63.587  1.00  0.00     0.000 HD 
BRANCH  15  18
HETATM   18  C   UNL     1     -10.234  12.092  65.792  1.00  0.00    -0.282 A  
HETATM   19  C   UNL     1      -8.921  11.839  66.220  1.00  0.00    -0.176 A  
HETATM   20  C   UNL     1     -11.052  11.274  67.931  1.00  0.00    -0.325 A  
HETATM   21  H   UNL     1     -10.289  10.260  70.130  1.00  0.00     0.000 HD 
HETATM   22  C   UNL     1      -8.677  11.294  67.484  1.00  0.00    -0.138 A  
HETATM   23  C   UNL     1      -9.748  11.007  68.324  1.00  0.00    -0.177 A  
HETATM   24  C   UNL     1     -11.295  11.816  66.671  1.00  0.00    -0.381 A  
HETATM   25  O   UNL     1      -9.558  10.456  69.556  1.00  0.00    -0.215 OA 
ENDBRANCH  15  18
ENDBRANCH   2  15
TORSDOF 6
ENDMDL
MODEL       51
REMARK 921   NORMALIZED FREE ENERGY PREDICTED BY IDOCK:   -5.84 KCAL/MOL
REMARK 922        TOTAL FREE ENERGY PREDICTED BY IDOCK:   -8.94 KCAL/MOL
REMARK 923 INTER-LIGAND FREE ENERGY PREDICTED BY IDOCK:   -7.44 KCAL/MOL
REMARK 924 INTRA-LIGAND FREE ENERGY PREDICTED BY IDOCK:   -1.50 KCAL/MOL
REMARK 927      BINDING AFFINITY PREDICTED BY RF-SCORE:    0.00 PKD
ROOT
HETATM    1  C   UNL     1     -11.882  11.938  70.074  1.00  0.00    -0.407 C  
HETATM    2  C   UNL     1     -11.339  12.994  69.100  1.00  0.00    -0.273 C  
ENDROOT
BRANCH   2   3
HETATM    3  N   UNL     1     -12.177  14.216  69.101  1.00  0.00    -0.500 NA 
HETATM    4  H   UNL     1     -13.111  13.998  69.448  1.00  0.00     0.000 HD 
BRANCH   3   5
HETATM    5  C   UNL     1     -11.627  15.360  69.829  1.00  0.00    -0.323 C  
BRANCH   5   6
HETATM    6  C   UNL     1     -10.136  15.597  69.549  1.00  0.00    -0.277 C  
BRANCH   6   7
HETATM    7  C   UNL     1      -9.913  16.831  68.713  1.00  0.00    -0.269 A  
HETATM    8  C   UNL     1     -10.988  17.437  68.046  1.00  0.00    -0.164 A  
HETATM    9  C   UNL     1      -9.495  19.070  67.107  1.00  0.00    -0.307 A  
HETATM   10  C   UNL     1     -10.780  18.559  67.246  1.00  0.00    -0.417 A  
HETATM   11  O   UNL     1      -9.245  20.156  66.323  1.00  0.00    -0.511 OA 
HETATM   12  C   UNL     1      -8.419  18.485  67.767  1.00  0.00    -0.285 A  
HETATM   13  H   UNL     1      -8.366  20.505  66.229  1.00  0.00     0.000 HD 
HETATM   14  C   UNL     1      -8.625  17.362  68.568  1.00  0.00    -0.270 A  
ENDBRANCH   6   7
ENDBRANCH   5   6
ENDBRANCH   3   5
ENDBRANCH   2   3
BRANCH   2  15
HETATM   15  C   UNL     1     -11.251  12.459  67.635  1.00  0.00    -0.288 C  
HETATM   16  O   UNL     1     -10.073  11.658  67.468  1.00  0.00    -0.188 OA 
HETATM   17  H   UNL     1     -10.020  11.332  66.576  1.00  0.00     0.000 HD 
BRANCH  15  18
HETATM   18  C   UNL     1     -11.311  13.556  66.586  1.00  0.00    -0.344 A  
HETATM   19  C   UNL     1     -10.136  14.215  66.191  1.00  0.00    -0.324 A  
HETATM   20  C   UNL     1     -12.562  14.909  64.998  1.00  0.00     0.026 A  
HETATM   21  H   UNL     1     -12.313  16.790  63.312  1.00  0.00     0.000 HD 
HETATM   22  C   UNL     1     -10.177  15.221  65.221  1.00  0.00    -0.397 A  
HETATM   23  C   UNL     1     -11.393  15.566  64.641  1.00  0.00    -0.357 A  
HETATM   24  C   UNL     1     -12.523  13.906  65.965  1.00  0.00    -0.501 A  
HETATM   25  O   UNL     1     -11.482  16.554  63.707  1.00  0.00    -1.065 OA 
ENDBRANCH  15  18
ENDBRANCH   2  15
TORSDOF 6
ENDMDL
MODEL       52
REMARK 921   NORMALIZED FREE ENERGY PREDICTED BY IDOCK:   -5.82 KCAL/MOL
REMARK 922        TOTAL FREE ENERGY PREDICTED BY IDOCK:   -8.91 KCAL/MOL
REMARK 923 INTER-LIGAND FREE ENERGY PREDICTED BY IDOCK:   -8.08 KCAL/MOL
REMARK 924 INTRA-LIGAND FREE ENERGY PREDICTED BY IDOCK:   -0.83 KCAL/MOL
REMARK 927      BINDING AFFINITY PREDICTED BY RF-SCORE:    0.00 PKD
ROOT
HETATM    1  C   UNL     1     -12.521  12.114  63.637  1.00  0.00    -0.658 C  
HETATM    2  C   UNL     1     -11.815  12.769  64.833  1.00  0.00    -0.379 C  
ENDROOT
BRANCH   2   3
HETATM    3  N   UNL     1     -12.093  12.043  66.094  1.00  0.00    -0.520 NA 
HETATM    4  H   UNL     1     -12.874  11.401  65.961  1.00  0.00     0.000 HD 
BRANCH   3   5
HETATM    5  C   UNL     1     -10.955  11.332  66.679  1.00  0.00    -0.268 C  
BRANCH   5   6
HETATM    6  C   UNL     1     -10.464  11.953  67.995  1.00  0.00    -0.228 C  
BRANCH   6   7
HETATM    7  C   UNL     1     -10.834  11.107  69.186  1.00  0.00    -0.284 A  
HETATM    8  C   UNL     1      -9.910  10.198  69.720  1.00  0.00    -0.245 A  
HETATM    9  C   UNL     1     -11.535   9.488  71.343  1.00  0.00    -0.392 A  
HETATM   10  C   UNL     1     -10.258   9.390  70.802  1.00  0.00    -0.368 A  
HETATM   11  O   UNL     1     -11.923   8.708  72.390  1.00  0.00    -0.375 OA 
HETATM   12  C   UNL     1     -12.461  10.391  70.829  1.00  0.00    -0.461 A  
HETATM   13  H   UNL     1     -12.795   8.775  72.760  1.00  0.00     0.000 HD 
HETATM   14  C   UNL     1     -12.113  11.199  69.747  1.00  0.00    -0.414 A  
ENDBRANCH   6   7
ENDBRANCH   5   6
ENDBRANCH   3   5
ENDBRANCH   2   3
BRANCH   2  15
HETATM   15  C   UNL     1     -12.234  14.262  65.023  1.00  0.00    -0.433 C  
HETATM   16  O   UNL     1     -12.424  14.892  63.748  1.00  0.00    -1.048 OA 
HETATM   17  H   UNL     1     -12.679  15.800  63.863  1.00  0.00     0.000 HD 
BRANCH  15  18
HETATM   18  C   UNL     1     -11.264  15.059  65.879  1.00  0.00    -0.313 A  
HETATM   19  C   UNL     1     -11.554  15.298  67.232  1.00  0.00    -0.164 A  
HETATM   20  C   UNL     1      -9.167  16.259  66.152  1.00  0.00    -0.376 A  
HETATM   21  H   UNL     1      -7.794  17.566  67.841  1.00  0.00     0.000 HD 
HETATM   22  C   UNL     1     -10.667  16.024  68.032  1.00  0.00    -0.309 A  
HETATM   23  C   UNL     1      -9.485  16.507  67.480  1.00  0.00    -0.224 A  
HETATM   24  C   UNL     1     -10.051  15.537  65.354  1.00  0.00    -0.387 A  
HETATM   25  O   UNL     1      -8.601  17.237  68.218  1.00  0.00    -0.231 OA 
ENDBRANCH  15  18
ENDBRANCH   2  15
TORSDOF 6
ENDMDL
MODEL       53
REMARK 921   NORMALIZED FREE ENERGY PREDICTED BY IDOCK:   -5.82 KCAL/MOL
REMARK 922        TOTAL FREE ENERGY PREDICTED BY IDOCK:   -8.90 KCAL/MOL
REMARK 923 INTER-LIGAND FREE ENERGY PREDICTED BY IDOCK:   -8.01 KCAL/MOL
REMARK 924 INTRA-LIGAND FREE ENERGY PREDICTED BY IDOCK:   -0.89 KCAL/MOL
REMARK 927      BINDING AFFINITY PREDICTED BY RF-SCORE:    0.00 PKD
ROOT
HETATM    1  C   UNL     1     -12.657  14.333  65.757  1.00  0.00    -0.405 C  
HETATM    2  C   UNL     1     -11.412  13.435  65.804  1.00  0.00    -0.320 C  
ENDROOT
BRANCH   2   3
HETATM    3  N   UNL     1     -11.382  12.610  67.034  1.00  0.00    -0.304 NA 
HETATM    4  H   UNL     1     -10.416  12.443  67.318  1.00  0.00     0.000 HD 
BRANCH   3   5
HETATM    5  C   UNL     1     -12.152  13.130  68.165  1.00  0.00    -0.184 C  
BRANCH   5   6
HETATM    6  C   UNL     1     -11.415  13.009  69.506  1.00  0.00    -0.289 C  
BRANCH   6   7
HETATM    7  C   UNL     1     -12.077  13.828  70.584  1.00  0.00    -0.405 A  
HETATM    8  C   UNL     1     -12.963  13.222  71.488  1.00  0.00    -0.426 A  
HETATM    9  C   UNL     1     -13.361  15.349  72.535  1.00  0.00    -0.471 A  
HETATM   10  C   UNL     1     -13.603  13.982  72.466  1.00  0.00    -0.670 A  
HETATM   11  O   UNL     1     -13.976  16.131  73.466  1.00  0.00    -0.825 OA 
HETATM   12  C   UNL     1     -12.480  15.964  71.651  1.00  0.00    -0.502 A  
HETATM   13  H   UNL     1     -13.811  17.065  73.513  1.00  0.00     0.000 HD 
HETATM   14  C   UNL     1     -11.840  15.205  70.672  1.00  0.00    -0.371 A  
ENDBRANCH   6   7
ENDBRANCH   5   6
ENDBRANCH   3   5
ENDBRANCH   2   3
BRANCH   2  15
HETATM   15  C   UNL     1     -10.086  14.259  65.732  1.00  0.00    -0.335 C  
HETATM   16  O   UNL     1      -9.017  13.537  66.359  1.00  0.00    -0.452 OA 
HETATM   17  H   UNL     1      -8.210  14.038  66.315  1.00  0.00     0.000 HD 
BRANCH  15  18
HETATM   18  C   UNL     1     -10.209  15.655  66.316  1.00  0.00    -0.312 A  
HETATM   19  C   UNL     1      -9.879  15.886  67.662  1.00  0.00    -0.233 A  
HETATM   20  C   UNL     1     -10.716  18.022  66.072  1.00  0.00    -0.143 A  
HETATM   21  H   UNL     1     -10.836  20.204  67.363  1.00  0.00     0.000 HD 
HETATM   22  C   UNL     1      -9.981  17.168  68.210  1.00  0.00    -0.300 A  
HETATM   23  C   UNL     1     -10.410  18.222  67.410  1.00  0.00    -0.392 A  
HETATM   24  C   UNL     1     -10.615  16.744  65.525  1.00  0.00    -0.243 A  
HETATM   25  O   UNL     1     -10.544  19.484  67.908  1.00  0.00    -0.426 OA 
ENDBRANCH  15  18
ENDBRANCH   2  15
TORSDOF 6
ENDMDL
MODEL       54
REMARK 921   NORMALIZED FREE ENERGY PREDICTED BY IDOCK:   -5.82 KCAL/MOL
REMARK 922        TOTAL FREE ENERGY PREDICTED BY IDOCK:   -8.90 KCAL/MOL
REMARK 923 INTER-LIGAND FREE ENERGY PREDICTED BY IDOCK:   -8.36 KCAL/MOL
REMARK 924 INTRA-LIGAND FREE ENERGY PREDICTED BY IDOCK:   -0.54 KCAL/MOL
REMARK 927      BINDING AFFINITY PREDICTED BY RF-SCORE:    0.00 PKD
ROOT
HETATM    1  C   UNL     1     -10.657  12.811  66.465  1.00  0.00    -0.270 C  
HETATM    2  C   UNL     1     -11.553  13.278  67.622  1.00  0.00    -0.346 C  
ENDROOT
BRANCH   2   3
HETATM    3  N   UNL     1     -11.949  14.697  67.466  1.00  0.00    -0.534 NA 
HETATM    4  H   UNL     1     -12.624  14.951  68.188  1.00  0.00     0.000 HD 
BRANCH   3   5
HETATM    5  C   UNL     1     -10.850  15.663  67.446  1.00  0.00    -0.315 C  
BRANCH   5   6
HETATM    6  C   UNL     1     -11.004  16.777  68.491  1.00  0.00    -0.312 C  
BRANCH   6   7
HETATM    7  C   UNL     1     -10.189  17.993  68.137  1.00  0.00    -0.392 A  
HETATM    8  C   UNL     1     -10.799  19.099  67.526  1.00  0.00    -0.512 A  
HETATM    9  C   UNL     1      -8.674  20.218  67.413  1.00  0.00    -0.341 A  
HETATM   10  C   UNL     1     -10.042  20.214  67.167  1.00  0.00    -0.590 A  
HETATM   11  O   UNL     1      -7.894  21.280  67.066  1.00  0.00    -0.717 OA 
HETATM   12  C   UNL     1      -8.055  19.132  68.025  1.00  0.00    -0.333 A  
HETATM   13  H   UNL     1      -6.959  21.283  67.234  1.00  0.00     0.000 HD 
HETATM   14  C   UNL     1      -8.811  18.017  68.384  1.00  0.00    -0.300 A  
ENDBRANCH   6   7
ENDBRANCH   5   6
ENDBRANCH   3   5
ENDBRANCH   2   3
BRANCH   2  15
HETATM   15  C   UNL     1     -10.859  13.111  69.011  1.00  0.00    -0.161 C  
HETATM   16  O   UNL     1      -9.486  12.731  68.840  1.00  0.00    -0.402 OA 
HETATM   17  H   UNL     1      -9.064  12.630  69.685  1.00  0.00     0.000 HD 
BRANCH  15  18
HETATM   18  C   UNL     1     -11.576  12.140  69.933  1.00  0.00    -0.297 A  
HETATM   19  C   UNL     1     -11.287  10.767  69.869  1.00  0.00    -0.385 A  
HETATM   20  C   UNL     1     -13.151  11.688  71.731  1.00  0.00    -0.487 A  
HETATM   21  H   UNL     1     -14.177   9.806  73.090  1.00  0.00     0.000 HD 
HETATM   22  C   UNL     1     -11.934   9.863  70.717  1.00  0.00    -0.410 A  
HETATM   23  C   UNL     1     -12.869  10.333  71.633  1.00  0.00    -0.463 A  
HETATM   24  C   UNL     1     -12.506  12.589  70.886  1.00  0.00    -0.361 A  
HETATM   25  O   UNL     1     -13.539   9.486  72.465  1.00  0.00    -0.433 OA 
ENDBRANCH  15  18
ENDBRANCH   2  15
TORSDOF 6
ENDMDL
MODEL       55
REMARK 921   NORMALIZED FREE ENERGY PREDICTED BY IDOCK:   -5.81 KCAL/MOL
REMARK 922        TOTAL FREE ENERGY PREDICTED BY IDOCK:   -8.89 KCAL/MOL
REMARK 923 INTER-LIGAND FREE ENERGY PREDICTED BY IDOCK:   -8.36 KCAL/MOL
REMARK 924 INTRA-LIGAND FREE ENERGY PREDICTED BY IDOCK:   -0.53 KCAL/MOL
REMARK 927      BINDING AFFINITY PREDICTED BY RF-SCORE:    0.00 PKD
ROOT
HETATM    1  C   UNL     1      -7.469  13.442  67.787  1.00  0.00    -0.160 C  
HETATM    2  C   UNL     1      -8.743  12.587  67.867  1.00  0.00    -0.180 C  
ENDROOT
BRANCH   2   3
HETATM    3  N   UNL     1      -8.739  11.715  69.065  1.00  0.00    -0.371 NA 
HETATM    4  H   UNL     1      -8.935  12.269  69.899  1.00  0.00     0.000 HD 
BRANCH   3   5
HETATM    5  C   UNL     1      -9.635  10.560  69.010  1.00  0.00    -0.202 C  
BRANCH   5   6
HETATM    6  C   UNL     1      -9.392   9.550  70.141  1.00  0.00    -0.286 C  
BRANCH   6   7
HETATM    7  C   UNL     1     -10.613   9.373  71.005  1.00  0.00    -0.400 A  
HETATM    8  C   UNL     1     -10.754   8.228  71.803  1.00  0.00    -0.332 A  
HETATM    9  C   UNL     1     -12.902   9.004  72.552  1.00  0.00    -0.338 A  
HETATM   10  C   UNL     1     -11.897   8.045  72.580  1.00  0.00    -0.419 A  
HETATM   11  O   UNL     1     -14.042   8.859  73.284  1.00  0.00    -1.211 OA 
HETATM   12  C   UNL     1     -12.775  10.149  71.772  1.00  0.00    -0.534 A  
HETATM   13  H   UNL     1     -14.729   9.515  73.265  1.00  0.00     0.000 HD 
HETATM   14  C   UNL     1     -11.632  10.334  70.994  1.00  0.00    -0.430 A  
ENDBRANCH   6   7
ENDBRANCH   5   6
ENDBRANCH   3   5
ENDBRANCH   2   3
BRANCH   2  15
HETATM   15  C   UNL     1      -8.932  11.688  66.604  1.00  0.00    -0.189 C  
HETATM   16  O   UNL     1      -7.671  11.469  65.956  1.00  0.00    -0.372 OA 
HETATM   17  H   UNL     1      -7.785  10.921  65.187  1.00  0.00     0.000 HD 
BRANCH  15  18
HETATM   18  C   UNL     1      -9.956  12.230  65.622  1.00  0.00    -0.271 A  
HETATM   19  C   UNL     1     -10.235  13.606  65.587  1.00  0.00    -0.316 A  
HETATM   20  C   UNL     1     -11.544  11.897  63.811  1.00  0.00    -0.555 A  
HETATM   21  H   UNL     1     -13.205  13.121  62.331  1.00  0.00     0.000 HD 
HETATM   22  C   UNL     1     -11.170  14.119  64.683  1.00  0.00    -0.371 A  
HETATM   23  C   UNL     1     -11.824  13.256  63.811  1.00  0.00    -0.467 A  
HETATM   24  C   UNL     1     -10.613  11.385  64.712  1.00  0.00    -0.377 A  
HETATM   25  O   UNL     1     -12.758  13.710  62.927  1.00  0.00    -0.577 OA 
ENDBRANCH  15  18
ENDBRANCH   2  15
TORSDOF 6
ENDMDL
MODEL       56
REMARK 921   NORMALIZED FREE ENERGY PREDICTED BY IDOCK:   -5.80 KCAL/MOL
REMARK 922        TOTAL FREE ENERGY PREDICTED BY IDOCK:   -8.88 KCAL/MOL
REMARK 923 INTER-LIGAND FREE ENERGY PREDICTED BY IDOCK:   -8.02 KCAL/MOL
REMARK 924 INTRA-LIGAND FREE ENERGY PREDICTED BY IDOCK:   -0.86 KCAL/MOL
REMARK 927      BINDING AFFINITY PREDICTED BY RF-SCORE:    0.00 PKD
ROOT
HETATM    1  C   UNL     1     -10.521  10.133  69.905  1.00  0.00    -0.322 C  
HETATM    2  C   UNL     1     -11.719  10.877  70.516  1.00  0.00    -0.342 C  
ENDROOT
BRANCH   2   3
HETATM    3  N   UNL     1     -12.971  10.098  70.377  1.00  0.00    -0.585 NA 
HETATM    4  H   UNL     1     -12.849   9.363  69.679  1.00  0.00     0.000 HD 
BRANCH   3   5
HETATM    5  C   UNL     1     -13.503   9.528  71.615  1.00  0.00    -0.385 C  
BRANCH   5   6
HETATM    6  C   UNL     1     -13.478   7.993  71.635  1.00  0.00    -0.375 C  
BRANCH   6   7
HETATM    7  C   UNL     1     -12.070   7.456  71.629  1.00  0.00    -0.349 A  
HETATM    8  C   UNL     1     -11.161   7.845  72.624  1.00  0.00    -0.459 A  
HETATM    9  C   UNL     1      -9.444   6.524  71.584  1.00  0.00    -0.156 A  
HETATM   10  C   UNL     1      -9.849   7.376  72.604  1.00  0.00    -0.224 A  
HETATM   11  O   UNL     1      -8.167   6.053  71.518  1.00  0.00    -0.120 OA 
HETATM   12  C   UNL     1     -10.335   6.122  70.593  1.00  0.00    -0.268 A  
HETATM   13  H   UNL     1      -7.891   5.470  70.820  1.00  0.00     0.000 HD 
HETATM   14  C   UNL     1     -11.648   6.591  70.612  1.00  0.00    -0.442 A  
ENDBRANCH   6   7
ENDBRANCH   5   6
ENDBRANCH   3   5
ENDBRANCH   2   3
BRANCH   2  15
HETATM   15  C   UNL     1     -11.938  12.280  69.866  1.00  0.00    -0.306 C  
HETATM   16  O   UNL     1     -10.780  12.666  69.111  1.00  0.00    -0.411 OA 
HETATM   17  H   UNL     1     -10.914  13.520  68.716  1.00  0.00     0.000 HD 
BRANCH  15  18
HETATM   18  C   UNL     1     -12.311  13.359  70.869  1.00  0.00    -0.436 A  
HETATM   19  C   UNL     1     -11.566  14.548  70.931  1.00  0.00    -0.243 A  
HETATM   20  C   UNL     1     -13.755  14.212  72.630  1.00  0.00    -0.568 A  
HETATM   21  H   UNL     1     -14.085  16.186  74.192  1.00  0.00     0.000 HD 
HETATM   22  C   UNL     1     -11.904  15.551  71.845  1.00  0.00    -0.514 A  
HETATM   23  C   UNL     1     -12.990  15.368  72.693  1.00  0.00    -0.422 A  
HETATM   24  C   UNL     1     -13.419  13.211  71.720  1.00  0.00    -0.420 A  
HETATM   25  O   UNL     1     -13.343  16.311  73.612  1.00  0.00    -0.670 OA 
ENDBRANCH  15  18
ENDBRANCH   2  15
TORSDOF 6
ENDMDL
MODEL       57
REMARK 921   NORMALIZED FREE ENERGY PREDICTED BY IDOCK:   -5.78 KCAL/MOL
REMARK 922        TOTAL FREE ENERGY PREDICTED BY IDOCK:   -8.85 KCAL/MOL
REMARK 923 INTER-LIGAND FREE ENERGY PREDICTED BY IDOCK:   -8.21 KCAL/MOL
REMARK 924 INTRA-LIGAND FREE ENERGY PREDICTED BY IDOCK:   -0.64 KCAL/MOL
REMARK 927      BINDING AFFINITY PREDICTED BY RF-SCORE:    0.00 PKD
ROOT
HETATM    1  C   UNL     1     -10.312   7.830  73.069  1.00  0.00    -0.410 C  
HETATM    2  C   UNL     1     -11.564   7.797  72.180  1.00  0.00    -0.317 C  
ENDROOT
BRANCH   2   3
HETATM    3  N   UNL     1     -12.723   8.433  72.848  1.00  0.00    -0.667 NA 
HETATM    4  H   UNL     1     -12.478   8.685  73.806  1.00  0.00     0.000 HD 
BRANCH   3   5
HETATM    5  C   UNL     1     -13.295   9.590  72.158  1.00  0.00    -0.461 C  
BRANCH   5   6
HETATM    6  C   UNL     1     -12.288  10.316  71.255  1.00  0.00    -0.506 C  
BRANCH   6   7
HETATM    7  C   UNL     1     -12.609  11.783  71.125  1.00  0.00    -0.412 A  
HETATM    8  C   UNL     1     -12.120  12.519  70.035  1.00  0.00    -0.337 A  
HETATM    9  C   UNL     1     -13.137  14.511  70.915  1.00  0.00    -0.345 A  
HETATM   10  C   UNL     1     -12.387  13.882  69.928  1.00  0.00    -0.358 A  
HETATM   11  O   UNL     1     -13.410  15.845  70.857  1.00  0.00    -0.651 OA 
HETATM   12  C   UNL     1     -13.635  13.794  71.998  1.00  0.00    -0.569 A  
HETATM   13  H   UNL     1     -13.922  16.274  71.531  1.00  0.00     0.000 HD 
HETATM   14  C   UNL     1     -13.368  12.430  72.107  1.00  0.00    -0.508 A  
ENDBRANCH   6   7
ENDBRANCH   5   6
ENDBRANCH   3   5
ENDBRANCH   2   3
BRANCH   2  15
HETATM   15  C   UNL     1     -11.966   6.343  71.777  1.00  0.00    -0.316 C  
HETATM   16  O   UNL     1     -11.924   5.479  72.922  1.00  0.00    -0.537 OA 
HETATM   17  H   UNL     1     -12.169   4.594  72.676  1.00  0.00     0.000 HD 
BRANCH  15  18
HETATM   18  C   UNL     1     -11.129   5.776  70.643  1.00  0.00    -0.272 A  
HETATM   19  C   UNL     1     -11.244   6.310  69.349  1.00  0.00    -0.489 A  
HETATM   20  C   UNL     1      -9.435   4.237  69.819  1.00  0.00    -0.260 A  
HETATM   21  H   UNL     1      -8.221   3.512  67.711  1.00  0.00     0.000 HD 
HETATM   22  C   UNL     1     -10.474   5.802  68.299  1.00  0.00    -0.281 A  
HETATM   23  C   UNL     1      -9.584   4.762  68.543  1.00  0.00    -0.156 A  
HETATM   24  C   UNL     1     -10.203   4.743  70.866  1.00  0.00    -0.247 A  
HETATM   25  O   UNL     1      -8.828   4.223  67.544  1.00  0.00    -0.104 OA 
ENDBRANCH  15  18
ENDBRANCH   2  15
TORSDOF 6
ENDMDL
MODEL       58
REMARK 921   NORMALIZED FREE ENERGY PREDICTED BY IDOCK:   -5.75 KCAL/MOL
REMARK 922        TOTAL FREE ENERGY PREDICTED BY IDOCK:   -8.82 KCAL/MOL
REMARK 923 INTER-LIGAND FREE ENERGY PREDICTED BY IDOCK:   -8.29 KCAL/MOL
REMARK 924 INTRA-LIGAND FREE ENERGY PREDICTED BY IDOCK:   -0.52 KCAL/MOL
REMARK 927      BINDING AFFINITY PREDICTED BY RF-SCORE:    0.00 PKD
ROOT
HETATM    1  C   UNL     1     -12.018  13.044  70.034  1.00  0.00    -0.383 C  
HETATM    2  C   UNL     1     -12.018  12.175  68.768  1.00  0.00    -0.239 C  
ENDROOT
BRANCH   2   3
HETATM    3  N   UNL     1     -12.051  10.731  69.099  1.00  0.00    -0.642 NA 
HETATM    4  H   UNL     1     -11.684  10.186  68.319  1.00  0.00     0.000 HD 
BRANCH   3   5
HETATM    5  C   UNL     1     -11.372  10.350  70.338  1.00  0.00    -0.337 C  
BRANCH   5   6
HETATM    6  C   UNL     1     -10.132   9.474  70.104  1.00  0.00    -0.293 C  
BRANCH   6   7
HETATM    7  C   UNL     1     -10.381   8.419  69.058  1.00  0.00    -0.231 A  
HETATM    8  C   UNL     1     -10.133   8.694  67.705  1.00  0.00    -0.271 A  
HETATM    9  C   UNL     1     -10.908   6.498  67.109  1.00  0.00    -0.401 A  
HETATM   10  C   UNL     1     -10.393   7.732  66.730  1.00  0.00    -0.348 A  
HETATM   11  O   UNL     1     -11.189   5.534  66.189  1.00  0.00    -0.774 OA 
HETATM   12  C   UNL     1     -11.153   6.207  68.448  1.00  0.00    -0.343 A  
HETATM   13  H   UNL     1     -11.541   4.690  66.448  1.00  0.00     0.000 HD 
HETATM   14  C   UNL     1     -10.894   7.168  69.424  1.00  0.00    -0.225 A  
ENDBRANCH   6   7
ENDBRANCH   5   6
ENDBRANCH   3   5
ENDBRANCH   2   3
BRANCH   2  15
HETATM   15  C   UNL     1     -10.772  12.444  67.866  1.00  0.00    -0.220 C  
HETATM   16  O   UNL     1      -9.623  12.732  68.676  1.00  0.00    -0.383 OA 
HETATM   17  H   UNL     1      -8.865  12.896  68.127  1.00  0.00     0.000 HD 
BRANCH  15  18
HETATM   18  C   UNL     1     -10.995  13.539  66.838  1.00  0.00    -0.296 A  
HETATM   19  C   UNL     1     -11.840  13.311  65.739  1.00  0.00    -0.428 A  
HETATM   20  C   UNL     1     -10.618  15.803  66.031  1.00  0.00    -0.334 A  
HETATM   21  H   UNL     1     -11.179  17.388  64.130  1.00  0.00     0.000 HD 
HETATM   22  C   UNL     1     -12.059  14.313  64.789  1.00  0.00    -0.457 A  
HETATM   23  C   UNL     1     -11.436  15.547  64.940  1.00  0.00    -0.279 A  
HETATM   24  C   UNL     1     -10.398  14.804  66.978  1.00  0.00    -0.255 A  
HETATM   25  O   UNL     1     -11.605  16.546  64.027  1.00  0.00    -1.154 OA 
ENDBRANCH  15  18
ENDBRANCH   2  15
TORSDOF 6
ENDMDL
MODEL       59
REMARK 921   NORMALIZED FREE ENERGY PREDICTED BY IDOCK:   -5.75 KCAL/MOL
REMARK 922        TOTAL FREE ENERGY PREDICTED BY IDOCK:   -8.81 KCAL/MOL
REMARK 923 INTER-LIGAND FREE ENERGY PREDICTED BY IDOCK:   -8.30 KCAL/MOL
REMARK 924 INTRA-LIGAND FREE ENERGY PREDICTED BY IDOCK:   -0.51 KCAL/MOL
REMARK 927      BINDING AFFINITY PREDICTED BY RF-SCORE:    0.00 PKD
ROOT
HETATM    1  C   UNL     1     -10.874  16.024  69.761  1.00  0.00    -0.337 C  
HETATM    2  C   UNL     1     -11.529  15.525  68.464  1.00  0.00    -0.361 C  
ENDROOT
BRANCH   2   3
HETATM    3  N   UNL     1     -12.440  14.385  68.718  1.00  0.00    -0.558 NA 
HETATM    4  H   UNL     1     -12.563  13.841  67.864  1.00  0.00     0.000 HD 
BRANCH   3   5
HETATM    5  C   UNL     1     -12.058  13.503  69.822  1.00  0.00    -0.318 C  
BRANCH   5   6
HETATM    6  C   UNL     1     -11.480  12.161  69.352  1.00  0.00    -0.355 C  
BRANCH   6   7
HETATM    7  C   UNL     1     -11.726  11.064  70.356  1.00  0.00    -0.437 A  
HETATM    8  C   UNL     1     -10.802  10.018  70.500  1.00  0.00    -0.380 A  
HETATM    9  C   UNL     1     -12.209   8.994  72.158  1.00  0.00    -0.357 A  
HETATM   10  C   UNL     1     -11.041   8.984  71.404  1.00  0.00    -0.399 A  
HETATM   11  O   UNL     1     -12.490   7.996  73.042  1.00  0.00    -0.625 OA 
HETATM   12  C   UNL     1     -13.132  10.027  72.032  1.00  0.00    -0.541 A  
HETATM   13  H   UNL     1     -13.288   8.002  73.557  1.00  0.00     0.000 HD 
HETATM   14  C   UNL     1     -12.894  11.061  71.127  1.00  0.00    -0.491 A  
ENDBRANCH   6   7
ENDBRANCH   5   6
ENDBRANCH   3   5
ENDBRANCH   2   3
BRANCH   2  15
HETATM   15  C   UNL     1     -10.473  15.083  67.401  1.00  0.00    -0.257 C  
HETATM   16  O   UNL     1      -9.759  16.224  66.904  1.00  0.00    -0.228 OA 
HETATM   17  H   UNL     1      -9.116  15.956  66.257  1.00  0.00     0.000 HD 
BRANCH  15  18
HETATM   18  C   UNL     1     -11.067  14.280  66.256  1.00  0.00    -0.323 A  
HETATM   19  C   UNL     1     -10.867  12.891  66.195  1.00  0.00    -0.300 A  
HETATM   20  C   UNL     1     -12.398  14.143  64.225  1.00  0.00    -0.398 A  
HETATM   21  H   UNL     1     -13.214  12.519  62.452  1.00  0.00     0.000 HD 
HETATM   22  C   UNL     1     -11.414  12.139  65.151  1.00  0.00    -0.376 A  
HETATM   23  C   UNL     1     -12.166  12.775  64.169  1.00  0.00    -0.429 A  
HETATM   24  C   UNL     1     -11.852  14.893  65.265  1.00  0.00    -0.217 A  
HETATM   25  O   UNL     1     -12.701  12.085  63.123  1.00  0.00    -0.616 OA 
ENDBRANCH  15  18
ENDBRANCH   2  15
TORSDOF 6
ENDMDL
MODEL       60
REMARK 921   NORMALIZED FREE ENERGY PREDICTED BY IDOCK:   -5.75 KCAL/MOL
REMARK 922        TOTAL FREE ENERGY PREDICTED BY IDOCK:   -8.81 KCAL/MOL
REMARK 923 INTER-LIGAND FREE ENERGY PREDICTED BY IDOCK:   -8.11 KCAL/MOL
REMARK 924 INTRA-LIGAND FREE ENERGY PREDICTED BY IDOCK:   -0.70 KCAL/MOL
REMARK 927      BINDING AFFINITY PREDICTED BY RF-SCORE:    0.00 PKD
ROOT
HETATM    1  C   UNL     1     -11.797  14.147  66.469  1.00  0.00    -0.439 C  
HETATM    2  C   UNL     1     -10.961  15.348  66.938  1.00  0.00    -0.294 C  
ENDROOT
BRANCH   2   3
HETATM    3  N   UNL     1     -11.404  15.834  68.266  1.00  0.00    -0.358 NA 
HETATM    4  H   UNL     1     -12.420  15.930  68.280  1.00  0.00     0.000 HD 
BRANCH   3   5
HETATM    5  C   UNL     1     -10.961  15.038  69.411  1.00  0.00    -0.266 C  
BRANCH   5   6
HETATM    6  C   UNL     1     -12.086  14.738  70.412  1.00  0.00    -0.381 C  
BRANCH   6   7
HETATM    7  C   UNL     1     -12.297  13.257  70.589  1.00  0.00    -0.416 A  
HETATM    8  C   UNL     1     -11.763  12.351  69.661  1.00  0.00    -0.377 A  
HETATM    9  C   UNL     1     -12.744  10.521  70.871  1.00  0.00    -0.402 A  
HETATM   10  C   UNL     1     -11.983  10.982  69.804  1.00  0.00    -0.428 A  
HETATM   11  O   UNL     1     -12.996   9.192  71.040  1.00  0.00    -0.506 OA 
HETATM   12  C   UNL     1     -13.275  11.405  71.805  1.00  0.00    -0.472 A  
HETATM   13  H   UNL     1     -13.516   8.877  71.770  1.00  0.00     0.000 HD 
HETATM   14  C   UNL     1     -13.056  12.775  71.663  1.00  0.00    -0.428 A  
ENDBRANCH   6   7
ENDBRANCH   5   6
ENDBRANCH   3   5
ENDBRANCH   2   3
BRANCH   2  15
HETATM   15  C   UNL     1     -11.023  16.541  65.932  1.00  0.00     0.029 C  
HETATM   16  O   UNL     1     -10.797  16.076  64.594  1.00  0.00    -0.761 OA 
HETATM   17  H   UNL     1     -10.835  16.802  63.982  1.00  0.00     0.000 HD 
BRANCH  15  18
HETATM   18  C   UNL     1     -10.071  17.673  66.278  1.00  0.00    -0.344 A  
HETATM   19  C   UNL     1      -8.705  17.409  66.470  1.00  0.00    -0.290 A  
HETATM   20  C   UNL     1      -9.636  20.031  66.685  1.00  0.00    -0.548 A  
HETATM   21  H   UNL     1      -7.795  21.668  67.297  1.00  0.00     0.000 HD 
HETATM   22  C   UNL     1      -7.817  18.443  66.781  1.00  0.00    -0.253 A  
HETATM   23  C   UNL     1      -8.295  19.744  66.896  1.00  0.00    -0.311 A  
HETATM   24  C   UNL     1     -10.522  19.001  66.375  1.00  0.00    -0.524 A  
HETATM   25  O   UNL     1      -7.469  20.780  67.218  1.00  0.00    -0.341 OA 
ENDBRANCH  15  18
ENDBRANCH   2  15
TORSDOF 6
ENDMDL
MODEL       61
REMARK 921   NORMALIZED FREE ENERGY PREDICTED BY IDOCK:   -5.75 KCAL/MOL
REMARK 922        TOTAL FREE ENERGY PREDICTED BY IDOCK:   -8.80 KCAL/MOL
REMARK 923 INTER-LIGAND FREE ENERGY PREDICTED BY IDOCK:   -8.23 KCAL/MOL
REMARK 924 INTRA-LIGAND FREE ENERGY PREDICTED BY IDOCK:   -0.57 KCAL/MOL
REMARK 927      BINDING AFFINITY PREDICTED BY RF-SCORE:    0.00 PKD
ROOT
HETATM    1  C   UNL     1     -11.370  15.484  70.101  1.00  0.00    -0.339 C  
HETATM    2  C   UNL     1     -11.790  14.088  69.615  1.00  0.00    -0.330 C  
ENDROOT
BRANCH   2   3
HETATM    3  N   UNL     1     -11.981  13.152  70.747  1.00  0.00    -0.506 NA 
HETATM    4  H   UNL     1     -12.716  13.498  71.365  1.00  0.00     0.000 HD 
BRANCH   3   5
HETATM    5  C   UNL     1     -12.249  11.761  70.381  1.00  0.00    -0.330 C  
BRANCH   5   6
HETATM    6  C   UNL     1     -12.989  10.978  71.475  1.00  0.00    -0.553 C  
BRANCH   6   7
HETATM    7  C   UNL     1     -12.527   9.546  71.548  1.00  0.00    -0.463 A  
HETATM    8  C   UNL     1     -13.460   8.509  71.695  1.00  0.00    -0.375 A  
HETATM    9  C   UNL     1     -11.675   6.901  71.756  1.00  0.00    -0.302 A  
HETATM   10  C   UNL     1     -13.035   7.186  71.795  1.00  0.00    -0.367 A  
HETATM   11  O   UNL     1     -11.215   5.623  71.864  1.00  0.00    -0.249 OA 
HETATM   12  C   UNL     1     -10.737   7.916  71.602  1.00  0.00    -0.268 A  
HETATM   13  H   UNL     1     -10.286   5.428  71.837  1.00  0.00     0.000 HD 
HETATM   14  C   UNL     1     -11.161   9.241  71.502  1.00  0.00    -0.443 A  
ENDBRANCH   6   7
ENDBRANCH   5   6
ENDBRANCH   3   5
ENDBRANCH   2   3
BRANCH   2  15
HETATM   15  C   UNL     1     -10.748  13.466  68.632  1.00  0.00    -0.255 C  
HETATM   16  O   UNL     1      -9.459  14.062  68.831  1.00  0.00    -0.373 OA 
HETATM   17  H   UNL     1      -8.824  13.683  68.233  1.00  0.00     0.000 HD 
BRANCH  15  18
HETATM   18  C   UNL     1     -11.164  13.554  67.174  1.00  0.00    -0.324 A  
HETATM   19  C   UNL     1     -11.805  12.466  66.559  1.00  0.00    -0.407 A  
HETATM   20  C   UNL     1     -11.349  14.795  65.090  1.00  0.00    -0.379 A  
HETATM   21  H   UNL     1     -12.140  14.599  62.687  1.00  0.00     0.000 HD 
HETATM   22  C   UNL     1     -12.199  12.538  65.219  1.00  0.00    -0.493 A  
HETATM   23  C   UNL     1     -11.957  13.699  64.495  1.00  0.00    -0.418 A  
HETATM   24  C   UNL     1     -10.955  14.725  66.425  1.00  0.00    -0.331 A  
HETATM   25  O   UNL     1     -12.306  13.805  63.181  1.00  0.00    -0.726 OA 
ENDBRANCH  15  18
ENDBRANCH   2  15
TORSDOF 6
ENDMDL
MODEL       62
REMARK 921   NORMALIZED FREE ENERGY PREDICTED BY IDOCK:   -5.74 KCAL/MOL
REMARK 922        TOTAL FREE ENERGY PREDICTED BY IDOCK:   -8.80 KCAL/MOL
REMARK 923 INTER-LIGAND FREE ENERGY PREDICTED BY IDOCK:   -7.78 KCAL/MOL
REMARK 924 INTRA-LIGAND FREE ENERGY PREDICTED BY IDOCK:   -1.02 KCAL/MOL
REMARK 927      BINDING AFFINITY PREDICTED BY RF-SCORE:    0.00 PKD
ROOT
HETATM    1  C   UNL     1     -10.450   8.250  66.840  1.00  0.00    -0.365 C  
HETATM    2  C   UNL     1     -10.233   9.359  67.880  1.00  0.00    -0.211 C  
ENDROOT
BRANCH   2   3
HETATM    3  N   UNL     1      -8.829   9.831  67.887  1.00  0.00    -0.122 NA 
HETATM    4  H   UNL     1      -8.193   9.034  67.858  1.00  0.00     0.000 HD 
BRANCH   3   5
HETATM    5  C   UNL     1      -8.477  10.788  66.836  1.00  0.00    -0.131 C  
BRANCH   5   6
HETATM    6  C   UNL     1      -9.006  12.204  67.104  1.00  0.00    -0.189 C  
BRANCH   6   7
HETATM    7  C   UNL     1      -9.943  12.667  66.019  1.00  0.00    -0.267 A  
HETATM    8  C   UNL     1     -10.475  11.745  65.105  1.00  0.00    -0.330 A  
HETATM    9  C   UNL     1     -11.619  13.525  63.965  1.00  0.00    -0.353 A  
HETATM   10  C   UNL     1     -11.317  12.174  64.079  1.00  0.00    -0.468 A  
HETATM   11  O   UNL     1     -12.426  13.989  62.970  1.00  0.00    -1.101 OA 
HETATM   12  C   UNL     1     -11.106  14.451  64.868  1.00  0.00    -0.404 A  
HETATM   13  H   UNL     1     -12.633  14.913  62.891  1.00  0.00     0.000 HD 
HETATM   14  C   UNL     1     -10.264  14.024  65.894  1.00  0.00    -0.332 A  
ENDBRANCH   6   7
ENDBRANCH   5   6
ENDBRANCH   3   5
ENDBRANCH   2   3
BRANCH   2  15
HETATM   15  C   UNL     1     -10.603   8.897  69.325  1.00  0.00    -0.207 C  
HETATM   16  O   UNL     1     -11.249   7.616  69.288  1.00  0.00    -0.442 OA 
HETATM   17  H   UNL     1     -11.474   7.335  70.168  1.00  0.00     0.000 HD 
BRANCH  15  18
HETATM   18  C   UNL     1     -11.447   9.905  70.086  1.00  0.00    -0.309 A  
HETATM   19  C   UNL     1     -12.205   9.493  71.194  1.00  0.00    -0.421 A  
HETATM   20  C   UNL     1     -12.235  12.179  70.438  1.00  0.00    -0.378 A  
HETATM   21  H   UNL     1     -13.764  13.582  71.899  1.00  0.00     0.000 HD 
HETATM   22  C   UNL     1     -12.981  10.412  71.907  1.00  0.00    -0.555 A  
HETATM   23  C   UNL     1     -12.996  11.745  71.514  1.00  0.00    -0.341 A  
HETATM   24  C   UNL     1     -11.461  11.263  69.727  1.00  0.00    -0.386 A  
HETATM   25  O   UNL     1     -13.754  12.672  72.167  1.00  0.00    -0.467 OA 
ENDBRANCH  15  18
ENDBRANCH   2  15
TORSDOF 6
ENDMDL
MODEL       63
REMARK 921   NORMALIZED FREE ENERGY PREDICTED BY IDOCK:   -5.73 KCAL/MOL
REMARK 922        TOTAL FREE ENERGY PREDICTED BY IDOCK:   -8.79 KCAL/MOL
REMARK 923 INTER-LIGAND FREE ENERGY PREDICTED BY IDOCK:   -7.87 KCAL/MOL
REMARK 924 INTRA-LIGAND FREE ENERGY PREDICTED BY IDOCK:   -0.92 KCAL/MOL
REMARK 927      BINDING AFFINITY PREDICTED BY RF-SCORE:    0.00 PKD
ROOT
HETATM    1  C   UNL     1     -10.357  12.379  66.816  1.00  0.00    -0.239 C  
HETATM    2  C   UNL     1     -10.504  13.159  68.131  1.00  0.00    -0.248 C  
ENDROOT
BRANCH   2   3
HETATM    3  N   UNL     1      -9.187  13.435  68.751  1.00  0.00    -0.392 NA 
HETATM    4  H   UNL     1      -8.550  12.657  68.574  1.00  0.00     0.000 HD 
BRANCH   3   5
HETATM    5  C   UNL     1      -8.556  14.696  68.363  1.00  0.00    -0.169 C  
BRANCH   5   6
HETATM    6  C   UNL     1      -9.071  15.902  69.160  1.00  0.00    -0.255 C  
BRANCH   6   7
HETATM    7  C   UNL     1      -9.251  17.116  68.286  1.00  0.00    -0.262 A  
HETATM    8  C   UNL     1     -10.355  17.962  68.470  1.00  0.00    -0.365 A  
HETATM    9  C   UNL     1      -9.630  19.323  66.626  1.00  0.00    -0.349 A  
HETATM   10  C   UNL     1     -10.543  19.068  67.643  1.00  0.00    -0.526 A  
HETATM   11  O   UNL     1      -9.782  20.384  65.785  1.00  0.00    -0.640 OA 
HETATM   12  C   UNL     1      -8.526  18.498  66.434  1.00  0.00    -0.275 A  
HETATM   13  H   UNL     1      -9.158  20.558  65.091  1.00  0.00     0.000 HD 
HETATM   14  C   UNL     1      -8.337  17.391  67.261  1.00  0.00    -0.221 A  
ENDBRANCH   6   7
ENDBRANCH   5   6
ENDBRANCH   3   5
ENDBRANCH   2   3
BRANCH   2  15
HETATM   15  C   UNL     1     -11.389  12.403  69.172  1.00  0.00    -0.269 C  
HETATM   16  O   UNL     1     -12.303  11.522  68.503  1.00  0.00    -0.459 OA 
HETATM   17  H   UNL     1     -12.841  11.062  69.136  1.00  0.00     0.000 HD 
BRANCH  15  18
HETATM   18  C   UNL     1     -12.130  13.328  70.122  1.00  0.00    -0.403 A  
HETATM   19  C   UNL     1     -12.649  12.828  71.328  1.00  0.00    -0.347 A  
HETATM   20  C   UNL     1     -12.955  15.536  70.723  1.00  0.00    -0.490 A  
HETATM   21  H   UNL     1     -14.260  16.787  72.505  1.00  0.00     0.000 HD 
HETATM   22  C   UNL     1     -13.327  13.671  72.214  1.00  0.00    -0.622 A  
HETATM   23  C   UNL     1     -13.482  15.016  71.897  1.00  0.00    -0.402 A  
HETATM   24  C   UNL     1     -12.280  14.697  69.839  1.00  0.00    -0.365 A  
HETATM   25  O   UNL     1     -14.154  15.869  72.721  1.00  0.00    -0.567 OA 
ENDBRANCH  15  18
ENDBRANCH   2  15
TORSDOF 6
ENDMDL
MODEL       64
REMARK 921   NORMALIZED FREE ENERGY PREDICTED BY IDOCK:   -5.72 KCAL/MOL
REMARK 922        TOTAL FREE ENERGY PREDICTED BY IDOCK:   -8.76 KCAL/MOL
REMARK 923 INTER-LIGAND FREE ENERGY PREDICTED BY IDOCK:   -7.99 KCAL/MOL
REMARK 924 INTRA-LIGAND FREE ENERGY PREDICTED BY IDOCK:   -0.77 KCAL/MOL
REMARK 927      BINDING AFFINITY PREDICTED BY RF-SCORE:    0.00 PKD
ROOT
HETATM    1  C   UNL     1      -8.541  10.448  68.997  1.00  0.00    -0.158 C  
HETATM    2  C   UNL     1     -10.038  10.537  68.668  1.00  0.00    -0.180 C  
ENDROOT
BRANCH   2   3
HETATM    3  N   UNL     1     -10.352   9.882  67.377  1.00  0.00    -0.229 NA 
HETATM    4  H   UNL     1     -11.263  10.195  67.040  1.00  0.00     0.000 HD 
BRANCH   3   5
HETATM    5  C   UNL     1      -9.348  10.042  66.326  1.00  0.00    -0.168 C  
BRANCH   5   6
HETATM    6  C   UNL     1      -9.950  10.083  64.914  1.00  0.00    -0.286 C  
BRANCH   6   7
HETATM    7  C   UNL     1     -10.576  11.420  64.611  1.00  0.00    -0.380 A  
HETATM    8  C   UNL     1     -11.616  11.518  63.676  1.00  0.00    -0.323 A  
HETATM    9  C   UNL     1     -11.688  13.899  63.993  1.00  0.00    -0.288 A  
HETATM   10  C   UNL     1     -12.176  12.757  63.369  1.00  0.00    -0.594 A  
HETATM   11  O   UNL     1     -12.196  15.132  63.713  1.00  0.00    -0.954 OA 
HETATM   12  C   UNL     1     -10.662  13.819  64.929  1.00  0.00    -0.410 A  
HETATM   13  H   UNL     1     -11.863  15.913  64.139  1.00  0.00     0.000 HD 
HETATM   14  C   UNL     1     -10.101  12.580  65.236  1.00  0.00    -0.275 A  
ENDBRANCH   6   7
ENDBRANCH   5   6
ENDBRANCH   3   5
ENDBRANCH   2   3
BRANCH   2  15
HETATM   15  C   UNL     1     -10.543  12.014  68.606  1.00  0.00    -0.229 C  
HETATM   16  O   UNL     1      -9.433  12.922  68.636  1.00  0.00    -0.382 OA 
HETATM   17  H   UNL     1      -9.740  13.820  68.597  1.00  0.00     0.000 HD 
BRANCH  15  18
HETATM   18  C   UNL     1     -11.548  12.356  69.692  1.00  0.00    -0.330 A  
HETATM   19  C   UNL     1     -12.102  11.336  70.484  1.00  0.00    -0.481 A  
HETATM   20  C   UNL     1     -12.834  13.988  70.957  1.00  0.00    -0.410 A  
HETATM   21  H   UNL     1     -14.547  14.204  72.819  1.00  0.00     0.000 HD 
HETATM   22  C   UNL     1     -13.023  11.639  71.491  1.00  0.00    -0.463 A  
HETATM   23  C   UNL     1     -13.388  12.962  71.711  1.00  0.00    -0.359 A  
HETATM   24  C   UNL     1     -11.916  13.687  69.953  1.00  0.00    -0.415 A  
HETATM   25  O   UNL     1     -14.297  13.301  72.669  1.00  0.00    -0.679 OA 
ENDBRANCH  15  18
ENDBRANCH   2  15
TORSDOF 6
ENDMDL
MODEL       65
REMARK 921   NORMALIZED FREE ENERGY PREDICTED BY IDOCK:   -5.71 KCAL/MOL
REMARK 922        TOTAL FREE ENERGY PREDICTED BY IDOCK:   -8.76 KCAL/MOL
REMARK 923 INTER-LIGAND FREE ENERGY PREDICTED BY IDOCK:   -7.83 KCAL/MOL
REMARK 924 INTRA-LIGAND FREE ENERGY PREDICTED BY IDOCK:   -0.93 KCAL/MOL
REMARK 927      BINDING AFFINITY PREDICTED BY RF-SCORE:    0.00 PKD
ROOT
HETATM    1  C   UNL     1     -12.500  14.164  69.058  1.00  0.00     0.044 C  
HETATM    2  C   UNL     1     -11.167  13.446  69.318  1.00  0.00    -0.219 C  
ENDROOT
BRANCH   2   3
HETATM    3  N   UNL     1     -10.026  14.186  68.729  1.00  0.00    -0.321 NA 
HETATM    4  H   UNL     1      -9.254  13.546  68.545  1.00  0.00     0.000 HD 
BRANCH   3   5
HETATM    5  C   UNL     1     -10.328  14.963  67.527  1.00  0.00    -0.239 C  
BRANCH   5   6
HETATM    6  C   UNL     1      -9.528  14.512  66.297  1.00  0.00    -0.310 C  
BRANCH   6   7
HETATM    7  C   UNL     1     -10.377  13.720  65.336  1.00  0.00    -0.347 A  
HETATM    8  C   UNL     1     -11.547  14.279  64.802  1.00  0.00    -0.404 A  
HETATM    9  C   UNL     1     -11.990  12.237  63.615  1.00  0.00    -0.543 A  
HETATM   10  C   UNL     1     -12.352  13.539  63.938  1.00  0.00    -0.397 A  
HETATM   11  O   UNL     1     -12.755  11.472  62.786  1.00  0.00    -0.907 OA 
HETATM   12  C   UNL     1     -10.828  11.670  64.130  1.00  0.00    -0.433 A  
HETATM   13  H   UNL     1     -12.507  10.582  62.565  1.00  0.00     0.000 HD 
HETATM   14  C   UNL     1     -10.022  12.410  64.995  1.00  0.00    -0.219 A  
ENDBRANCH   6   7
ENDBRANCH   5   6
ENDBRANCH   3   5
ENDBRANCH   2   3
BRANCH   2  15
HETATM   15  C   UNL     1     -11.157  11.993  68.746  1.00  0.00    -0.249 C  
HETATM   16  O   UNL     1     -12.141  11.858  67.711  1.00  0.00    -0.564 OA 
HETATM   17  H   UNL     1     -12.135  10.974  67.363  1.00  0.00     0.000 HD 
BRANCH  15  18
HETATM   18  C   UNL     1     -11.345  10.924  69.809  1.00  0.00    -0.374 A  
HETATM   19  C   UNL     1     -12.479  10.946  70.637  1.00  0.00    -0.460 A  
HETATM   20  C   UNL     1     -10.606   8.899  70.938  1.00  0.00    -0.295 A  
HETATM   21  H   UNL     1     -11.208   7.301  72.816  1.00  0.00     0.000 HD 
HETATM   22  C   UNL     1     -12.667   9.965  71.614  1.00  0.00    -0.527 A  
HETATM   23  C   UNL     1     -11.721   8.955  71.762  1.00  0.00    -0.362 A  
HETATM   24  C   UNL     1     -10.418   9.878  69.963  1.00  0.00    -0.331 A  
HETATM   25  O   UNL     1     -11.853   7.990  72.715  1.00  0.00    -0.372 OA 
ENDBRANCH  15  18
ENDBRANCH   2  15
TORSDOF 6
ENDMDL
MODEL       66
REMARK 921   NORMALIZED FREE ENERGY PREDICTED BY IDOCK:   -5.70 KCAL/MOL
REMARK 922        TOTAL FREE ENERGY PREDICTED BY IDOCK:   -8.74 KCAL/MOL
REMARK 923 INTER-LIGAND FREE ENERGY PREDICTED BY IDOCK:   -8.05 KCAL/MOL
REMARK 924 INTRA-LIGAND FREE ENERGY PREDICTED BY IDOCK:   -0.69 KCAL/MOL
REMARK 927      BINDING AFFINITY PREDICTED BY RF-SCORE:    0.00 PKD
ROOT
HETATM    1  C   UNL     1     -12.605  12.653  65.144  1.00  0.00    -0.459 C  
HETATM    2  C   UNL     1     -11.619  13.504  65.957  1.00  0.00    -0.338 C  
ENDROOT
BRANCH   2   3
HETATM    3  N   UNL     1     -12.315  14.308  66.988  1.00  0.00    -0.580 NA 
HETATM    4  H   UNL     1     -13.325  14.214  66.878  1.00  0.00     0.000 HD 
BRANCH   3   5
HETATM    5  C   UNL     1     -11.934  14.029  68.373  1.00  0.00    -0.343 C  
BRANCH   5   6
HETATM    6  C   UNL     1     -11.201  12.691  68.542  1.00  0.00    -0.315 C  
BRANCH   6   7
HETATM    7  C   UNL     1     -11.791  11.866  69.657  1.00  0.00    -0.406 A  
HETATM    8  C   UNL     1     -12.603  12.469  70.628  1.00  0.00    -0.237 A  
HETATM    9  C   UNL     1     -12.826  10.361  71.761  1.00  0.00    -0.456 A  
HETATM   10  C   UNL     1     -13.124  11.716  71.679  1.00  0.00    -0.456 A  
HETATM   11  O   UNL     1     -13.303   9.591  72.779  1.00  0.00    -0.590 OA 
HETATM   12  C   UNL     1     -12.028   9.746  70.802  1.00  0.00    -0.382 A  
HETATM   13  H   UNL     1     -13.099   8.665  72.835  1.00  0.00     0.000 HD 
HETATM   14  C   UNL     1     -11.506  10.498  69.750  1.00  0.00    -0.365 A  
ENDBRANCH   6   7
ENDBRANCH   5   6
ENDBRANCH   3   5
ENDBRANCH   2   3
BRANCH   2  15
HETATM   15  C   UNL     1     -10.789  14.472  65.055  1.00  0.00    -0.412 C  
HETATM   16  O   UNL     1      -9.944  13.725  64.168  1.00  0.00    -0.704 OA 
HETATM   17  H   UNL     1      -9.440  14.315  63.619  1.00  0.00     0.000 HD 
BRANCH  15  18
HETATM   18  C   UNL     1      -9.979  15.487  65.843  1.00  0.00    -0.377 A  
HETATM   19  C   UNL     1     -10.368  16.837  65.859  1.00  0.00    -0.341 A  
HETATM   20  C   UNL     1      -8.128  16.041  67.320  1.00  0.00    -0.205 A  
HETATM   21  H   UNL     1      -6.994  17.985  68.495  1.00  0.00     0.000 HD 
HETATM   22  C   UNL     1      -9.636  17.780  66.585  1.00  0.00    -0.311 A  
HETATM   23  C   UNL     1      -8.515  17.373  67.301  1.00  0.00    -0.208 A  
HETATM   24  C   UNL     1      -8.857  15.100  66.596  1.00  0.00    -0.321 A  
HETATM   25  O   UNL     1      -7.759  18.262  68.007  1.00  0.00    -0.246 OA 
ENDBRANCH  15  18
ENDBRANCH   2  15
TORSDOF 6
ENDMDL
MODEL       67
REMARK 921   NORMALIZED FREE ENERGY PREDICTED BY IDOCK:   -5.67 KCAL/MOL
REMARK 922        TOTAL FREE ENERGY PREDICTED BY IDOCK:   -8.71 KCAL/MOL
REMARK 923 INTER-LIGAND FREE ENERGY PREDICTED BY IDOCK:   -6.54 KCAL/MOL
REMARK 924 INTRA-LIGAND FREE ENERGY PREDICTED BY IDOCK:   -2.17 KCAL/MOL
REMARK 927      BINDING AFFINITY PREDICTED BY RF-SCORE:    0.00 PKD
ROOT
HETATM    1  C   UNL     1     -13.450  11.601  71.939  1.00  0.00    -0.269 C  
HETATM    2  C   UNL     1     -12.766  10.395  71.278  1.00  0.00    -0.432 C  
ENDROOT
BRANCH   2   3
HETATM    3  N   UNL     1     -12.909  10.430  69.804  1.00  0.00    -0.586 NA 
HETATM    4  H   UNL     1     -13.780  10.897  69.549  1.00  0.00     0.000 HD 
BRANCH   3   5
HETATM    5  C   UNL     1     -11.791  11.027  69.073  1.00  0.00    -0.329 C  
BRANCH   5   6
HETATM    6  C   UNL     1     -11.076  10.035  68.145  1.00  0.00    -0.252 C  
BRANCH   6   7
HETATM    7  C   UNL     1      -9.996   9.271  68.867  1.00  0.00    -0.190 A  
HETATM    8  C   UNL     1      -9.506   9.734  70.097  1.00  0.00    -0.277 A  
HETATM    9  C   UNL     1      -7.950   7.903  70.174  1.00  0.00    -0.107 A  
HETATM   10  C   UNL     1      -8.485   9.048  70.753  1.00  0.00    -0.238 A  
HETATM   11  O   UNL     1      -6.942   7.210  70.773  1.00  0.00    -0.059 OA 
HETATM   12  C   UNL     1      -8.431   7.426  68.958  1.00  0.00    -0.129 A  
HETATM   13  H   UNL     1      -6.577   6.427  70.378  1.00  0.00     0.000 HD 
HETATM   14  C   UNL     1      -9.452   8.112  68.301  1.00  0.00    -0.148 A  
ENDBRANCH   6   7
ENDBRANCH   5   6
ENDBRANCH   3   5
ENDBRANCH   2   3
BRANCH   2  15
HETATM   15  C   UNL     1     -13.334   9.036  71.795  1.00  0.00    -0.397 C  
HETATM   16  O   UNL     1     -13.917   9.202  73.096  1.00  0.00    -1.101 OA 
HETATM   17  H   UNL     1     -14.262   8.374  73.410  1.00  0.00     0.000 HD 
BRANCH  15  18
HETATM   18  C   UNL     1     -12.308   7.916  71.804  1.00  0.00    -0.352 A  
HETATM   19  C   UNL     1     -12.258   7.000  70.739  1.00  0.00    -0.343 A  
HETATM   20  C   UNL     1     -10.430   6.765  72.835  1.00  0.00    -0.260 A  
HETATM   21  H   UNL     1      -8.877   4.776  72.551  1.00  0.00     0.000 HD 
HETATM   22  C   UNL     1     -11.314   5.969  70.732  1.00  0.00    -0.295 A  
HETATM   23  C   UNL     1     -10.415   5.856  71.786  1.00  0.00    -0.227 A  
HETATM   24  C   UNL     1     -11.371   7.792  72.844  1.00  0.00    -0.406 A  
HETATM   25  O   UNL     1      -9.491   4.854  71.830  1.00  0.00    -0.142 OA 
ENDBRANCH  15  18
ENDBRANCH   2  15
TORSDOF 6
ENDMDL
MODEL       68
REMARK 921   NORMALIZED FREE ENERGY PREDICTED BY IDOCK:   -5.66 KCAL/MOL
REMARK 922        TOTAL FREE ENERGY PREDICTED BY IDOCK:   -8.69 KCAL/MOL
REMARK 923 INTER-LIGAND FREE ENERGY PREDICTED BY IDOCK:   -8.15 KCAL/MOL
REMARK 924 INTRA-LIGAND FREE ENERGY PREDICTED BY IDOCK:   -0.54 KCAL/MOL
REMARK 927      BINDING AFFINITY PREDICTED BY RF-SCORE:    0.00 PKD
ROOT
HETATM    1  C   UNL     1      -9.748   8.853  67.849  1.00  0.00    -0.190 C  
HETATM    2  C   UNL     1     -10.981   9.128  68.723  1.00  0.00     0.030 C  
ENDROOT
BRANCH   2   3
HETATM    3  N   UNL     1     -11.765  10.276  68.212  1.00  0.00    -0.719 NA 
HETATM    4  H   UNL     1     -12.183  10.787  68.990  1.00  0.00     0.000 HD 
BRANCH   3   5
HETATM    5  C   UNL     1     -11.040  11.201  67.340  1.00  0.00    -0.307 C  
BRANCH   5   6
HETATM    6  C   UNL     1     -11.073  12.653  67.835  1.00  0.00    -0.285 C  
BRANCH   6   7
HETATM    7  C   UNL     1     -11.208  13.631  66.696  1.00  0.00    -0.324 A  
HETATM    8  C   UNL     1     -10.454  14.813  66.686  1.00  0.00    -0.286 A  
HETATM    9  C   UNL     1     -11.507  15.476  64.630  1.00  0.00    -0.324 A  
HETATM   10  C   UNL     1     -10.601  15.735  65.651  1.00  0.00    -0.393 A  
HETATM   11  O   UNL     1     -11.692  16.356  63.606  1.00  0.00    -1.520 OA 
HETATM   12  C   UNL     1     -12.257  14.304  64.620  1.00  0.00    -0.470 A  
HETATM   13  H   UNL     1     -12.311  16.179  62.908  1.00  0.00     0.000 HD 
HETATM   14  C   UNL     1     -12.112  13.382  65.656  1.00  0.00    -0.476 A  
ENDBRANCH   6   7
ENDBRANCH   5   6
ENDBRANCH   3   5
ENDBRANCH   2   3
BRANCH   2  15
HETATM   15  C   UNL     1     -10.600   9.416  70.210  1.00  0.00    -0.250 C  
HETATM   16  O   UNL     1      -9.283   9.980  70.287  1.00  0.00    -0.373 OA 
HETATM   17  H   UNL     1      -9.052  10.155  71.192  1.00  0.00     0.000 HD 
BRANCH  15  18
HETATM   18  C   UNL     1     -10.719   8.198  71.111  1.00  0.00    -0.258 A  
HETATM   19  C   UNL     1     -10.538   8.330  72.498  1.00  0.00    -0.407 A  
HETATM   20  C   UNL     1     -11.159   5.828  71.429  1.00  0.00    -0.273 A  
HETATM   21  H   UNL     1     -11.254   4.012  73.201  1.00  0.00     0.000 HD 
HETATM   22  C   UNL     1     -10.651   7.219  73.338  1.00  0.00    -0.435 A  
HETATM   23  C   UNL     1     -10.950   5.975  72.793  1.00  0.00    -0.264 A  
HETATM   24  C   UNL     1     -11.046   6.934  70.590  1.00  0.00    -0.322 A  
HETATM   25  O   UNL     1     -11.050   4.861  73.573  1.00  0.00    -0.303 OA 
ENDBRANCH  15  18
ENDBRANCH   2  15
TORSDOF 6
ENDMDL
MODEL       69
REMARK 921   NORMALIZED FREE ENERGY PREDICTED BY IDOCK:   -5.65 KCAL/MOL
REMARK 922        TOTAL FREE ENERGY PREDICTED BY IDOCK:   -8.67 KCAL/MOL
REMARK 923 INTER-LIGAND FREE ENERGY PREDICTED BY IDOCK:   -7.26 KCAL/MOL
REMARK 924 INTRA-LIGAND FREE ENERGY PREDICTED BY IDOCK:   -1.41 KCAL/MOL
REMARK 927      BINDING AFFINITY PREDICTED BY RF-SCORE:    0.00 PKD
ROOT
HETATM    1  C   UNL     1     -10.214  10.891  66.400  1.00  0.00    -0.289 C  
HETATM    2  C   UNL     1     -11.249  11.339  67.443  1.00  0.00    -0.303 C  
ENDROOT
BRANCH   2   3
HETATM    3  N   UNL     1     -12.217  12.302  66.870  1.00  0.00    -0.439 NA 
HETATM    4  H   UNL     1     -12.386  13.061  67.531  1.00  0.00     0.000 HD 
BRANCH   3   5
HETATM    5  C   UNL     1     -11.866  12.850  65.560  1.00  0.00    -0.411 C  
BRANCH   5   6
HETATM    6  C   UNL     1     -11.853  14.385  65.529  1.00  0.00    -0.357 C  
BRANCH   6   7
HETATM    7  C   UNL     1     -10.749  14.953  66.383  1.00  0.00    -0.316 A  
HETATM    8  C   UNL     1      -9.431  14.499  66.228  1.00  0.00    -0.310 A  
HETATM    9  C   UNL     1      -8.715  15.946  68.008  1.00  0.00    -0.169 A  
HETATM   10  C   UNL     1      -8.412  14.998  67.038  1.00  0.00    -0.258 A  
HETATM   11  O   UNL     1      -7.753  16.451  68.831  1.00  0.00    -0.206 OA 
HETATM   12  C   UNL     1     -10.015  16.413  68.170  1.00  0.00    -0.242 A  
HETATM   13  H   UNL     1      -7.959  17.099  69.494  1.00  0.00     0.000 HD 
HETATM   14  C   UNL     1     -11.035  15.914  67.360  1.00  0.00    -0.257 A  
ENDBRANCH   6   7
ENDBRANCH   5   6
ENDBRANCH   3   5
ENDBRANCH   2   3
BRANCH   2  15
HETATM   15  C   UNL     1     -10.582  11.997  68.693  1.00  0.00    -0.229 C  
HETATM   16  O   UNL     1      -9.536  11.156  69.200  1.00  0.00    -0.382 OA 
HETATM   17  H   UNL     1      -9.130  11.556  69.960  1.00  0.00     0.000 HD 
BRANCH  15  18
HETATM   18  C   UNL     1     -11.570  12.349  69.791  1.00  0.00    -0.302 A  
HETATM   19  C   UNL     1     -11.953  13.685  69.991  1.00  0.00    -0.413 A  
HETATM   20  C   UNL     1     -13.060  11.690  71.598  1.00  0.00    -0.456 A  
HETATM   21  H   UNL     1     -14.649  12.620  73.345  1.00  0.00     0.000 HD 
HETATM   22  C   UNL     1     -12.867  14.021  70.994  1.00  0.00    -0.410 A  
HETATM   23  C   UNL     1     -13.404  13.020  71.795  1.00  0.00    -0.378 A  
HETATM   24  C   UNL     1     -12.148  11.354  70.599  1.00  0.00    -0.469 A  
HETATM   25  O   UNL     1     -14.282  13.304  72.798  1.00  0.00    -0.661 OA 
ENDBRANCH  15  18
ENDBRANCH   2  15
TORSDOF 6
ENDMDL
MODEL       70
REMARK 921   NORMALIZED FREE ENERGY PREDICTED BY IDOCK:   -5.65 KCAL/MOL
REMARK 922        TOTAL FREE ENERGY PREDICTED BY IDOCK:   -8.67 KCAL/MOL
REMARK 923 INTER-LIGAND FREE ENERGY PREDICTED BY IDOCK:   -6.98 KCAL/MOL
REMARK 924 INTRA-LIGAND FREE ENERGY PREDICTED BY IDOCK:   -1.69 KCAL/MOL
REMARK 927      BINDING AFFINITY PREDICTED BY RF-SCORE:    0.00 PKD
ROOT
HETATM    1  C   UNL     1     -11.651  12.478  67.337  1.00  0.00    -0.434 C  
HETATM    2  C   UNL     1     -11.255  11.388  68.344  1.00  0.00    -0.263 C  
ENDROOT
BRANCH   2   3
HETATM    3  N   UNL     1     -11.532  10.032  67.816  1.00  0.00    -0.571 NA 
HETATM    4  H   UNL     1     -12.309  10.068  67.156  1.00  0.00     0.000 HD 
BRANCH   3   5
HETATM    5  C   UNL     1     -10.392   9.343  67.210  1.00  0.00    -0.260 C  
BRANCH   5   6
HETATM    6  C   UNL     1     -10.625   7.838  67.020  1.00  0.00    -0.396 C  
BRANCH   6   7
HETATM    7  C   UNL     1     -10.271   7.055  68.258  1.00  0.00    -0.206 A  
HETATM    8  C   UNL     1     -11.265   6.359  68.962  1.00  0.00    -0.402 A  
HETATM    9  C   UNL     1      -9.637   5.666  70.588  1.00  0.00    -0.168 A  
HETATM   10  C   UNL     1     -10.948   5.661  70.126  1.00  0.00    -0.303 A  
HETATM   11  O   UNL     1      -9.286   5.008  71.729  1.00  0.00    -0.138 OA 
HETATM   12  C   UNL     1      -8.638   6.345  69.898  1.00  0.00    -0.138 A  
HETATM   13  H   UNL     1      -8.390   5.011  72.045  1.00  0.00     0.000 HD 
HETATM   14  C   UNL     1      -8.955   7.044  68.734  1.00  0.00    -0.131 A  
ENDBRANCH   6   7
ENDBRANCH   5   6
ENDBRANCH   3   5
ENDBRANCH   2   3
BRANCH   2  15
HETATM   15  C   UNL     1     -11.997  11.546  69.709  1.00  0.00    -0.346 C  
HETATM   16  O   UNL     1     -11.670  12.806  70.312  1.00  0.00    -0.521 OA 
HETATM   17  H   UNL     1     -12.123  12.902  71.142  1.00  0.00     0.000 HD 
BRANCH  15  18
HETATM   18  C   UNL     1     -11.737  10.403  70.675  1.00  0.00    -0.444 A  
HETATM   19  C   UNL     1     -12.813   9.746  71.295  1.00  0.00    -0.472 A  
HETATM   20  C   UNL     1     -10.206   8.900  71.823  1.00  0.00    -0.414 A  
HETATM   21  H   UNL     1     -10.125   6.993  73.496  1.00  0.00     0.000 HD 
HETATM   22  C   UNL     1     -12.587   8.689  72.180  1.00  0.00    -0.451 A  
HETATM   23  C   UNL     1     -11.283   8.283  72.444  1.00  0.00    -0.381 A  
HETATM   24  C   UNL     1     -10.431   9.955  70.940  1.00  0.00    -0.192 A  
HETATM   25  O   UNL     1     -11.015   7.270  73.315  1.00  0.00    -0.352 OA 
ENDBRANCH  15  18
ENDBRANCH   2  15
TORSDOF 6
ENDMDL
MODEL       71
REMARK 921   NORMALIZED FREE ENERGY PREDICTED BY IDOCK:   -5.65 KCAL/MOL
REMARK 922        TOTAL FREE ENERGY PREDICTED BY IDOCK:   -8.67 KCAL/MOL
REMARK 923 INTER-LIGAND FREE ENERGY PREDICTED BY IDOCK:   -7.52 KCAL/MOL
REMARK 924 INTRA-LIGAND FREE ENERGY PREDICTED BY IDOCK:   -1.15 KCAL/MOL
REMARK 927      BINDING AFFINITY PREDICTED BY RF-SCORE:    0.00 PKD
ROOT
HETATM    1  C   UNL     1      -9.440  14.096  67.820  1.00  0.00    -0.207 C  
HETATM    2  C   UNL     1     -10.484  13.036  68.200  1.00  0.00    -0.245 C  
ENDROOT
BRANCH   2   3
HETATM    3  N   UNL     1     -10.560  11.959  67.185  1.00  0.00    -0.224 NA 
HETATM    4  H   UNL     1      -9.949  12.179  66.398  1.00  0.00     0.000 HD 
BRANCH   3   5
HETATM    5  C   UNL     1     -10.279  10.609  67.673  1.00  0.00    -0.194 C  
BRANCH   5   6
HETATM    6  C   UNL     1      -9.388  10.588  68.923  1.00  0.00    -0.192 C  
BRANCH   6   7
HETATM    7  C   UNL     1     -10.030   9.831  70.056  1.00  0.00    -0.299 A  
HETATM    8  C   UNL     1     -11.428   9.770  70.163  1.00  0.00    -0.272 A  
HETATM    9  C   UNL     1     -11.224   8.493  72.189  1.00  0.00    -0.362 A  
HETATM   10  C   UNL     1     -12.025   9.098  71.228  1.00  0.00    -0.394 A  
HETATM   11  O   UNL     1     -11.766   7.838  73.254  1.00  0.00    -0.659 OA 
HETATM   12  C   UNL     1      -9.837   8.537  72.094  1.00  0.00    -0.388 A  
HETATM   13  H   UNL     1     -11.219   7.424  73.911  1.00  0.00     0.000 HD 
HETATM   14  C   UNL     1      -9.238   9.210  71.029  1.00  0.00    -0.321 A  
ENDBRANCH   6   7
ENDBRANCH   5   6
ENDBRANCH   3   5
ENDBRANCH   2   3
BRANCH   2  15
HETATM   15  C   UNL     1     -11.910  13.647  68.376  1.00  0.00    -0.372 C  
HETATM   16  O   UNL     1     -12.074  14.785  67.518  1.00  0.00    -0.528 OA 
HETATM   17  H   UNL     1     -12.942  15.157  67.625  1.00  0.00     0.000 HD 
BRANCH  15  18
HETATM   18  C   UNL     1     -12.242  14.004  69.815  1.00  0.00    -0.396 A  
HETATM   19  C   UNL     1     -12.310  15.351  70.206  1.00  0.00    -0.425 A  
HETATM   20  C   UNL     1     -12.832  13.352  72.082  1.00  0.00    -0.314 A  
HETATM   21  H   UNL     1     -13.324  14.289  74.389  1.00  0.00     0.000 HD 
HETATM   22  C   UNL     1     -12.621  15.694  71.526  1.00  0.00    -0.511 A  
HETATM   23  C   UNL     1     -12.869  14.688  72.454  1.00  0.00    -0.359 A  
HETATM   24  C   UNL     1     -12.522  13.010  70.768  1.00  0.00    -0.384 A  
HETATM   25  O   UNL     1     -13.155  14.976  73.755  1.00  0.00    -0.478 OA 
ENDBRANCH  15  18
ENDBRANCH   2  15
TORSDOF 6
ENDMDL
MODEL       72
REMARK 921   NORMALIZED FREE ENERGY PREDICTED BY IDOCK:   -5.64 KCAL/MOL
REMARK 922        TOTAL FREE ENERGY PREDICTED BY IDOCK:   -8.66 KCAL/MOL
REMARK 923 INTER-LIGAND FREE ENERGY PREDICTED BY IDOCK:   -8.11 KCAL/MOL
REMARK 924 INTRA-LIGAND FREE ENERGY PREDICTED BY IDOCK:   -0.55 KCAL/MOL
REMARK 927      BINDING AFFINITY PREDICTED BY RF-SCORE:    0.00 PKD
ROOT
HETATM    1  C   UNL     1      -9.156   9.090  67.719  1.00  0.00    -0.143 C  
HETATM    2  C   UNL     1     -10.471   9.074  68.514  1.00  0.00    -0.196 C  
ENDROOT
BRANCH   2   3
HETATM    3  N   UNL     1     -11.469  10.001  67.931  1.00  0.00    -0.608 NA 
HETATM    4  H   UNL     1     -12.107  10.327  68.658  1.00  0.00     0.000 HD 
BRANCH   3   5
HETATM    5  C   UNL     1     -10.922  11.142  67.198  1.00  0.00    -0.291 C  
BRANCH   5   6
HETATM    6  C   UNL     1     -11.319  12.497  67.801  1.00  0.00    -0.351 C  
BRANCH   6   7
HETATM    7  C   UNL     1     -11.347  13.587  66.761  1.00  0.00    -0.351 A  
HETATM    8  C   UNL     1     -11.985  13.372  65.530  1.00  0.00    -0.433 A  
HETATM    9  C   UNL     1     -11.339  15.571  64.804  1.00  0.00    -0.357 A  
HETATM   10  C   UNL     1     -11.984  14.366  64.552  1.00  0.00    -0.487 A  
HETATM   11  O   UNL     1     -11.302  16.564  63.872  1.00  0.00    -1.557 OA 
HETATM   12  C   UNL     1     -10.708  15.803  66.022  1.00  0.00    -0.311 A  
HETATM   13  H   UNL     1     -10.861  17.388  64.044  1.00  0.00     0.000 HD 
HETATM   14  C   UNL     1     -10.708  14.809  67.001  1.00  0.00    -0.300 A  
ENDBRANCH   6   7
ENDBRANCH   5   6
ENDBRANCH   3   5
ENDBRANCH   2   3
BRANCH   2  15
HETATM   15  C   UNL     1     -10.260   9.457  70.013  1.00  0.00    -0.229 C  
HETATM   16  O   UNL     1      -8.958  10.028  70.203  1.00  0.00    -0.353 OA 
HETATM   17  H   UNL     1      -8.830  10.261  71.116  1.00  0.00     0.000 HD 
BRANCH  15  18
HETATM   18  C   UNL     1     -10.486   8.299  70.970  1.00  0.00    -0.241 A  
HETATM   19  C   UNL     1     -10.374   6.976  70.512  1.00  0.00    -0.218 A  
HETATM   20  C   UNL     1     -10.968   7.448  73.197  1.00  0.00    -0.408 A  
HETATM   21  H   UNL     1     -11.309   5.302  74.509  1.00  0.00     0.000 HD 
HETATM   22  C   UNL     1     -10.573   5.902  71.384  1.00  0.00    -0.309 A  
HETATM   23  C   UNL     1     -10.879   6.149  72.717  1.00  0.00    -0.250 A  
HETATM   24  C   UNL     1     -10.771   8.520  72.328  1.00  0.00    -0.411 A  
HETATM   25  O   UNL     1     -11.100   5.133  73.598  1.00  0.00    -0.308 OA 
ENDBRANCH  15  18
ENDBRANCH   2  15
TORSDOF 6
ENDMDL
MODEL       73
REMARK 921   NORMALIZED FREE ENERGY PREDICTED BY IDOCK:   -5.64 KCAL/MOL
REMARK 922        TOTAL FREE ENERGY PREDICTED BY IDOCK:   -8.66 KCAL/MOL
REMARK 923 INTER-LIGAND FREE ENERGY PREDICTED BY IDOCK:   -7.89 KCAL/MOL
REMARK 924 INTRA-LIGAND FREE ENERGY PREDICTED BY IDOCK:   -0.77 KCAL/MOL
REMARK 927      BINDING AFFINITY PREDICTED BY RF-SCORE:    0.00 PKD
ROOT
HETATM    1  C   UNL     1     -12.189  12.125  70.416  1.00  0.00    -0.378 C  
HETATM    2  C   UNL     1     -11.444  12.165  69.073  1.00  0.00    -0.297 C  
ENDROOT
BRANCH   2   3
HETATM    3  N   UNL     1     -10.043  11.705  69.214  1.00  0.00    -0.409 NA 
HETATM    4  H   UNL     1      -9.732  11.826  70.179  1.00  0.00     0.000 HD 
BRANCH   3   5
HETATM    5  C   UNL     1      -9.778  10.336  68.771  1.00  0.00    -0.177 C  
BRANCH   5   6
HETATM    6  C   UNL     1      -9.238   9.432  69.889  1.00  0.00    -0.226 C  
BRANCH   6   7
HETATM    7  C   UNL     1     -10.332   8.609  70.520  1.00  0.00    -0.234 A  
HETATM    8  C   UNL     1     -10.739   7.403  69.930  1.00  0.00    -0.254 A  
HETATM    9  C   UNL     1     -12.402   7.119  71.642  1.00  0.00    -0.362 A  
HETATM   10  C   UNL     1     -11.772   6.655  70.493  1.00  0.00    -0.453 A  
HETATM   11  O   UNL     1     -13.426   6.427  72.217  1.00  0.00    -0.486 OA 
HETATM   12  C   UNL     1     -12.006   8.309  72.243  1.00  0.00    -0.448 A  
HETATM   13  H   UNL     1     -13.857   6.744  73.002  1.00  0.00     0.000 HD 
HETATM   14  C   UNL     1     -10.973   9.058  71.681  1.00  0.00    -0.435 A  
ENDBRANCH   6   7
ENDBRANCH   5   6
ENDBRANCH   3   5
ENDBRANCH   2   3
BRANCH   2  15
HETATM   15  C   UNL     1     -11.431  13.595  68.446  1.00  0.00    -0.311 C  
HETATM   16  O   UNL     1     -12.347  14.452  69.142  1.00  0.00    -0.524 OA 
HETATM   17  H   UNL     1     -12.339  15.323  68.760  1.00  0.00     0.000 HD 
BRANCH  15  18
HETATM   18  C   UNL     1     -11.714  13.603  66.953  1.00  0.00    -0.423 A  
HETATM   19  C   UNL     1     -12.018  12.403  66.289  1.00  0.00    -0.369 A  
HETATM   20  C   UNL     1     -11.986  14.795  64.850  1.00  0.00    -0.359 A  
HETATM   21  H   UNL     1     -12.474  14.451  62.383  1.00  0.00     0.000 HD 
HETATM   22  C   UNL     1     -12.287  12.399  64.917  1.00  0.00    -0.475 A  
HETATM   23  C   UNL     1     -12.258  13.595  64.209  1.00  0.00    -0.396 A  
HETATM   24  C   UNL     1     -11.717  14.801  66.218  1.00  0.00    -0.260 A  
HETATM   25  O   UNL     1     -12.494  13.634  62.867  1.00  0.00    -0.610 OA 
ENDBRANCH  15  18
ENDBRANCH   2  15
TORSDOF 6
ENDMDL
MODEL       74
REMARK 921   NORMALIZED FREE ENERGY PREDICTED BY IDOCK:   -5.64 KCAL/MOL
REMARK 922        TOTAL FREE ENERGY PREDICTED BY IDOCK:   -8.65 KCAL/MOL
REMARK 923 INTER-LIGAND FREE ENERGY PREDICTED BY IDOCK:   -7.99 KCAL/MOL
REMARK 924 INTRA-LIGAND FREE ENERGY PREDICTED BY IDOCK:   -0.67 KCAL/MOL
REMARK 927      BINDING AFFINITY PREDICTED BY RF-SCORE:    0.00 PKD
ROOT
HETATM    1  C   UNL     1     -12.370  12.565  64.498  1.00  0.00    -0.545 C  
HETATM    2  C   UNL     1     -12.213  12.864  65.996  1.00  0.00    -0.366 C  
ENDROOT
BRANCH   2   3
HETATM    3  N   UNL     1     -12.158  14.322  66.257  1.00  0.00    -0.424 NA 
HETATM    4  H   UNL     1     -12.674  14.542  67.109  1.00  0.00     0.000 HD 
BRANCH   3   5
HETATM    5  C   UNL     1     -10.818  14.904  66.319  1.00  0.00    -0.331 C  
BRANCH   5   6
HETATM    6  C   UNL     1     -10.515  15.586  67.661  1.00  0.00    -0.279 C  
BRANCH   6   7
HETATM    7  C   UNL     1     -10.344  17.075  67.507  1.00  0.00    -0.329 A  
HETATM    8  C   UNL     1     -10.388  17.663  66.234  1.00  0.00    -0.342 A  
HETATM    9  C   UNL     1      -9.956  19.818  67.207  1.00  0.00    -0.400 A  
HETATM   10  C   UNL     1     -10.198  19.036  66.084  1.00  0.00    -0.508 A  
HETATM   11  O   UNL     1      -9.751  21.161  67.104  1.00  0.00    -0.655 OA 
HETATM   12  C   UNL     1      -9.916  19.252  68.477  1.00  0.00    -0.513 A  
HETATM   13  H   UNL     1      -9.586  21.696  67.872  1.00  0.00     0.000 HD 
HETATM   14  C   UNL     1     -10.106  17.878  68.629  1.00  0.00    -0.394 A  
ENDBRANCH   6   7
ENDBRANCH   5   6
ENDBRANCH   3   5
ENDBRANCH   2   3
BRANCH   2  15
HETATM   15  C   UNL     1     -10.930  12.209  66.599  1.00  0.00    -0.282 C  
HETATM   16  O   UNL     1     -10.349  11.293  65.658  1.00  0.00    -0.241 OA 
HETATM   17  H   UNL     1      -9.569  10.895  66.025  1.00  0.00     0.000 HD 
BRANCH  15  18
HETATM   18  C   UNL     1     -11.169  11.528  67.935  1.00  0.00    -0.344 A  
HETATM   19  C   UNL     1     -10.701  10.221  68.153  1.00  0.00    -0.287 A  
HETATM   20  C   UNL     1     -12.029  11.560  70.210  1.00  0.00    -0.455 A  
HETATM   21  H   UNL     1     -12.283  10.131  72.293  1.00  0.00     0.000 HD 
HETATM   22  C   UNL     1     -10.910   9.586  69.381  1.00  0.00    -0.226 A  
HETATM   23  C   UNL     1     -11.581  10.260  70.395  1.00  0.00    -0.328 A  
HETATM   24  C   UNL     1     -11.823  12.194  68.987  1.00  0.00    -0.361 A  
HETATM   25  O   UNL     1     -11.824   9.672  71.601  1.00  0.00    -0.379 OA 
ENDBRANCH  15  18
ENDBRANCH   2  15
TORSDOF 6
ENDMDL
MODEL       75
REMARK 921   NORMALIZED FREE ENERGY PREDICTED BY IDOCK:   -5.62 KCAL/MOL
REMARK 922        TOTAL FREE ENERGY PREDICTED BY IDOCK:   -8.64 KCAL/MOL
REMARK 923 INTER-LIGAND FREE ENERGY PREDICTED BY IDOCK:   -7.99 KCAL/MOL
REMARK 924 INTRA-LIGAND FREE ENERGY PREDICTED BY IDOCK:   -0.65 KCAL/MOL
REMARK 927      BINDING AFFINITY PREDICTED BY RF-SCORE:    0.00 PKD
ROOT
HETATM    1  C   UNL     1      -7.757   8.198  68.705  1.00  0.00    -0.107 C  
HETATM    2  C   UNL     1      -9.260   8.452  68.892  1.00  0.00    -0.147 C  
ENDROOT
BRANCH   2   3
HETATM    3  N   UNL     1      -9.934   8.708  67.598  1.00  0.00    -0.181 NA 
HETATM    4  H   UNL     1     -10.946   8.663  67.718  1.00  0.00     0.000 HD 
BRANCH   3   5
HETATM    5  C   UNL     1      -9.565   9.955  66.928  1.00  0.00    -0.179 C  
BRANCH   5   6
HETATM    6  C   UNL     1      -9.921   9.967  65.434  1.00  0.00    -0.364 C  
BRANCH   6   7
HETATM    7  C   UNL     1     -10.724  11.186  65.060  1.00  0.00    -0.301 A  
HETATM    8  C   UNL     1     -10.850  11.564  63.715  1.00  0.00    -0.486 A  
HETATM    9  C   UNL     1     -12.148  13.479  64.367  1.00  0.00    -0.420 A  
HETATM   10  C   UNL     1     -11.565  12.709  63.368  1.00  0.00    -0.536 A  
HETATM   11  O   UNL     1     -12.843  14.614  64.074  1.00  0.00    -0.690 OA 
HETATM   12  C   UNL     1     -12.038  13.115  65.705  1.00  0.00    -0.502 A  
HETATM   13  H   UNL     1     -13.241  15.140  64.756  1.00  0.00     0.000 HD 
HETATM   14  C   UNL     1     -11.323  11.970  66.054  1.00  0.00    -0.398 A  
ENDBRANCH   6   7
ENDBRANCH   5   6
ENDBRANCH   3   5
ENDBRANCH   2   3
BRANCH   2  15
HETATM   15  C   UNL     1      -9.542   9.660  69.841  1.00  0.00    -0.230 C  
HETATM   16  O   UNL     1      -8.419   9.889  70.704  1.00  0.00    -0.372 OA 
HETATM   17  H   UNL     1      -8.590  10.625  71.281  1.00  0.00     0.000 HD 
BRANCH  15  18
HETATM   18  C   UNL     1     -10.820   9.510  70.649  1.00  0.00    -0.371 A  
HETATM   19  C   UNL     1     -11.734  10.573  70.723  1.00  0.00    -0.454 A  
HETATM   20  C   UNL     1     -12.312   8.178  72.033  1.00  0.00    -0.380 A  
HETATM   21  H   UNL     1     -14.506   8.273  73.307  1.00  0.00     0.000 HD 
HETATM   22  C   UNL     1     -12.917  10.445  71.457  1.00  0.00    -0.562 A  
HETATM   23  C   UNL     1     -13.189   9.251  72.114  1.00  0.00    -0.461 A  
HETATM   24  C   UNL     1     -11.132   8.305  71.302  1.00  0.00    -0.296 A  
HETATM   25  O   UNL     1     -14.320   9.089  72.858  1.00  0.00    -0.550 OA 
ENDBRANCH  15  18
ENDBRANCH   2  15
TORSDOF 6
ENDMDL
MODEL       76
REMARK 921   NORMALIZED FREE ENERGY PREDICTED BY IDOCK:   -5.62 KCAL/MOL
REMARK 922        TOTAL FREE ENERGY PREDICTED BY IDOCK:   -8.63 KCAL/MOL
REMARK 923 INTER-LIGAND FREE ENERGY PREDICTED BY IDOCK:   -7.75 KCAL/MOL
REMARK 924 INTRA-LIGAND FREE ENERGY PREDICTED BY IDOCK:   -0.88 KCAL/MOL
REMARK 927      BINDING AFFINITY PREDICTED BY RF-SCORE:    0.00 PKD
ROOT
HETATM    1  C   UNL     1      -8.797  14.401  67.322  1.00  0.00    -0.225 C  
HETATM    2  C   UNL     1      -9.715  15.450  67.968  1.00  0.00    -0.207 C  
ENDROOT
BRANCH   2   3
HETATM    3  N   UNL     1     -10.889  14.820  68.616  1.00  0.00    -0.244 NA 
HETATM    4  H   UNL     1     -11.706  15.423  68.516  1.00  0.00     0.000 HD 
BRANCH   3   5
HETATM    5  C   UNL     1     -11.209  13.465  68.167  1.00  0.00    -0.273 C  
BRANCH   5   6
HETATM    6  C   UNL     1     -12.274  13.429  67.061  1.00  0.00    -0.321 C  
BRANCH   6   7
HETATM    7  C   UNL     1     -11.790  12.687  65.842  1.00  0.00    -0.499 A  
HETATM    8  C   UNL     1     -10.879  11.628  65.975  1.00  0.00    -0.339 A  
HETATM    9  C   UNL     1     -10.835  11.357  63.587  1.00  0.00    -0.384 A  
HETATM   10  C   UNL     1     -10.404  10.959  64.848  1.00  0.00    -0.371 A  
HETATM   11  O   UNL     1     -10.385  10.741  62.458  1.00  0.00    -0.748 OA 
HETATM   12  C   UNL     1     -11.743  12.400  63.439  1.00  0.00    -0.554 A  
HETATM   13  H   UNL     1     -10.679  11.012  61.597  1.00  0.00     0.000 HD 
HETATM   14  C   UNL     1     -12.218  13.069  64.566  1.00  0.00    -0.476 A  
ENDBRANCH   6   7
ENDBRANCH   5   6
ENDBRANCH   3   5
ENDBRANCH   2   3
BRANCH   2  15
HETATM   15  C   UNL     1     -10.229  16.503  66.936  1.00  0.00    -0.296 C  
HETATM   16  O   UNL     1     -10.252  15.937  65.617  1.00  0.00    -0.334 OA 
HETATM   17  H   UNL     1     -10.565  16.578  64.989  1.00  0.00     0.000 HD 
BRANCH  15  18
HETATM   18  C   UNL     1      -9.439  17.800  66.951  1.00  0.00    -0.271 A  
HETATM   19  C   UNL     1      -9.978  18.944  67.564  1.00  0.00    -0.399 A  
HETATM   20  C   UNL     1      -7.434  19.072  66.422  1.00  0.00    -0.274 A  
HETATM   21  H   UNL     1      -6.407  21.387  66.597  1.00  0.00     0.000 HD 
HETATM   22  C   UNL     1      -9.258  20.142  67.591  1.00  0.00    -0.461 A  
HETATM   23  C   UNL     1      -7.996  20.197  67.009  1.00  0.00    -0.323 A  
HETATM   24  C   UNL     1      -8.151  17.878  66.394  1.00  0.00    -0.296 A  
HETATM   25  O   UNL     1      -7.268  21.349  66.995  1.00  0.00    -0.451 OA 
ENDBRANCH  15  18
ENDBRANCH   2  15
TORSDOF 6
ENDMDL
MODEL       77
REMARK 921   NORMALIZED FREE ENERGY PREDICTED BY IDOCK:   -5.57 KCAL/MOL
REMARK 922        TOTAL FREE ENERGY PREDICTED BY IDOCK:   -8.57 KCAL/MOL
REMARK 923 INTER-LIGAND FREE ENERGY PREDICTED BY IDOCK:   -8.02 KCAL/MOL
REMARK 924 INTRA-LIGAND FREE ENERGY PREDICTED BY IDOCK:   -0.55 KCAL/MOL
REMARK 927      BINDING AFFINITY PREDICTED BY RF-SCORE:    0.00 PKD
ROOT
HETATM    1  C   UNL     1     -13.319  11.527  71.844  1.00  0.00    -0.408 C  
HETATM    2  C   UNL     1     -12.396  10.367  71.440  1.00  0.00    -0.397 C  
ENDROOT
BRANCH   2   3
HETATM    3  N   UNL     1     -12.203  10.312  69.973  1.00  0.00    -0.485 NA 
HETATM    4  H   UNL     1     -13.107  10.344  69.501  1.00  0.00     0.000 HD 
BRANCH   3   5
HETATM    5  C   UNL     1     -11.311  11.328  69.413  1.00  0.00    -0.292 C  
BRANCH   5   6
HETATM    6  C   UNL     1     -11.992  12.224  68.369  1.00  0.00    -0.266 C  
BRANCH   6   7
HETATM    7  C   UNL     1     -11.538  11.897  66.969  1.00  0.00    -0.365 A  
HETATM    8  C   UNL     1     -12.071  12.592  65.874  1.00  0.00    -0.459 A  
HETATM    9  C   UNL     1     -10.757  11.250  64.374  1.00  0.00    -0.339 A  
HETATM   10  C   UNL     1     -11.678  12.271  64.575  1.00  0.00    -0.421 A  
HETATM   11  O   UNL     1     -10.355  10.894  63.122  1.00  0.00    -0.612 OA 
HETATM   12  C   UNL     1     -10.213  10.556  65.450  1.00  0.00    -0.340 A  
HETATM   13  H   UNL     1      -9.726  10.196  62.984  1.00  0.00     0.000 HD 
HETATM   14  C   UNL     1     -10.606  10.875  66.750  1.00  0.00    -0.313 A  
ENDBRANCH   6   7
ENDBRANCH   5   6
ENDBRANCH   3   5
ENDBRANCH   2   3
BRANCH   2  15
HETATM   15  C   UNL     1     -12.942   8.984  71.917  1.00  0.00    -0.389 C  
HETATM   16  O   UNL     1     -13.748   9.144  73.093  1.00  0.00    -0.980 OA 
HETATM   17  H   UNL     1     -14.081   8.302  73.382  1.00  0.00     0.000 HD 
BRANCH  15  18
HETATM   18  C   UNL     1     -11.853   7.950  72.147  1.00  0.00    -0.384 A  
HETATM   19  C   UNL     1     -12.145   6.582  72.022  1.00  0.00    -0.358 A  
HETATM   20  C   UNL     1      -9.544   7.376  72.650  1.00  0.00    -0.204 A  
HETATM   21  H   UNL     1      -7.983   5.403  72.994  1.00  0.00     0.000 HD 
HETATM   22  C   UNL     1     -11.150   5.621  72.225  1.00  0.00    -0.318 A  
HETATM   23  C   UNL     1      -9.860   6.028  72.548  1.00  0.00    -0.164 A  
HETATM   24  C   UNL     1     -10.535   8.334  72.449  1.00  0.00    -0.404 A  
HETATM   25  O   UNL     1      -8.864   5.126  72.774  1.00  0.00    -0.119 OA 
ENDBRANCH  15  18
ENDBRANCH   2  15
TORSDOF 6
ENDMDL
MODEL       78
REMARK 921   NORMALIZED FREE ENERGY PREDICTED BY IDOCK:   -5.56 KCAL/MOL
REMARK 922        TOTAL FREE ENERGY PREDICTED BY IDOCK:   -8.56 KCAL/MOL
REMARK 923 INTER-LIGAND FREE ENERGY PREDICTED BY IDOCK:   -6.97 KCAL/MOL
REMARK 924 INTRA-LIGAND FREE ENERGY PREDICTED BY IDOCK:   -1.59 KCAL/MOL
REMARK 927      BINDING AFFINITY PREDICTED BY RF-SCORE:    0.00 PKD
ROOT
HETATM    1  C   UNL     1      -9.480   9.059  68.165  1.00  0.00    -0.155 C  
HETATM    2  C   UNL     1      -9.627  10.306  67.280  1.00  0.00    -0.159 C  
ENDROOT
BRANCH   2   3
HETATM    3  N   UNL     1      -8.399  11.133  67.297  1.00  0.00    -0.131 NA 
HETATM    4  H   UNL     1      -8.155  11.414  66.346  1.00  0.00     0.000 HD 
BRANCH   3   5
HETATM    5  C   UNL     1      -8.437  12.306  68.170  1.00  0.00    -0.176 C  
BRANCH   5   6
HETATM    6  C   UNL     1      -7.672  13.510  67.603  1.00  0.00    -0.180 C  
BRANCH   6   7
HETATM    7  C   UNL     1      -8.541  14.738  67.520  1.00  0.00    -0.198 A  
HETATM    8  C   UNL     1      -8.826  15.320  66.276  1.00  0.00    -0.262 A  
HETATM    9  C   UNL     1     -10.088  17.051  67.366  1.00  0.00    -0.291 A  
HETATM   10  C   UNL     1      -9.603  16.474  66.198  1.00  0.00    -0.344 A  
HETATM   11  O   UNL     1     -10.839  18.187  67.337  1.00  0.00    -0.374 OA 
HETATM   12  C   UNL     1      -9.820  16.483  68.607  1.00  0.00    -0.250 A  
HETATM   13  H   UNL     1     -11.171  18.582  68.135  1.00  0.00     0.000 HD 
HETATM   14  C   UNL     1      -9.043  15.328  68.687  1.00  0.00    -0.193 A  
ENDBRANCH   6   7
ENDBRANCH   5   6
ENDBRANCH   3   5
ENDBRANCH   2   3
BRANCH   2  15
HETATM   15  C   UNL     1     -10.830  11.202  67.715  1.00  0.00    -0.239 C  
HETATM   16  O   UNL     1     -11.906  10.388  68.202  1.00  0.00    -0.761 OA 
HETATM   17  H   UNL     1     -12.638  10.933  68.467  1.00  0.00     0.000 HD 
BRANCH  15  18
HETATM   18  C   UNL     1     -11.314  12.138  66.621  1.00  0.00    -0.405 A  
HETATM   19  C   UNL     1     -11.990  13.322  66.957  1.00  0.00    -0.419 A  
HETATM   20  C   UNL     1     -11.511  12.735  64.271  1.00  0.00    -0.427 A  
HETATM   21  H   UNL     1     -12.472  14.488  62.707  1.00  0.00     0.000 HD 
HETATM   22  C   UNL     1     -12.435  14.195  65.960  1.00  0.00    -0.454 A  
HETATM   23  C   UNL     1     -12.199  13.887  64.625  1.00  0.00    -0.419 A  
HETATM   24  C   UNL     1     -11.068  11.864  65.264  1.00  0.00    -0.354 A  
HETATM   25  O   UNL     1     -12.633  14.699  63.619  1.00  0.00    -0.773 OA 
ENDBRANCH  15  18
ENDBRANCH   2  15
TORSDOF 6
ENDMDL
MODEL       79
REMARK 921   NORMALIZED FREE ENERGY PREDICTED BY IDOCK:   -5.55 KCAL/MOL
REMARK 922        TOTAL FREE ENERGY PREDICTED BY IDOCK:   -8.54 KCAL/MOL
REMARK 923 INTER-LIGAND FREE ENERGY PREDICTED BY IDOCK:   -6.97 KCAL/MOL
REMARK 924 INTRA-LIGAND FREE ENERGY PREDICTED BY IDOCK:   -1.57 KCAL/MOL
REMARK 927      BINDING AFFINITY PREDICTED BY RF-SCORE:    0.00 PKD
ROOT
HETATM    1  C   UNL     1     -10.082   8.069  71.533  1.00  0.00    -0.228 C  
HETATM    2  C   UNL     1     -10.925   8.936  70.586  1.00  0.00    -0.241 C  
ENDROOT
BRANCH   2   3
HETATM    3  N   UNL     1     -12.349   8.530  70.598  1.00  0.00    -0.480 NA 
HETATM    4  H   UNL     1     -12.490   7.777  71.272  1.00  0.00     0.000 HD 
BRANCH   3   5
HETATM    5  C   UNL     1     -13.312   9.604  70.839  1.00  0.00    -0.127 C  
BRANCH   5   6
HETATM    6  C   UNL     1     -12.945  10.489  72.039  1.00  0.00    -0.490 C  
BRANCH   6   7
HETATM    7  C   UNL     1     -12.972  11.953  71.684  1.00  0.00    -0.447 A  
HETATM    8  C   UNL     1     -13.774  12.843  72.414  1.00  0.00    -0.530 A  
HETATM    9  C   UNL     1     -13.083  14.649  70.987  1.00  0.00    -0.367 A  
HETATM   10  C   UNL     1     -13.826  14.192  72.069  1.00  0.00    -0.577 A  
HETATM   11  O   UNL     1     -13.116  15.957  70.606  1.00  0.00    -0.682 OA 
HETATM   12  C   UNL     1     -12.277  13.782  70.257  1.00  0.00    -0.429 A  
HETATM   13  H   UNL     1     -12.607  16.270  69.867  1.00  0.00     0.000 HD 
HETATM   14  C   UNL     1     -12.223  12.431  70.601  1.00  0.00    -0.368 A  
ENDBRANCH   6   7
ENDBRANCH   5   6
ENDBRANCH   3   5
ENDBRANCH   2   3
BRANCH   2  15
HETATM   15  C   UNL     1     -10.408   8.876  69.113  1.00  0.00    -0.220 C  
HETATM   16  O   UNL     1      -9.126   8.235  69.061  1.00  0.00    -0.147 OA 
HETATM   17  H   UNL     1      -8.812   8.198  68.164  1.00  0.00     0.000 HD 
BRANCH  15  18
HETATM   18  C   UNL     1     -10.360  10.234  68.433  1.00  0.00    -0.202 A  
HETATM   19  C   UNL     1     -11.427  10.651  67.620  1.00  0.00    -0.169 A  
HETATM   20  C   UNL     1      -9.251  12.355  68.005  1.00  0.00    -0.203 A  
HETATM   21  H   UNL     1      -9.477  14.526  66.709  1.00  0.00     0.000 HD 
HETATM   22  C   UNL     1     -11.398  11.900  66.994  1.00  0.00    -0.392 A  
HETATM   23  C   UNL     1     -10.303  12.737  67.185  1.00  0.00    -0.233 A  
HETATM   24  C   UNL     1      -9.279  11.110  68.629  1.00  0.00    -0.173 A  
HETATM   25  O   UNL     1     -10.224  13.955  66.578  1.00  0.00    -0.269 OA 
ENDBRANCH  15  18
ENDBRANCH   2  15
TORSDOF 6
ENDMDL
MODEL       80
REMARK 921   NORMALIZED FREE ENERGY PREDICTED BY IDOCK:   -5.54 KCAL/MOL
REMARK 922        TOTAL FREE ENERGY PREDICTED BY IDOCK:   -8.53 KCAL/MOL
REMARK 923 INTER-LIGAND FREE ENERGY PREDICTED BY IDOCK:   -7.81 KCAL/MOL
REMARK 924 INTRA-LIGAND FREE ENERGY PREDICTED BY IDOCK:   -0.72 KCAL/MOL
REMARK 927      BINDING AFFINITY PREDICTED BY RF-SCORE:    0.00 PKD
ROOT
HETATM    1  C   UNL     1      -9.697  12.168  68.276  1.00  0.00    -0.216 C  
HETATM    2  C   UNL     1     -10.932  11.255  68.319  1.00  0.00    -0.224 C  
ENDROOT
BRANCH   2   3
HETATM    3  N   UNL     1     -11.840  11.513  67.177  1.00  0.00    -0.572 NA 
HETATM    4  H   UNL     1     -12.725  11.892  67.516  1.00  0.00     0.000 HD 
BRANCH   3   5
HETATM    5  C   UNL     1     -11.300  12.370  66.121  1.00  0.00    -0.352 C  
BRANCH   5   6
HETATM    6  C   UNL     1     -12.122  13.648  65.898  1.00  0.00    -0.476 C  
BRANCH   6   7
HETATM    7  C   UNL     1     -11.519  14.832  66.608  1.00  0.00    -0.339 A  
HETATM    8  C   UNL     1     -11.775  15.044  67.971  1.00  0.00    -0.320 A  
HETATM    9  C   UNL     1     -10.466  17.059  67.911  1.00  0.00    -0.354 A  
HETATM   10  C   UNL     1     -11.245  16.156  68.624  1.00  0.00    -0.369 A  
HETATM   11  O   UNL     1      -9.941  18.167  68.506  1.00  0.00    -0.357 OA 
HETATM   12  C   UNL     1     -10.197  16.860  66.560  1.00  0.00    -0.320 A  
HETATM   13  H   UNL     1      -9.408  18.784  68.018  1.00  0.00     0.000 HD 
HETATM   14  C   UNL     1     -10.726  15.748  65.906  1.00  0.00    -0.320 A  
ENDBRANCH   6   7
ENDBRANCH   5   6
ENDBRANCH   3   5
ENDBRANCH   2   3
BRANCH   2  15
HETATM   15  C   UNL     1     -11.745  11.422  69.642  1.00  0.00    -0.345 C  
HETATM   16  O   UNL     1     -11.434  12.677  70.263  1.00  0.00    -0.518 OA 
HETATM   17  H   UNL     1     -11.929  12.779  71.067  1.00  0.00     0.000 HD 
BRANCH  15  18
HETATM   18  C   UNL     1     -11.552  10.275  70.619  1.00  0.00    -0.435 A  
HETATM   19  C   UNL     1     -10.344   9.558  70.632  1.00  0.00    -0.369 A  
HETATM   20  C   UNL     1     -12.356   8.884  72.445  1.00  0.00    -0.385 A  
HETATM   21  H   UNL     1     -11.720   6.912  73.912  1.00  0.00     0.000 HD 
HETATM   22  C   UNL     1     -10.152   8.505  71.531  1.00  0.00    -0.315 A  
HETATM   23  C   UNL     1     -11.165   8.172  72.423  1.00  0.00    -0.386 A  
HETATM   24  C   UNL     1     -12.549   9.933  71.549  1.00  0.00    -0.513 A  
HETATM   25  O   UNL     1     -11.028   7.140  73.303  1.00  0.00    -0.322 OA 
ENDBRANCH  15  18
ENDBRANCH   2  15
TORSDOF 6
ENDMDL
MODEL       81
REMARK 921   NORMALIZED FREE ENERGY PREDICTED BY IDOCK:   -5.52 KCAL/MOL
REMARK 922        TOTAL FREE ENERGY PREDICTED BY IDOCK:   -8.50 KCAL/MOL
REMARK 923 INTER-LIGAND FREE ENERGY PREDICTED BY IDOCK:   -6.96 KCAL/MOL
REMARK 924 INTRA-LIGAND FREE ENERGY PREDICTED BY IDOCK:   -1.55 KCAL/MOL
REMARK 927      BINDING AFFINITY PREDICTED BY RF-SCORE:    0.00 PKD
ROOT
HETATM    1  C   UNL     1      -8.509  16.434  67.906  1.00  0.00    -0.171 C  
HETATM    2  C   UNL     1      -8.897  15.142  67.172  1.00  0.00    -0.216 C  
ENDROOT
BRANCH   2   3
HETATM    3  N   UNL     1      -7.757  14.201  67.086  1.00  0.00    -0.353 NA 
HETATM    4  H   UNL     1      -6.878  14.707  67.202  1.00  0.00     0.000 HD 
BRANCH   3   5
HETATM    5  C   UNL     1      -7.804  13.064  68.007  1.00  0.00    -0.146 C  
BRANCH   5   6
HETATM    6  C   UNL     1      -8.523  11.841  67.422  1.00  0.00    -0.158 C  
BRANCH   6   7
HETATM    7  C   UNL     1      -9.716  11.443  68.252  1.00  0.00    -0.202 A  
HETATM    8  C   UNL     1      -9.688  10.262  69.009  1.00  0.00    -0.213 A  
HETATM    9  C   UNL     1     -11.944  10.664  69.734  1.00  0.00    -0.291 A  
HETATM   10  C   UNL     1     -10.801   9.874  69.754  1.00  0.00    -0.300 A  
HETATM   11  O   UNL     1     -13.060  10.315  70.434  1.00  0.00    -0.556 OA 
HETATM   12  C   UNL     1     -11.986  11.842  68.994  1.00  0.00    -0.341 A  
HETATM   13  H   UNL     1     -13.841  10.855  70.421  1.00  0.00     0.000 HD 
HETATM   14  C   UNL     1     -10.874  12.231  68.249  1.00  0.00    -0.254 A  
ENDBRANCH   6   7
ENDBRANCH   5   6
ENDBRANCH   3   5
ENDBRANCH   2   3
BRANCH   2  15
HETATM   15  C   UNL     1      -9.417  15.418  65.725  1.00  0.00    -0.290 C  
HETATM   16  O   UNL     1      -9.849  16.780  65.601  1.00  0.00    -0.544 OA 
HETATM   17  H   UNL     1     -10.165  16.948  64.721  1.00  0.00     0.000 HD 
BRANCH  15  18
HETATM   18  C   UNL     1     -10.513  14.463  65.284  1.00  0.00    -0.410 A  
HETATM   19  C   UNL     1     -10.192  13.327  64.524  1.00  0.00    -0.332 A  
HETATM   20  C   UNL     1     -12.848  13.782  65.249  1.00  0.00    -0.430 A  
HETATM   21  H   UNL     1     -14.423  12.016  64.330  1.00  0.00     0.000 HD 
HETATM   22  C   UNL     1     -11.191  12.437  64.117  1.00  0.00    -0.434 A  
HETATM   23  C   UNL     1     -12.512  12.680  64.476  1.00  0.00    -0.448 A  
HETATM   24  C   UNL     1     -11.854  14.670  65.654  1.00  0.00    -0.273 A  
HETATM   25  O   UNL     1     -13.520  11.850  64.085  1.00  0.00    -0.591 OA 
ENDBRANCH  15  18
ENDBRANCH   2  15
TORSDOF 6
ENDMDL
MODEL       82
REMARK 921   NORMALIZED FREE ENERGY PREDICTED BY IDOCK:   -5.51 KCAL/MOL
REMARK 922        TOTAL FREE ENERGY PREDICTED BY IDOCK:   -8.49 KCAL/MOL
REMARK 923 INTER-LIGAND FREE ENERGY PREDICTED BY IDOCK:   -7.91 KCAL/MOL
REMARK 924 INTRA-LIGAND FREE ENERGY PREDICTED BY IDOCK:   -0.58 KCAL/MOL
REMARK 927      BINDING AFFINITY PREDICTED BY RF-SCORE:    0.00 PKD
ROOT
HETATM    1  C   UNL     1     -10.774  10.785  66.767  1.00  0.00    -0.291 C  
HETATM    2  C   UNL     1     -11.380  11.947  67.567  1.00  0.00    -0.314 C  
ENDROOT
BRANCH   2   3
HETATM    3  N   UNL     1     -12.241  11.458  68.669  1.00  0.00    -0.510 NA 
HETATM    4  H   UNL     1     -12.294  10.439  68.643  1.00  0.00     0.000 HD 
BRANCH   3   5
HETATM    5  C   UNL     1     -11.868  11.905  70.011  1.00  0.00    -0.328 C  
BRANCH   5   6
HETATM    6  C   UNL     1     -12.770  11.332  71.113  1.00  0.00    -0.492 C  
BRANCH   6   7
HETATM    7  C   UNL     1     -12.463   9.883  71.391  1.00  0.00    -0.495 A  
HETATM    8  C   UNL     1     -11.133   9.451  71.497  1.00  0.00    -0.446 A  
HETATM    9  C   UNL     1     -11.885   7.193  71.833  1.00  0.00    -0.300 A  
HETATM   10  C   UNL     1     -10.843   8.106  71.722  1.00  0.00    -0.317 A  
HETATM   11  O   UNL     1     -11.648   5.867  72.039  1.00  0.00    -0.288 OA 
HETATM   12  C   UNL     1     -13.210   7.606  71.738  1.00  0.00    -0.360 A  
HETATM   13  H   UNL     1     -12.360   5.243  72.115  1.00  0.00     0.000 HD 
HETATM   14  C   UNL     1     -13.501   8.952  71.513  1.00  0.00    -0.381 A  
ENDBRANCH   6   7
ENDBRANCH   5   6
ENDBRANCH   3   5
ENDBRANCH   2   3
BRANCH   2  15
HETATM   15  C   UNL     1     -12.226  12.906  66.671  1.00  0.00    -0.159 C  
HETATM   16  O   UNL     1     -12.525  12.279  65.415  1.00  0.00    -0.596 OA 
HETATM   17  H   UNL     1     -13.040  12.862  64.870  1.00  0.00     0.000 HD 
BRANCH  15  18
HETATM   18  C   UNL     1     -11.576  14.261  66.454  1.00  0.00    -0.381 A  
HETATM   19  C   UNL     1     -11.491  14.802  65.160  1.00  0.00    -0.371 A  
HETATM   20  C   UNL     1     -10.497  16.262  67.321  1.00  0.00    -0.300 A  
HETATM   21  H   UNL     1      -9.457  18.465  66.608  1.00  0.00     0.000 HD 
HETATM   22  C   UNL     1     -10.901  16.051  64.948  1.00  0.00    -0.391 A  
HETATM   23  C   UNL     1     -10.400  16.765  66.031  1.00  0.00    -0.335 A  
HETATM   24  C   UNL     1     -11.084  15.016  67.533  1.00  0.00    -0.317 A  
HETATM   25  O   UNL     1      -9.800  17.978  65.869  1.00  0.00    -0.535 OA 
ENDBRANCH  15  18
ENDBRANCH   2  15
TORSDOF 6
ENDMDL
MODEL       83
REMARK 921   NORMALIZED FREE ENERGY PREDICTED BY IDOCK:   -5.49 KCAL/MOL
REMARK 922        TOTAL FREE ENERGY PREDICTED BY IDOCK:   -8.46 KCAL/MOL
REMARK 923 INTER-LIGAND FREE ENERGY PREDICTED BY IDOCK:   -7.11 KCAL/MOL
REMARK 924 INTRA-LIGAND FREE ENERGY PREDICTED BY IDOCK:   -1.35 KCAL/MOL
REMARK 927      BINDING AFFINITY PREDICTED BY RF-SCORE:    0.00 PKD
ROOT
HETATM    1  C   UNL     1      -6.458  11.787  68.962  1.00  0.00    -0.084 C  
HETATM    2  C   UNL     1      -7.646  12.745  68.786  1.00  0.00    -0.025 C  
ENDROOT
BRANCH   2   3
HETATM    3  N   UNL     1      -8.936  12.017  68.781  1.00  0.00    -0.386 NA 
HETATM    4  H   UNL     1      -9.708  12.676  68.888  1.00  0.00     0.000 HD 
BRANCH   3   5
HETATM    5  C   UNL     1      -9.172  11.154  67.623  1.00  0.00    -0.151 C  
BRANCH   5   6
HETATM    6  C   UNL     1     -10.662  10.902  67.349  1.00  0.00    -0.305 C  
BRANCH   6   7
HETATM    7  C   UNL     1     -11.166  11.729  66.194  1.00  0.00    -0.363 A  
HETATM    8  C   UNL     1     -10.702  11.483  64.893  1.00  0.00    -0.357 A  
HETATM    9  C   UNL     1     -12.039  13.301  64.065  1.00  0.00    -0.447 A  
HETATM   10  C   UNL     1     -11.141  12.266  63.827  1.00  0.00    -0.507 A  
HETATM   11  O   UNL     1     -12.483  14.100  63.054  1.00  0.00    -1.077 OA 
HETATM   12  C   UNL     1     -12.514  13.553  65.348  1.00  0.00    -0.540 A  
HETATM   13  H   UNL     1     -13.097  14.807  63.217  1.00  0.00     0.000 HD 
HETATM   14  C   UNL     1     -12.076  12.771  66.415  1.00  0.00    -0.370 A  
ENDBRANCH   6   7
ENDBRANCH   5   6
ENDBRANCH   3   5
ENDBRANCH   2   3
BRANCH   2  15
HETATM   15  C   UNL     1      -7.545  13.575  67.467  1.00  0.00    -0.167 C  
HETATM   16  O   UNL     1      -6.172  13.855  67.158  1.00  0.00    -0.387 OA 
HETATM   17  H   UNL     1      -6.111  14.360  66.355  1.00  0.00     0.000 HD 
BRANCH  15  18
HETATM   18  C   UNL     1      -8.363  14.855  67.494  1.00  0.00    -0.195 A  
HETATM   19  C   UNL     1      -8.263  15.730  68.589  1.00  0.00    -0.174 A  
HETATM   20  C   UNL     1      -9.938  16.391  66.457  1.00  0.00    -0.294 A  
HETATM   21  H   UNL     1     -11.174  18.576  66.834  1.00  0.00     0.000 HD 
HETATM   22  C   UNL     1      -9.004  16.914  68.623  1.00  0.00    -0.266 A  
HETATM   23  C   UNL     1      -9.844  17.228  67.560  1.00  0.00    -0.275 A  
HETATM   24  C   UNL     1      -9.199  15.210  66.422  1.00  0.00    -0.334 A  
HETATM   25  O   UNL     1     -10.600  18.362  67.560  1.00  0.00    -0.408 OA 
ENDBRANCH  15  18
ENDBRANCH   2  15
TORSDOF 6
ENDMDL
MODEL       84
REMARK 921   NORMALIZED FREE ENERGY PREDICTED BY IDOCK:   -5.49 KCAL/MOL
REMARK 922        TOTAL FREE ENERGY PREDICTED BY IDOCK:   -8.46 KCAL/MOL
REMARK 923 INTER-LIGAND FREE ENERGY PREDICTED BY IDOCK:   -7.93 KCAL/MOL
REMARK 924 INTRA-LIGAND FREE ENERGY PREDICTED BY IDOCK:   -0.53 KCAL/MOL
REMARK 927      BINDING AFFINITY PREDICTED BY RF-SCORE:    0.00 PKD
ROOT
HETATM    1  C   UNL     1     -12.981  13.428  65.084  1.00  0.00    -0.249 C  
HETATM    2  C   UNL     1     -11.480  13.233  64.824  1.00  0.00    -0.327 C  
ENDROOT
BRANCH   2   3
HETATM    3  N   UNL     1     -10.782  14.530  64.670  1.00  0.00    -0.599 NA 
HETATM    4  H   UNL     1     -11.463  15.280  64.551  1.00  0.00     0.000 HD 
BRANCH   3   5
HETATM    5  C   UNL     1      -9.841  14.874  65.737  1.00  0.00    -0.348 C  
BRANCH   5   6
HETATM    6  C   UNL     1     -10.516  15.523  66.953  1.00  0.00    -0.301 C  
BRANCH   6   7
HETATM    7  C   UNL     1     -10.250  17.005  67.016  1.00  0.00    -0.303 A  
HETATM    8  C   UNL     1      -9.748  17.584  68.191  1.00  0.00    -0.302 A  
HETATM    9  C   UNL     1      -9.825  19.755  67.163  1.00  0.00    -0.386 A  
HETATM   10  C   UNL     1      -9.531  18.959  68.263  1.00  0.00    -0.395 A  
HETATM   11  O   UNL     1      -9.642  21.105  67.195  1.00  0.00    -0.680 OA 
HETATM   12  C   UNL     1     -10.317  19.196  65.987  1.00  0.00    -0.538 A  
HETATM   13  H   UNL     1      -9.842  21.649  66.443  1.00  0.00     0.000 HD 
HETATM   14  C   UNL     1     -10.534  17.821  65.914  1.00  0.00    -0.251 A  
ENDBRANCH   6   7
ENDBRANCH   5   6
ENDBRANCH   3   5
ENDBRANCH   2   3
BRANCH   2  15
HETATM   15  C   UNL     1     -11.208  12.373  63.549  1.00  0.00    -0.469 C  
HETATM   16  O   UNL     1     -12.445  11.944  62.964  1.00  0.00    -0.811 OA 
HETATM   17  H   UNL     1     -12.279  11.421  62.188  1.00  0.00     0.000 HD 
BRANCH  15  18
HETATM   18  C   UNL     1     -10.292  11.189  63.802  1.00  0.00    -0.447 A  
HETATM   19  C   UNL     1      -9.501  10.675  62.761  1.00  0.00    -0.355 A  
HETATM   20  C   UNL     1      -9.335   9.527  65.299  1.00  0.00    -0.317 A  
HETATM   21  H   UNL     1      -7.735   7.557  65.370  1.00  0.00     0.000 HD 
HETATM   22  C   UNL     1      -8.649   9.590  62.983  1.00  0.00    -0.217 A  
HETATM   23  C   UNL     1      -8.582   9.019  64.249  1.00  0.00    -0.148 A  
HETATM   24  C   UNL     1     -10.185  10.608  65.078  1.00  0.00    -0.380 A  
HETATM   25  O   UNL     1      -7.781   7.947  64.505  1.00  0.00    -0.110 OA 
ENDBRANCH  15  18
ENDBRANCH   2  15
TORSDOF 6
ENDMDL
MODEL       85
REMARK 921   NORMALIZED FREE ENERGY PREDICTED BY IDOCK:   -5.48 KCAL/MOL
REMARK 922        TOTAL FREE ENERGY PREDICTED BY IDOCK:   -8.45 KCAL/MOL
REMARK 923 INTER-LIGAND FREE ENERGY PREDICTED BY IDOCK:   -7.56 KCAL/MOL
REMARK 924 INTRA-LIGAND FREE ENERGY PREDICTED BY IDOCK:   -0.88 KCAL/MOL
REMARK 927      BINDING AFFINITY PREDICTED BY RF-SCORE:    0.00 PKD
ROOT
HETATM    1  C   UNL     1     -10.115   9.502  69.551  1.00  0.00    -0.218 C  
HETATM    2  C   UNL     1     -10.923  10.123  70.700  1.00  0.00    -0.285 C  
ENDROOT
BRANCH   2   3
HETATM    3  N   UNL     1     -11.246   9.120  71.742  1.00  0.00    -0.375 NA 
HETATM    4  H   UNL     1     -11.387   9.584  72.639  1.00  0.00     0.000 HD 
BRANCH   3   5
HETATM    5  C   UNL     1     -12.380   8.244  71.448  1.00  0.00    -0.299 C  
BRANCH   5   6
HETATM    6  C   UNL     1     -12.105   6.768  71.769  1.00  0.00    -0.393 C  
BRANCH   6   7
HETATM    7  C   UNL     1     -11.110   6.163  70.812  1.00  0.00    -0.375 A  
HETATM    8  C   UNL     1     -11.356   6.182  69.431  1.00  0.00    -0.401 A  
HETATM    9  C   UNL     1      -9.309   4.983  69.043  1.00  0.00    -0.126 A  
HETATM   10  C   UNL     1     -10.454   5.595  68.546  1.00  0.00    -0.273 A  
HETATM   11  O   UNL     1      -8.408   4.385  68.214  1.00  0.00    -0.092 OA 
HETATM   12  C   UNL     1      -9.046   4.962  70.409  1.00  0.00    -0.173 A  
HETATM   13  H   UNL     1      -7.626   3.967  68.554  1.00  0.00     0.000 HD 
HETATM   14  C   UNL     1      -9.948   5.549  71.296  1.00  0.00    -0.249 A  
ENDBRANCH   6   7
ENDBRANCH   5   6
ENDBRANCH   3   5
ENDBRANCH   2   3
BRANCH   2  15
HETATM   15  C   UNL     1     -12.257  10.765  70.205  1.00  0.00    -0.348 C  
HETATM   16  O   UNL     1     -12.293  10.797  68.771  1.00  0.00    -0.812 OA 
HETATM   17  H   UNL     1     -13.106  11.188  68.471  1.00  0.00     0.000 HD 
BRANCH  15  18
HETATM   18  C   UNL     1     -12.513  12.147  70.781  1.00  0.00    -0.362 A  
HETATM   19  C   UNL     1     -12.050  13.288  70.105  1.00  0.00    -0.403 A  
HETATM   20  C   UNL     1     -13.477  13.593  72.484  1.00  0.00    -0.675 A  
HETATM   21  H   UNL     1     -13.702  16.025  73.176  1.00  0.00     0.000 HD 
HETATM   22  C   UNL     1     -12.285  14.566  70.621  1.00  0.00    -0.401 A  
HETATM   23  C   UNL     1     -12.988  14.705  71.812  1.00  0.00    -0.335 A  
HETATM   24  C   UNL     1     -13.243  12.319  71.971  1.00  0.00    -0.508 A  
HETATM   25  O   UNL     1     -13.222  15.930  72.362  1.00  0.00    -0.461 OA 
ENDBRANCH  15  18
ENDBRANCH   2  15
TORSDOF 6
ENDMDL
MODEL       86
REMARK 921   NORMALIZED FREE ENERGY PREDICTED BY IDOCK:   -5.47 KCAL/MOL
REMARK 922        TOTAL FREE ENERGY PREDICTED BY IDOCK:   -8.43 KCAL/MOL
REMARK 923 INTER-LIGAND FREE ENERGY PREDICTED BY IDOCK:   -7.36 KCAL/MOL
REMARK 924 INTRA-LIGAND FREE ENERGY PREDICTED BY IDOCK:   -1.06 KCAL/MOL
REMARK 927      BINDING AFFINITY PREDICTED BY RF-SCORE:    0.00 PKD
ROOT
HETATM    1  C   UNL     1      -9.293  10.442  62.562  1.00  0.00    -0.318 C  
HETATM    2  C   UNL     1      -9.636  10.661  64.043  1.00  0.00    -0.299 C  
ENDROOT
BRANCH   2   3
HETATM    3  N   UNL     1      -9.652   9.384  64.793  1.00  0.00    -0.425 NA 
HETATM    4  H   UNL     1      -9.198   8.653  64.245  1.00  0.00     0.000 HD 
BRANCH   3   5
HETATM    5  C   UNL     1      -9.075   9.431  66.137  1.00  0.00    -0.171 C  
BRANCH   5   6
HETATM    6  C   UNL     1      -9.795   8.516  67.138  1.00  0.00    -0.269 C  
BRANCH   6   7
HETATM    7  C   UNL     1     -10.489   9.304  68.218  1.00  0.00    -0.260 A  
HETATM    8  C   UNL     1     -10.483   8.844  69.543  1.00  0.00    -0.229 A  
HETATM    9  C   UNL     1     -11.832  10.719  70.209  1.00  0.00    -0.349 A  
HETATM   10  C   UNL     1     -11.151   9.553  70.540  1.00  0.00    -0.342 A  
HETATM   11  O   UNL     1     -12.510  11.435  71.149  1.00  0.00    -0.382 OA 
HETATM   12  C   UNL     1     -11.842  11.193  68.901  1.00  0.00    -0.406 A  
HETATM   13  H   UNL     1     -12.975  12.232  70.923  1.00  0.00     0.000 HD 
HETATM   14  C   UNL     1     -11.174  10.484  67.903  1.00  0.00    -0.358 A  
ENDBRANCH   6   7
ENDBRANCH   5   6
ENDBRANCH   3   5
ENDBRANCH   2   3
BRANCH   2  15
HETATM   15  C   UNL     1     -11.021  11.360  64.232  1.00  0.00    -0.321 C  
HETATM   16  O   UNL     1     -11.798  11.258  63.030  1.00  0.00    -0.864 OA 
HETATM   17  H   UNL     1     -12.640  11.683  63.146  1.00  0.00     0.000 HD 
BRANCH  15  18
HETATM   18  C   UNL     1     -10.912  12.806  64.684  1.00  0.00    -0.355 A  
HETATM   19  C   UNL     1     -11.772  13.777  64.145  1.00  0.00    -0.397 A  
HETATM   20  C   UNL     1      -9.902  14.525  66.077  1.00  0.00    -0.342 A  
HETATM   21  H   UNL     1      -9.969  17.012  66.581  1.00  0.00     0.000 HD 
HETATM   22  C   UNL     1     -11.687  15.110  64.557  1.00  0.00    -0.331 A  
HETATM   23  C   UNL     1     -10.744  15.473  65.512  1.00  0.00    -0.381 A  
HETATM   24  C   UNL     1      -9.986  13.196  65.666  1.00  0.00    -0.237 A  
HETATM   25  O   UNL     1     -10.613  16.764  65.929  1.00  0.00    -0.324 OA 
ENDBRANCH  15  18
ENDBRANCH   2  15
TORSDOF 6
ENDMDL
MODEL       87
REMARK 921   NORMALIZED FREE ENERGY PREDICTED BY IDOCK:   -5.46 KCAL/MOL
REMARK 922        TOTAL FREE ENERGY PREDICTED BY IDOCK:   -8.42 KCAL/MOL
REMARK 923 INTER-LIGAND FREE ENERGY PREDICTED BY IDOCK:   -6.59 KCAL/MOL
REMARK 924 INTRA-LIGAND FREE ENERGY PREDICTED BY IDOCK:   -1.83 KCAL/MOL
REMARK 927      BINDING AFFINITY PREDICTED BY RF-SCORE:    0.00 PKD
ROOT
HETATM    1  C   UNL     1     -12.228  12.570  70.450  1.00  0.00    -0.368 C  
HETATM    2  C   UNL     1     -12.053  11.065  70.197  1.00  0.00    -0.356 C  
ENDROOT
BRANCH   2   3
HETATM    3  N   UNL     1     -12.364  10.710  68.793  1.00  0.00    -0.784 NA 
HETATM    4  H   UNL     1     -12.989  11.407  68.388  1.00  0.00     0.000 HD 
BRANCH   3   5
HETATM    5  C   UNL     1     -11.208  10.507  67.919  1.00  0.00    -0.289 C  
BRANCH   5   6
HETATM    6  C   UNL     1      -9.992   9.919  68.650  1.00  0.00    -0.177 C  
BRANCH   6   7
HETATM    7  C   UNL     1      -9.986   8.413  68.603  1.00  0.00    -0.197 A  
HETATM    8  C   UNL     1      -9.210   7.681  69.514  1.00  0.00    -0.150 A  
HETATM    9  C   UNL     1      -9.913   5.630  68.477  1.00  0.00    -0.157 A  
HETATM   10  C   UNL     1      -9.176   6.289  69.454  1.00  0.00    -0.139 A  
HETATM   11  O   UNL     1      -9.897   4.271  68.373  1.00  0.00    -0.123 OA 
HETATM   12  C   UNL     1     -10.693   6.340  67.570  1.00  0.00    -0.398 A  
HETATM   13  H   UNL     1     -10.401   3.821  67.705  1.00  0.00     0.000 HD 
HETATM   14  C   UNL     1     -10.728   7.733  67.629  1.00  0.00    -0.227 A  
ENDBRANCH   6   7
ENDBRANCH   5   6
ENDBRANCH   3   5
ENDBRANCH   2   3
BRANCH   2  15
HETATM   15  C   UNL     1     -12.951  10.199  71.135  1.00  0.00    -0.395 C  
HETATM   16  O   UNL     1     -13.407  10.979  72.249  1.00  0.00    -0.633 OA 
HETATM   17  H   UNL     1     -13.954  10.452  72.820  1.00  0.00     0.000 HD 
BRANCH  15  18
HETATM   18  C   UNL     1     -12.277   8.924  71.610  1.00  0.00    -0.409 A  
HETATM   19  C   UNL     1     -12.876   7.677  71.364  1.00  0.00    -0.354 A  
HETATM   20  C   UNL     1     -10.423   7.778  72.690  1.00  0.00    -0.363 A  
HETATM   21  H   UNL     1      -9.589   5.478  73.368  1.00  0.00     0.000 HD 
HETATM   22  C   UNL     1     -12.262   6.496  71.790  1.00  0.00    -0.374 A  
HETATM   23  C   UNL     1     -11.045   6.559  72.459  1.00  0.00    -0.260 A  
HETATM   24  C   UNL     1     -11.034   8.956  72.266  1.00  0.00    -0.245 A  
HETATM   25  O   UNL     1     -10.420   5.435  72.910  1.00  0.00    -0.188 OA 
ENDBRANCH  15  18
ENDBRANCH   2  15
TORSDOF 6
ENDMDL
MODEL       88
REMARK 921   NORMALIZED FREE ENERGY PREDICTED BY IDOCK:   -5.45 KCAL/MOL
REMARK 922        TOTAL FREE ENERGY PREDICTED BY IDOCK:   -8.40 KCAL/MOL
REMARK 923 INTER-LIGAND FREE ENERGY PREDICTED BY IDOCK:   -7.70 KCAL/MOL
REMARK 924 INTRA-LIGAND FREE ENERGY PREDICTED BY IDOCK:   -0.70 KCAL/MOL
REMARK 927      BINDING AFFINITY PREDICTED BY RF-SCORE:    0.00 PKD
ROOT
HETATM    1  C   UNL     1     -13.413  11.601  72.114  1.00  0.00    -0.238 C  
HETATM    2  C   UNL     1     -12.579  10.459  71.513  1.00  0.00    -0.439 C  
ENDROOT
BRANCH   2   3
HETATM    3  N   UNL     1     -12.590  10.499  70.032  1.00  0.00    -0.526 NA 
HETATM    4  H   UNL     1     -13.436  10.963  69.703  1.00  0.00     0.000 HD 
BRANCH   3   5
HETATM    5  C   UNL     1     -11.413  11.102  69.406  1.00  0.00    -0.298 C  
BRANCH   5   6
HETATM    6  C   UNL     1     -11.760  12.038  68.240  1.00  0.00    -0.396 C  
BRANCH   6   7
HETATM    7  C   UNL     1     -11.464  13.478  68.571  1.00  0.00    -0.345 A  
HETATM    8  C   UNL     1     -12.095  14.097  69.660  1.00  0.00    -0.400 A  
HETATM    9  C   UNL     1     -10.975  16.161  69.145  1.00  0.00    -0.309 A  
HETATM   10  C   UNL     1     -11.848  15.438  69.950  1.00  0.00    -0.373 A  
HETATM   11  O   UNL     1     -10.716  17.477  69.384  1.00  0.00    -0.383 OA 
HETATM   12  C   UNL     1     -10.336  15.560  68.065  1.00  0.00    -0.247 A  
HETATM   13  H   UNL     1     -10.120  17.971  68.834  1.00  0.00     0.000 HD 
HETATM   14  C   UNL     1     -10.582  14.219  67.774  1.00  0.00    -0.253 A  
ENDBRANCH   6   7
ENDBRANCH   5   6
ENDBRANCH   3   5
ENDBRANCH   2   3
BRANCH   2  15
HETATM   15  C   UNL     1     -13.082   9.054  71.971  1.00  0.00    -0.414 C  
HETATM   16  O   UNL     1     -13.826   9.165  73.193  1.00  0.00    -1.065 OA 
HETATM   17  H   UNL     1     -14.133   8.310  73.472  1.00  0.00     0.000 HD 
BRANCH  15  18
HETATM   18  C   UNL     1     -11.970   8.028  72.109  1.00  0.00    -0.399 A  
HETATM   19  C   UNL     1     -10.703   8.423  72.568  1.00  0.00    -0.372 A  
HETATM   20  C   UNL     1     -11.163   5.738  71.959  1.00  0.00    -0.307 A  
HETATM   21  H   UNL     1      -9.094   4.303  72.273  1.00  0.00     0.000 HD 
HETATM   22  C   UNL     1      -9.673   7.488  72.705  1.00  0.00    -0.239 A  
HETATM   23  C   UNL     1      -9.911   6.155  72.389  1.00  0.00    -0.169 A  
HETATM   24  C   UNL     1     -12.190   6.670  71.821  1.00  0.00    -0.400 A  
HETATM   25  O   UNL     1      -8.931   5.213  72.489  1.00  0.00    -0.129 OA 
ENDBRANCH  15  18
ENDBRANCH   2  15
TORSDOF 6
ENDMDL
MODEL       89
REMARK 921   NORMALIZED FREE ENERGY PREDICTED BY IDOCK:   -5.44 KCAL/MOL
REMARK 922        TOTAL FREE ENERGY PREDICTED BY IDOCK:   -8.40 KCAL/MOL
REMARK 923 INTER-LIGAND FREE ENERGY PREDICTED BY IDOCK:   -7.13 KCAL/MOL
REMARK 924 INTRA-LIGAND FREE ENERGY PREDICTED BY IDOCK:   -1.27 KCAL/MOL
REMARK 927      BINDING AFFINITY PREDICTED BY RF-SCORE:    0.00 PKD
ROOT
HETATM    1  C   UNL     1     -12.483  12.254  63.671  1.00  0.00    -0.647 C  
HETATM    2  C   UNL     1     -11.851  12.312  65.070  1.00  0.00    -0.357 C  
ENDROOT
BRANCH   2   3
HETATM    3  N   UNL     1     -11.621  13.709  65.506  1.00  0.00    -0.317 NA 
HETATM    4  H   UNL     1     -11.981  14.356  64.803  1.00  0.00     0.000 HD 
BRANCH   3   5
HETATM    5  C   UNL     1     -12.152  14.057  66.824  1.00  0.00    -0.447 C  
BRANCH   5   6
HETATM    6  C   UNL     1     -11.075  14.555  67.798  1.00  0.00    -0.295 C  
BRANCH   6   7
HETATM    7  C   UNL     1     -11.549  14.508  69.228  1.00  0.00    -0.339 A  
HETATM    8  C   UNL     1     -12.005  13.303  69.782  1.00  0.00    -0.391 A  
HETATM    9  C   UNL     1     -12.493  14.428  71.849  1.00  0.00    -0.309 A  
HETATM   10  C   UNL     1     -12.474  13.261  71.094  1.00  0.00    -0.397 A  
HETATM   11  O   UNL     1     -12.957  14.436  73.130  1.00  0.00    -0.520 OA 
HETATM   12  C   UNL     1     -12.038  15.631  71.317  1.00  0.00    -0.463 A  
HETATM   13  H   UNL     1     -12.970  15.233  73.646  1.00  0.00     0.000 HD 
HETATM   14  C   UNL     1     -11.569  15.673  70.005  1.00  0.00    -0.360 A  
ENDBRANCH   6   7
ENDBRANCH   5   6
ENDBRANCH   3   5
ENDBRANCH   2   3
BRANCH   2  15
HETATM   15  C   UNL     1     -10.493  11.545  65.138  1.00  0.00    -0.286 C  
HETATM   16  O   UNL     1     -10.472  10.481  64.176  1.00  0.00    -0.409 OA 
HETATM   17  H   UNL     1      -9.645  10.015  64.218  1.00  0.00     0.000 HD 
BRANCH  15  18
HETATM   18  C   UNL     1     -10.162  11.023  66.526  1.00  0.00    -0.280 A  
HETATM   19  C   UNL     1      -8.850  11.120  67.019  1.00  0.00    -0.149 A  
HETATM   20  C   UNL     1     -10.838  10.004  68.628  1.00  0.00    -0.265 A  
HETATM   21  H   UNL     1      -9.944   9.212  70.868  1.00  0.00     0.000 HD 
HETATM   22  C   UNL     1      -8.534  10.650  68.297  1.00  0.00    -0.127 A  
HETATM   23  C   UNL     1      -9.530  10.087  69.086  1.00  0.00    -0.207 A  
HETATM   24  C   UNL     1     -11.154  10.472  67.354  1.00  0.00    -0.322 A  
HETATM   25  O   UNL     1      -9.263   9.597  70.329  1.00  0.00    -0.242 OA 
ENDBRANCH  15  18
ENDBRANCH   2  15
TORSDOF 6
ENDMDL
MODEL       90
REMARK 921   NORMALIZED FREE ENERGY PREDICTED BY IDOCK:   -5.44 KCAL/MOL
REMARK 922        TOTAL FREE ENERGY PREDICTED BY IDOCK:   -8.38 KCAL/MOL
REMARK 923 INTER-LIGAND FREE ENERGY PREDICTED BY IDOCK:   -7.76 KCAL/MOL
REMARK 924 INTRA-LIGAND FREE ENERGY PREDICTED BY IDOCK:   -0.63 KCAL/MOL
REMARK 927      BINDING AFFINITY PREDICTED BY RF-SCORE:    0.00 PKD
ROOT
HETATM    1  C   UNL     1     -11.907  14.278  67.347  1.00  0.00    -0.441 C  
HETATM    2  C   UNL     1     -11.682  13.431  68.608  1.00  0.00    -0.349 C  
ENDROOT
BRANCH   2   3
HETATM    3  N   UNL     1     -10.659  14.034  69.493  1.00  0.00    -0.444 NA 
HETATM    4  H   UNL     1      -9.736  13.668  69.258  1.00  0.00     0.000 HD 
BRANCH   3   5
HETATM    5  C   UNL     1     -10.626  15.496  69.518  1.00  0.00    -0.258 C  
BRANCH   5   6
HETATM    6  C   UNL     1      -9.268  16.079  69.102  1.00  0.00    -0.247 C  
BRANCH   6   7
HETATM    7  C   UNL     1      -9.424  17.281  68.207  1.00  0.00    -0.283 A  
HETATM    8  C   UNL     1      -8.495  17.528  67.186  1.00  0.00    -0.232 A  
HETATM    9  C   UNL     1      -9.668  19.542  66.596  1.00  0.00    -0.375 A  
HETATM   10  C   UNL     1      -8.619  18.657  66.377  1.00  0.00    -0.284 A  
HETATM   11  O   UNL     1      -9.818  20.664  65.838  1.00  0.00    -0.589 OA 
HETATM   12  C   UNL     1     -10.602  19.308  67.600  1.00  0.00    -0.553 A  
HETATM   13  H   UNL     1     -10.535  21.269  65.988  1.00  0.00     0.000 HD 
HETATM   14  C   UNL     1     -10.480  18.179  68.410  1.00  0.00    -0.308 A  
ENDBRANCH   6   7
ENDBRANCH   5   6
ENDBRANCH   3   5
ENDBRANCH   2   3
BRANCH   2  15
HETATM   15  C   UNL     1     -11.242  11.971  68.270  1.00  0.00    -0.261 C  
HETATM   16  O   UNL     1     -11.986  11.473  67.149  1.00  0.00    -0.581 OA 
HETATM   17  H   UNL     1     -11.718  10.585  66.943  1.00  0.00     0.000 HD 
BRANCH  15  18
HETATM   18  C   UNL     1     -11.343  11.020  69.449  1.00  0.00    -0.352 A  
HETATM   19  C   UNL     1     -10.205  10.324  69.891  1.00  0.00    -0.250 A  
HETATM   20  C   UNL     1     -12.630   9.973  71.229  1.00  0.00    -0.495 A  
HETATM   21  H   UNL     1     -12.456   8.300  73.130  1.00  0.00     0.000 HD 
HETATM   22  C   UNL     1     -10.284   9.451  70.980  1.00  0.00    -0.369 A  
HETATM   23  C   UNL     1     -11.499   9.276  71.632  1.00  0.00    -0.398 A  
HETATM   24  C   UNL     1     -12.553  10.843  70.143  1.00  0.00    -0.304 A  
HETATM   25  O   UNL     1     -11.626   8.420  72.685  1.00  0.00    -0.385 OA 
ENDBRANCH  15  18
ENDBRANCH   2  15
TORSDOF 6
ENDMDL
MODEL       91
REMARK 921   NORMALIZED FREE ENERGY PREDICTED BY IDOCK:   -5.43 KCAL/MOL
REMARK 922        TOTAL FREE ENERGY PREDICTED BY IDOCK:   -8.37 KCAL/MOL
REMARK 923 INTER-LIGAND FREE ENERGY PREDICTED BY IDOCK:   -6.89 KCAL/MOL
REMARK 924 INTRA-LIGAND FREE ENERGY PREDICTED BY IDOCK:   -1.48 KCAL/MOL
REMARK 927      BINDING AFFINITY PREDICTED BY RF-SCORE:    0.00 PKD
ROOT
HETATM    1  C   UNL     1     -10.332   8.726  69.733  1.00  0.00    -0.214 C  
HETATM    2  C   UNL     1      -9.688   9.333  68.477  1.00  0.00    -0.150 C  
ENDROOT
BRANCH   2   3
HETATM    3  N   UNL     1      -9.413  10.779  68.652  1.00  0.00    -0.180 NA 
HETATM    4  H   UNL     1      -8.819  11.114  67.893  1.00  0.00     0.000 HD 
BRANCH   3   5
HETATM    5  C   UNL     1     -10.592  11.636  68.780  1.00  0.00    -0.212 C  
BRANCH   5   6
HETATM    6  C   UNL     1     -10.298  13.116  68.495  1.00  0.00    -0.245 C  
BRANCH   6   7
HETATM    7  C   UNL     1     -10.882  13.560  67.179  1.00  0.00    -0.291 A  
HETATM    8  C   UNL     1     -12.238  13.339  66.897  1.00  0.00    -0.315 A  
HETATM    9  C   UNL     1     -11.952  14.313  64.719  1.00  0.00    -0.440 A  
HETATM   10  C   UNL     1     -12.775  13.719  65.668  1.00  0.00    -0.523 A  
HETATM   11  O   UNL     1     -12.432  14.687  63.500  1.00  0.00    -1.069 OA 
HETATM   12  C   UNL     1     -10.607  14.547  64.985  1.00  0.00    -0.458 A  
HETATM   13  H   UNL     1     -11.870  15.094  62.851  1.00  0.00     0.000 HD 
HETATM   14  C   UNL     1     -10.068  14.167  66.214  1.00  0.00    -0.308 A  
ENDBRANCH   6   7
ENDBRANCH   5   6
ENDBRANCH   3   5
ENDBRANCH   2   3
BRANCH   2  15
HETATM   15  C   UNL     1     -10.580   9.152  67.208  1.00  0.00    -0.233 C  
HETATM   16  O   UNL     1     -11.006   7.787  67.090  1.00  0.00    -0.515 OA 
HETATM   17  H   UNL     1     -11.549   7.677  66.318  1.00  0.00     0.000 HD 
BRANCH  15  18
HETATM   18  C   UNL     1      -9.912   9.621  65.927  1.00  0.00    -0.351 A  
HETATM   19  C   UNL     1      -8.733   9.000  65.481  1.00  0.00    -0.212 A  
HETATM   20  C   UNL     1      -9.850  11.064  63.970  1.00  0.00    -0.365 A  
HETATM   21  H   UNL     1      -8.472  11.614  61.911  1.00  0.00     0.000 HD 
HETATM   22  C   UNL     1      -8.113   9.417  64.300  1.00  0.00    -0.140 A  
HETATM   23  C   UNL     1      -8.672  10.454  63.561  1.00  0.00    -0.199 A  
HETATM   24  C   UNL     1     -10.469  10.649  65.148  1.00  0.00    -0.271 A  
HETATM   25  O   UNL     1      -8.090  10.906  62.415  1.00  0.00    -0.197 OA 
ENDBRANCH  15  18
ENDBRANCH   2  15
TORSDOF 6
ENDMDL
MODEL       92
REMARK 921   NORMALIZED FREE ENERGY PREDICTED BY IDOCK:   -5.42 KCAL/MOL
REMARK 922        TOTAL FREE ENERGY PREDICTED BY IDOCK:   -8.36 KCAL/MOL
REMARK 923 INTER-LIGAND FREE ENERGY PREDICTED BY IDOCK:   -7.35 KCAL/MOL
REMARK 924 INTRA-LIGAND FREE ENERGY PREDICTED BY IDOCK:   -1.01 KCAL/MOL
REMARK 927      BINDING AFFINITY PREDICTED BY RF-SCORE:    0.00 PKD
ROOT
HETATM    1  C   UNL     1      -7.932  10.419  66.556  1.00  0.00    -0.123 C  
HETATM    2  C   UNL     1      -9.287  10.275  67.265  1.00  0.00    -0.149 C  
ENDROOT
BRANCH   2   3
HETATM    3  N   UNL     1      -9.660   8.852  67.443  1.00  0.00    -0.151 NA 
HETATM    4  H   UNL     1      -9.028   8.257  66.906  1.00  0.00     0.000 HD 
BRANCH   3   5
HETATM    5  C   UNL     1      -9.730   8.385  68.828  1.00  0.00    -0.164 C  
BRANCH   5   6
HETATM    6  C   UNL     1      -9.839   9.527  69.848  1.00  0.00    -0.254 C  
BRANCH   6   7
HETATM    7  C   UNL     1     -11.034   9.361  70.751  1.00  0.00    -0.371 A  
HETATM    8  C   UNL     1     -11.990  10.381  70.852  1.00  0.00    -0.478 A  
HETATM    9  C   UNL     1     -13.209   9.089  72.472  1.00  0.00    -0.406 A  
HETATM   10  C   UNL     1     -13.081  10.245  71.710  1.00  0.00    -0.570 A  
HETATM   11  O   UNL     1     -14.251   8.920  73.333  1.00  0.00    -1.241 OA 
HETATM   12  C   UNL     1     -12.273   8.064  72.377  1.00  0.00    -0.337 A  
HETATM   13  H   UNL     1     -14.338   8.130  73.854  1.00  0.00     0.000 HD 
HETATM   14  C   UNL     1     -11.182   8.200  71.520  1.00  0.00    -0.307 A  
ENDBRANCH   6   7
ENDBRANCH   5   6
ENDBRANCH   3   5
ENDBRANCH   2   3
BRANCH   2  15
HETATM   15  C   UNL     1     -10.439  10.992  66.491  1.00  0.00    -0.257 C  
HETATM   16  O   UNL     1     -10.164  10.996  65.082  1.00  0.00    -0.260 OA 
HETATM   17  H   UNL     1     -10.865  11.432  64.611  1.00  0.00     0.000 HD 
BRANCH  15  18
HETATM   18  C   UNL     1     -10.719  12.399  66.990  1.00  0.00    -0.268 A  
HETATM   19  C   UNL     1     -11.683  12.611  67.989  1.00  0.00    -0.402 A  
HETATM   20  C   UNL     1     -10.265  14.788  66.970  1.00  0.00    -0.253 A  
HETATM   21  H   UNL     1     -10.997  16.991  67.999  1.00  0.00     0.000 HD 
HETATM   22  C   UNL     1     -11.946  13.900  68.461  1.00  0.00    -0.394 A  
HETATM   23  C   UNL     1     -11.240  14.978  67.939  1.00  0.00    -0.323 A  
HETATM   24  C   UNL     1     -10.003  13.504  66.498  1.00  0.00    -0.287 A  
HETATM   25  O   UNL     1     -11.478  16.254  68.356  1.00  0.00    -0.357 OA 
ENDBRANCH  15  18
ENDBRANCH   2  15
TORSDOF 6
ENDMDL
MODEL       93
REMARK 921   NORMALIZED FREE ENERGY PREDICTED BY IDOCK:   -5.40 KCAL/MOL
REMARK 922        TOTAL FREE ENERGY PREDICTED BY IDOCK:   -8.34 KCAL/MOL
REMARK 923 INTER-LIGAND FREE ENERGY PREDICTED BY IDOCK:   -7.84 KCAL/MOL
REMARK 924 INTRA-LIGAND FREE ENERGY PREDICTED BY IDOCK:   -0.50 KCAL/MOL
REMARK 927      BINDING AFFINITY PREDICTED BY RF-SCORE:    0.00 PKD
ROOT
HETATM    1  C   UNL     1     -10.677   9.418  70.479  1.00  0.00    -0.335 C  
HETATM    2  C   UNL     1     -10.621   8.138  69.632  1.00  0.00    -0.223 C  
ENDROOT
BRANCH   2   3
HETATM    3  N   UNL     1     -10.828   8.428  68.194  1.00  0.00    -0.456 NA 
HETATM    4  H   UNL     1     -11.656   7.936  67.856  1.00  0.00     0.000 HD 
BRANCH   3   5
HETATM    5  C   UNL     1     -10.909   9.845  67.839  1.00  0.00    -0.258 C  
BRANCH   5   6
HETATM    6  C   UNL     1      -9.975  10.234  66.684  1.00  0.00    -0.270 C  
BRANCH   6   7
HETATM    7  C   UNL     1     -10.626  11.215  65.743  1.00  0.00    -0.289 A  
HETATM    8  C   UNL     1     -11.604  12.103  66.215  1.00  0.00    -0.424 A  
HETATM    9  C   UNL     1     -11.885  12.983  63.996  1.00  0.00    -0.445 A  
HETATM   10  C   UNL     1     -12.232  12.990  65.342  1.00  0.00    -0.520 A  
HETATM   11  O   UNL     1     -12.484  13.823  63.105  1.00  0.00    -1.089 OA 
HETATM   12  C   UNL     1     -10.912  12.114  63.513  1.00  0.00    -0.521 A  
HETATM   13  H   UNL     1     -12.247  13.818  62.185  1.00  0.00     0.000 HD 
HETATM   14  C   UNL     1     -10.283  11.226  64.386  1.00  0.00    -0.377 A  
ENDBRANCH   6   7
ENDBRANCH   5   6
ENDBRANCH   3   5
ENDBRANCH   2   3
BRANCH   2  15
HETATM   15  C   UNL     1     -11.684   7.086  70.080  1.00  0.00    -0.189 C  
HETATM   16  O   UNL     1     -12.786   7.736  70.728  1.00  0.00    -0.530 OA 
HETATM   17  H   UNL     1     -13.433   7.095  71.001  1.00  0.00     0.000 HD 
BRANCH  15  18
HETATM   18  C   UNL     1     -11.113   5.987  70.960  1.00  0.00    -0.348 A  
HETATM   19  C   UNL     1     -11.467   5.919  72.318  1.00  0.00    -0.351 A  
HETATM   20  C   UNL     1      -9.749   3.994  71.252  1.00  0.00    -0.255 A  
HETATM   21  H   UNL     1      -8.962   2.324  72.994  1.00  0.00     0.000 HD 
HETATM   22  C   UNL     1     -10.954   4.908  73.137  1.00  0.00    -0.376 A  
HETATM   23  C   UNL     1     -10.091   3.961  72.597  1.00  0.00    -0.165 A  
HETATM   24  C   UNL     1     -10.259   5.001  70.435  1.00  0.00    -0.324 A  
HETATM   25  O   UNL     1      -9.552   2.971  73.363  1.00  0.00    -0.094 OA 
ENDBRANCH  15  18
ENDBRANCH   2  15
TORSDOF 6
ENDMDL
MODEL       94
REMARK 921   NORMALIZED FREE ENERGY PREDICTED BY IDOCK:   -5.40 KCAL/MOL
REMARK 922        TOTAL FREE ENERGY PREDICTED BY IDOCK:   -8.34 KCAL/MOL
REMARK 923 INTER-LIGAND FREE ENERGY PREDICTED BY IDOCK:   -7.80 KCAL/MOL
REMARK 924 INTRA-LIGAND FREE ENERGY PREDICTED BY IDOCK:   -0.54 KCAL/MOL
REMARK 927      BINDING AFFINITY PREDICTED BY RF-SCORE:    0.00 PKD
ROOT
HETATM    1  C   UNL     1     -12.155  13.979  66.671  1.00  0.00    -0.487 C  
HETATM    2  C   UNL     1     -11.581  14.764  67.860  1.00  0.00    -0.351 C  
ENDROOT
BRANCH   2   3
HETATM    3  N   UNL     1     -10.295  15.412  67.515  1.00  0.00    -0.259 NA 
HETATM    4  H   UNL     1      -9.810  14.865  66.803  1.00  0.00     0.000 HD 
BRANCH   3   5
HETATM    5  C   UNL     1     -10.382  16.811  67.097  1.00  0.00    -0.297 C  
BRANCH   5   6
HETATM    6  C   UNL     1      -9.154  17.285  66.307  1.00  0.00    -0.245 C  
BRANCH   6   7
HETATM    7  C   UNL     1      -8.288  18.211  67.121  1.00  0.00    -0.244 A  
HETATM    8  C   UNL     1      -7.685  17.756  68.304  1.00  0.00    -0.266 A  
HETATM    9  C   UNL     1      -6.742  19.936  68.670  1.00  0.00    -0.313 A  
HETATM   10  C   UNL     1      -6.909  18.618  69.077  1.00  0.00    -0.302 A  
HETATM   11  O   UNL     1      -6.004  20.816  69.403  1.00  0.00    -0.348 OA 
HETATM   12  C   UNL     1      -7.327  20.401  67.496  1.00  0.00    -0.356 A  
HETATM   13  H   UNL     1      -5.890  21.717  69.125  1.00  0.00     0.000 HD 
HETATM   14  C   UNL     1      -8.104  19.540  66.722  1.00  0.00    -0.313 A  
ENDBRANCH   6   7
ENDBRANCH   5   6
ENDBRANCH   3   5
ENDBRANCH   2   3
BRANCH   2  15
HETATM   15  C   UNL     1     -11.356  13.858  69.113  1.00  0.00    -0.286 C  
HETATM   16  O   UNL     1     -11.940  12.565  68.904  1.00  0.00    -0.299 OA 
HETATM   17  H   UNL     1     -11.802  12.013  69.666  1.00  0.00     0.000 HD 
BRANCH  15  18
HETATM   18  C   UNL     1     -11.862  14.476  70.405  1.00  0.00    -0.378 A  
HETATM   19  C   UNL     1     -11.418  15.750  70.796  1.00  0.00    -0.423 A  
HETATM   20  C   UNL     1     -13.265  14.394  72.390  1.00  0.00    -0.528 A  
HETATM   21  H   UNL     1     -13.879  15.692  74.483  1.00  0.00     0.000 HD 
HETATM   22  C   UNL     1     -11.881  16.332  71.980  1.00  0.00    -0.568 A  
HETATM   23  C   UNL     1     -12.793  15.642  72.771  1.00  0.00    -0.452 A  
HETATM   24  C   UNL     1     -12.803  13.812  71.211  1.00  0.00    -0.434 A  
HETATM   25  O   UNL     1     -13.256  16.163  73.943  1.00  0.00    -0.649 OA 
ENDBRANCH  15  18
ENDBRANCH   2  15
TORSDOF 6
ENDMDL
MODEL       95
REMARK 921   NORMALIZED FREE ENERGY PREDICTED BY IDOCK:   -5.39 KCAL/MOL
REMARK 922        TOTAL FREE ENERGY PREDICTED BY IDOCK:   -8.33 KCAL/MOL
REMARK 923 INTER-LIGAND FREE ENERGY PREDICTED BY IDOCK:   -7.15 KCAL/MOL
REMARK 924 INTRA-LIGAND FREE ENERGY PREDICTED BY IDOCK:   -1.17 KCAL/MOL
REMARK 927      BINDING AFFINITY PREDICTED BY RF-SCORE:    0.00 PKD
ROOT
HETATM    1  C   UNL     1     -12.746   9.722  71.734  1.00  0.00    -0.519 C  
HETATM    2  C   UNL     1     -11.724   9.823  70.592  1.00  0.00    -0.300 C  
ENDROOT
BRANCH   2   3
HETATM    3  N   UNL     1     -12.290  10.521  69.415  1.00  0.00    -0.668 NA 
HETATM    4  H   UNL     1     -13.309  10.488  69.447  1.00  0.00     0.000 HD 
BRANCH   3   5
HETATM    5  C   UNL     1     -11.841  11.900  69.220  1.00  0.00    -0.318 C  
BRANCH   5   6
HETATM    6  C   UNL     1     -10.693  12.026  68.209  1.00  0.00    -0.252 C  
BRANCH   6   7
HETATM    7  C   UNL     1     -11.172  12.555  66.881  1.00  0.00    -0.354 A  
HETATM    8  C   UNL     1     -10.843  11.884  65.694  1.00  0.00    -0.333 A  
HETATM    9  C   UNL     1     -11.993  13.565  64.417  1.00  0.00    -0.422 A  
HETATM   10  C   UNL     1     -11.257  12.387  64.461  1.00  0.00    -0.371 A  
HETATM   11  O   UNL     1     -12.406  14.100  63.234  1.00  0.00    -1.140 OA 
HETATM   12  C   UNL     1     -12.334  14.239  65.586  1.00  0.00    -0.416 A  
HETATM   13  H   UNL     1     -12.909  14.905  63.204  1.00  0.00     0.000 HD 
HETATM   14  C   UNL     1     -11.920  13.737  66.820  1.00  0.00    -0.465 A  
ENDBRANCH   6   7
ENDBRANCH   5   6
ENDBRANCH   3   5
ENDBRANCH   2   3
BRANCH   2  15
HETATM   15  C   UNL     1     -11.211   8.421  70.132  1.00  0.00    -0.136 C  
HETATM   16  O   UNL     1     -10.611   7.724  71.233  1.00  0.00    -0.217 OA 
HETATM   17  H   UNL     1     -10.299   6.871  70.953  1.00  0.00     0.000 HD 
BRANCH  15  18
HETATM   18  C   UNL     1     -10.257   8.484  68.951  1.00  0.00    -0.221 A  
HETATM   19  C   UNL     1      -8.954   8.978  69.125  1.00  0.00    -0.140 A  
HETATM   20  C   UNL     1      -9.751   8.076  66.607  1.00  0.00    -0.313 A  
HETATM   21  H   UNL     1      -7.931   8.346  64.858  1.00  0.00     0.000 HD 
HETATM   22  C   UNL     1      -8.065   9.035  68.048  1.00  0.00    -0.105 A  
HETATM   23  C   UNL     1      -8.477   8.592  66.796  1.00  0.00    -0.115 A  
HETATM   24  C   UNL     1     -10.639   8.020  67.680  1.00  0.00    -0.264 A  
HETATM   25  O   UNL     1      -7.650   8.648  65.713  1.00  0.00    -0.086 OA 
ENDBRANCH  15  18
ENDBRANCH   2  15
TORSDOF 6
ENDMDL
MODEL       96
REMARK 921   NORMALIZED FREE ENERGY PREDICTED BY IDOCK:   -5.39 KCAL/MOL
REMARK 922        TOTAL FREE ENERGY PREDICTED BY IDOCK:   -8.33 KCAL/MOL
REMARK 923 INTER-LIGAND FREE ENERGY PREDICTED BY IDOCK:   -7.43 KCAL/MOL
REMARK 924 INTRA-LIGAND FREE ENERGY PREDICTED BY IDOCK:   -0.90 KCAL/MOL
REMARK 927      BINDING AFFINITY PREDICTED BY RF-SCORE:    0.00 PKD
ROOT
HETATM    1  C   UNL     1     -12.394  13.564  65.081  1.00  0.00    -0.488 C  
HETATM    2  C   UNL     1     -11.563  12.791  66.116  1.00  0.00    -0.379 C  
ENDROOT
BRANCH   2   3
HETATM    3  N   UNL     1     -11.350  13.587  67.347  1.00  0.00    -0.298 NA 
HETATM    4  H   UNL     1     -11.675  14.543  67.204  1.00  0.00     0.000 HD 
BRANCH   3   5
HETATM    5  C   UNL     1     -11.940  13.036  68.567  1.00  0.00    -0.261 C  
BRANCH   5   6
HETATM    6  C   UNL     1     -10.978  12.132  69.352  1.00  0.00    -0.109 C  
BRANCH   6   7
HETATM    7  C   UNL     1     -11.710  11.255  70.335  1.00  0.00    -0.398 A  
HETATM    8  C   UNL     1     -12.743  11.784  71.122  1.00  0.00    -0.405 A  
HETATM    9  C   UNL     1     -13.018   9.656  72.205  1.00  0.00    -0.406 A  
HETATM   10  C   UNL     1     -13.400  10.984  72.055  1.00  0.00    -0.393 A  
HETATM   11  O   UNL     1     -13.624   8.843  73.115  1.00  0.00    -0.997 OA 
HETATM   12  C   UNL     1     -12.000   9.114  71.427  1.00  0.00    -0.410 A  
HETATM   13  H   UNL     1     -13.363   7.935  73.217  1.00  0.00     0.000 HD 
HETATM   14  C   UNL     1     -11.342   9.913  70.493  1.00  0.00    -0.399 A  
ENDBRANCH   6   7
ENDBRANCH   5   6
ENDBRANCH   3   5
ENDBRANCH   2   3
BRANCH   2  15
HETATM   15  C   UNL     1     -10.167  12.368  65.557  1.00  0.00    -0.274 C  
HETATM   16  O   UNL     1     -10.036  12.773  64.187  1.00  0.00    -0.599 OA 
HETATM   17  H   UNL     1      -9.186  12.516  63.847  1.00  0.00     0.000 HD 
BRANCH  15  18
HETATM   18  C   UNL     1      -9.879  10.884  65.710  1.00  0.00    -0.286 A  
HETATM   19  C   UNL     1     -10.533  10.140  66.706  1.00  0.00    -0.270 A  
HETATM   20  C   UNL     1      -8.742   8.858  64.992  1.00  0.00    -0.200 A  
HETATM   21  H   UNL     1      -8.473   6.393  65.537  1.00  0.00     0.000 HD 
HETATM   22  C   UNL     1     -10.281   8.773  66.853  1.00  0.00    -0.357 A  
HETATM   23  C   UNL     1      -9.379   8.147  66.000  1.00  0.00    -0.117 A  
HETATM   24  C   UNL     1      -8.991  10.221  64.846  1.00  0.00    -0.231 A  
HETATM   25  O   UNL     1      -9.089   6.820  66.119  1.00  0.00    -0.154 OA 
ENDBRANCH  15  18
ENDBRANCH   2  15
TORSDOF 6
ENDMDL
MODEL       97
REMARK 921   NORMALIZED FREE ENERGY PREDICTED BY IDOCK:   -5.38 KCAL/MOL
REMARK 922        TOTAL FREE ENERGY PREDICTED BY IDOCK:   -8.30 KCAL/MOL
REMARK 923 INTER-LIGAND FREE ENERGY PREDICTED BY IDOCK:   -6.14 KCAL/MOL
REMARK 924 INTRA-LIGAND FREE ENERGY PREDICTED BY IDOCK:   -2.17 KCAL/MOL
REMARK 927      BINDING AFFINITY PREDICTED BY RF-SCORE:    0.00 PKD
ROOT
HETATM    1  C   UNL     1     -10.753  11.395  66.726  1.00  0.00    -0.316 C  
HETATM    2  C   UNL     1     -11.113  10.292  67.732  1.00  0.00    -0.269 C  
ENDROOT
BRANCH   2   3
HETATM    3  N   UNL     1     -12.174  10.733  68.667  1.00  0.00    -0.827 NA 
HETATM    4  H   UNL     1     -12.813   9.960  68.858  1.00  0.00     0.000 HD 
BRANCH   3   5
HETATM    5  C   UNL     1     -11.708  11.319  69.924  1.00  0.00    -0.352 C  
BRANCH   5   6
HETATM    6  C   UNL     1     -12.549  10.897  71.137  1.00  0.00    -0.532 C  
BRANCH   6   7
HETATM    7  C   UNL     1     -12.289   9.465  71.528  1.00  0.00    -0.452 A  
HETATM    8  C   UNL     1     -11.044   9.091  72.053  1.00  0.00    -0.371 A  
HETATM    9  C   UNL     1     -11.778   6.806  72.185  1.00  0.00    -0.297 A  
HETATM   10  C   UNL     1     -10.789   7.761  72.386  1.00  0.00    -0.359 A  
HETATM   11  O   UNL     1     -11.566   5.493  72.483  1.00  0.00    -0.283 OA 
HETATM   12  C   UNL     1     -13.021   7.161  71.672  1.00  0.00    -0.415 A  
HETATM   13  H   UNL     1     -12.242   4.840  72.346  1.00  0.00     0.000 HD 
HETATM   14  C   UNL     1     -13.277   8.491  71.338  1.00  0.00    -0.246 A  
ENDBRANCH   6   7
ENDBRANCH   5   6
ENDBRANCH   3   5
ENDBRANCH   2   3
BRANCH   2  15
HETATM   15  C   UNL     1      -9.879   9.831  68.571  1.00  0.00    -0.156 C  
HETATM   16  O   UNL     1      -8.664  10.292  67.965  1.00  0.00    -0.121 OA 
HETATM   17  H   UNL     1      -7.913  10.012  68.476  1.00  0.00     0.000 HD 
BRANCH  15  18
HETATM   18  C   UNL     1      -9.831   8.330  68.802  1.00  0.00    -0.179 A  
HETATM   19  C   UNL     1      -8.700   7.746  69.396  1.00  0.00    -0.135 A  
HETATM   20  C   UNL     1     -10.863   6.131  68.690  1.00  0.00    -0.403 A  
HETATM   21  H   UNL     1     -10.444   3.676  69.185  1.00  0.00     0.000 HD 
HETATM   22  C   UNL     1      -8.645   6.368  69.619  1.00  0.00    -0.134 A  
HETATM   23  C   UNL     1      -9.725   5.571  69.254  1.00  0.00    -0.159 A  
HETATM   24  C   UNL     1     -10.918   7.505  68.466  1.00  0.00     0.062 A  
HETATM   25  O   UNL     1      -9.707   4.220  69.435  1.00  0.00    -0.192 OA 
ENDBRANCH  15  18
ENDBRANCH   2  15
TORSDOF 6
ENDMDL
MODEL       98
REMARK 921   NORMALIZED FREE ENERGY PREDICTED BY IDOCK:   -5.36 KCAL/MOL
REMARK 922        TOTAL FREE ENERGY PREDICTED BY IDOCK:   -8.29 KCAL/MOL
REMARK 923 INTER-LIGAND FREE ENERGY PREDICTED BY IDOCK:   -7.72 KCAL/MOL
REMARK 924 INTRA-LIGAND FREE ENERGY PREDICTED BY IDOCK:   -0.56 KCAL/MOL
REMARK 927      BINDING AFFINITY PREDICTED BY RF-SCORE:    0.00 PKD
ROOT
HETATM    1  C   UNL     1      -9.856   8.918  71.484  1.00  0.00    -0.384 C  
HETATM    2  C   UNL     1     -11.009   8.060  70.941  1.00  0.00    -0.243 C  
ENDROOT
BRANCH   2   3
HETATM    3  N   UNL     1     -12.103   8.899  70.399  1.00  0.00    -0.459 NA 
HETATM    4  H   UNL     1     -12.992   8.624  70.816  1.00  0.00     0.000 HD 
BRANCH   3   5
HETATM    5  C   UNL     1     -11.916  10.344  70.528  1.00  0.00    -0.334 C  
BRANCH   5   6
HETATM    6  C   UNL     1     -13.152  11.068  71.081  1.00  0.00    -0.326 C  
BRANCH   6   7
HETATM    7  C   UNL     1     -12.897  12.539  71.282  1.00  0.00    -0.337 A  
HETATM    8  C   UNL     1     -12.103  13.249  70.369  1.00  0.00    -0.401 A  
HETATM    9  C   UNL     1     -12.361  15.244  71.685  1.00  0.00    -0.363 A  
HETATM   10  C   UNL     1     -11.838  14.603  70.568  1.00  0.00    -0.367 A  
HETATM   11  O   UNL     1     -12.114  16.562  71.927  1.00  0.00    -0.616 OA 
HETATM   12  C   UNL     1     -13.155  14.556  72.597  1.00  0.00    -0.557 A  
HETATM   13  H   UNL     1     -12.472  17.000  72.690  1.00  0.00     0.000 HD 
HETATM   14  C   UNL     1     -13.421  13.201  72.399  1.00  0.00    -0.643 A  
ENDBRANCH   6   7
ENDBRANCH   5   6
ENDBRANCH   3   5
ENDBRANCH   2   3
BRANCH   2  15
HETATM   15  C   UNL     1     -11.607   7.115  72.031  1.00  0.00    -0.280 C  
HETATM   16  O   UNL     1     -11.504   7.721  73.327  1.00  0.00    -0.615 OA 
HETATM   17  H   UNL     1     -11.868   7.146  73.990  1.00  0.00     0.000 HD 
BRANCH  15  18
HETATM   18  C   UNL     1     -10.989   5.728  72.034  1.00  0.00    -0.317 A  
HETATM   19  C   UNL     1     -11.170   4.880  73.139  1.00  0.00    -0.403 A  
HETATM   20  C   UNL     1      -9.708   3.972  70.942  1.00  0.00    -0.257 A  
HETATM   21  H   UNL     1      -8.796   1.627  71.285  1.00  0.00     0.000 HD 
HETATM   22  C   UNL     1     -10.613   3.598  73.151  1.00  0.00    -0.269 A  
HETATM   23  C   UNL     1      -9.877   3.160  72.055  1.00  0.00    -0.171 A  
HETATM   24  C   UNL     1     -10.263   5.250  70.929  1.00  0.00    -0.304 A  
HETATM   25  O   UNL     1      -9.299   1.926  72.033  1.00  0.00    -0.079 OA 
ENDBRANCH  15  18
ENDBRANCH   2  15
TORSDOF 6
ENDMDL
MODEL       99
REMARK 921   NORMALIZED FREE ENERGY PREDICTED BY IDOCK:   -5.36 KCAL/MOL
REMARK 922        TOTAL FREE ENERGY PREDICTED BY IDOCK:   -8.29 KCAL/MOL
REMARK 923 INTER-LIGAND FREE ENERGY PREDICTED BY IDOCK:   -7.64 KCAL/MOL
REMARK 924 INTRA-LIGAND FREE ENERGY PREDICTED BY IDOCK:   -0.64 KCAL/MOL
REMARK 927      BINDING AFFINITY PREDICTED BY RF-SCORE:    0.00 PKD
ROOT
HETATM    1  C   UNL     1      -9.454  14.110  66.461  1.00  0.00    -0.303 C  
HETATM    2  C   UNL     1     -10.971  14.279  66.287  1.00  0.00    -0.317 C  
ENDROOT
BRANCH   2   3
HETATM    3  N   UNL     1     -11.590  14.897  67.483  1.00  0.00    -0.353 NA 
HETATM    4  H   UNL     1     -12.139  14.202  67.989  1.00  0.00     0.000 HD 
BRANCH   3   5
HETATM    5  C   UNL     1     -10.667  15.569  68.398  1.00  0.00    -0.263 C  
BRANCH   5   6
HETATM    6  C   UNL     1     -11.001  17.052  68.616  1.00  0.00    -0.217 C  
BRANCH   6   7
HETATM    7  C   UNL     1     -10.180  17.947  67.725  1.00  0.00    -0.372 A  
HETATM    8  C   UNL     1      -8.862  17.598  67.393  1.00  0.00    -0.235 A  
HETATM    9  C   UNL     1      -8.630  19.633  66.136  1.00  0.00    -0.333 A  
HETATM   10  C   UNL     1      -8.088  18.439  66.596  1.00  0.00    -0.282 A  
HETATM   11  O   UNL     1      -7.905  20.491  65.366  1.00  0.00    -0.477 OA 
HETATM   12  C   UNL     1      -9.938  19.991  66.449  1.00  0.00    -0.601 A  
HETATM   13  H   UNL     1      -8.275  21.308  65.052  1.00  0.00     0.000 HD 
HETATM   14  C   UNL     1     -10.713  19.151  67.247  1.00  0.00    -0.585 A  
ENDBRANCH   6   7
ENDBRANCH   5   6
ENDBRANCH   3   5
ENDBRANCH   2   3
BRANCH   2  15
HETATM   15  C   UNL     1     -11.689  12.920  66.009  1.00  0.00    -0.404 C  
HETATM   16  O   UNL     1     -12.088  12.306  67.242  1.00  0.00    -0.548 OA 
HETATM   17  H   UNL     1     -12.525  11.479  67.073  1.00  0.00     0.000 HD 
BRANCH  15  18
HETATM   18  C   UNL     1     -10.863  11.960  65.171  1.00  0.00    -0.350 A  
HETATM   19  C   UNL     1     -10.620  12.239  63.816  1.00  0.00    -0.488 A  
HETATM   20  C   UNL     1      -9.533   9.935  64.954  1.00  0.00    -0.355 A  
HETATM   21  H   UNL     1      -8.234   8.542  63.276  1.00  0.00     0.000 HD 
HETATM   22  C   UNL     1      -9.856  11.367  63.035  1.00  0.00    -0.373 A  
HETATM   23  C   UNL     1      -9.328  10.217  63.611  1.00  0.00    -0.290 A  
HETATM   24  C   UNL     1     -10.296  10.803  65.733  1.00  0.00    -0.295 A  
HETATM   25  O   UNL     1      -8.594   9.328  62.883  1.00  0.00    -0.202 OA 
ENDBRANCH  15  18
ENDBRANCH   2  15
TORSDOF 6
ENDMDL
MODEL      100
REMARK 921   NORMALIZED FREE ENERGY PREDICTED BY IDOCK:   -5.35 KCAL/MOL
REMARK 922        TOTAL FREE ENERGY PREDICTED BY IDOCK:   -8.28 KCAL/MOL
REMARK 923 INTER-LIGAND FREE ENERGY PREDICTED BY IDOCK:   -7.49 KCAL/MOL
REMARK 924 INTRA-LIGAND FREE ENERGY PREDICTED BY IDOCK:   -0.78 KCAL/MOL
REMARK 927      BINDING AFFINITY PREDICTED BY RF-SCORE:    0.00 PKD
ROOT
HETATM    1  C   UNL     1      -8.698  14.395  67.511  1.00  0.00    -0.203 C  
HETATM    2  C   UNL     1      -9.858  14.779  68.441  1.00  0.00    -0.220 C  
ENDROOT
BRANCH   2   3
HETATM    3  N   UNL     1     -10.518  13.582  69.011  1.00  0.00    -0.417 NA 
HETATM    4  H   UNL     1     -11.525  13.631  68.854  1.00  0.00     0.000 HD 
BRANCH   3   5
HETATM    5  C   UNL     1     -10.002  12.293  68.548  1.00  0.00    -0.170 C  
BRANCH   5   6
HETATM    6  C   UNL     1     -11.071  11.419  67.876  1.00  0.00    -0.320 C  
BRANCH   6   7
HETATM    7  C   UNL     1     -10.814  11.255  66.401  1.00  0.00    -0.306 A  
HETATM    8  C   UNL     1     -11.477  12.071  65.473  1.00  0.00    -0.368 A  
HETATM    9  C   UNL     1     -10.398  10.909  63.667  1.00  0.00    -0.298 A  
HETATM   10  C   UNL     1     -11.266  11.901  64.105  1.00  0.00    -0.446 A  
HETATM   11  O   UNL     1     -10.173  10.698  62.339  1.00  0.00    -0.743 OA 
HETATM   12  C   UNL     1      -9.726  10.095  64.574  1.00  0.00    -0.361 A  
HETATM   13  H   UNL     1      -9.580  10.020  62.040  1.00  0.00     0.000 HD 
HETATM   14  C   UNL     1      -9.936  10.264  65.942  1.00  0.00    -0.321 A  
ENDBRANCH   6   7
ENDBRANCH   5   6
ENDBRANCH   3   5
ENDBRANCH   2   3
BRANCH   2  15
HETATM   15  C   UNL     1     -10.941  15.637  67.713  1.00  0.00    -0.316 C  
HETATM   16  O   UNL     1     -11.199  15.109  66.404  1.00  0.00    -0.339 OA 
HETATM   17  H   UNL     1     -11.858  15.631  65.962  1.00  0.00     0.000 HD 
BRANCH  15  18
HETATM   18  C   UNL     1     -10.593  17.114  67.638  1.00  0.00    -0.343 A  
HETATM   19  C   UNL     1     -10.558  17.766  66.395  1.00  0.00    -0.218 A  
HETATM   20  C   UNL     1     -10.027  19.219  68.718  1.00  0.00    -0.511 A  
HETATM   21  H   UNL     1      -9.457  21.646  68.236  1.00  0.00     0.000 HD 
HETATM   22  C   UNL     1     -10.246  19.126  66.313  1.00  0.00    -0.527 A  
HETATM   23  C   UNL     1      -9.973  19.838  67.476  1.00  0.00    -0.409 A  
HETATM   24  C   UNL     1     -10.338  17.863  68.800  1.00  0.00    -0.311 A  
HETATM   25  O   UNL     1      -9.644  21.160  67.442  1.00  0.00    -0.343 OA 
ENDBRANCH  15  18
ENDBRANCH   2  15
TORSDOF 6
ENDMDL
MODEL      101
REMARK 921   NORMALIZED FREE ENERGY PREDICTED BY IDOCK:   -5.35 KCAL/MOL
REMARK 922        TOTAL FREE ENERGY PREDICTED BY IDOCK:   -8.27 KCAL/MOL
REMARK 923 INTER-LIGAND FREE ENERGY PREDICTED BY IDOCK:   -7.85 KCAL/MOL
REMARK 924 INTRA-LIGAND FREE ENERGY PREDICTED BY IDOCK:   -0.42 KCAL/MOL
REMARK 927      BINDING AFFINITY PREDICTED BY RF-SCORE:    0.00 PKD
ROOT
HETATM    1  C   UNL     1      -9.040   9.515  70.175  1.00  0.00    -0.276 C  
HETATM    2  C   UNL     1     -10.526   9.780  69.889  1.00  0.00    -0.261 C  
ENDROOT
BRANCH   2   3
HETATM    3  N   UNL     1     -10.919  11.153  70.282  1.00  0.00    -0.414 NA 
HETATM    4  H   UNL     1     -10.118  11.780  70.206  1.00  0.00     0.000 HD 
BRANCH   3   5
HETATM    5  C   UNL     1     -12.062  11.715  69.562  1.00  0.00    -0.270 C  
BRANCH   5   6
HETATM    6  C   UNL     1     -11.949  13.228  69.330  1.00  0.00    -0.354 C  
BRANCH   6   7
HETATM    7  C   UNL     1     -12.327  14.013  70.559  1.00  0.00    -0.437 A  
HETATM    8  C   UNL     1     -11.791  15.292  70.774  1.00  0.00    -0.381 A  
HETATM    9  C   UNL     1     -12.966  15.441  72.866  1.00  0.00    -0.470 A  
HETATM   10  C   UNL     1     -12.113  16.008  71.926  1.00  0.00    -0.590 A  
HETATM   11  O   UNL     1     -13.296  16.099  74.012  1.00  0.00    -0.930 OA 
HETATM   12  C   UNL     1     -13.511  14.177  72.665  1.00  0.00    -0.634 A  
HETATM   13  H   UNL     1     -13.878  15.712  74.655  1.00  0.00     0.000 HD 
HETATM   14  C   UNL     1     -13.190  13.459  71.513  1.00  0.00    -0.395 A  
ENDBRANCH   6   7
ENDBRANCH   5   6
ENDBRANCH   3   5
ENDBRANCH   2   3
BRANCH   2  15
HETATM   15  C   UNL     1     -11.460   8.770  70.628  1.00  0.00    -0.231 C  
HETATM   16  O   UNL     1     -11.623   9.156  72.001  1.00  0.00    -0.361 OA 
HETATM   17  H   UNL     1     -12.192   8.542  72.450  1.00  0.00     0.000 HD 
BRANCH  15  18
HETATM   18  C   UNL     1     -10.993   7.328  70.526  1.00  0.00    -0.282 A  
HETATM   19  C   UNL     1     -10.779   6.574  71.692  1.00  0.00    -0.267 A  
HETATM   20  C   UNL     1     -10.382   5.384  69.199  1.00  0.00    -0.300 A  
HETATM   21  H   UNL     1      -9.580   2.982  69.387  1.00  0.00     0.000 HD 
HETATM   22  C   UNL     1     -10.356   5.244  71.611  1.00  0.00    -0.281 A  
HETATM   23  C   UNL     1     -10.152   4.665  70.364  1.00  0.00    -0.205 A  
HETATM   24  C   UNL     1     -10.803   6.710  69.279  1.00  0.00    -0.335 A  
HETATM   25  O   UNL     1      -9.720   3.378  70.239  1.00  0.00    -0.176 OA 
ENDBRANCH  15  18
ENDBRANCH   2  15
TORSDOF 6
ENDMDL
MODEL      102
REMARK 921   NORMALIZED FREE ENERGY PREDICTED BY IDOCK:   -5.34 KCAL/MOL
REMARK 922        TOTAL FREE ENERGY PREDICTED BY IDOCK:   -8.26 KCAL/MOL
REMARK 923 INTER-LIGAND FREE ENERGY PREDICTED BY IDOCK:   -7.73 KCAL/MOL
REMARK 924 INTRA-LIGAND FREE ENERGY PREDICTED BY IDOCK:   -0.53 KCAL/MOL
REMARK 927      BINDING AFFINITY PREDICTED BY RF-SCORE:    0.00 PKD
ROOT
HETATM    1  C   UNL     1     -10.239  10.553  68.642  1.00  0.00    -0.197 C  
HETATM    2  C   UNL     1     -10.451  11.998  68.169  1.00  0.00    -0.202 C  
ENDROOT
BRANCH   2   3
HETATM    3  N   UNL     1      -9.477  12.924  68.792  1.00  0.00    -0.413 NA 
HETATM    4  H   UNL     1      -9.229  12.592  69.724  1.00  0.00     0.000 HD 
BRANCH   3   5
HETATM    5  C   UNL     1      -8.264  13.184  68.015  1.00  0.00    -0.158 C  
BRANCH   5   6
HETATM    6  C   UNL     1      -8.111  14.656  67.606  1.00  0.00    -0.185 C  
BRANCH   6   7
HETATM    7  C   UNL     1      -9.131  15.059  66.572  1.00  0.00    -0.319 A  
HETATM    8  C   UNL     1      -9.535  16.397  66.462  1.00  0.00    -0.296 A  
HETATM    9  C   UNL     1     -11.067  15.798  64.710  1.00  0.00    -0.400 A  
HETATM   10  C   UNL     1     -10.501  16.769  65.528  1.00  0.00    -0.254 A  
HETATM   11  O   UNL     1     -12.025  16.114  63.793  1.00  0.00    -1.394 OA 
HETATM   12  C   UNL     1     -10.672  14.467  64.801  1.00  0.00    -0.414 A  
HETATM   13  H   UNL     1     -12.412  15.451  63.234  1.00  0.00     0.000 HD 
HETATM   14  C   UNL     1      -9.706  14.095  65.735  1.00  0.00    -0.246 A  
ENDBRANCH   6   7
ENDBRANCH   5   6
ENDBRANCH   3   5
ENDBRANCH   2   3
BRANCH   2  15
HETATM   15  C   UNL     1     -11.891  12.517  68.480  1.00  0.00    -0.295 C  
HETATM   16  O   UNL     1     -12.516  13.001  67.283  1.00  0.00    -0.209 OA 
HETATM   17  H   UNL     1     -13.392  13.316  67.472  1.00  0.00     0.000 HD 
BRANCH  15  18
HETATM   18  C   UNL     1     -11.931  13.572  69.573  1.00  0.00    -0.390 A  
HETATM   19  C   UNL     1     -12.315  13.219  70.877  1.00  0.00    -0.413 A  
HETATM   20  C   UNL     1     -11.586  15.857  70.331  1.00  0.00    -0.387 A  
HETATM   21  H   UNL     1     -11.790  17.361  72.366  1.00  0.00     0.000 HD 
HETATM   22  C   UNL     1     -12.350  14.178  71.893  1.00  0.00    -0.281 A  
HETATM   23  C   UNL     1     -11.994  15.492  71.606  1.00  0.00    -0.408 A  
HETATM   24  C   UNL     1     -11.553  14.901  69.318  1.00  0.00    -0.330 A  
HETATM   25  O   UNL     1     -12.033  16.464  72.561  1.00  0.00    -0.534 OA 
ENDBRANCH  15  18
ENDBRANCH   2  15
TORSDOF 6
ENDMDL
MODEL      103
REMARK 921   NORMALIZED FREE ENERGY PREDICTED BY IDOCK:   -5.31 KCAL/MOL
REMARK 922        TOTAL FREE ENERGY PREDICTED BY IDOCK:   -8.22 KCAL/MOL
REMARK 923 INTER-LIGAND FREE ENERGY PREDICTED BY IDOCK:   -7.83 KCAL/MOL
REMARK 924 INTRA-LIGAND FREE ENERGY PREDICTED BY IDOCK:   -0.38 KCAL/MOL
REMARK 927      BINDING AFFINITY PREDICTED BY RF-SCORE:    0.00 PKD
ROOT
HETATM    1  C   UNL     1     -11.780  15.189  68.672  1.00  0.00    -0.364 C  
HETATM    2  C   UNL     1     -11.622  14.473  67.323  1.00  0.00    -0.385 C  
ENDROOT
BRANCH   2   3
HETATM    3  N   UNL     1     -11.285  13.042  67.503  1.00  0.00    -0.271 NA 
HETATM    4  H   UNL     1     -10.570  12.765  66.830  1.00  0.00     0.000 HD 
BRANCH   3   5
HETATM    5  C   UNL     1     -10.880  12.651  68.853  1.00  0.00    -0.197 C  
BRANCH   5   6
HETATM    6  C   UNL     1     -10.685  11.137  69.014  1.00  0.00    -0.265 C  
BRANCH   6   7
HETATM    7  C   UNL     1     -11.506  10.584  70.150  1.00  0.00    -0.405 A  
HETATM    8  C   UNL     1     -11.316   9.263  70.582  1.00  0.00    -0.330 A  
HETATM    9  C   UNL     1     -13.070   9.533  72.203  1.00  0.00    -0.436 A  
HETATM   10  C   UNL     1     -12.095   8.738  71.612  1.00  0.00    -0.401 A  
HETATM   11  O   UNL     1     -13.863   9.055  73.203  1.00  0.00    -1.096 OA 
HETATM   12  C   UNL     1     -13.266  10.847  71.792  1.00  0.00    -0.513 A  
HETATM   13  H   UNL     1     -14.530   9.598  73.607  1.00  0.00     0.000 HD 
HETATM   14  C   UNL     1     -12.488  11.374  70.762  1.00  0.00    -0.460 A  
ENDBRANCH   6   7
ENDBRANCH   5   6
ENDBRANCH   3   5
ENDBRANCH   2   3
BRANCH   2  15
HETATM   15  C   UNL     1     -10.520  15.129  66.431  1.00  0.00    -0.297 C  
HETATM   16  O   UNL     1      -9.586  14.136  65.983  1.00  0.00    -0.406 OA 
HETATM   17  H   UNL     1      -8.916  14.535  65.440  1.00  0.00     0.000 HD 
BRANCH  15  18
HETATM   18  C   UNL     1      -9.799  16.281  67.109  1.00  0.00    -0.243 A  
HETATM   19  C   UNL     1      -8.631  16.040  67.851  1.00  0.00    -0.165 A  
HETATM   20  C   UNL     1      -9.580  18.652  67.602  1.00  0.00    -0.325 A  
HETATM   21  H   UNL     1      -8.159  20.327  68.876  1.00  0.00     0.000 HD 
HETATM   22  C   UNL     1      -7.954  17.092  68.474  1.00  0.00    -0.259 A  
HETATM   23  C   UNL     1      -8.442  18.388  68.352  1.00  0.00    -0.326 A  
HETATM   24  C   UNL     1     -10.256  17.604  66.981  1.00  0.00    -0.332 A  
HETATM   25  O   UNL     1      -7.826  19.442  68.959  1.00  0.00    -0.357 OA 
ENDBRANCH  15  18
ENDBRANCH   2  15
TORSDOF 6
ENDMDL
MODEL      104
REMARK 921   NORMALIZED FREE ENERGY PREDICTED BY IDOCK:   -5.31 KCAL/MOL
REMARK 922        TOTAL FREE ENERGY PREDICTED BY IDOCK:   -8.22 KCAL/MOL
REMARK 923 INTER-LIGAND FREE ENERGY PREDICTED BY IDOCK:   -6.71 KCAL/MOL
REMARK 924 INTRA-LIGAND FREE ENERGY PREDICTED BY IDOCK:   -1.51 KCAL/MOL
REMARK 927      BINDING AFFINITY PREDICTED BY RF-SCORE:    0.00 PKD
ROOT
HETATM    1  C   UNL     1     -10.878   7.872  72.443  1.00  0.00    -0.378 C  
HETATM    2  C   UNL     1     -11.392   8.715  71.266  1.00  0.00    -0.281 C  
ENDROOT
BRANCH   2   3
HETATM    3  N   UNL     1     -12.857   8.577  71.097  1.00  0.00    -0.491 NA 
HETATM    4  H   UNL     1     -13.225   7.909  71.775  1.00  0.00     0.000 HD 
BRANCH   3   5
HETATM    5  C   UNL     1     -13.622   9.823  71.158  1.00  0.00    -0.168 C  
BRANCH   5   6
HETATM    6  C   UNL     1     -13.034  10.847  72.139  1.00  0.00    -0.273 C  
BRANCH   6   7
HETATM    7  C   UNL     1     -13.002  12.234  71.549  1.00  0.00    -0.390 A  
HETATM    8  C   UNL     1     -12.173  12.516  70.453  1.00  0.00    -0.368 A  
HETATM    9  C   UNL     1     -12.883  14.811  70.498  1.00  0.00    -0.322 A  
HETATM   10  C   UNL     1     -12.116  13.804  69.924  1.00  0.00    -0.412 A  
HETATM   11  O   UNL     1     -12.847  16.088  70.022  1.00  0.00    -0.611 OA 
HETATM   12  C   UNL     1     -13.716  14.547  71.580  1.00  0.00    -0.486 A  
HETATM   13  H   UNL     1     -13.371  16.776  70.413  1.00  0.00     0.000 HD 
HETATM   14  C   UNL     1     -13.774  13.258  72.110  1.00  0.00    -0.619 A  
ENDBRANCH   6   7
ENDBRANCH   5   6
ENDBRANCH   3   5
ENDBRANCH   2   3
BRANCH   2  15
HETATM   15  C   UNL     1     -10.703   8.332  69.918  1.00  0.00    -0.234 C  
HETATM   16  O   UNL     1      -9.563   7.495  70.162  1.00  0.00    -0.168 OA 
HETATM   17  H   UNL     1      -9.144   7.262  69.341  1.00  0.00     0.000 HD 
BRANCH  15  18
HETATM   18  C   UNL     1     -10.318   9.534  69.073  1.00  0.00    -0.219 A  
HETATM   19  C   UNL     1      -9.118  10.218  69.328  1.00  0.00    -0.206 A  
HETATM   20  C   UNL     1     -10.756  11.062  67.231  1.00  0.00    -0.312 A  
HETATM   21  H   UNL     1      -9.834  13.107  66.042  1.00  0.00     0.000 HD 
HETATM   22  C   UNL     1      -8.749  11.321  68.552  1.00  0.00    -0.156 A  
HETATM   23  C   UNL     1      -9.578  11.739  67.517  1.00  0.00    -0.177 A  
HETATM   24  C   UNL     1     -11.124   9.962  68.004  1.00  0.00    -0.220 A  
HETATM   25  O   UNL     1      -9.268  12.821  66.749  1.00  0.00    -0.219 OA 
ENDBRANCH  15  18
ENDBRANCH   2  15
TORSDOF 6
ENDMDL
MODEL      105
REMARK 921   NORMALIZED FREE ENERGY PREDICTED BY IDOCK:   -5.29 KCAL/MOL
REMARK 922        TOTAL FREE ENERGY PREDICTED BY IDOCK:   -8.19 KCAL/MOL
REMARK 923 INTER-LIGAND FREE ENERGY PREDICTED BY IDOCK:   -7.43 KCAL/MOL
REMARK 924 INTRA-LIGAND FREE ENERGY PREDICTED BY IDOCK:   -0.76 KCAL/MOL
REMARK 927      BINDING AFFINITY PREDICTED BY RF-SCORE:    0.00 PKD
ROOT
HETATM    1  C   UNL     1     -12.249  12.169  64.704  1.00  0.00    -0.379 C  
HETATM    2  C   UNL     1     -11.468  13.092  65.652  1.00  0.00    -0.333 C  
ENDROOT
BRANCH   2   3
HETATM    3  N   UNL     1     -10.365  13.787  64.948  1.00  0.00    -0.480 NA 
HETATM    4  H   UNL     1     -10.652  14.020  63.997  1.00  0.00     0.000 HD 
BRANCH   3   5
HETATM    5  C   UNL     1      -9.837  14.977  65.617  1.00  0.00    -0.345 C  
BRANCH   5   6
HETATM    6  C   UNL     1     -10.759  16.199  65.497  1.00  0.00    -0.355 C  
BRANCH   6   7
HETATM    7  C   UNL     1     -10.056  17.471  65.892  1.00  0.00    -0.197 A  
HETATM    8  C   UNL     1      -8.692  17.453  66.219  1.00  0.00    -0.242 A  
HETATM    9  C   UNL     1      -8.766  19.808  66.694  1.00  0.00    -0.354 A  
HETATM   10  C   UNL     1      -8.045  18.622  66.617  1.00  0.00    -0.284 A  
HETATM   11  O   UNL     1      -8.177  20.970  67.092  1.00  0.00    -0.562 OA 
HETATM   12  C   UNL     1     -10.118  19.845  66.366  1.00  0.00    -0.615 A  
HETATM   13  H   UNL     1      -8.670  21.781  67.144  1.00  0.00     0.000 HD 
HETATM   14  C   UNL     1     -10.766  18.676  65.968  1.00  0.00    -0.295 A  
ENDBRANCH   6   7
ENDBRANCH   5   6
ENDBRANCH   3   5
ENDBRANCH   2   3
BRANCH   2  15
HETATM   15  C   UNL     1     -10.864  12.317  66.867  1.00  0.00    -0.251 C  
HETATM   16  O   UNL     1     -11.018  10.903  66.682  1.00  0.00    -0.235 OA 
HETATM   17  H   UNL     1     -10.650  10.432  67.421  1.00  0.00     0.000 HD 
BRANCH  15  18
HETATM   18  C   UNL     1     -11.437  12.751  68.205  1.00  0.00    -0.354 A  
HETATM   19  C   UNL     1     -11.727  14.105  68.440  1.00  0.00    -0.380 A  
HETATM   20  C   UNL     1     -12.256  12.226  70.435  1.00  0.00    -0.371 A  
HETATM   21  H   UNL     1     -13.181  13.287  72.547  1.00  0.00     0.000 HD 
HETATM   22  C   UNL     1     -12.261  14.516  69.665  1.00  0.00    -0.336 A  
HETATM   23  C   UNL     1     -12.510  13.573  70.655  1.00  0.00    -0.333 A  
HETATM   24  C   UNL     1     -11.723  11.815  69.215  1.00  0.00    -0.398 A  
HETATM   25  O   UNL     1     -13.011  13.931  71.871  1.00  0.00    -0.332 OA 
ENDBRANCH  15  18
ENDBRANCH   2  15
TORSDOF 6
ENDMDL
MODEL      106
REMARK 921   NORMALIZED FREE ENERGY PREDICTED BY IDOCK:   -5.29 KCAL/MOL
REMARK 922        TOTAL FREE ENERGY PREDICTED BY IDOCK:   -8.18 KCAL/MOL
REMARK 923 INTER-LIGAND FREE ENERGY PREDICTED BY IDOCK:   -7.72 KCAL/MOL
REMARK 924 INTRA-LIGAND FREE ENERGY PREDICTED BY IDOCK:   -0.46 KCAL/MOL
REMARK 927      BINDING AFFINITY PREDICTED BY RF-SCORE:    0.00 PKD
ROOT
HETATM    1  C   UNL     1      -8.955  13.139  66.838  1.00  0.00    -0.213 C  
HETATM    2  C   UNL     1     -10.286  13.428  66.127  1.00  0.00    -0.301 C  
ENDROOT
BRANCH   2   3
HETATM    3  N   UNL     1     -10.937  14.644  66.665  1.00  0.00    -0.316 NA 
HETATM    4  H   UNL     1     -11.868  14.415  67.015  1.00  0.00     0.000 HD 
BRANCH   3   5
HETATM    5  C   UNL     1     -10.183  15.367  67.690  1.00  0.00    -0.246 C  
BRANCH   5   6
HETATM    6  C   UNL     1     -10.882  16.647  68.168  1.00  0.00    -0.348 C  
BRANCH   6   7
HETATM    7  C   UNL     1     -10.060  17.876  67.880  1.00  0.00    -0.350 A  
HETATM    8  C   UNL     1      -8.731  17.956  68.323  1.00  0.00    -0.277 A  
HETATM    9  C   UNL     1      -8.554  20.174  67.415  1.00  0.00    -0.343 A  
HETATM   10  C   UNL     1      -7.976  19.104  68.087  1.00  0.00    -0.339 A  
HETATM   11  O   UNL     1      -7.858  21.321  67.175  1.00  0.00    -0.713 OA 
HETATM   12  C   UNL     1      -9.868  20.108  66.962  1.00  0.00    -0.595 A  
HETATM   13  H   UNL     1      -8.253  22.052  66.715  1.00  0.00     0.000 HD 
HETATM   14  C   UNL     1     -10.624  18.960  67.198  1.00  0.00    -0.531 A  
ENDBRANCH   6   7
ENDBRANCH   5   6
ENDBRANCH   3   5
ENDBRANCH   2   3
BRANCH   2  15
HETATM   15  C   UNL     1     -11.290  12.238  66.246  1.00  0.00    -0.345 C  
HETATM   16  O   UNL     1     -12.611  12.663  65.882  1.00  0.00    -0.526 OA 
HETATM   17  H   UNL     1     -13.222  11.939  65.954  1.00  0.00     0.000 HD 
BRANCH  15  18
HETATM   18  C   UNL     1     -11.293  11.584  67.617  1.00  0.00    -0.358 A  
HETATM   19  C   UNL     1     -11.983  12.187  68.681  1.00  0.00    -0.290 A  
HETATM   20  C   UNL     1     -10.664   9.764  69.102  1.00  0.00    -0.242 A  
HETATM   21  H   UNL     1     -10.845   8.963  71.504  1.00  0.00     0.000 HD 
HETATM   22  C   UNL     1     -11.999  11.591  69.946  1.00  0.00    -0.426 A  
HETATM   23  C   UNL     1     -11.330  10.389  70.146  1.00  0.00    -0.323 A  
HETATM   24  C   UNL     1     -10.646  10.357  67.841  1.00  0.00    -0.273 A  
HETATM   25  O   UNL     1     -11.302   9.784  71.367  1.00  0.00    -0.369 OA 
ENDBRANCH  15  18
ENDBRANCH   2  15
TORSDOF 6
ENDMDL
MODEL      107
REMARK 921   NORMALIZED FREE ENERGY PREDICTED BY IDOCK:   -5.28 KCAL/MOL
REMARK 922        TOTAL FREE ENERGY PREDICTED BY IDOCK:   -8.18 KCAL/MOL
REMARK 923 INTER-LIGAND FREE ENERGY PREDICTED BY IDOCK:   -6.66 KCAL/MOL
REMARK 924 INTRA-LIGAND FREE ENERGY PREDICTED BY IDOCK:   -1.52 KCAL/MOL
REMARK 927      BINDING AFFINITY PREDICTED BY RF-SCORE:    0.00 PKD
ROOT
HETATM    1  C   UNL     1      -7.108   9.200  68.451  1.00  0.00    -0.073 C  
HETATM    2  C   UNL     1      -8.435   9.354  69.209  1.00  0.00    -0.141 C  
ENDROOT
BRANCH   2   3
HETATM    3  N   UNL     1      -8.738  10.776  69.493  1.00  0.00    -0.388 NA 
HETATM    4  H   UNL     1      -7.877  11.280  69.705  1.00  0.00     0.000 HD 
BRANCH   3   5
HETATM    5  C   UNL     1      -9.489  11.483  68.454  1.00  0.00    -0.195 C  
BRANCH   5   6
HETATM    6  C   UNL     1     -10.977  11.106  68.419  1.00  0.00    -0.277 C  
BRANCH   6   7
HETATM    7  C   UNL     1     -11.731  11.694  69.584  1.00  0.00    -0.418 A  
HETATM    8  C   UNL     1     -12.352  10.854  70.520  1.00  0.00    -0.463 A  
HETATM    9  C   UNL     1     -13.188  12.775  71.699  1.00  0.00    -0.317 A  
HETATM   10  C   UNL     1     -13.078  11.394  71.580  1.00  0.00    -0.498 A  
HETATM   11  O   UNL     1     -13.899  13.344  72.712  1.00  0.00    -0.720 OA 
HETATM   12  C   UNL     1     -12.571  13.622  70.784  1.00  0.00    -0.397 A  
HETATM   13  H   UNL     1     -13.974  14.288  72.794  1.00  0.00     0.000 HD 
HETATM   14  C   UNL     1     -11.846  13.083  69.722  1.00  0.00    -0.381 A  
ENDBRANCH   6   7
ENDBRANCH   5   6
ENDBRANCH   3   5
ENDBRANCH   2   3
BRANCH   2  15
HETATM   15  C   UNL     1      -8.439   8.571  70.560  1.00  0.00    -0.137 C  
HETATM   16  O   UNL     1      -7.490   7.496  70.515  1.00  0.00    -0.077 OA 
HETATM   17  H   UNL     1      -7.492   7.019  71.338  1.00  0.00     0.000 HD 
BRANCH  15  18
HETATM   18  C   UNL     1      -9.812   8.061  70.960  1.00  0.00    -0.200 A  
HETATM   19  C   UNL     1     -10.342   8.383  72.220  1.00  0.00    -0.403 A  
HETATM   20  C   UNL     1     -11.855   6.840  70.453  1.00  0.00    -0.395 A  
HETATM   21  H   UNL     1     -14.083   6.134  71.442  1.00  0.00     0.000 HD 
HETATM   22  C   UNL     1     -11.608   7.925  72.598  1.00  0.00    -0.435 A  
HETATM   23  C   UNL     1     -12.348   7.149  71.713  1.00  0.00    -0.350 A  
HETATM   24  C   UNL     1     -10.592   7.295  70.076  1.00  0.00    -0.247 A  
HETATM   25  O   UNL     1     -13.578   6.664  72.047  1.00  0.00    -0.153 OA 
ENDBRANCH  15  18
ENDBRANCH   2  15
TORSDOF 6
ENDMDL
MODEL      108
REMARK 921   NORMALIZED FREE ENERGY PREDICTED BY IDOCK:   -5.26 KCAL/MOL
REMARK 922        TOTAL FREE ENERGY PREDICTED BY IDOCK:   -8.15 KCAL/MOL
REMARK 923 INTER-LIGAND FREE ENERGY PREDICTED BY IDOCK:   -7.03 KCAL/MOL
REMARK 924 INTRA-LIGAND FREE ENERGY PREDICTED BY IDOCK:   -1.12 KCAL/MOL
REMARK 927      BINDING AFFINITY PREDICTED BY RF-SCORE:    0.00 PKD
ROOT
HETATM    1  C   UNL     1      -8.776  11.304  68.632  1.00  0.00    -0.136 C  
HETATM    2  C   UNL     1      -8.765  12.761  68.143  1.00  0.00    -0.193 C  
ENDROOT
BRANCH   2   3
HETATM    3  N   UNL     1      -7.802  13.584  68.911  1.00  0.00    -0.324 NA 
HETATM    4  H   UNL     1      -6.855  13.424  68.567  1.00  0.00     0.000 HD 
BRANCH   3   5
HETATM    5  C   UNL     1      -8.084  15.020  68.946  1.00  0.00    -0.176 C  
BRANCH   5   6
HETATM    6  C   UNL     1      -7.390  15.802  67.823  1.00  0.00    -0.167 C  
BRANCH   6   7
HETATM    7  C   UNL     1      -8.002  17.165  67.628  1.00  0.00    -0.187 A  
HETATM    8  C   UNL     1      -7.589  18.245  68.423  1.00  0.00    -0.302 A  
HETATM    9  C   UNL     1      -9.180  19.672  67.324  1.00  0.00    -0.328 A  
HETATM   10  C   UNL     1      -8.175  19.500  68.269  1.00  0.00    -0.373 A  
HETATM   11  O   UNL     1      -9.790  20.878  67.150  1.00  0.00    -0.605 OA 
HETATM   12  C   UNL     1      -9.596  18.614  66.523  1.00  0.00    -0.351 A  
HETATM   13  H   UNL     1     -10.477  20.996  66.505  1.00  0.00     0.000 HD 
HETATM   14  C   UNL     1      -9.011  17.358  66.677  1.00  0.00    -0.274 A  
ENDBRANCH   6   7
ENDBRANCH   5   6
ENDBRANCH   3   5
ENDBRANCH   2   3
BRANCH   2  15
HETATM   15  C   UNL     1     -10.173  13.429  68.242  1.00  0.00    -0.250 C  
HETATM   16  O   UNL     1     -11.013  12.689  69.140  1.00  0.00    -0.363 OA 
HETATM   17  H   UNL     1     -11.870  13.096  69.200  1.00  0.00     0.000 HD 
BRANCH  15  18
HETATM   18  C   UNL     1     -10.852  13.612  66.896  1.00  0.00    -0.286 A  
HETATM   19  C   UNL     1     -12.253  13.595  66.807  1.00  0.00    -0.416 A  
HETATM   20  C   UNL     1     -10.741  14.014  64.500  1.00  0.00    -0.355 A  
HETATM   21  H   UNL     1     -12.183  14.255  62.424  1.00  0.00     0.000 HD 
HETATM   22  C   UNL     1     -12.890  13.769  65.575  1.00  0.00    -0.464 A  
HETATM   23  C   UNL     1     -12.126  13.967  64.431  1.00  0.00    -0.443 A  
HETATM   24  C   UNL     1     -10.105  13.839  65.727  1.00  0.00    -0.322 A  
HETATM   25  O   UNL     1     -12.704  14.121  63.206  1.00  0.00    -0.714 OA 
ENDBRANCH  15  18
ENDBRANCH   2  15
TORSDOF 6
ENDMDL
MODEL      109
REMARK 921   NORMALIZED FREE ENERGY PREDICTED BY IDOCK:   -5.26 KCAL/MOL
REMARK 922        TOTAL FREE ENERGY PREDICTED BY IDOCK:   -8.15 KCAL/MOL
REMARK 923 INTER-LIGAND FREE ENERGY PREDICTED BY IDOCK:   -7.98 KCAL/MOL
REMARK 924 INTRA-LIGAND FREE ENERGY PREDICTED BY IDOCK:   -0.17 KCAL/MOL
REMARK 927      BINDING AFFINITY PREDICTED BY RF-SCORE:    0.00 PKD
ROOT
HETATM    1  C   UNL     1     -10.315   9.388  67.945  1.00  0.00    -0.276 C  
HETATM    2  C   UNL     1     -10.694  10.849  68.226  1.00  0.00    -0.204 C  
ENDROOT
BRANCH   2   3
HETATM    3  N   UNL     1     -12.049  10.956  68.816  1.00  0.00    -0.763 NA 
HETATM    4  H   UNL     1     -12.428  10.024  68.988  1.00  0.00     0.000 HD 
BRANCH   3   5
HETATM    5  C   UNL     1     -12.149  11.768  70.029  1.00  0.00    -0.310 C  
BRANCH   5   6
HETATM    6  C   UNL     1     -11.739  13.232  69.815  1.00  0.00    -0.354 C  
BRANCH   6   7
HETATM    7  C   UNL     1     -12.194  14.113  70.949  1.00  0.00    -0.434 A  
HETATM    8  C   UNL     1     -11.420  15.214  71.343  1.00  0.00    -0.405 A  
HETATM    9  C   UNL     1     -12.992  15.704  73.093  1.00  0.00    -0.535 A  
HETATM   10  C   UNL     1     -11.820  16.013  72.413  1.00  0.00    -0.639 A  
HETATM   11  O   UNL     1     -13.413  16.449  74.153  1.00  0.00    -0.869 OA 
HETATM   12  C   UNL     1     -13.776  14.620  72.711  1.00  0.00    -0.473 A  
HETATM   13  H   UNL     1     -14.214  16.239  74.618  1.00  0.00     0.000 HD 
HETATM   14  C   UNL     1     -13.376  13.820  71.641  1.00  0.00    -0.430 A  
ENDBRANCH   6   7
ENDBRANCH   5   6
ENDBRANCH   3   5
ENDBRANCH   2   3
BRANCH   2  15
HETATM   15  C   UNL     1     -10.648  11.731  66.938  1.00  0.00    -0.235 C  
HETATM   16  O   UNL     1     -11.973  11.930  66.423  1.00  0.00    -0.572 OA 
HETATM   17  H   UNL     1     -11.945  12.466  65.639  1.00  0.00     0.000 HD 
BRANCH  15  18
HETATM   18  C   UNL     1      -9.729  11.181  65.861  1.00  0.00    -0.268 A  
HETATM   19  C   UNL     1      -8.348  11.082  66.100  1.00  0.00    -0.163 A  
HETATM   20  C   UNL     1      -9.381  10.219  63.655  1.00  0.00    -0.338 A  
HETATM   21  H   UNL     1      -7.574   9.384  62.078  1.00  0.00     0.000 HD 
HETATM   22  C   UNL     1      -7.492  10.571  65.120  1.00  0.00    -0.036 A  
HETATM   23  C   UNL     1      -8.016  10.154  63.902  1.00  0.00    -0.153 A  
HETATM   24  C   UNL     1     -10.235  10.728  64.631  1.00  0.00    -0.419 A  
HETATM   25  O   UNL     1      -7.216   9.668  62.910  1.00  0.00    -0.104 OA 
ENDBRANCH  15  18
ENDBRANCH   2  15
TORSDOF 6
ENDMDL
MODEL      110
REMARK 921   NORMALIZED FREE ENERGY PREDICTED BY IDOCK:   -5.26 KCAL/MOL
REMARK 922        TOTAL FREE ENERGY PREDICTED BY IDOCK:   -8.15 KCAL/MOL
REMARK 923 INTER-LIGAND FREE ENERGY PREDICTED BY IDOCK:   -7.32 KCAL/MOL
REMARK 924 INTRA-LIGAND FREE ENERGY PREDICTED BY IDOCK:   -0.83 KCAL/MOL
REMARK 927      BINDING AFFINITY PREDICTED BY RF-SCORE:    0.00 PKD
ROOT
HETATM    1  C   UNL     1     -12.632  13.741  65.688  1.00  0.00    -0.551 C  
HETATM    2  C   UNL     1     -11.515  13.865  66.735  1.00  0.00    -0.352 C  
ENDROOT
BRANCH   2   3
HETATM    3  N   UNL     1     -11.978  14.588  67.942  1.00  0.00    -0.533 NA 
HETATM    4  H   UNL     1     -12.905  14.982  67.777  1.00  0.00     0.000 HD 
BRANCH   3   5
HETATM    5  C   UNL     1     -11.978  13.814  69.183  1.00  0.00    -0.361 C  
BRANCH   5   6
HETATM    6  C   UNL     1     -11.541  12.355  68.987  1.00  0.00    -0.362 C  
BRANCH   6   7
HETATM    7  C   UNL     1     -12.024  11.471  70.108  1.00  0.00    -0.452 A  
HETATM    8  C   UNL     1     -11.602  10.135  70.186  1.00  0.00    -0.350 A  
HETATM    9  C   UNL     1     -12.971   9.809  72.134  1.00  0.00    -0.394 A  
HETATM   10  C   UNL     1     -12.072   9.304  71.201  1.00  0.00    -0.389 A  
HETATM   11  O   UNL     1     -13.466   9.028  73.135  1.00  0.00    -0.948 OA 
HETATM   12  C   UNL     1     -13.393  11.133  72.076  1.00  0.00    -0.384 A  
HETATM   13  H   UNL     1     -14.080   9.373  73.773  1.00  0.00     0.000 HD 
HETATM   14  C   UNL     1     -12.924  11.965  71.060  1.00  0.00    -0.180 A  
ENDBRANCH   6   7
ENDBRANCH   5   6
ENDBRANCH   3   5
ENDBRANCH   2   3
BRANCH   2  15
HETATM   15  C   UNL     1     -10.257  14.600  66.173  1.00  0.00    -0.301 C  
HETATM   16  O   UNL     1      -9.794  13.953  64.979  1.00  0.00    -0.591 OA 
HETATM   17  H   UNL     1      -9.028  14.400  64.638  1.00  0.00     0.000 HD 
BRANCH  15  18
HETATM   18  C   UNL     1      -9.132  14.732  67.186  1.00  0.00    -0.231 A  
HETATM   19  C   UNL     1      -8.854  15.979  67.769  1.00  0.00    -0.177 A  
HETATM   20  C   UNL     1      -7.352  13.750  68.521  1.00  0.00    -0.117 A  
HETATM   21  H   UNL     1      -5.541  14.324  70.206  1.00  0.00     0.000 HD 
HETATM   22  C   UNL     1      -7.826  16.112  68.707  1.00  0.00    -0.203 A  
HETATM   23  C   UNL     1      -7.078  14.997  69.066  1.00  0.00    -0.133 A  
HETATM   24  C   UNL     1      -8.376  13.617  67.586  1.00  0.00    -0.182 A  
HETATM   25  O   UNL     1      -6.053  15.085  69.961  1.00  0.00    -0.132 OA 
ENDBRANCH  15  18
ENDBRANCH   2  15
TORSDOF 6
ENDMDL
MODEL      111
REMARK 921   NORMALIZED FREE ENERGY PREDICTED BY IDOCK:   -5.26 KCAL/MOL
REMARK 922        TOTAL FREE ENERGY PREDICTED BY IDOCK:   -8.14 KCAL/MOL
REMARK 923 INTER-LIGAND FREE ENERGY PREDICTED BY IDOCK:   -7.56 KCAL/MOL
REMARK 924 INTRA-LIGAND FREE ENERGY PREDICTED BY IDOCK:   -0.59 KCAL/MOL
REMARK 927      BINDING AFFINITY PREDICTED BY RF-SCORE:    0.00 PKD
ROOT
HETATM    1  C   UNL     1     -13.988   9.049  71.522  1.00  0.00    -0.336 C  
HETATM    2  C   UNL     1     -12.454   9.121  71.533  1.00  0.00    -0.346 C  
ENDROOT
BRANCH   2   3
HETATM    3  N   UNL     1     -11.933   9.830  70.341  1.00  0.00    -0.427 NA 
HETATM    4  H   UNL     1     -11.861   9.184  69.555  1.00  0.00     0.000 HD 
BRANCH   3   5
HETATM    5  C   UNL     1     -12.678  11.024  69.940  1.00  0.00    -0.038 C  
BRANCH   5   6
HETATM    6  C   UNL     1     -11.825  12.301  69.946  1.00  0.00    -0.383 C  
BRANCH   6   7
HETATM    7  C   UNL     1     -12.391  13.347  70.872  1.00  0.00    -0.436 A  
HETATM    8  C   UNL     1     -13.471  13.037  71.712  1.00  0.00    -0.401 A  
HETATM    9  C   UNL     1     -13.488  15.296  72.534  1.00  0.00    -0.485 A  
HETATM   10  C   UNL     1     -14.018  14.011  72.546  1.00  0.00    -0.553 A  
HETATM   11  O   UNL     1     -14.001  16.282  73.322  1.00  0.00    -0.731 OA 
HETATM   12  C   UNL     1     -12.413  15.618  71.712  1.00  0.00    -0.507 A  
HETATM   13  H   UNL     1     -13.640  17.160  73.314  1.00  0.00     0.000 HD 
HETATM   14  C   UNL     1     -11.865  14.645  70.877  1.00  0.00    -0.372 A  
ENDBRANCH   6   7
ENDBRANCH   5   6
ENDBRANCH   3   5
ENDBRANCH   2   3
BRANCH   2  15
HETATM   15  C   UNL     1     -11.795   7.706  71.590  1.00  0.00    -0.291 C  
HETATM   16  O   UNL     1     -12.729   6.742  72.098  1.00  0.00    -0.531 OA 
HETATM   17  H   UNL     1     -12.328   5.881  72.133  1.00  0.00     0.000 HD 
BRANCH  15  18
HETATM   18  C   UNL     1     -10.500   7.673  72.383  1.00  0.00    -0.302 A  
HETATM   19  C   UNL     1      -9.338   8.259  71.856  1.00  0.00    -0.282 A  
HETATM   20  C   UNL     1      -9.250   7.078  74.383  1.00  0.00    -0.238 A  
HETATM   21  H   UNL     1      -6.934   7.172  75.419  1.00  0.00     0.000 HD 
HETATM   22  C   UNL     1      -8.141   8.241  72.578  1.00  0.00    -0.209 A  
HETATM   23  C   UNL     1      -8.107   7.641  73.832  1.00  0.00    -0.173 A  
HETATM   24  C   UNL     1     -10.443   7.095  73.663  1.00  0.00    -0.412 A  
HETATM   25  O   UNL     1      -6.958   7.582  74.563  1.00  0.00    -0.102 OA 
ENDBRANCH  15  18
ENDBRANCH   2  15
TORSDOF 6
ENDMDL
MODEL      112
REMARK 921   NORMALIZED FREE ENERGY PREDICTED BY IDOCK:   -5.24 KCAL/MOL
REMARK 922        TOTAL FREE ENERGY PREDICTED BY IDOCK:   -8.12 KCAL/MOL
REMARK 923 INTER-LIGAND FREE ENERGY PREDICTED BY IDOCK:   -6.01 KCAL/MOL
REMARK 924 INTRA-LIGAND FREE ENERGY PREDICTED BY IDOCK:   -2.11 KCAL/MOL
REMARK 927      BINDING AFFINITY PREDICTED BY RF-SCORE:    0.00 PKD
ROOT
HETATM    1  C   UNL     1     -10.745  11.968  63.699  1.00  0.00    -0.506 C  
HETATM    2  C   UNL     1     -10.600  12.329  65.185  1.00  0.00    -0.285 C  
ENDROOT
BRANCH   2   3
HETATM    3  N   UNL     1      -9.773  11.335  65.908  1.00  0.00    -0.215 NA 
HETATM    4  H   UNL     1      -9.676  10.489  65.346  1.00  0.00     0.000 HD 
BRANCH   3   5
HETATM    5  C   UNL     1      -8.455  11.802  66.340  1.00  0.00    -0.081 C  
BRANCH   5   6
HETATM    6  C   UNL     1      -8.431  12.286  67.797  1.00  0.00    -0.163 C  
BRANCH   6   7
HETATM    7  C   UNL     1      -8.369  13.788  67.887  1.00  0.00    -0.172 A  
HETATM    8  C   UNL     1      -8.253  14.417  69.136  1.00  0.00     0.037 A  
HETATM    9  C   UNL     1      -8.326  16.569  68.068  1.00  0.00    -0.180 A  
HETATM   10  C   UNL     1      -8.227  15.808  69.227  1.00  0.00    -0.247 A  
HETATM   11  O   UNL     1      -8.320  17.931  68.112  1.00  0.00    -0.251 OA 
HETATM   12  C   UNL     1      -8.435  15.961  66.821  1.00  0.00    -0.297 A  
HETATM   13  H   UNL     1      -8.388  18.451  67.320  1.00  0.00     0.000 HD 
HETATM   14  C   UNL     1      -8.460  14.570  66.729  1.00  0.00    -0.108 A  
ENDBRANCH   6   7
ENDBRANCH   5   6
ENDBRANCH   3   5
ENDBRANCH   2   3
BRANCH   2  15
HETATM   15  C   UNL     1     -11.982  12.436  65.905  1.00  0.00    -0.367 C  
HETATM   16  O   UNL     1     -12.971  12.962  65.010  1.00  0.00    -0.777 OA 
HETATM   17  H   UNL     1     -13.812  13.027  65.448  1.00  0.00     0.000 HD 
BRANCH  15  18
HETATM   18  C   UNL     1     -11.933  13.244  67.190  1.00  0.00    -0.400 A  
HETATM   19  C   UNL     1     -11.902  12.589  68.432  1.00  0.00    -0.353 A  
HETATM   20  C   UNL     1     -11.829  15.377  68.354  1.00  0.00    -0.264 A  
HETATM   21  H   UNL     1     -11.777  16.413  70.671  1.00  0.00     0.000 HD 
HETATM   22  C   UNL     1     -11.850  13.321  69.622  1.00  0.00    -0.391 A  
HETATM   23  C   UNL     1     -11.825  14.710  69.571  1.00  0.00    -0.330 A  
HETATM   24  C   UNL     1     -11.881  14.648  67.167  1.00  0.00    -0.367 A  
HETATM   25  O   UNL     1     -11.795  15.464  70.706  1.00  0.00    -0.291 OA 
ENDBRANCH  15  18
ENDBRANCH   2  15
TORSDOF 6
ENDMDL
MODEL      113
REMARK 921   NORMALIZED FREE ENERGY PREDICTED BY IDOCK:   -5.21 KCAL/MOL
REMARK 922        TOTAL FREE ENERGY PREDICTED BY IDOCK:   -8.08 KCAL/MOL
REMARK 923 INTER-LIGAND FREE ENERGY PREDICTED BY IDOCK:   -7.61 KCAL/MOL
REMARK 924 INTRA-LIGAND FREE ENERGY PREDICTED BY IDOCK:   -0.47 KCAL/MOL
REMARK 927      BINDING AFFINITY PREDICTED BY RF-SCORE:    0.00 PKD
ROOT
HETATM    1  C   UNL     1     -10.315   9.111  71.254  1.00  0.00    -0.405 C  
HETATM    2  C   UNL     1     -10.520   8.482  69.868  1.00  0.00    -0.219 C  
ENDROOT
BRANCH   2   3
HETATM    3  N   UNL     1     -11.313   9.366  68.982  1.00  0.00    -0.441 NA 
HETATM    4  H   UNL     1     -12.139   9.703  69.476  1.00  0.00     0.000 HD 
BRANCH   3   5
HETATM    5  C   UNL     1     -10.586  10.492  68.396  1.00  0.00    -0.199 C  
BRANCH   5   6
HETATM    6  C   UNL     1     -11.381  11.805  68.420  1.00  0.00    -0.328 C  
BRANCH   6   7
HETATM    7  C   UNL     1     -11.602  12.351  67.033  1.00  0.00    -0.434 A  
HETATM    8  C   UNL     1     -12.225  13.596  66.855  1.00  0.00    -0.398 A  
HETATM    9  C   UNL     1     -12.080  13.335  64.470  1.00  0.00    -0.408 A  
HETATM   10  C   UNL     1     -12.460  14.090  65.573  1.00  0.00    -0.533 A  
HETATM   11  O   UNL     1     -12.304  13.773  63.199  1.00  0.00    -1.099 OA 
HETATM   12  C   UNL     1     -11.455  12.102  64.629  1.00  0.00    -0.388 A  
HETATM   13  H   UNL     1     -12.044  13.258  62.445  1.00  0.00     0.000 HD 
HETATM   14  C   UNL     1     -11.219  11.606  65.911  1.00  0.00    -0.296 A  
ENDBRANCH   6   7
ENDBRANCH   5   6
ENDBRANCH   3   5
ENDBRANCH   2   3
BRANCH   2  15
HETATM   15  C   UNL     1     -11.235   7.095  69.947  1.00  0.00    -0.208 C  
HETATM   16  O   UNL     1     -11.194   6.590  71.289  1.00  0.00    -0.262 OA 
HETATM   17  H   UNL     1     -11.629   5.746  71.337  1.00  0.00     0.000 HD 
BRANCH  15  18
HETATM   18  C   UNL     1     -10.682   6.073  68.968  1.00  0.00    -0.393 A  
HETATM   19  C   UNL     1     -10.912   6.223  67.591  1.00  0.00    -0.438 A  
HETATM   20  C   UNL     1      -9.398   4.062  68.499  1.00  0.00    -0.221 A  
HETATM   21  H   UNL     1      -8.652   2.537  66.612  1.00  0.00     0.000 HD 
HETATM   22  C   UNL     1     -10.403   5.293  66.680  1.00  0.00    -0.330 A  
HETATM   23  C   UNL     1      -9.659   4.215  67.145  1.00  0.00    -0.197 A  
HETATM   24  C   UNL     1      -9.905   4.988  69.408  1.00  0.00    -0.273 A  
HETATM   25  O   UNL     1      -9.160   3.274  66.294  1.00  0.00    -0.143 OA 
ENDBRANCH  15  18
ENDBRANCH   2  15
TORSDOF 6
ENDMDL
MODEL      114
REMARK 921   NORMALIZED FREE ENERGY PREDICTED BY IDOCK:   -5.17 KCAL/MOL
REMARK 922        TOTAL FREE ENERGY PREDICTED BY IDOCK:   -8.02 KCAL/MOL
REMARK 923 INTER-LIGAND FREE ENERGY PREDICTED BY IDOCK:   -7.51 KCAL/MOL
REMARK 924 INTRA-LIGAND FREE ENERGY PREDICTED BY IDOCK:   -0.51 KCAL/MOL
REMARK 927      BINDING AFFINITY PREDICTED BY RF-SCORE:    0.00 PKD
ROOT
HETATM    1  C   UNL     1     -10.051   9.201  71.507  1.00  0.00    -0.381 C  
HETATM    2  C   UNL     1     -11.050   8.661  70.472  1.00  0.00    -0.242 C  
ENDROOT
BRANCH   2   3
HETATM    3  N   UNL     1     -11.849   9.752  69.867  1.00  0.00    -0.455 NA 
HETATM    4  H   UNL     1     -12.116  10.427  70.584  1.00  0.00     0.000 HD 
BRANCH   3   5
HETATM    5  C   UNL     1     -11.227  10.442  68.737  1.00  0.00    -0.241 C  
BRANCH   5   6
HETATM    6  C   UNL     1     -11.544  11.943  68.695  1.00  0.00    -0.366 C  
BRANCH   6   7
HETATM    7  C   UNL     1     -11.726  12.437  67.283  1.00  0.00    -0.419 A  
HETATM    8  C   UNL     1     -12.397  13.645  67.037  1.00  0.00    -0.277 A  
HETATM    9  C   UNL     1     -12.128  13.321  64.671  1.00  0.00    -0.408 A  
HETATM   10  C   UNL     1     -12.595  14.089  65.731  1.00  0.00    -0.512 A  
HETATM   11  O   UNL     1     -12.313  13.711  63.378  1.00  0.00    -0.916 OA 
HETATM   12  C   UNL     1     -11.454  12.125  64.897  1.00  0.00    -0.379 A  
HETATM   13  H   UNL     1     -11.993  13.186  62.653  1.00  0.00     0.000 HD 
HETATM   14  C   UNL     1     -11.256  11.679  66.203  1.00  0.00    -0.314 A  
ENDBRANCH   6   7
ENDBRANCH   5   6
ENDBRANCH   3   5
ENDBRANCH   2   3
BRANCH   2  15
HETATM   15  C   UNL     1     -12.032   7.615  71.089  1.00  0.00    -0.297 C  
HETATM   16  O   UNL     1     -12.686   8.164  72.242  1.00  0.00    -0.445 OA 
HETATM   17  H   UNL     1     -13.283   7.527  72.616  1.00  0.00     0.000 HD 
BRANCH  15  18
HETATM   18  C   UNL     1     -11.370   6.289  71.424  1.00  0.00    -0.353 A  
HETATM   19  C   UNL     1     -10.555   5.650  70.476  1.00  0.00    -0.354 A  
HETATM   20  C   UNL     1     -10.907   4.483  72.987  1.00  0.00    -0.315 A  
HETATM   21  H   UNL     1      -9.688   2.267  73.207  1.00  0.00     0.000 HD 
HETATM   22  C   UNL     1      -9.935   4.434  70.775  1.00  0.00    -0.247 A  
HETATM   23  C   UNL     1     -10.126   3.857  72.026  1.00  0.00    -0.149 A  
HETATM   24  C   UNL     1     -11.526   5.696  72.689  1.00  0.00    -0.339 A  
HETATM   25  O   UNL     1      -9.558   2.662  72.353  1.00  0.00    -0.101 OA 
ENDBRANCH  15  18
ENDBRANCH   2  15
TORSDOF 6
ENDMDL
MODEL      115
REMARK 921   NORMALIZED FREE ENERGY PREDICTED BY IDOCK:   -5.16 KCAL/MOL
REMARK 922        TOTAL FREE ENERGY PREDICTED BY IDOCK:   -8.01 KCAL/MOL
REMARK 923 INTER-LIGAND FREE ENERGY PREDICTED BY IDOCK:   -7.61 KCAL/MOL
REMARK 924 INTRA-LIGAND FREE ENERGY PREDICTED BY IDOCK:   -0.40 KCAL/MOL
REMARK 927      BINDING AFFINITY PREDICTED BY RF-SCORE:    0.00 PKD
ROOT
HETATM    1  C   UNL     1     -10.704   9.101  67.351  1.00  0.00    -0.247 C  
HETATM    2  C   UNL     1     -10.672  10.257  68.361  1.00  0.00    -0.226 C  
ENDROOT
BRANCH   2   3
HETATM    3  N   UNL     1     -12.036  10.633  68.801  1.00  0.00    -0.736 NA 
HETATM    4  H   UNL     1     -12.701   9.910  68.528  1.00  0.00     0.000 HD 
BRANCH   3   5
HETATM    5  C   UNL     1     -12.181  10.934  70.225  1.00  0.00    -0.348 C  
BRANCH   5   6
HETATM    6  C   UNL     1     -12.902   9.828  71.008  1.00  0.00    -0.374 C  
BRANCH   6   7
HETATM    7  C   UNL     1     -11.989   8.667  71.306  1.00  0.00    -0.339 A  
HETATM    8  C   UNL     1     -12.135   7.457  70.613  1.00  0.00    -0.167 A  
HETATM    9  C   UNL     1     -10.351   6.493  71.904  1.00  0.00    -0.200 A  
HETATM   10  C   UNL     1     -11.313   6.370  70.908  1.00  0.00    -0.398 A  
HETATM   11  O   UNL     1      -9.536   5.452  72.235  1.00  0.00    -0.153 OA 
HETATM   12  C   UNL     1     -10.189   7.689  72.597  1.00  0.00    -0.321 A  
HETATM   13  H   UNL     1      -8.879   5.536  72.916  1.00  0.00     0.000 HD 
HETATM   14  C   UNL     1     -11.010   8.776  72.302  1.00  0.00    -0.336 A  
ENDBRANCH   6   7
ENDBRANCH   5   6
ENDBRANCH   3   5
ENDBRANCH   2   3
BRANCH   2  15
HETATM   15  C   UNL     1      -9.973  11.529  67.783  1.00  0.00    -0.183 C  
HETATM   16  O   UNL     1      -9.761  12.496  68.821  1.00  0.00    -0.400 OA 
HETATM   17  H   UNL     1      -9.335  13.269  68.470  1.00  0.00     0.000 HD 
BRANCH  15  18
HETATM   18  C   UNL     1     -10.717  12.149  66.613  1.00  0.00    -0.281 A  
HETATM   19  C   UNL     1     -11.662  13.163  66.839  1.00  0.00    -0.441 A  
HETATM   20  C   UNL     1     -11.139  12.338  64.225  1.00  0.00    -0.401 A  
HETATM   21  H   UNL     1     -12.569  13.555  62.517  1.00  0.00     0.000 HD 
HETATM   22  C   UNL     1     -12.349  13.747  65.770  1.00  0.00    -0.523 A  
HETATM   23  C   UNL     1     -12.087  13.320  64.473  1.00  0.00    -0.408 A  
HETATM   24  C   UNL     1     -10.454  11.755  65.290  1.00  0.00    -0.320 A  
HETATM   25  O   UNL     1     -12.747  13.847  63.403  1.00  0.00    -0.806 OA 
ENDBRANCH  15  18
ENDBRANCH   2  15
TORSDOF 6
ENDMDL
MODEL      116
REMARK 921   NORMALIZED FREE ENERGY PREDICTED BY IDOCK:   -5.14 KCAL/MOL
REMARK 922        TOTAL FREE ENERGY PREDICTED BY IDOCK:   -7.98 KCAL/MOL
REMARK 923 INTER-LIGAND FREE ENERGY PREDICTED BY IDOCK:   -7.30 KCAL/MOL
REMARK 924 INTRA-LIGAND FREE ENERGY PREDICTED BY IDOCK:   -0.68 KCAL/MOL
REMARK 927      BINDING AFFINITY PREDICTED BY RF-SCORE:    0.00 PKD
ROOT
HETATM    1  C   UNL     1     -10.701  11.617  67.540  1.00  0.00    -0.257 C  
HETATM    2  C   UNL     1     -10.422  11.723  69.046  1.00  0.00    -0.099 C  
ENDROOT
BRANCH   2   3
HETATM    3  N   UNL     1      -9.309  10.835  69.457  1.00  0.00    -0.414 NA 
HETATM    4  H   UNL     1      -8.624  11.363  69.998  1.00  0.00     0.000 HD 
BRANCH   3   5
HETATM    5  C   UNL     1      -9.699   9.628  70.186  1.00  0.00    -0.254 C  
BRANCH   5   6
HETATM    6  C   UNL     1      -8.773   8.432  69.917  1.00  0.00    -0.136 C  
BRANCH   6   7
HETATM    7  C   UNL     1      -9.396   7.447  68.962  1.00  0.00    -0.145 A  
HETATM    8  C   UNL     1      -9.082   6.082  69.050  1.00  0.00    -0.122 A  
HETATM    9  C   UNL     1     -10.487   5.628  67.154  1.00  0.00    -0.270 A  
HETATM   10  C   UNL     1      -9.630   5.172  68.148  1.00  0.00    -0.173 A  
HETATM   11  O   UNL     1     -11.034   4.775  66.243  1.00  0.00    -0.528 OA 
HETATM   12  C   UNL     1     -10.814   6.977  67.057  1.00  0.00    -0.413 A  
HETATM   13  H   UNL     1     -11.619   5.087  65.563  1.00  0.00     0.000 HD 
HETATM   14  C   UNL     1     -10.266   7.889  67.958  1.00  0.00    -0.256 A  
ENDBRANCH   6   7
ENDBRANCH   5   6
ENDBRANCH   3   5
ENDBRANCH   2   3
BRANCH   2  15
HETATM   15  C   UNL     1     -11.676  11.369  69.907  1.00  0.00    -0.346 C  
HETATM   16  O   UNL     1     -12.661  10.704  69.103  1.00  0.00    -0.734 OA 
HETATM   17  H   UNL     1     -13.424  10.489  69.626  1.00  0.00     0.000 HD 
BRANCH  15  18
HETATM   18  C   UNL     1     -12.281  12.569  70.616  1.00  0.00    -0.365 A  
HETATM   19  C   UNL     1     -13.158  12.378  71.696  1.00  0.00    -0.408 A  
HETATM   20  C   UNL     1     -12.507  14.974  70.903  1.00  0.00    -0.407 A  
HETATM   21  H   UNL     1     -13.707  16.739  72.277  1.00  0.00     0.000 HD 
HETATM   22  C   UNL     1     -13.716  13.474  72.361  1.00  0.00    -0.704 A  
HETATM   23  C   UNL     1     -13.392  14.762  71.951  1.00  0.00    -0.359 A  
HETATM   24  C   UNL     1     -11.951  13.882  70.239  1.00  0.00    -0.401 A  
HETATM   25  O   UNL     1     -13.928  15.859  72.557  1.00  0.00    -0.511 OA 
ENDBRANCH  15  18
ENDBRANCH   2  15
TORSDOF 6
ENDMDL
MODEL      117
REMARK 921   NORMALIZED FREE ENERGY PREDICTED BY IDOCK:   -5.12 KCAL/MOL
REMARK 922        TOTAL FREE ENERGY PREDICTED BY IDOCK:   -7.96 KCAL/MOL
REMARK 923 INTER-LIGAND FREE ENERGY PREDICTED BY IDOCK:   -7.06 KCAL/MOL
REMARK 924 INTRA-LIGAND FREE ENERGY PREDICTED BY IDOCK:   -0.90 KCAL/MOL
REMARK 927      BINDING AFFINITY PREDICTED BY RF-SCORE:    0.00 PKD
ROOT
HETATM    1  C   UNL     1     -12.399  14.317  64.223  1.00  0.00    -0.407 C  
HETATM    2  C   UNL     1     -10.974  14.540  64.750  1.00  0.00    -0.391 C  
ENDROOT
BRANCH   2   3
HETATM    3  N   UNL     1     -10.038  13.512  64.237  1.00  0.00    -0.771 NA 
HETATM    4  H   UNL     1      -9.454  13.162  64.998  1.00  0.00     0.000 HD 
BRANCH   3   5
HETATM    5  C   UNL     1     -10.655  12.392  63.526  1.00  0.00    -0.413 C  
BRANCH   5   6
HETATM    6  C   UNL     1     -10.192  11.020  64.037  1.00  0.00    -0.420 C  
BRANCH   6   7
HETATM    7  C   UNL     1      -9.957  11.028  65.526  1.00  0.00    -0.308 A  
HETATM    8  C   UNL     1      -8.650  11.048  66.034  1.00  0.00    -0.173 A  
HETATM    9  C   UNL     1      -9.513  10.969  68.276  1.00  0.00    -0.172 A  
HETATM   10  C   UNL     1      -8.428  11.022  67.410  1.00  0.00    -0.132 A  
HETATM   11  O   UNL     1      -9.341  10.928  69.627  1.00  0.00    -0.395 OA 
HETATM   12  C   UNL     1     -10.816  10.955  67.788  1.00  0.00    -0.309 A  
HETATM   13  H   UNL     1     -10.083  10.891  70.219  1.00  0.00     0.000 HD 
HETATM   14  C   UNL     1     -11.040  10.981  66.412  1.00  0.00    -0.137 A  
ENDBRANCH   6   7
ENDBRANCH   5   6
ENDBRANCH   3   5
ENDBRANCH   2   3
BRANCH   2  15
HETATM   15  C   UNL     1     -10.911  14.528  66.310  1.00  0.00    -0.317 C  
HETATM   16  O   UNL     1     -12.218  14.308  66.860  1.00  0.00    -0.501 OA 
HETATM   17  H   UNL     1     -12.179  14.301  67.810  1.00  0.00     0.000 HD 
BRANCH  15  18
HETATM   18  C   UNL     1     -10.281  15.778  66.900  1.00  0.00    -0.280 A  
HETATM   19  C   UNL     1     -10.875  16.410  68.005  1.00  0.00    -0.342 A  
HETATM   20  C   UNL     1      -8.513  17.448  66.941  1.00  0.00    -0.264 A  
HETATM   21  H   UNL     1      -7.749  19.550  68.141  1.00  0.00     0.000 HD 
HETATM   22  C   UNL     1     -10.302  17.558  68.561  1.00  0.00    -0.380 A  
HETATM   23  C   UNL     1      -9.131  18.071  68.016  1.00  0.00    -0.272 A  
HETATM   24  C   UNL     1      -9.084  16.304  66.385  1.00  0.00    -0.336 A  
HETATM   25  O   UNL     1      -8.549  19.199  68.513  1.00  0.00    -0.341 OA 
ENDBRANCH  15  18
ENDBRANCH   2  15
TORSDOF 6
ENDMDL
MODEL      118
REMARK 921   NORMALIZED FREE ENERGY PREDICTED BY IDOCK:   -5.11 KCAL/MOL
REMARK 922        TOTAL FREE ENERGY PREDICTED BY IDOCK:   -7.94 KCAL/MOL
REMARK 923 INTER-LIGAND FREE ENERGY PREDICTED BY IDOCK:   -7.40 KCAL/MOL
REMARK 924 INTRA-LIGAND FREE ENERGY PREDICTED BY IDOCK:   -0.54 KCAL/MOL
REMARK 927      BINDING AFFINITY PREDICTED BY RF-SCORE:    0.00 PKD
ROOT
HETATM    1  C   UNL     1     -11.878  12.692  70.432  1.00  0.00    -0.238 C  
HETATM    2  C   UNL     1     -12.140  11.701  69.288  1.00  0.00    -0.259 C  
ENDROOT
BRANCH   2   3
HETATM    3  N   UNL     1     -12.338  10.323  69.796  1.00  0.00    -0.531 NA 
HETATM    4  H   UNL     1     -11.738   9.675  69.286  1.00  0.00     0.000 HD 
BRANCH   3   5
HETATM    5  C   UNL     1     -12.152  10.147  71.237  1.00  0.00    -0.394 C  
BRANCH   5   6
HETATM    6  C   UNL     1     -12.401   8.707  71.708  1.00  0.00    -0.402 C  
BRANCH   6   7
HETATM    7  C   UNL     1     -11.145   8.067  72.239  1.00  0.00    -0.393 A  
HETATM    8  C   UNL     1      -9.898   8.674  72.027  1.00  0.00    -0.396 A  
HETATM    9  C   UNL     1      -8.810   6.853  73.156  1.00  0.00    -0.123 A  
HETATM   10  C   UNL     1      -8.730   8.069  72.489  1.00  0.00    -0.232 A  
HETATM   11  O   UNL     1      -7.693   6.219  73.611  1.00  0.00    -0.094 OA 
HETATM   12  C   UNL     1     -10.039   6.240  73.381  1.00  0.00    -0.214 A  
HETATM   13  H   UNL     1      -7.747   5.388  74.067  1.00  0.00     0.000 HD 
HETATM   14  C   UNL     1     -11.208   6.845  72.920  1.00  0.00    -0.254 A  
ENDBRANCH   6   7
ENDBRANCH   5   6
ENDBRANCH   3   5
ENDBRANCH   2   3
BRANCH   2  15
HETATM   15  C   UNL     1     -10.977  11.678  68.246  1.00  0.00    -0.226 C  
HETATM   16  O   UNL     1      -9.828  12.362  68.768  1.00  0.00    -0.396 OA 
HETATM   17  H   UNL     1      -9.120  12.348  68.134  1.00  0.00     0.000 HD 
BRANCH  15  18
HETATM   18  C   UNL     1     -11.368  12.240  66.890  1.00  0.00    -0.392 A  
HETATM   19  C   UNL     1     -11.003  11.560  65.716  1.00  0.00    -0.305 A  
HETATM   20  C   UNL     1     -12.487  13.917  65.529  1.00  0.00    -0.541 A  
HETATM   21  H   UNL     1     -12.947  14.586  63.124  1.00  0.00     0.000 HD 
HETATM   22  C   UNL     1     -11.363  12.063  64.462  1.00  0.00    -0.393 A  
HETATM   23  C   UNL     1     -12.094  13.243  64.381  1.00  0.00    -0.415 A  
HETATM   24  C   UNL     1     -12.128  13.417  66.780  1.00  0.00    -0.419 A  
HETATM   25  O   UNL     1     -12.449  13.780  63.180  1.00  0.00    -0.786 OA 
ENDBRANCH  15  18
ENDBRANCH   2  15
TORSDOF 6
ENDMDL
MODEL      119
REMARK 921   NORMALIZED FREE ENERGY PREDICTED BY IDOCK:   -5.10 KCAL/MOL
REMARK 922        TOTAL FREE ENERGY PREDICTED BY IDOCK:   -7.93 KCAL/MOL
REMARK 923 INTER-LIGAND FREE ENERGY PREDICTED BY IDOCK:   -7.20 KCAL/MOL
REMARK 924 INTRA-LIGAND FREE ENERGY PREDICTED BY IDOCK:   -0.73 KCAL/MOL
REMARK 927      BINDING AFFINITY PREDICTED BY RF-SCORE:    0.00 PKD
ROOT
HETATM    1  C   UNL     1      -8.195  13.388  67.081  1.00  0.00    -0.121 C  
HETATM    2  C   UNL     1      -9.286  14.037  67.945  1.00  0.00    -0.206 C  
ENDROOT
BRANCH   2   3
HETATM    3  N   UNL     1     -10.459  14.435  67.133  1.00  0.00    -0.262 NA 
HETATM    4  H   UNL     1     -10.310  14.179  66.157  1.00  0.00     0.000 HD 
BRANCH   3   5
HETATM    5  C   UNL     1     -11.750  13.921  67.592  1.00  0.00    -0.368 C  
BRANCH   5   6
HETATM    6  C   UNL     1     -11.633  12.975  68.796  1.00  0.00    -0.350 C  
BRANCH   6   7
HETATM    7  C   UNL     1     -12.211  13.587  70.046  1.00  0.00    -0.381 A  
HETATM    8  C   UNL     1     -12.536  12.776  71.144  1.00  0.00    -0.365 A  
HETATM    9  C   UNL     1     -13.347  14.700  72.334  1.00  0.00    -0.417 A  
HETATM   10  C   UNL     1     -13.101  13.333  72.290  1.00  0.00    -0.474 A  
HETATM   11  O   UNL     1     -13.911  15.284  73.428  1.00  0.00    -0.565 OA 
HETATM   12  C   UNL     1     -13.024  15.520  71.257  1.00  0.00    -0.565 A  
HETATM   13  H   UNL     1     -14.079  16.219  73.459  1.00  0.00     0.000 HD 
HETATM   14  C   UNL     1     -12.459  14.963  70.109  1.00  0.00    -0.353 A  
ENDBRANCH   6   7
ENDBRANCH   5   6
ENDBRANCH   3   5
ENDBRANCH   2   3
BRANCH   2  15
HETATM   15  C   UNL     1      -8.765  15.297  68.707  1.00  0.00    -0.195 C  
HETATM   16  O   UNL     1      -9.228  15.284  70.065  1.00  0.00    -0.420 OA 
HETATM   17  H   UNL     1      -8.910  16.051  70.529  1.00  0.00     0.000 HD 
BRANCH  15  18
HETATM   18  C   UNL     1      -9.125  16.607  68.027  1.00  0.00    -0.218 A  
HETATM   19  C   UNL     1      -9.909  17.557  68.703  1.00  0.00    -0.338 A  
HETATM   20  C   UNL     1      -8.990  18.121  66.129  1.00  0.00    -0.113 A  
HETATM   21  H   UNL     1      -9.793  20.375  65.283  1.00  0.00     0.000 HD 
HETATM   22  C   UNL     1     -10.242  18.769  68.091  1.00  0.00    -0.433 A  
HETATM   23  C   UNL     1      -9.787  19.034  66.804  1.00  0.00    -0.344 A  
HETATM   24  C   UNL     1      -8.658  16.912  66.738  1.00  0.00    -0.256 A  
HETATM   25  O   UNL     1     -10.104  20.194  66.161  1.00  0.00    -0.456 OA 
ENDBRANCH  15  18
ENDBRANCH   2  15
TORSDOF 6
ENDMDL
MODEL      120
REMARK 921   NORMALIZED FREE ENERGY PREDICTED BY IDOCK:   -5.08 KCAL/MOL
REMARK 922        TOTAL FREE ENERGY PREDICTED BY IDOCK:   -7.91 KCAL/MOL
REMARK 923 INTER-LIGAND FREE ENERGY PREDICTED BY IDOCK:   -7.10 KCAL/MOL
REMARK 924 INTRA-LIGAND FREE ENERGY PREDICTED BY IDOCK:   -0.81 KCAL/MOL
REMARK 927      BINDING AFFINITY PREDICTED BY RF-SCORE:    0.00 PKD
ROOT
HETATM    1  C   UNL     1      -9.228  10.825  62.952  1.00  0.00    -0.336 C  
HETATM    2  C   UNL     1      -9.795  11.063  64.359  1.00  0.00    -0.298 C  
ENDROOT
BRANCH   2   3
HETATM    3  N   UNL     1     -10.025   9.787  65.076  1.00  0.00    -0.403 NA 
HETATM    4  H   UNL     1      -9.605   9.015  64.556  1.00  0.00     0.000 HD 
BRANCH   3   5
HETATM    5  C   UNL     1      -9.578   9.753  66.469  1.00  0.00    -0.194 C  
BRANCH   5   6
HETATM    6  C   UNL     1     -10.735   9.664  67.474  1.00  0.00    -0.321 C  
BRANCH   6   7
HETATM    7  C   UNL     1     -10.245   9.369  68.868  1.00  0.00    -0.215 A  
HETATM    8  C   UNL     1     -11.096   9.544  69.968  1.00  0.00    -0.268 A  
HETATM    9  C   UNL     1      -9.322   8.895  71.454  1.00  0.00    -0.268 A  
HETATM   10  C   UNL     1     -10.637   9.303  71.262  1.00  0.00    -0.417 A  
HETATM   11  O   UNL     1      -8.827   8.663  72.702  1.00  0.00    -0.371 OA 
HETATM   12  C   UNL     1      -8.466   8.710  70.373  1.00  0.00    -0.144 A  
HETATM   13  H   UNL     1      -7.928   8.384  72.834  1.00  0.00     0.000 HD 
HETATM   14  C   UNL     1      -8.925   8.951  69.078  1.00  0.00    -0.137 A  
ENDBRANCH   6   7
ENDBRANCH   5   6
ENDBRANCH   3   5
ENDBRANCH   2   3
BRANCH   2  15
HETATM   15  C   UNL     1     -11.138  11.860  64.330  1.00  0.00    -0.356 C  
HETATM   16  O   UNL     1     -11.425  12.303  62.996  1.00  0.00    -0.686 OA 
HETATM   17  H   UNL     1     -12.242  12.787  62.978  1.00  0.00     0.000 HD 
BRANCH  15  18
HETATM   18  C   UNL     1     -11.171  13.025  65.304  1.00  0.00    -0.316 A  
HETATM   19  C   UNL     1     -11.842  12.896  66.531  1.00  0.00    -0.473 A  
HETATM   20  C   UNL     1     -10.541  15.290  65.927  1.00  0.00    -0.345 A  
HETATM   21  H   UNL     1     -10.815  17.032  67.753  1.00  0.00     0.000 HD 
HETATM   22  C   UNL     1     -11.874  13.958  67.439  1.00  0.00    -0.437 A  
HETATM   23  C   UNL     1     -11.231  15.150  67.123  1.00  0.00    -0.320 A  
HETATM   24  C   UNL     1     -10.508  14.231  65.021  1.00  0.00    -0.458 A  
HETATM   25  O   UNL     1     -11.254  16.218  67.969  1.00  0.00    -0.334 OA 
ENDBRANCH  15  18
ENDBRANCH   2  15
TORSDOF 6
ENDMDL
MODEL      121
REMARK 921   NORMALIZED FREE ENERGY PREDICTED BY IDOCK:   -5.08 KCAL/MOL
REMARK 922        TOTAL FREE ENERGY PREDICTED BY IDOCK:   -7.91 KCAL/MOL
REMARK 923 INTER-LIGAND FREE ENERGY PREDICTED BY IDOCK:   -6.61 KCAL/MOL
REMARK 924 INTRA-LIGAND FREE ENERGY PREDICTED BY IDOCK:   -1.30 KCAL/MOL
REMARK 927      BINDING AFFINITY PREDICTED BY RF-SCORE:    0.00 PKD
ROOT
HETATM    1  C   UNL     1      -8.947   9.001  66.638  1.00  0.00    -0.163 C  
HETATM    2  C   UNL     1     -10.323   8.326  66.745  1.00  0.00    -0.290 C  
ENDROOT
BRANCH   2   3
HETATM    3  N   UNL     1     -11.089   8.834  67.907  1.00  0.00    -0.435 NA 
HETATM    4  H   UNL     1     -10.670   8.498  68.774  1.00  0.00     0.000 HD 
BRANCH   3   5
HETATM    5  C   UNL     1     -11.262  10.286  67.965  1.00  0.00    -0.235 C  
BRANCH   5   6
HETATM    6  C   UNL     1     -10.771  10.902  69.283  1.00  0.00    -0.271 C  
BRANCH   6   7
HETATM    7  C   UNL     1     -10.917   9.944  70.438  1.00  0.00    -0.379 A  
HETATM    8  C   UNL     1     -12.183   9.678  70.979  1.00  0.00    -0.409 A  
HETATM    9  C   UNL     1     -11.187   8.230  72.618  1.00  0.00    -0.340 A  
HETATM   10  C   UNL     1     -12.320   8.818  72.067  1.00  0.00    -0.444 A  
HETATM   11  O   UNL     1     -11.273   7.395  73.691  1.00  0.00    -0.588 OA 
HETATM   12  C   UNL     1      -9.924   8.478  72.089  1.00  0.00    -0.387 A  
HETATM   13  H   UNL     1     -10.499   6.993  74.068  1.00  0.00     0.000 HD 
HETATM   14  C   UNL     1      -9.787   9.338  71.001  1.00  0.00    -0.355 A  
ENDBRANCH   6   7
ENDBRANCH   5   6
ENDBRANCH   3   5
ENDBRANCH   2   3
BRANCH   2  15
HETATM   15  C   UNL     1     -10.212   6.773  66.870  1.00  0.00    -0.231 C  
HETATM   16  O   UNL     1     -11.407   6.147  66.382  1.00  0.00    -0.715 OA 
HETATM   17  H   UNL     1     -11.339   5.202  66.457  1.00  0.00     0.000 HD 
BRANCH  15  18
HETATM   18  C   UNL     1      -9.893   6.301  68.278  1.00  0.00    -0.134 A  
HETATM   19  C   UNL     1     -10.930   5.896  69.135  1.00  0.00    -0.382 A  
HETATM   20  C   UNL     1      -8.289   5.780  70.030  1.00  0.00    -0.123 A  
HETATM   21  H   UNL     1      -8.112   4.974  72.431  1.00  0.00     0.000 HD 
HETATM   22  C   UNL     1     -10.649   5.453  70.431  1.00  0.00    -0.322 A  
HETATM   23  C   UNL     1      -9.330   5.409  70.870  1.00  0.00    -0.156 A  
HETATM   24  C   UNL     1      -8.568   6.223  68.739  1.00  0.00    -0.122 A  
HETATM   25  O   UNL     1      -9.012   5.004  72.131  1.00  0.00    -0.130 OA 
ENDBRANCH  15  18
ENDBRANCH   2  15
TORSDOF 6
ENDMDL
MODEL      122
REMARK 921   NORMALIZED FREE ENERGY PREDICTED BY IDOCK:   -5.08 KCAL/MOL
REMARK 922        TOTAL FREE ENERGY PREDICTED BY IDOCK:   -7.90 KCAL/MOL
REMARK 923 INTER-LIGAND FREE ENERGY PREDICTED BY IDOCK:   -7.32 KCAL/MOL
REMARK 924 INTRA-LIGAND FREE ENERGY PREDICTED BY IDOCK:   -0.58 KCAL/MOL
REMARK 927      BINDING AFFINITY PREDICTED BY RF-SCORE:    0.00 PKD
ROOT
HETATM    1  C   UNL     1      -6.926  12.132  67.116  1.00  0.00    -0.117 C  
HETATM    2  C   UNL     1      -8.376  12.513  67.453  1.00  0.00    -0.182 C  
ENDROOT
BRANCH   2   3
HETATM    3  N   UNL     1      -8.779  11.998  68.783  1.00  0.00    -0.369 NA 
HETATM    4  H   UNL     1      -9.293  12.716  69.293  1.00  0.00     0.000 HD 
BRANCH   3   5
HETATM    5  C   UNL     1      -9.541  10.749  68.774  1.00  0.00    -0.189 C  
BRANCH   5   6
HETATM    6  C   UNL     1      -9.196   9.820  69.946  1.00  0.00    -0.263 C  
BRANCH   6   7
HETATM    7  C   UNL     1     -10.413   9.100  70.467  1.00  0.00    -0.289 A  
HETATM    8  C   UNL     1     -11.275   9.735  71.373  1.00  0.00    -0.368 A  
HETATM    9  C   UNL     1     -12.625   7.750  71.490  1.00  0.00    -0.333 A  
HETATM   10  C   UNL     1     -12.384   9.061  71.883  1.00  0.00    -0.455 A  
HETATM   11  O   UNL     1     -13.689   7.049  71.974  1.00  0.00    -0.542 OA 
HETATM   12  C   UNL     1     -11.784   7.108  70.587  1.00  0.00    -0.348 A  
HETATM   13  H   UNL     1     -13.854   6.153  71.706  1.00  0.00     0.000 HD 
HETATM   14  C   UNL     1     -10.674   7.781  70.077  1.00  0.00    -0.245 A  
ENDBRANCH   6   7
ENDBRANCH   5   6
ENDBRANCH   3   5
ENDBRANCH   2   3
BRANCH   2  15
HETATM   15  C   UNL     1      -9.390  11.980  66.392  1.00  0.00    -0.228 C  
HETATM   16  O   UNL     1      -8.712  11.178  65.414  1.00  0.00    -0.311 OA 
HETATM   17  H   UNL     1      -9.329  10.853  64.768  1.00  0.00     0.000 HD 
BRANCH  15  18
HETATM   18  C   UNL     1     -10.197  13.078  65.722  1.00  0.00    -0.297 A  
HETATM   19  C   UNL     1     -11.178  12.749  64.771  1.00  0.00    -0.339 A  
HETATM   20  C   UNL     1     -10.766  15.426  65.443  1.00  0.00    -0.416 A  
HETATM   21  H   UNL     1     -12.258  16.999  64.123  1.00  0.00     0.000 HD 
HETATM   22  C   UNL     1     -11.932  13.750  64.152  1.00  0.00    -0.473 A  
HETATM   23  C   UNL     1     -11.711  15.081  64.487  1.00  0.00    -0.368 A  
HETATM   24  C   UNL     1     -10.012  14.429  66.060  1.00  0.00    -0.337 A  
HETATM   25  O   UNL     1     -12.410  16.090  63.895  1.00  0.00    -0.855 OA 
ENDBRANCH  15  18
ENDBRANCH   2  15
TORSDOF 6
ENDMDL
MODEL      123
REMARK 921   NORMALIZED FREE ENERGY PREDICTED BY IDOCK:   -5.08 KCAL/MOL
REMARK 922        TOTAL FREE ENERGY PREDICTED BY IDOCK:   -7.90 KCAL/MOL
REMARK 923 INTER-LIGAND FREE ENERGY PREDICTED BY IDOCK:   -6.54 KCAL/MOL
REMARK 924 INTRA-LIGAND FREE ENERGY PREDICTED BY IDOCK:   -1.36 KCAL/MOL
REMARK 927      BINDING AFFINITY PREDICTED BY RF-SCORE:    0.00 PKD
ROOT
HETATM    1  C   UNL     1      -9.430  11.047  62.796  1.00  0.00    -0.361 C  
HETATM    2  C   UNL     1     -10.136  10.727  64.122  1.00  0.00    -0.353 C  
ENDROOT
BRANCH   2   3
HETATM    3  N   UNL     1     -11.382  11.512  64.279  1.00  0.00    -0.291 NA 
HETATM    4  H   UNL     1     -11.506  11.777  65.257  1.00  0.00     0.000 HD 
BRANCH   3   5
HETATM    5  C   UNL     1     -11.499  12.693  63.422  1.00  0.00    -0.435 C  
BRANCH   5   6
HETATM    6  C   UNL     1     -11.971  13.944  64.176  1.00  0.00    -0.464 C  
BRANCH   6   7
HETATM    7  C   UNL     1     -11.328  14.056  65.534  1.00  0.00    -0.313 A  
HETATM    8  C   UNL     1     -12.064  13.763  66.691  1.00  0.00    -0.471 A  
HETATM    9  C   UNL     1     -10.166  14.330  68.052  1.00  0.00    -0.226 A  
HETATM   10  C   UNL     1     -11.482  13.896  67.951  1.00  0.00    -0.350 A  
HETATM   11  O   UNL     1      -9.563  14.488  69.264  1.00  0.00    -0.393 OA 
HETATM   12  C   UNL     1      -9.419  14.618  66.914  1.00  0.00    -0.259 A  
HETATM   13  H   UNL     1      -8.663  14.784  69.333  1.00  0.00     0.000 HD 
HETATM   14  C   UNL     1     -10.000  14.485  65.653  1.00  0.00    -0.376 A  
ENDBRANCH   6   7
ENDBRANCH   5   6
ENDBRANCH   3   5
ENDBRANCH   2   3
BRANCH   2  15
HETATM   15  C   UNL     1      -9.223  11.000  65.360  1.00  0.00    -0.210 C  
HETATM   16  O   UNL     1      -7.851  10.736  65.035  1.00  0.00    -0.336 OA 
HETATM   17  H   UNL     1      -7.296  10.903  65.787  1.00  0.00     0.000 HD 
BRANCH  15  18
HETATM   18  C   UNL     1      -9.641  10.231  66.601  1.00  0.00    -0.220 A  
HETATM   19  C   UNL     1     -10.083   8.902  66.489  1.00  0.00    -0.356 A  
HETATM   20  C   UNL     1      -9.938  10.089  69.011  1.00  0.00    -0.203 A  
HETATM   21  H   UNL     1     -10.732   8.541  70.860  1.00  0.00     0.000 HD 
HETATM   22  C   UNL     1     -10.464   8.181  67.625  1.00  0.00    -0.300 A  
HETATM   23  C   UNL     1     -10.397   8.787  68.875  1.00  0.00    -0.212 A  
HETATM   24  C   UNL     1      -9.559  10.809  67.880  1.00  0.00    -0.171 A  
HETATM   25  O   UNL     1     -10.777   8.128  70.006  1.00  0.00    -0.240 OA 
ENDBRANCH  15  18
ENDBRANCH   2  15
TORSDOF 6
ENDMDL
MODEL      124
REMARK 921   NORMALIZED FREE ENERGY PREDICTED BY IDOCK:   -5.08 KCAL/MOL
REMARK 922        TOTAL FREE ENERGY PREDICTED BY IDOCK:   -7.90 KCAL/MOL
REMARK 923 INTER-LIGAND FREE ENERGY PREDICTED BY IDOCK:   -7.26 KCAL/MOL
REMARK 924 INTRA-LIGAND FREE ENERGY PREDICTED BY IDOCK:   -0.64 KCAL/MOL
REMARK 927      BINDING AFFINITY PREDICTED BY RF-SCORE:    0.00 PKD
ROOT
HETATM    1  C   UNL     1     -10.931  15.199  65.714  1.00  0.00    -0.350 C  
HETATM    2  C   UNL     1      -9.741  14.368  66.217  1.00  0.00    -0.310 C  
ENDROOT
BRANCH   2   3
HETATM    3  N   UNL     1     -10.153  13.410  67.269  1.00  0.00    -0.236 NA 
HETATM    4  H   UNL     1      -9.493  13.442  68.047  1.00  0.00     0.000 HD 
BRANCH   3   5
HETATM    5  C   UNL     1     -11.520  13.567  67.768  1.00  0.00    -0.315 C  
BRANCH   5   6
HETATM    6  C   UNL     1     -11.582  14.029  69.231  1.00  0.00    -0.356 C  
BRANCH   6   7
HETATM    7  C   UNL     1     -12.158  12.965  70.130  1.00  0.00    -0.373 A  
HETATM    8  C   UNL     1     -12.901  13.326  71.264  1.00  0.00    -0.398 A  
HETATM    9  C   UNL     1     -13.167  11.006  71.836  1.00  0.00    -0.398 A  
HETATM   10  C   UNL     1     -13.409  12.346  72.115  1.00  0.00    -0.508 A  
HETATM   11  O   UNL     1     -13.632  10.017  72.649  1.00  0.00    -0.623 OA 
HETATM   12  C   UNL     1     -12.438  10.632  70.711  1.00  0.00    -0.480 A  
HETATM   13  H   UNL     1     -13.467   9.101  72.458  1.00  0.00     0.000 HD 
HETATM   14  C   UNL     1     -11.929  11.611  69.859  1.00  0.00    -0.414 A  
ENDBRANCH   6   7
ENDBRANCH   5   6
ENDBRANCH   3   5
ENDBRANCH   2   3
BRANCH   2  15
HETATM   15  C   UNL     1      -8.594  15.261  66.786  1.00  0.00    -0.265 C  
HETATM   16  O   UNL     1      -7.967  14.614  67.903  1.00  0.00    -0.123 OA 
HETATM   17  H   UNL     1      -7.268  15.158  68.249  1.00  0.00     0.000 HD 
BRANCH  15  18
HETATM   18  C   UNL     1      -9.046  16.662  67.159  1.00  0.00    -0.227 A  
HETATM   19  C   UNL     1      -9.736  16.881  68.363  1.00  0.00    -0.263 A  
HETATM   20  C   UNL     1      -9.170  19.047  66.696  1.00  0.00    -0.351 A  
HETATM   21  H   UNL     1     -10.087  21.234  67.601  1.00  0.00     0.000 HD 
HETATM   22  C   UNL     1     -10.152  18.167  68.721  1.00  0.00    -0.392 A  
HETATM   23  C   UNL     1      -9.873  19.237  67.877  1.00  0.00    -0.350 A  
HETATM   24  C   UNL     1      -8.756  17.765  66.338  1.00  0.00    -0.255 A  
HETATM   25  O   UNL     1     -10.277  20.504  68.177  1.00  0.00    -0.274 OA 
ENDBRANCH  15  18
ENDBRANCH   2  15
TORSDOF 6
ENDMDL
MODEL      125
REMARK 921   NORMALIZED FREE ENERGY PREDICTED BY IDOCK:   -5.07 KCAL/MOL
REMARK 922        TOTAL FREE ENERGY PREDICTED BY IDOCK:   -7.89 KCAL/MOL
REMARK 923 INTER-LIGAND FREE ENERGY PREDICTED BY IDOCK:   -6.45 KCAL/MOL
REMARK 924 INTRA-LIGAND FREE ENERGY PREDICTED BY IDOCK:   -1.44 KCAL/MOL
REMARK 927      BINDING AFFINITY PREDICTED BY RF-SCORE:    0.00 PKD
ROOT
HETATM    1  C   UNL     1      -7.437   9.892  65.951  1.00  0.00    -0.108 C  
HETATM    2  C   UNL     1      -8.713  10.747  65.958  1.00  0.00    -0.183 C  
ENDROOT
BRANCH   2   3
HETATM    3  N   UNL     1      -9.687  10.262  66.962  1.00  0.00    -0.170 NA 
HETATM    4  H   UNL     1      -9.605   9.250  67.067  1.00  0.00     0.000 HD 
BRANCH   3   5
HETATM    5  C   UNL     1      -9.619  10.908  68.274  1.00  0.00    -0.167 C  
BRANCH   5   6
HETATM    6  C   UNL     1     -10.915  11.635  68.659  1.00  0.00    -0.266 C  
BRANCH   6   7
HETATM    7  C   UNL     1     -10.804  13.124  68.451  1.00  0.00    -0.283 A  
HETATM    8  C   UNL     1      -9.544  13.728  68.326  1.00  0.00    -0.219 A  
HETATM    9  C   UNL     1     -10.588  15.885  68.139  1.00  0.00    -0.280 A  
HETATM   10  C   UNL     1      -9.436  15.108  68.167  1.00  0.00    -0.201 A  
HETATM   11  O   UNL     1     -10.528  17.239  68.000  1.00  0.00    -0.342 OA 
HETATM   12  C   UNL     1     -11.846  15.301  68.254  1.00  0.00    -0.251 A  
HETATM   13  H   UNL     1     -11.315  17.769  67.981  1.00  0.00     0.000 HD 
HETATM   14  C   UNL     1     -11.956  13.920  68.415  1.00  0.00    -0.391 A  
ENDBRANCH   6   7
ENDBRANCH   5   6
ENDBRANCH   3   5
ENDBRANCH   2   3
BRANCH   2  15
HETATM   15  C   UNL     1      -9.415  10.772  64.563  1.00  0.00    -0.252 C  
HETATM   16  O   UNL     1      -8.442  10.672  63.513  1.00  0.00    -0.248 OA 
HETATM   17  H   UNL     1      -8.870  10.686  62.665  1.00  0.00     0.000 HD 
BRANCH  15  18
HETATM   18  C   UNL     1     -10.308  11.983  64.357  1.00  0.00    -0.342 A  
HETATM   19  C   UNL     1     -11.445  11.887  63.538  1.00  0.00    -0.523 A  
HETATM   20  C   UNL     1     -10.874  14.305  64.810  1.00  0.00    -0.420 A  
HETATM   21  H   UNL     1     -12.546  16.125  64.231  1.00  0.00     0.000 HD 
HETATM   22  C   UNL     1     -12.278  12.993  63.345  1.00  0.00    -0.552 A  
HETATM   23  C   UNL     1     -11.978  14.195  63.976  1.00  0.00    -0.327 A  
HETATM   24  C   UNL     1     -10.042  13.203  65.002  1.00  0.00    -0.240 A  
HETATM   25  O   UNL     1     -12.751  15.304  63.800  1.00  0.00    -0.687 OA 
ENDBRANCH  15  18
ENDBRANCH   2  15
TORSDOF 6
ENDMDL
MODEL      126
REMARK 921   NORMALIZED FREE ENERGY PREDICTED BY IDOCK:   -5.05 KCAL/MOL
REMARK 922        TOTAL FREE ENERGY PREDICTED BY IDOCK:   -7.86 KCAL/MOL
REMARK 923 INTER-LIGAND FREE ENERGY PREDICTED BY IDOCK:   -7.39 KCAL/MOL
REMARK 924 INTRA-LIGAND FREE ENERGY PREDICTED BY IDOCK:   -0.47 KCAL/MOL
REMARK 927      BINDING AFFINITY PREDICTED BY RF-SCORE:    0.00 PKD
ROOT
HETATM    1  C   UNL     1     -11.393  12.882  69.365  1.00  0.00    -0.265 C  
HETATM    2  C   UNL     1     -12.012  11.885  68.374  1.00  0.00    -0.182 C  
ENDROOT
BRANCH   2   3
HETATM    3  N   UNL     1     -12.110  10.527  68.958  1.00  0.00    -0.713 NA 
HETATM    4  H   UNL     1     -11.208  10.055  68.893  1.00  0.00     0.000 HD 
BRANCH   3   5
HETATM    5  C   UNL     1     -12.611  10.462  70.331  1.00  0.00    -0.254 C  
BRANCH   5   6
HETATM    6  C   UNL     1     -11.550  10.007  71.342  1.00  0.00    -0.383 C  
BRANCH   6   7
HETATM    7  C   UNL     1     -11.221   8.544  71.188  1.00  0.00    -0.317 A  
HETATM    8  C   UNL     1      -9.936   8.147  70.790  1.00  0.00    -0.209 A  
HETATM    9  C   UNL     1     -10.626   5.845  70.831  1.00  0.00    -0.256 A  
HETATM   10  C   UNL     1      -9.637   6.797  70.615  1.00  0.00    -0.174 A  
HETATM   11  O   UNL     1     -10.382   4.516  70.658  1.00  0.00    -0.150 OA 
HETATM   12  C   UNL     1     -11.904   6.222  71.234  1.00  0.00    -0.247 A  
HETATM   13  H   UNL     1     -11.058   3.865  70.806  1.00  0.00     0.000 HD 
HETATM   14  C   UNL     1     -12.204   7.572  71.409  1.00  0.00    -0.363 A  
ENDBRANCH   6   7
ENDBRANCH   5   6
ENDBRANCH   3   5
ENDBRANCH   2   3
BRANCH   2  15
HETATM   15  C   UNL     1     -11.200  11.792  67.044  1.00  0.00    -0.322 C  
HETATM   16  O   UNL     1      -9.828  11.475  67.319  1.00  0.00    -0.188 OA 
HETATM   17  H   UNL     1      -9.333  11.418  66.510  1.00  0.00     0.000 HD 
BRANCH  15  18
HETATM   18  C   UNL     1     -11.303  13.039  66.183  1.00  0.00    -0.349 A  
HETATM   19  C   UNL     1     -10.274  13.995  66.204  1.00  0.00    -0.308 A  
HETATM   20  C   UNL     1     -12.476  14.391  64.536  1.00  0.00    -0.362 A  
HETATM   21  H   UNL     1     -12.345  16.581  63.259  1.00  0.00     0.000 HD 
HETATM   22  C   UNL     1     -10.353  15.144  65.412  1.00  0.00    -0.415 A  
HETATM   23  C   UNL     1     -11.460  15.335  64.593  1.00  0.00    -0.354 A  
HETATM   24  C   UNL     1     -12.398  13.246  65.326  1.00  0.00    -0.525 A  
HETATM   25  O   UNL     1     -11.589  16.450  63.819  1.00  0.00    -1.055 OA 
ENDBRANCH  15  18
ENDBRANCH   2  15
TORSDOF 6
ENDMDL
MODEL      127
REMARK 921   NORMALIZED FREE ENERGY PREDICTED BY IDOCK:   -5.05 KCAL/MOL
REMARK 922        TOTAL FREE ENERGY PREDICTED BY IDOCK:   -7.86 KCAL/MOL
REMARK 923 INTER-LIGAND FREE ENERGY PREDICTED BY IDOCK:   -6.58 KCAL/MOL
REMARK 924 INTRA-LIGAND FREE ENERGY PREDICTED BY IDOCK:   -1.28 KCAL/MOL
REMARK 927      BINDING AFFINITY PREDICTED BY RF-SCORE:    0.00 PKD
ROOT
HETATM    1  C   UNL     1     -12.311  12.328  70.535  1.00  0.00    -0.349 C  
HETATM    2  C   UNL     1     -11.429  11.958  69.332  1.00  0.00    -0.302 C  
ENDROOT
BRANCH   2   3
HETATM    3  N   UNL     1     -10.478  10.873  69.668  1.00  0.00    -0.433 NA 
HETATM    4  H   UNL     1     -10.988  10.008  69.847  1.00  0.00     0.000 HD 
BRANCH   3   5
HETATM    5  C   UNL     1      -9.418  10.635  68.688  1.00  0.00    -0.176 C  
BRANCH   5   6
HETATM    6  C   UNL     1      -9.764   9.533  67.676  1.00  0.00    -0.188 C  
BRANCH   6   7
HETATM    7  C   UNL     1      -9.380   9.921  66.272  1.00  0.00    -0.224 A  
HETATM    8  C   UNL     1      -8.063   9.742  65.825  1.00  0.00    -0.119 A  
HETATM    9  C   UNL     1      -8.645  10.703  63.700  1.00  0.00    -0.110 A  
HETATM   10  C   UNL     1      -7.695  10.129  64.537  1.00  0.00    -0.138 A  
HETATM   11  O   UNL     1      -8.326  11.110  62.440  1.00  0.00    -0.392 OA 
HETATM   12  C   UNL     1      -9.957  10.882  64.126  1.00  0.00    -0.403 A  
HETATM   13  H   UNL     1      -8.974  11.502  61.867  1.00  0.00     0.000 HD 
HETATM   14  C   UNL     1     -10.326  10.495  65.414  1.00  0.00    -0.292 A  
ENDBRANCH   6   7
ENDBRANCH   5   6
ENDBRANCH   3   5
ENDBRANCH   2   3
BRANCH   2  15
HETATM   15  C   UNL     1     -10.614  13.179  68.799  1.00  0.00    -0.201 C  
HETATM   16  O   UNL     1     -10.595  14.230  69.776  1.00  0.00    -0.448 OA 
HETATM   17  H   UNL     1     -10.099  14.973  69.452  1.00  0.00     0.000 HD 
BRANCH  15  18
HETATM   18  C   UNL     1     -11.108  13.698  67.460  1.00  0.00    -0.296 A  
HETATM   19  C   UNL     1     -12.163  13.046  66.799  1.00  0.00    -0.261 A  
HETATM   20  C   UNL     1     -11.023  15.319  65.648  1.00  0.00    -0.348 A  
HETATM   21  H   UNL     1     -12.062  15.896  63.405  1.00  0.00     0.000 HD 
HETATM   22  C   UNL     1     -12.631  13.517  65.569  1.00  0.00    -0.531 A  
HETATM   23  C   UNL     1     -12.049  14.645  65.001  1.00  0.00    -0.349 A  
HETATM   24  C   UNL     1     -10.555  14.850  66.874  1.00  0.00    -0.300 A  
HETATM   25  O   UNL     1     -12.460  15.127  63.794  1.00  0.00    -0.719 OA 
ENDBRANCH  15  18
ENDBRANCH   2  15
TORSDOF 6
ENDMDL
MODEL      128
REMARK 921   NORMALIZED FREE ENERGY PREDICTED BY IDOCK:   -5.00 KCAL/MOL
REMARK 922        TOTAL FREE ENERGY PREDICTED BY IDOCK:   -7.80 KCAL/MOL
REMARK 923 INTER-LIGAND FREE ENERGY PREDICTED BY IDOCK:   -7.27 KCAL/MOL
REMARK 924 INTRA-LIGAND FREE ENERGY PREDICTED BY IDOCK:   -0.53 KCAL/MOL
REMARK 927      BINDING AFFINITY PREDICTED BY RF-SCORE:    0.00 PKD
ROOT
HETATM    1  C   UNL     1     -12.344  13.325  63.521  1.00  0.00    -0.442 C  
HETATM    2  C   UNL     1     -11.051  13.762  64.225  1.00  0.00    -0.283 C  
ENDROOT
BRANCH   2   3
HETATM    3  N   UNL     1      -9.919  12.867  63.888  1.00  0.00    -0.724 NA 
HETATM    4  H   UNL     1      -9.242  12.860  64.651  1.00  0.00     0.000 HD 
BRANCH   3   5
HETATM    5  C   UNL     1     -10.282  11.495  63.529  1.00  0.00    -0.420 C  
BRANCH   5   6
HETATM    6  C   UNL     1      -9.277  10.451  64.035  1.00  0.00    -0.300 C  
BRANCH   6   7
HETATM    7  C   UNL     1      -9.712   9.841  65.342  1.00  0.00    -0.383 A  
HETATM    8  C   UNL     1     -10.474  10.590  66.252  1.00  0.00    -0.250 A  
HETATM    9  C   UNL     1     -10.461   8.745  67.792  1.00  0.00    -0.229 A  
HETATM   10  C   UNL     1     -10.852  10.040  67.476  1.00  0.00    -0.326 A  
HETATM   11  O   UNL     1     -10.796   8.174  68.983  1.00  0.00    -0.400 OA 
HETATM   12  C   UNL     1      -9.712   7.986  66.898  1.00  0.00    -0.291 A  
HETATM   13  H   UNL     1     -10.529   7.288  69.200  1.00  0.00     0.000 HD 
HETATM   14  C   UNL     1      -9.333   8.535  65.674  1.00  0.00    -0.122 A  
ENDBRANCH   6   7
ENDBRANCH   5   6
ENDBRANCH   3   5
ENDBRANCH   2   3
BRANCH   2  15
HETATM   15  C   UNL     1     -11.205  13.796  65.779  1.00  0.00    -0.297 C  
HETATM   16  O   UNL     1     -12.490  13.287  66.163  1.00  0.00    -0.379 OA 
HETATM   17  H   UNL     1     -12.584  13.307  67.108  1.00  0.00     0.000 HD 
BRANCH  15  18
HETATM   18  C   UNL     1     -10.969  15.171  66.380  1.00  0.00    -0.329 A  
HETATM   19  C   UNL     1     -10.476  16.214  65.578  1.00  0.00    -0.407 A  
HETATM   20  C   UNL     1     -11.055  16.708  68.263  1.00  0.00    -0.295 A  
HETATM   21  H   UNL     1     -10.521  19.094  68.948  1.00  0.00     0.000 HD 
HETATM   22  C   UNL     1     -10.261  17.485  66.117  1.00  0.00    -0.339 A  
HETATM   23  C   UNL     1     -10.543  17.717  67.459  1.00  0.00    -0.359 A  
HETATM   24  C   UNL     1     -11.269  15.440  67.726  1.00  0.00    -0.321 A  
HETATM   25  O   UNL     1     -10.329  18.935  68.031  1.00  0.00    -0.376 OA 
ENDBRANCH  15  18
ENDBRANCH   2  15
TORSDOF 6
ENDMDL
MODEL      129
REMARK 921   NORMALIZED FREE ENERGY PREDICTED BY IDOCK:   -4.93 KCAL/MOL
REMARK 922        TOTAL FREE ENERGY PREDICTED BY IDOCK:   -7.70 KCAL/MOL
REMARK 923 INTER-LIGAND FREE ENERGY PREDICTED BY IDOCK:   -6.96 KCAL/MOL
REMARK 924 INTRA-LIGAND FREE ENERGY PREDICTED BY IDOCK:   -0.75 KCAL/MOL
REMARK 927      BINDING AFFINITY PREDICTED BY RF-SCORE:    0.00 PKD
ROOT
HETATM    1  C   UNL     1     -11.457  14.419  66.007  1.00  0.00    -0.349 C  
HETATM    2  C   UNL     1     -10.402  14.507  67.120  1.00  0.00    -0.265 C  
ENDROOT
BRANCH   2   3
HETATM    3  N   UNL     1      -9.041  14.233  66.604  1.00  0.00    -0.371 NA 
HETATM    4  H   UNL     1      -9.041  14.275  65.584  1.00  0.00     0.000 HD 
BRANCH   3   5
HETATM    5  C   UNL     1      -7.978  15.084  67.138  1.00  0.00    -0.206 C  
BRANCH   5   6
HETATM    6  C   UNL     1      -8.501  16.379  67.777  1.00  0.00    -0.172 C  
BRANCH   6   7
HETATM    7  C   UNL     1      -8.053  17.600  67.016  1.00  0.00    -0.243 A  
HETATM    8  C   UNL     1      -8.836  18.764  67.024  1.00  0.00    -0.302 A  
HETATM    9  C   UNL     1      -7.267  19.837  65.553  1.00  0.00    -0.252 A  
HETATM   10  C   UNL     1      -8.441  19.885  66.295  1.00  0.00    -0.373 A  
HETATM   11  O   UNL     1      -6.851  20.904  64.815  1.00  0.00    -0.528 OA 
HETATM   12  C   UNL     1      -6.475  18.693  65.540  1.00  0.00    -0.321 A  
HETATM   13  H   UNL     1      -6.048  20.872  64.307  1.00  0.00     0.000 HD 
HETATM   14  C   UNL     1      -6.869  17.571  66.268  1.00  0.00    -0.323 A  
ENDBRANCH   6   7
ENDBRANCH   5   6
ENDBRANCH   3   5
ENDBRANCH   2   3
BRANCH   2  15
HETATM   15  C   UNL     1     -10.693  13.514  68.290  1.00  0.00    -0.258 C  
HETATM   16  O   UNL     1     -11.503  12.424  67.829  1.00  0.00    -0.280 OA 
HETATM   17  H   UNL     1     -11.679  11.819  68.541  1.00  0.00     0.000 HD 
BRANCH  15  18
HETATM   18  C   UNL     1     -11.322  14.177  69.504  1.00  0.00    -0.308 A  
HETATM   19  C   UNL     1     -12.323  13.509  70.229  1.00  0.00    -0.370 A  
HETATM   20  C   UNL     1     -11.478  16.034  71.067  1.00  0.00    -0.460 A  
HETATM   21  H   UNL     1     -12.749  16.857  73.104  1.00  0.00     0.000 HD 
HETATM   22  C   UNL     1     -12.906  14.105  71.351  1.00  0.00    -0.428 A  
HETATM   23  C   UNL     1     -12.483  15.368  71.753  1.00  0.00    -0.378 A  
HETATM   24  C   UNL     1     -10.897  15.441  69.947  1.00  0.00    -0.305 A  
HETATM   25  O   UNL     1     -13.037  15.995  72.829  1.00  0.00    -0.465 OA 
ENDBRANCH  15  18
ENDBRANCH   2  15
TORSDOF 6
ENDMDL
MODEL      130
REMARK 921   NORMALIZED FREE ENERGY PREDICTED BY IDOCK:   -4.92 KCAL/MOL
REMARK 922        TOTAL FREE ENERGY PREDICTED BY IDOCK:   -7.69 KCAL/MOL
REMARK 923 INTER-LIGAND FREE ENERGY PREDICTED BY IDOCK:   -7.33 KCAL/MOL
REMARK 924 INTRA-LIGAND FREE ENERGY PREDICTED BY IDOCK:   -0.37 KCAL/MOL
REMARK 927      BINDING AFFINITY PREDICTED BY RF-SCORE:    0.00 PKD
ROOT
HETATM    1  C   UNL     1     -14.046   8.256  71.537  1.00  0.00    -0.446 C  
HETATM    2  C   UNL     1     -12.752   8.544  72.314  1.00  0.00    -0.367 C  
ENDROOT
BRANCH   2   3
HETATM    3  N   UNL     1     -12.000   9.673  71.719  1.00  0.00    -0.381 NA 
HETATM    4  H   UNL     1     -11.295   9.318  71.072  1.00  0.00     0.000 HD 
BRANCH   3   5
HETATM    5  C   UNL     1     -12.811  10.698  71.062  1.00  0.00    -0.402 C  
BRANCH   5   6
HETATM    6  C   UNL     1     -13.361  11.750  72.036  1.00  0.00    -0.417 C  
BRANCH   6   7
HETATM    7  C   UNL     1     -12.881  13.137  71.692  1.00  0.00    -0.388 A  
HETATM    8  C   UNL     1     -12.162  13.362  70.509  1.00  0.00    -0.425 A  
HETATM    9  C   UNL     1     -11.929  15.684  71.085  1.00  0.00    -0.409 A  
HETATM   10  C   UNL     1     -11.688  14.637  70.203  1.00  0.00    -0.353 A  
HETATM   11  O   UNL     1     -11.472  16.943  70.832  1.00  0.00    -0.419 OA 
HETATM   12  C   UNL     1     -12.647  15.479  72.258  1.00  0.00    -0.481 A  
HETATM   13  H   UNL     1     -11.636  17.659  71.434  1.00  0.00     0.000 HD 
HETATM   14  C   UNL     1     -13.121  14.204  72.566  1.00  0.00    -0.554 A  
ENDBRANCH   6   7
ENDBRANCH   5   6
ENDBRANCH   3   5
ENDBRANCH   2   3
BRANCH   2  15
HETATM   15  C   UNL     1     -11.809   7.301  72.374  1.00  0.00    -0.208 C  
HETATM   16  O   UNL     1     -11.052   7.308  73.593  1.00  0.00    -0.560 OA 
HETATM   17  H   UNL     1     -10.478   6.551  73.629  1.00  0.00     0.000 HD 
BRANCH  15  18
HETATM   18  C   UNL     1     -10.890   7.180  71.170  1.00  0.00    -0.261 A  
HETATM   19  C   UNL     1      -9.556   7.611  71.258  1.00  0.00    -0.171 A  
HETATM   20  C   UNL     1     -10.481   6.495  68.873  1.00  0.00    -0.249 A  
HETATM   21  H   UNL     1      -8.703   6.467  67.060  1.00  0.00     0.000 HD 
HETATM   22  C   UNL     1      -8.699   7.500  70.159  1.00  0.00    -0.142 A  
HETATM   23  C   UNL     1      -9.174   6.951  68.973  1.00  0.00    -0.137 A  
HETATM   24  C   UNL     1     -11.336   6.607  69.967  1.00  0.00    -0.440 A  
HETATM   25  O   UNL     1      -8.379   6.842  67.871  1.00  0.00    -0.119 OA 
ENDBRANCH  15  18
ENDBRANCH   2  15
TORSDOF 6
ENDMDL
MODEL      131
REMARK 921   NORMALIZED FREE ENERGY PREDICTED BY IDOCK:   -4.92 KCAL/MOL
REMARK 922        TOTAL FREE ENERGY PREDICTED BY IDOCK:   -7.69 KCAL/MOL
REMARK 923 INTER-LIGAND FREE ENERGY PREDICTED BY IDOCK:   -6.75 KCAL/MOL
REMARK 924 INTRA-LIGAND FREE ENERGY PREDICTED BY IDOCK:   -0.94 KCAL/MOL
REMARK 927      BINDING AFFINITY PREDICTED BY RF-SCORE:    0.00 PKD
ROOT
HETATM    1  C   UNL     1      -9.512  16.313  66.017  1.00  0.00    -0.369 C  
HETATM    2  C   UNL     1      -9.873  14.823  65.929  1.00  0.00    -0.334 C  
ENDROOT
BRANCH   2   3
HETATM    3  N   UNL     1     -11.337  14.612  65.999  1.00  0.00    -0.343 NA 
HETATM    4  H   UNL     1     -11.808  15.497  66.188  1.00  0.00     0.000 HD 
BRANCH   3   5
HETATM    5  C   UNL     1     -11.941  13.966  64.833  1.00  0.00    -0.395 C  
BRANCH   5   6
HETATM    6  C   UNL     1     -12.157  12.457  65.021  1.00  0.00    -0.468 C  
BRANCH   6   7
HETATM    7  C   UNL     1     -10.983  11.656  64.519  1.00  0.00    -0.376 A  
HETATM    8  C   UNL     1     -10.510  10.559  65.254  1.00  0.00    -0.232 A  
HETATM    9  C   UNL     1      -8.769  10.215  63.633  1.00  0.00    -0.212 A  
HETATM   10  C   UNL     1      -9.405   9.836  64.809  1.00  0.00    -0.327 A  
HETATM   11  O   UNL     1      -7.676   9.545  63.170  1.00  0.00    -0.118 OA 
HETATM   12  C   UNL     1      -9.230  11.296  62.888  1.00  0.00    -0.344 A  
HETATM   13  H   UNL     1      -7.242   9.804  62.366  1.00  0.00     0.000 HD 
HETATM   14  C   UNL     1     -10.335  12.021  63.332  1.00  0.00    -0.468 A  
ENDBRANCH   6   7
ENDBRANCH   5   6
ENDBRANCH   3   5
ENDBRANCH   2   3
BRANCH   2  15
HETATM   15  C   UNL     1      -9.200  13.984  67.061  1.00  0.00    -0.254 C  
HETATM   16  O   UNL     1      -8.509  12.857  66.503  1.00  0.00    -0.420 OA 
HETATM   17  H   UNL     1      -8.100  12.347  67.193  1.00  0.00     0.000 HD 
BRANCH  15  18
HETATM   18  C   UNL     1     -10.171  13.539  68.142  1.00  0.00    -0.249 A  
HETATM   19  C   UNL     1     -10.816  14.495  68.944  1.00  0.00    -0.262 A  
HETATM   20  C   UNL     1     -11.370  11.787  69.328  1.00  0.00    -0.348 A  
HETATM   21  H   UNL     1     -13.010  11.391  71.226  1.00  0.00     0.000 HD 
HETATM   22  C   UNL     1     -11.717  14.099  69.937  1.00  0.00    -0.372 A  
HETATM   23  C   UNL     1     -11.977  12.747  70.126  1.00  0.00    -0.296 A  
HETATM   24  C   UNL     1     -10.472  12.180  68.338  1.00  0.00    -0.242 A  
HETATM   25  O   UNL     1     -12.832  12.315  71.096  1.00  0.00    -0.319 OA 
ENDBRANCH  15  18
ENDBRANCH   2  15
TORSDOF 6
ENDMDL
MODEL      132
REMARK 921   NORMALIZED FREE ENERGY PREDICTED BY IDOCK:   -4.92 KCAL/MOL
REMARK 922        TOTAL FREE ENERGY PREDICTED BY IDOCK:   -7.68 KCAL/MOL
REMARK 923 INTER-LIGAND FREE ENERGY PREDICTED BY IDOCK:   -7.14 KCAL/MOL
REMARK 924 INTRA-LIGAND FREE ENERGY PREDICTED BY IDOCK:   -0.54 KCAL/MOL
REMARK 927      BINDING AFFINITY PREDICTED BY RF-SCORE:    0.00 PKD
ROOT
HETATM    1  C   UNL     1     -13.267  10.943  71.861  1.00  0.00    -0.508 C  
HETATM    2  C   UNL     1     -12.278  10.156  70.988  1.00  0.00    -0.374 C  
ENDROOT
BRANCH   2   3
HETATM    3  N   UNL     1     -12.558  10.343  69.546  1.00  0.00    -0.637 NA 
HETATM    4  H   UNL     1     -13.551  10.533  69.405  1.00  0.00     0.000 HD 
BRANCH   3   5
HETATM    5  C   UNL     1     -11.754  11.362  68.871  1.00  0.00    -0.343 C  
BRANCH   5   6
HETATM    6  C   UNL     1     -11.902  11.338  67.343  1.00  0.00     0.058 C  
BRANCH   6   7
HETATM    7  C   UNL     1     -11.635  12.690  66.733  1.00  0.00    -0.438 A  
HETATM    8  C   UNL     1     -12.143  13.005  65.464  1.00  0.00    -0.501 A  
HETATM    9  C   UNL     1     -11.085  15.161  65.569  1.00  0.00    -0.345 A  
HETATM   10  C   UNL     1     -11.871  14.243  64.883  1.00  0.00    -0.414 A  
HETATM   11  O   UNL     1     -10.783  16.376  65.032  1.00  0.00    -0.638 OA 
HETATM   12  C   UNL     1     -10.580  14.867  66.831  1.00  0.00    -0.300 A  
HETATM   13  H   UNL     1     -10.246  17.004  65.500  1.00  0.00     0.000 HD 
HETATM   14  C   UNL     1     -10.851  13.629  67.414  1.00  0.00    -0.282 A  
ENDBRANCH   6   7
ENDBRANCH   5   6
ENDBRANCH   3   5
ENDBRANCH   2   3
BRANCH   2  15
HETATM   15  C   UNL     1     -12.303   8.626  71.300  1.00  0.00    -0.263 C  
HETATM   16  O   UNL     1     -12.368   8.407  72.716  1.00  0.00    -0.567 OA 
HETATM   17  H   UNL     1     -12.383   7.476  72.906  1.00  0.00     0.000 HD 
BRANCH  15  18
HETATM   18  C   UNL     1     -11.137   7.866  70.691  1.00  0.00    -0.263 A  
HETATM   19  C   UNL     1      -9.831   8.372  70.805  1.00  0.00    -0.215 A  
HETATM   20  C   UNL     1     -10.249   5.945  69.491  1.00  0.00    -0.288 A  
HETATM   21  H   UNL     1      -8.100   4.956  68.572  1.00  0.00     0.000 HD 
HETATM   22  C   UNL     1      -8.749   7.679  70.254  1.00  0.00    -0.144 A  
HETATM   23  C   UNL     1      -8.971   6.476  69.593  1.00  0.00    -0.141 A  
HETATM   24  C   UNL     1     -11.329   6.636  70.039  1.00  0.00    -0.440 A  
HETATM   25  O   UNL     1      -7.948   5.777  69.024  1.00  0.00    -0.095 OA 
ENDBRANCH  15  18
ENDBRANCH   2  15
TORSDOF 6
ENDMDL
MODEL      133
REMARK 921   NORMALIZED FREE ENERGY PREDICTED BY IDOCK:   -4.91 KCAL/MOL
REMARK 922        TOTAL FREE ENERGY PREDICTED BY IDOCK:   -7.68 KCAL/MOL
REMARK 923 INTER-LIGAND FREE ENERGY PREDICTED BY IDOCK:   -7.42 KCAL/MOL
REMARK 924 INTRA-LIGAND FREE ENERGY PREDICTED BY IDOCK:   -0.26 KCAL/MOL
REMARK 927      BINDING AFFINITY PREDICTED BY RF-SCORE:    0.00 PKD
ROOT
HETATM    1  C   UNL     1     -12.161  13.313  65.927  1.00  0.00    -0.493 C  
HETATM    2  C   UNL     1     -11.072  13.220  67.006  1.00  0.00    -0.282 C  
ENDROOT
BRANCH   2   3
HETATM    3  N   UNL     1     -11.192  11.971  67.794  1.00  0.00    -0.251 NA 
HETATM    4  H   UNL     1     -10.415  11.346  67.576  1.00  0.00     0.000 HD 
BRANCH   3   5
HETATM    5  C   UNL     1     -11.304  12.144  69.242  1.00  0.00    -0.266 C  
BRANCH   5   6
HETATM    6  C   UNL     1     -12.589  11.540  69.827  1.00  0.00    -0.006 C  
BRANCH   6   7
HETATM    7  C   UNL     1     -12.292  10.434  70.807  1.00  0.00    -0.463 A  
HETATM    8  C   UNL     1     -13.283   9.993  71.696  1.00  0.00    -0.518 A  
HETATM    9  C   UNL     1     -11.729   8.440  72.670  1.00  0.00    -0.294 A  
HETATM   10  C   UNL     1     -13.003   8.993  72.626  1.00  0.00    -0.339 A  
HETATM   11  O   UNL     1     -11.408   7.470  73.572  1.00  0.00    -0.620 OA 
HETATM   12  C   UNL     1     -10.736   8.860  71.790  1.00  0.00    -0.432 A  
HETATM   13  H   UNL     1     -10.537   7.092  73.602  1.00  0.00     0.000 HD 
HETATM   14  C   UNL     1     -11.015   9.861  70.860  1.00  0.00    -0.392 A  
ENDBRANCH   6   7
ENDBRANCH   5   6
ENDBRANCH   3   5
ENDBRANCH   2   3
BRANCH   2  15
HETATM   15  C   UNL     1     -11.113  14.429  67.993  1.00  0.00    -0.272 C  
HETATM   16  O   UNL     1     -12.468  14.728  68.360  1.00  0.00    -0.584 OA 
HETATM   17  H   UNL     1     -12.493  15.464  68.961  1.00  0.00     0.000 HD 
BRANCH  15  18
HETATM   18  C   UNL     1     -10.414  15.668  67.461  1.00  0.00    -0.285 A  
HETATM   19  C   UNL     1      -9.364  15.540  66.537  1.00  0.00    -0.311 A  
HETATM   20  C   UNL     1     -10.174  18.086  67.344  1.00  0.00    -0.370 A  
HETATM   21  H   UNL     1      -8.783  19.928  66.289  1.00  0.00     0.000 HD 
HETATM   22  C   UNL     1      -8.717  16.673  66.034  1.00  0.00    -0.239 A  
HETATM   23  C   UNL     1      -9.122  17.936  66.452  1.00  0.00    -0.235 A  
HETATM   24  C   UNL     1     -10.820  16.958  67.846  1.00  0.00    -0.310 A  
HETATM   25  O   UNL     1      -8.506  19.066  66.003  1.00  0.00    -0.455 OA 
ENDBRANCH  15  18
ENDBRANCH   2  15
TORSDOF 6
ENDMDL
MODEL      134
REMARK 921   NORMALIZED FREE ENERGY PREDICTED BY IDOCK:   -4.87 KCAL/MOL
REMARK 922        TOTAL FREE ENERGY PREDICTED BY IDOCK:   -7.63 KCAL/MOL
REMARK 923 INTER-LIGAND FREE ENERGY PREDICTED BY IDOCK:   -7.23 KCAL/MOL
REMARK 924 INTRA-LIGAND FREE ENERGY PREDICTED BY IDOCK:   -0.40 KCAL/MOL
REMARK 927      BINDING AFFINITY PREDICTED BY RF-SCORE:    0.00 PKD
ROOT
HETATM    1  C   UNL     1     -11.744  13.638  69.629  1.00  0.00    -0.383 C  
HETATM    2  C   UNL     1     -12.004  13.116  68.208  1.00  0.00    -0.291 C  
ENDROOT
BRANCH   2   3
HETATM    3  N   UNL     1     -11.862  11.643  68.134  1.00  0.00    -0.546 NA 
HETATM    4  H   UNL     1     -11.034  11.400  67.589  1.00  0.00     0.000 HD 
BRANCH   3   5
HETATM    5  C   UNL     1     -11.836  10.945  69.419  1.00  0.00    -0.328 C  
BRANCH   5   6
HETATM    6  C   UNL     1     -10.723   9.891  69.515  1.00  0.00    -0.265 C  
BRANCH   6   7
HETATM    7  C   UNL     1     -11.106   8.753  70.424  1.00  0.00    -0.261 A  
HETATM    8  C   UNL     1     -10.950   7.425  69.999  1.00  0.00    -0.264 A  
HETATM    9  C   UNL     1     -11.879   6.643  72.073  1.00  0.00    -0.324 A  
HETATM   10  C   UNL     1     -11.333   6.370  70.825  1.00  0.00    -0.411 A  
HETATM   11  O   UNL     1     -12.280   5.643  72.906  1.00  0.00    -0.548 OA 
HETATM   12  C   UNL     1     -12.034   7.954  72.513  1.00  0.00    -0.349 A  
HETATM   13  H   UNL     1     -12.653   5.830  73.760  1.00  0.00     0.000 HD 
HETATM   14  C   UNL     1     -11.652   9.011  71.688  1.00  0.00    -0.426 A  
ENDBRANCH   6   7
ENDBRANCH   5   6
ENDBRANCH   3   5
ENDBRANCH   2   3
BRANCH   2  15
HETATM   15  C   UNL     1     -11.042  13.756  67.157  1.00  0.00    -0.302 C  
HETATM   16  O   UNL     1     -11.551  15.026  66.725  1.00  0.00    -0.312 OA 
HETATM   17  H   UNL     1     -10.965  15.416  66.086  1.00  0.00     0.000 HD 
BRANCH  15  18
HETATM   18  C   UNL     1     -10.761  12.855  65.967  1.00  0.00    -0.296 A  
HETATM   19  C   UNL     1     -11.666  12.804  64.894  1.00  0.00    -0.394 A  
HETATM   20  C   UNL     1      -9.335  11.273  64.792  1.00  0.00    -0.166 A  
HETATM   21  H   UNL     1      -9.189   9.866  62.684  1.00  0.00     0.000 HD 
HETATM   22  C   UNL     1     -11.415  11.984  63.790  1.00  0.00    -0.547 A  
HETATM   23  C   UNL     1     -10.255  11.218  63.755  1.00  0.00    -0.377 A  
HETATM   24  C   UNL     1      -9.584  12.090  65.893  1.00  0.00    -0.238 A  
HETATM   25  O   UNL     1      -9.980  10.390  62.708  1.00  0.00    -0.205 OA 
ENDBRANCH  15  18
ENDBRANCH   2  15
TORSDOF 6
ENDMDL
MODEL      135
REMARK 921   NORMALIZED FREE ENERGY PREDICTED BY IDOCK:   -4.87 KCAL/MOL
REMARK 922        TOTAL FREE ENERGY PREDICTED BY IDOCK:   -7.62 KCAL/MOL
REMARK 923 INTER-LIGAND FREE ENERGY PREDICTED BY IDOCK:   -7.27 KCAL/MOL
REMARK 924 INTRA-LIGAND FREE ENERGY PREDICTED BY IDOCK:   -0.35 KCAL/MOL
REMARK 927      BINDING AFFINITY PREDICTED BY RF-SCORE:    0.00 PKD
ROOT
HETATM    1  C   UNL     1      -8.842   7.986  67.120  1.00  0.00    -0.138 C  
HETATM    2  C   UNL     1     -10.358   8.088  66.895  1.00  0.00    -0.338 C  
ENDROOT
BRANCH   2   3
HETATM    3  N   UNL     1     -10.904   9.356  67.433  1.00  0.00    -0.394 NA 
HETATM    4  H   UNL     1     -10.620   9.472  68.406  1.00  0.00     0.000 HD 
BRANCH   3   5
HETATM    5  C   UNL     1     -10.576  10.561  66.670  1.00  0.00    -0.198 C  
BRANCH   5   6
HETATM    6  C   UNL     1     -11.012  11.857  67.368  1.00  0.00    -0.315 C  
BRANCH   6   7
HETATM    7  C   UNL     1     -11.102  13.010  66.402  1.00  0.00    -0.313 A  
HETATM    8  C   UNL     1     -10.169  14.055  66.460  1.00  0.00    -0.279 A  
HETATM    9  C   UNL     1     -11.305  15.180  64.666  1.00  0.00    -0.356 A  
HETATM   10  C   UNL     1     -10.268  15.139  65.590  1.00  0.00    -0.387 A  
HETATM   11  O   UNL     1     -11.448  16.228  63.806  1.00  0.00    -1.475 OA 
HETATM   12  C   UNL     1     -12.235  14.148  64.590  1.00  0.00    -0.465 A  
HETATM   13  H   UNL     1     -12.157  16.256  63.175  1.00  0.00     0.000 HD 
HETATM   14  C   UNL     1     -12.137  13.063  65.461  1.00  0.00    -0.501 A  
ENDBRANCH   6   7
ENDBRANCH   5   6
ENDBRANCH   3   5
ENDBRANCH   2   3
BRANCH   2  15
HETATM   15  C   UNL     1     -11.135   6.901  67.549  1.00  0.00    -0.213 C  
HETATM   16  O   UNL     1     -11.409   7.185  68.928  1.00  0.00    -0.468 OA 
HETATM   17  H   UNL     1     -11.882   6.463  69.326  1.00  0.00     0.000 HD 
BRANCH  15  18
HETATM   18  C   UNL     1     -10.430   5.564  67.404  1.00  0.00    -0.284 A  
HETATM   19  C   UNL     1     -10.277   4.984  66.134  1.00  0.00    -0.288 A  
HETATM   20  C   UNL     1      -9.236   3.677  68.369  1.00  0.00    -0.219 A  
HETATM   21  H   UNL     1      -8.149   1.461  67.779  1.00  0.00     0.000 HD 
HETATM   22  C   UNL     1      -9.625   3.757  65.986  1.00  0.00    -0.168 A  
HETATM   23  C   UNL     1      -9.119   3.110  67.108  1.00  0.00    -0.178 A  
HETATM   24  C   UNL     1      -9.887   4.900  68.518  1.00  0.00    -0.208 A  
HETATM   25  O   UNL     1      -8.494   1.902  67.013  1.00  0.00    -0.081 OA 
ENDBRANCH  15  18
ENDBRANCH   2  15
TORSDOF 6
ENDMDL
MODEL      136
REMARK 921   NORMALIZED FREE ENERGY PREDICTED BY IDOCK:   -4.86 KCAL/MOL
REMARK 922        TOTAL FREE ENERGY PREDICTED BY IDOCK:   -7.60 KCAL/MOL
REMARK 923 INTER-LIGAND FREE ENERGY PREDICTED BY IDOCK:   -7.00 KCAL/MOL
REMARK 924 INTRA-LIGAND FREE ENERGY PREDICTED BY IDOCK:   -0.61 KCAL/MOL
REMARK 927      BINDING AFFINITY PREDICTED BY RF-SCORE:    0.00 PKD
ROOT
HETATM    1  C   UNL     1     -10.247  10.235  67.314  1.00  0.00    -0.267 C  
HETATM    2  C   UNL     1     -11.045  11.345  68.014  1.00  0.00    -0.257 C  
ENDROOT
BRANCH   2   3
HETATM    3  N   UNL     1     -12.059  10.786  68.938  1.00  0.00    -0.749 NA 
HETATM    4  H   UNL     1     -12.181   9.789  68.759  1.00  0.00     0.000 HD 
BRANCH   3   5
HETATM    5  C   UNL     1     -11.811  11.011  70.362  1.00  0.00    -0.367 C  
BRANCH   5   6
HETATM    6  C   UNL     1     -12.448   9.945  71.265  1.00  0.00    -0.479 C  
BRANCH   6   7
HETATM    7  C   UNL     1     -11.419   8.997  71.824  1.00  0.00    -0.442 A  
HETATM    8  C   UNL     1     -11.819   7.888  72.585  1.00  0.00    -0.352 A  
HETATM    9  C   UNL     1      -9.519   7.280  72.923  1.00  0.00    -0.159 A  
HETATM   10  C   UNL     1     -10.869   7.027  73.131  1.00  0.00    -0.350 A  
HETATM   11  O   UNL     1      -8.556   6.473  73.450  1.00  0.00    -0.123 OA 
HETATM   12  C   UNL     1      -9.105   8.371  72.164  1.00  0.00    -0.309 A  
HETATM   13  H   UNL     1      -7.633   6.645  73.307  1.00  0.00     0.000 HD 
HETATM   14  C   UNL     1     -10.054   9.233  71.617  1.00  0.00    -0.232 A  
ENDBRANCH   6   7
ENDBRANCH   5   6
ENDBRANCH   3   5
ENDBRANCH   2   3
BRANCH   2  15
HETATM   15  C   UNL     1     -11.769  12.284  66.998  1.00  0.00    -0.329 C  
HETATM   16  O   UNL     1     -11.617  11.784  65.662  1.00  0.00    -0.274 OA 
HETATM   17  H   UNL     1     -12.059  12.355  65.044  1.00  0.00     0.000 HD 
BRANCH  15  18
HETATM   18  C   UNL     1     -11.319  13.732  67.086  1.00  0.00    -0.344 A  
HETATM   19  C   UNL     1     -11.665  14.509  68.204  1.00  0.00    -0.369 A  
HETATM   20  C   UNL     1     -10.113  15.639  66.178  1.00  0.00    -0.333 A  
HETATM   21  H   UNL     1      -9.558  18.075  66.624  1.00  0.00     0.000 HD 
HETATM   22  C   UNL     1     -11.251  15.841  68.299  1.00  0.00    -0.356 A  
HETATM   23  C   UNL     1     -10.487  16.396  67.279  1.00  0.00    -0.303 A  
HETATM   24  C   UNL     1     -10.525  14.311  66.081  1.00  0.00    -0.294 A  
HETATM   25  O   UNL     1     -10.079  17.696  67.321  1.00  0.00    -0.307 OA 
ENDBRANCH  15  18
ENDBRANCH   2  15
TORSDOF 6
ENDMDL
MODEL      137
REMARK 921   NORMALIZED FREE ENERGY PREDICTED BY IDOCK:   -4.86 KCAL/MOL
REMARK 922        TOTAL FREE ENERGY PREDICTED BY IDOCK:   -7.60 KCAL/MOL
REMARK 923 INTER-LIGAND FREE ENERGY PREDICTED BY IDOCK:   -6.66 KCAL/MOL
REMARK 924 INTRA-LIGAND FREE ENERGY PREDICTED BY IDOCK:   -0.94 KCAL/MOL
REMARK 927      BINDING AFFINITY PREDICTED BY RF-SCORE:    0.00 PKD
ROOT
HETATM    1  C   UNL     1     -11.784   6.599  70.055  1.00  0.00    -0.378 C  
HETATM    2  C   UNL     1     -12.027   6.432  71.563  1.00  0.00    -0.273 C  
ENDROOT
BRANCH   2   3
HETATM    3  N   UNL     1     -13.081   7.353  72.049  1.00  0.00    -0.515 NA 
HETATM    4  H   UNL     1     -12.921   7.576  73.032  1.00  0.00     0.000 HD 
BRANCH   3   5
HETATM    5  C   UNL     1     -13.252   8.584  71.277  1.00  0.00    -0.132 C  
BRANCH   5   6
HETATM    6  C   UNL     1     -13.487   9.821  72.155  1.00  0.00    -0.491 C  
BRANCH   6   7
HETATM    7  C   UNL     1     -12.985  11.080  71.495  1.00  0.00    -0.553 A  
HETATM    8  C   UNL     1     -13.261  12.333  72.061  1.00  0.00    -0.508 A  
HETATM    9  C   UNL     1     -12.123  13.414  70.241  1.00  0.00    -0.349 A  
HETATM   10  C   UNL     1     -12.826  13.501  71.437  1.00  0.00    -0.440 A  
HETATM   11  O   UNL     1     -11.692  14.530  69.589  1.00  0.00    -0.271 OA 
HETATM   12  C   UNL     1     -11.835  12.179  69.670  1.00  0.00    -0.391 A  
HETATM   13  H   UNL     1     -11.211  14.471  68.772  1.00  0.00     0.000 HD 
HETATM   14  C   UNL     1     -12.269  11.010  70.293  1.00  0.00    -0.447 A  
ENDBRANCH   6   7
ENDBRANCH   5   6
ENDBRANCH   3   5
ENDBRANCH   2   3
BRANCH   2  15
HETATM   15  C   UNL     1     -10.733   6.680  72.401  1.00  0.00    -0.223 C  
HETATM   16  O   UNL     1     -11.049   7.390  73.607  1.00  0.00    -0.576 OA 
HETATM   17  H   UNL     1     -10.261   7.540  74.118  1.00  0.00     0.000 HD 
BRANCH  15  18
HETATM   18  C   UNL     1      -9.638   7.393  71.627  1.00  0.00    -0.165 A  
HETATM   19  C   UNL     1      -8.576   6.659  71.073  1.00  0.00    -0.137 A  
HETATM   20  C   UNL     1      -8.672   9.423  70.698  1.00  0.00    -0.263 A  
HETATM   21  H   UNL     1      -6.681  10.294  69.386  1.00  0.00     0.000 HD 
HETATM   22  C   UNL     1      -7.565   7.303  70.353  1.00  0.00    -0.088 A  
HETATM   23  C   UNL     1      -7.619   8.681  70.181  1.00  0.00    -0.069 A  
HETATM   24  C   UNL     1      -9.679   8.782  71.417  1.00  0.00    -0.351 A  
HETATM   25  O   UNL     1      -6.645   9.353  69.503  1.00  0.00    -0.042 OA 
ENDBRANCH  15  18
ENDBRANCH   2  15
TORSDOF 6
ENDMDL
MODEL      138
REMARK 921   NORMALIZED FREE ENERGY PREDICTED BY IDOCK:   -4.85 KCAL/MOL
REMARK 922        TOTAL FREE ENERGY PREDICTED BY IDOCK:   -7.60 KCAL/MOL
REMARK 923 INTER-LIGAND FREE ENERGY PREDICTED BY IDOCK:   -6.97 KCAL/MOL
REMARK 924 INTRA-LIGAND FREE ENERGY PREDICTED BY IDOCK:   -0.62 KCAL/MOL
REMARK 927      BINDING AFFINITY PREDICTED BY RF-SCORE:    0.00 PKD
ROOT
HETATM    1  C   UNL     1     -10.246  10.489  66.738  1.00  0.00    -0.288 C  
HETATM    2  C   UNL     1     -11.366  11.037  67.636  1.00  0.00    -0.281 C  
ENDROOT
BRANCH   2   3
HETATM    3  N   UNL     1     -11.962  12.270  67.070  1.00  0.00    -0.590 NA 
HETATM    4  H   UNL     1     -11.863  13.040  67.732  1.00  0.00     0.000 HD 
BRANCH   3   5
HETATM    5  C   UNL     1     -11.460  12.672  65.757  1.00  0.00    -0.358 C  
BRANCH   5   6
HETATM    6  C   UNL     1     -11.487  14.191  65.536  1.00  0.00    -0.324 C  
BRANCH   6   7
HETATM    7  C   UNL     1     -10.212  14.847  65.999  1.00  0.00    -0.317 A  
HETATM    8  C   UNL     1      -9.238  14.098  66.675  1.00  0.00    -0.272 A  
HETATM    9  C   UNL     1      -7.884  16.069  66.922  1.00  0.00    -0.249 A  
HETATM   10  C   UNL     1      -8.071  14.708  67.134  1.00  0.00    -0.213 A  
HETATM   11  O   UNL     1      -6.765  16.708  67.366  1.00  0.00    -0.138 OA 
HETATM   12  C   UNL     1      -8.837  16.824  66.247  1.00  0.00    -0.334 A  
HETATM   13  H   UNL     1      -6.637  17.638  67.221  1.00  0.00     0.000 HD 
HETATM   14  C   UNL     1     -10.005  16.215  65.788  1.00  0.00    -0.370 A  
ENDBRANCH   6   7
ENDBRANCH   5   6
ENDBRANCH   3   5
ENDBRANCH   2   3
BRANCH   2  15
HETATM   15  C   UNL     1     -10.864  11.352  69.081  1.00  0.00    -0.213 C  
HETATM   16  O   UNL     1      -9.484  10.987  69.220  1.00  0.00    -0.397 OA 
HETATM   17  H   UNL     1      -9.178  11.179  70.099  1.00  0.00     0.000 HD 
BRANCH  15  18
HETATM   18  C   UNL     1     -11.705  10.705  70.168  1.00  0.00    -0.417 A  
HETATM   19  C   UNL     1     -11.659   9.314  70.357  1.00  0.00    -0.215 A  
HETATM   20  C   UNL     1     -13.270  10.869  72.022  1.00  0.00    -0.456 A  
HETATM   21  H   UNL     1     -14.558   9.474  73.707  1.00  0.00     0.000 HD 
HETATM   22  C   UNL     1     -12.423   8.706  71.358  1.00  0.00    -0.337 A  
HETATM   23  C   UNL     1     -13.230   9.490  72.175  1.00  0.00    -0.451 A  
HETATM   24  C   UNL     1     -12.510  11.476  71.024  1.00  0.00    -0.458 A  
HETATM   25  O   UNL     1     -14.006   8.938  73.150  1.00  0.00    -0.293 OA 
ENDBRANCH  15  18
ENDBRANCH   2  15
TORSDOF 6
ENDMDL
MODEL      139
REMARK 921   NORMALIZED FREE ENERGY PREDICTED BY IDOCK:   -4.82 KCAL/MOL
REMARK 922        TOTAL FREE ENERGY PREDICTED BY IDOCK:   -7.55 KCAL/MOL
REMARK 923 INTER-LIGAND FREE ENERGY PREDICTED BY IDOCK:   -6.19 KCAL/MOL
REMARK 924 INTRA-LIGAND FREE ENERGY PREDICTED BY IDOCK:   -1.36 KCAL/MOL
REMARK 927      BINDING AFFINITY PREDICTED BY RF-SCORE:    0.00 PKD
ROOT
HETATM    1  C   UNL     1     -12.476  12.557  64.486  1.00  0.00    -0.539 C  
HETATM    2  C   UNL     1     -11.327  13.559  64.296  1.00  0.00    -0.375 C  
ENDROOT
BRANCH   2   3
HETATM    3  N   UNL     1     -10.147  12.921  63.668  1.00  0.00    -0.715 NA 
HETATM    4  H   UNL     1      -9.323  13.058  64.255  1.00  0.00     0.000 HD 
BRANCH   3   5
HETATM    5  C   UNL     1     -10.294  11.503  63.337  1.00  0.00    -0.418 C  
BRANCH   5   6
HETATM    6  C   UNL     1      -8.971  10.727  63.392  1.00  0.00    -0.208 C  
BRANCH   6   7
HETATM    7  C   UNL     1      -8.981   9.677  64.473  1.00  0.00    -0.278 A  
HETATM    8  C   UNL     1     -10.015   9.648  65.419  1.00  0.00    -0.230 A  
HETATM    9  C   UNL     1      -8.968   7.784  66.517  1.00  0.00    -0.161 A  
HETATM   10  C   UNL     1     -10.012   8.699  66.440  1.00  0.00    -0.331 A  
HETATM   11  O   UNL     1      -8.917   6.849  67.507  1.00  0.00    -0.118 OA 
HETATM   12  C   UNL     1      -7.938   7.795  65.582  1.00  0.00    -0.118 A  
HETATM   13  H   UNL     1      -8.204   6.223  67.559  1.00  0.00     0.000 HD 
HETATM   14  C   UNL     1      -7.940   8.744  64.561  1.00  0.00    -0.141 A  
ENDBRANCH   6   7
ENDBRANCH   5   6
ENDBRANCH   3   5
ENDBRANCH   2   3
BRANCH   2  15
HETATM   15  C   UNL     1     -10.877  14.205  65.645  1.00  0.00    -0.305 C  
HETATM   16  O   UNL     1      -9.725  15.035  65.440  1.00  0.00    -0.383 OA 
HETATM   17  H   UNL     1      -9.452  15.429  66.261  1.00  0.00     0.000 HD 
BRANCH  15  18
HETATM   18  C   UNL     1     -10.620  13.190  66.746  1.00  0.00    -0.267 A  
HETATM   19  C   UNL     1      -9.303  12.840  67.086  1.00  0.00    -0.216 A  
HETATM   20  C   UNL     1     -11.429  11.688  68.480  1.00  0.00    -0.358 A  
HETATM   21  H   UNL     1     -10.652  10.021  70.230  1.00  0.00     0.000 HD 
HETATM   22  C   UNL     1      -9.053  11.912  68.102  1.00  0.00    -0.190 A  
HETATM   23  C   UNL     1     -10.120  11.337  68.782  1.00  0.00    -0.194 A  
HETATM   24  C   UNL     1     -11.679  12.612  67.467  1.00  0.00    -0.429 A  
HETATM   25  O   UNL     1      -9.924  10.414  69.765  1.00  0.00    -0.213 OA 
ENDBRANCH  15  18
ENDBRANCH   2  15
TORSDOF 6
ENDMDL
MODEL      140
REMARK 921   NORMALIZED FREE ENERGY PREDICTED BY IDOCK:   -4.79 KCAL/MOL
REMARK 922        TOTAL FREE ENERGY PREDICTED BY IDOCK:   -7.51 KCAL/MOL
REMARK 923 INTER-LIGAND FREE ENERGY PREDICTED BY IDOCK:   -7.26 KCAL/MOL
REMARK 924 INTRA-LIGAND FREE ENERGY PREDICTED BY IDOCK:   -0.25 KCAL/MOL
REMARK 927      BINDING AFFINITY PREDICTED BY RF-SCORE:    0.00 PKD
ROOT
HETATM    1  C   UNL     1     -12.158  14.806  64.453  1.00  0.00    -0.457 C  
HETATM    2  C   UNL     1     -11.539  14.000  65.605  1.00  0.00    -0.331 C  
ENDROOT
BRANCH   2   3
HETATM    3  N   UNL     1     -10.063  14.128  65.626  1.00  0.00    -0.343 NA 
HETATM    4  H   UNL     1      -9.655  13.585  64.864  1.00  0.00     0.000 HD 
BRANCH   3   5
HETATM    5  C   UNL     1      -9.545  15.497  65.596  1.00  0.00    -0.293 C  
BRANCH   5   6
HETATM    6  C   UNL     1      -8.652  15.833  66.799  1.00  0.00    -0.306 C  
BRANCH   6   7
HETATM    7  C   UNL     1      -8.227  17.278  66.794  1.00  0.00    -0.279 A  
HETATM    8  C   UNL     1      -6.979  17.646  66.269  1.00  0.00    -0.326 A  
HETATM    9  C   UNL     1      -7.405  19.940  66.847  1.00  0.00    -0.232 A  
HETATM   10  C   UNL     1      -6.569  18.978  66.292  1.00  0.00    -0.228 A  
HETATM   11  O   UNL     1      -7.038  21.251  66.903  1.00  0.00    -0.684 OA 
HETATM   12  C   UNL     1      -8.649  19.593  67.364  1.00  0.00    -0.353 A  
HETATM   13  H   UNL     1      -7.609  21.909  67.282  1.00  0.00     0.000 HD 
HETATM   14  C   UNL     1      -9.060  18.261  67.342  1.00  0.00    -0.253 A  
ENDBRANCH   6   7
ENDBRANCH   5   6
ENDBRANCH   3   5
ENDBRANCH   2   3
BRANCH   2  15
HETATM   15  C   UNL     1     -11.899  12.483  65.526  1.00  0.00    -0.439 C  
HETATM   16  O   UNL     1     -12.229  11.981  66.829  1.00  0.00    -0.545 OA 
HETATM   17  H   UNL     1     -12.449  11.057  66.781  1.00  0.00     0.000 HD 
BRANCH  15  18
HETATM   18  C   UNL     1     -10.816  11.636  64.880  1.00  0.00    -0.359 A  
HETATM   19  C   UNL     1     -10.122  10.682  65.643  1.00  0.00    -0.335 A  
HETATM   20  C   UNL     1      -9.521  10.969  62.933  1.00  0.00    -0.378 A  
HETATM   21  H   UNL     1      -7.650   9.425  62.184  1.00  0.00     0.000 HD 
HETATM   22  C   UNL     1      -9.127   9.892  65.059  1.00  0.00    -0.264 A  
HETATM   23  C   UNL     1      -8.829  10.051  63.710  1.00  0.00    -0.231 A  
HETATM   24  C   UNL     1     -10.512  11.758  63.514  1.00  0.00    -0.500 A  
HETATM   25  O   UNL     1      -7.854   9.317  63.105  1.00  0.00    -0.124 OA 
ENDBRANCH  15  18
ENDBRANCH   2  15
TORSDOF 6
ENDMDL
MODEL      141
REMARK 921   NORMALIZED FREE ENERGY PREDICTED BY IDOCK:   -4.79 KCAL/MOL
REMARK 922        TOTAL FREE ENERGY PREDICTED BY IDOCK:   -7.51 KCAL/MOL
REMARK 923 INTER-LIGAND FREE ENERGY PREDICTED BY IDOCK:   -6.45 KCAL/MOL
REMARK 924 INTRA-LIGAND FREE ENERGY PREDICTED BY IDOCK:   -1.05 KCAL/MOL
REMARK 927      BINDING AFFINITY PREDICTED BY RF-SCORE:    0.00 PKD
ROOT
HETATM    1  C   UNL     1     -12.988  11.915  71.592  1.00  0.00    -0.447 C  
HETATM    2  C   UNL     1     -12.427  10.688  70.859  1.00  0.00    -0.397 C  
ENDROOT
BRANCH   2   3
HETATM    3  N   UNL     1     -12.702  10.749  69.405  1.00  0.00    -0.585 NA 
HETATM    4  H   UNL     1     -13.517  11.337  69.230  1.00  0.00     0.000 HD 
BRANCH   3   5
HETATM    5  C   UNL     1     -11.583  11.180  68.566  1.00  0.00    -0.314 C  
BRANCH   5   6
HETATM    6  C   UNL     1     -10.324  10.321  68.747  1.00  0.00    -0.211 C  
BRANCH   6   7
HETATM    7  C   UNL     1      -9.887   9.690  67.450  1.00  0.00    -0.218 A  
HETATM    8  C   UNL     1      -9.437   8.361  67.428  1.00  0.00    -0.185 A  
HETATM    9  C   UNL     1      -9.009   8.538  65.069  1.00  0.00     0.050 A  
HETATM   10  C   UNL     1      -9.001   7.784  66.236  1.00  0.00    -0.209 A  
HETATM   11  O   UNL     1      -8.578   8.018  63.886  1.00  0.00    -0.391 OA 
HETATM   12  C   UNL     1      -9.459   9.855  65.073  1.00  0.00    -0.343 A  
HETATM   13  H   UNL     1      -8.583   8.534  63.088  1.00  0.00     0.000 HD 
HETATM   14  C   UNL     1      -9.894  10.434  66.264  1.00  0.00    -0.272 A  
ENDBRANCH   6   7
ENDBRANCH   5   6
ENDBRANCH   3   5
ENDBRANCH   2   3
BRANCH   2  15
HETATM   15  C   UNL     1     -13.009   9.349  71.415  1.00  0.00    -0.346 C  
HETATM   16  O   UNL     1     -13.570   9.554  72.719  1.00  0.00    -0.685 OA 
HETATM   17  H   UNL     1     -13.925   8.739  73.057  1.00  0.00     0.000 HD 
BRANCH  15  18
HETATM   18  C   UNL     1     -12.002   8.213  71.433  1.00  0.00    -0.330 A  
HETATM   19  C   UNL     1     -10.921   8.246  72.330  1.00  0.00    -0.418 A  
HETATM   20  C   UNL     1     -11.219   6.057  70.625  1.00  0.00    -0.347 A  
HETATM   21  H   UNL     1      -9.354   4.355  70.894  1.00  0.00     0.000 HD 
HETATM   22  C   UNL     1      -9.991   7.203  72.362  1.00  0.00    -0.190 A  
HETATM   23  C   UNL     1     -10.144   6.122  71.500  1.00  0.00    -0.192 A  
HETATM   24  C   UNL     1     -12.146   7.096  70.592  1.00  0.00    -0.281 A  
HETATM   25  O   UNL     1      -9.250   5.093  71.483  1.00  0.00    -0.142 OA 
ENDBRANCH  15  18
ENDBRANCH   2  15
TORSDOF 6
ENDMDL
MODEL      142
REMARK 921   NORMALIZED FREE ENERGY PREDICTED BY IDOCK:   -4.78 KCAL/MOL
REMARK 922        TOTAL FREE ENERGY PREDICTED BY IDOCK:   -7.50 KCAL/MOL
REMARK 923 INTER-LIGAND FREE ENERGY PREDICTED BY IDOCK:   -7.39 KCAL/MOL
REMARK 924 INTRA-LIGAND FREE ENERGY PREDICTED BY IDOCK:   -0.11 KCAL/MOL
REMARK 927      BINDING AFFINITY PREDICTED BY RF-SCORE:    0.00 PKD
ROOT
HETATM    1  C   UNL     1      -9.749   8.810  70.080  1.00  0.00    -0.182 C  
HETATM    2  C   UNL     1     -11.106   9.526  69.995  1.00  0.00    -0.237 C  
ENDROOT
BRANCH   2   3
HETATM    3  N   UNL     1     -10.975  10.975  70.273  1.00  0.00    -0.441 NA 
HETATM    4  H   UNL     1     -10.011  11.195  70.525  1.00  0.00     0.000 HD 
BRANCH   3   5
HETATM    5  C   UNL     1     -11.430  11.868  69.207  1.00  0.00    -0.306 C  
BRANCH   5   6
HETATM    6  C   UNL     1     -10.337  12.188  68.177  1.00  0.00    -0.214 C  
BRANCH   6   7
HETATM    7  C   UNL     1     -10.852  12.084  66.765  1.00  0.00    -0.307 A  
HETATM    8  C   UNL     1     -11.960  12.843  66.359  1.00  0.00    -0.462 A  
HETATM    9  C   UNL     1     -11.853  11.844  64.176  1.00  0.00    -0.318 A  
HETATM   10  C   UNL     1     -12.459  12.726  65.063  1.00  0.00    -0.572 A  
HETATM   11  O   UNL     1     -12.317  11.688  62.904  1.00  0.00    -0.923 OA 
HETATM   12  C   UNL     1     -10.749  11.089  64.560  1.00  0.00    -0.335 A  
HETATM   13  H   UNL     1     -11.904  11.085  62.297  1.00  0.00     0.000 HD 
HETATM   14  C   UNL     1     -10.249  11.205  65.856  1.00  0.00    -0.303 A  
ENDBRANCH   6   7
ENDBRANCH   5   6
ENDBRANCH   3   5
ENDBRANCH   2   3
BRANCH   2  15
HETATM   15  C   UNL     1     -12.153   8.927  70.987  1.00  0.00    -0.233 C  
HETATM   16  O   UNL     1     -12.753   9.971  71.768  1.00  0.00    -0.383 OA 
HETATM   17  H   UNL     1     -13.391   9.606  72.371  1.00  0.00     0.000 HD 
BRANCH  15  18
HETATM   18  C   UNL     1     -11.585   7.841  71.884  1.00  0.00    -0.330 A  
HETATM   19  C   UNL     1     -11.979   6.504  71.705  1.00  0.00    -0.394 A  
HETATM   20  C   UNL     1     -10.117   7.130  73.688  1.00  0.00    -0.389 A  
HETATM   21  H   UNL     1      -9.393   5.093  75.018  1.00  0.00     0.000 HD 
HETATM   22  C   UNL     1     -11.459   5.495  72.520  1.00  0.00    -0.303 A  
HETATM   23  C   UNL     1     -10.539   5.820  73.511  1.00  0.00    -0.269 A  
HETATM   24  C   UNL     1     -10.635   8.137  72.877  1.00  0.00    -0.327 A  
HETATM   25  O   UNL     1     -10.021   4.871  74.341  1.00  0.00    -0.165 OA 
ENDBRANCH  15  18
ENDBRANCH   2  15
TORSDOF 6
ENDMDL
MODEL      143
REMARK 921   NORMALIZED FREE ENERGY PREDICTED BY IDOCK:   -4.76 KCAL/MOL
REMARK 922        TOTAL FREE ENERGY PREDICTED BY IDOCK:   -7.47 KCAL/MOL
REMARK 923 INTER-LIGAND FREE ENERGY PREDICTED BY IDOCK:   -7.02 KCAL/MOL
REMARK 924 INTRA-LIGAND FREE ENERGY PREDICTED BY IDOCK:   -0.46 KCAL/MOL
REMARK 927      BINDING AFFINITY PREDICTED BY RF-SCORE:    0.00 PKD
ROOT
HETATM    1  C   UNL     1     -11.196  15.164  68.142  1.00  0.00    -0.326 C  
HETATM    2  C   UNL     1     -11.055  14.789  66.659  1.00  0.00    -0.333 C  
ENDROOT
BRANCH   2   3
HETATM    3  N   UNL     1      -9.841  13.975  66.417  1.00  0.00    -0.287 NA 
HETATM    4  H   UNL     1      -9.254  13.969  67.251  1.00  0.00     0.000 HD 
BRANCH   3   5
HETATM    5  C   UNL     1     -10.079  12.604  65.964  1.00  0.00    -0.262 C  
BRANCH   5   6
HETATM    6  C   UNL     1     -11.412  12.025  66.459  1.00  0.00    -0.413 C  
BRANCH   6   7
HETATM    7  C   UNL     1     -11.262  11.329  67.787  1.00  0.00    -0.354 A  
HETATM    8  C   UNL     1     -10.525  10.139  67.881  1.00  0.00    -0.265 A  
HETATM    9  C   UNL     1     -11.039   9.999  70.225  1.00  0.00    -0.318 A  
HETATM   10  C   UNL     1     -10.411   9.475  69.102  1.00  0.00    -0.218 A  
HETATM   11  O   UNL     1     -10.965   9.375  71.434  1.00  0.00    -0.335 OA 
HETATM   12  C   UNL     1     -11.767  11.182  70.150  1.00  0.00    -0.439 A  
HETATM   13  H   UNL     1     -11.394   9.733  72.202  1.00  0.00     0.000 HD 
HETATM   14  C   UNL     1     -11.883  11.847  68.930  1.00  0.00    -0.366 A  
ENDBRANCH   6   7
ENDBRANCH   5   6
ENDBRANCH   3   5
ENDBRANCH   2   3
BRANCH   2  15
HETATM   15  C   UNL     1     -10.996  16.047  65.735  1.00  0.00    -0.140 C  
HETATM   16  O   UNL     1     -10.666  15.663  64.392  1.00  0.00    -0.724 OA 
HETATM   17  H   UNL     1     -10.630  16.428  63.830  1.00  0.00     0.000 HD 
BRANCH  15  18
HETATM   18  C   UNL     1     -10.047  17.122  66.236  1.00  0.00    -0.329 A  
HETATM   19  C   UNL     1      -8.658  16.922  66.168  1.00  0.00    -0.277 A  
HETATM   20  C   UNL     1      -9.647  19.324  67.188  1.00  0.00    -0.397 A  
HETATM   21  H   UNL     1      -7.799  20.885  67.958  1.00  0.00     0.000 HD 
HETATM   22  C   UNL     1      -7.775  17.906  66.620  1.00  0.00    -0.275 A  
HETATM   23  C   UNL     1      -8.279  19.095  67.136  1.00  0.00    -0.270 A  
HETATM   24  C   UNL     1     -10.529  18.343  66.739  1.00  0.00    -0.415 A  
HETATM   25  O   UNL     1      -7.455  20.074  67.606  1.00  0.00    -0.273 OA 
ENDBRANCH  15  18
ENDBRANCH   2  15
TORSDOF 6
ENDMDL
MODEL      144
REMARK 921   NORMALIZED FREE ENERGY PREDICTED BY IDOCK:   -4.76 KCAL/MOL
REMARK 922        TOTAL FREE ENERGY PREDICTED BY IDOCK:   -7.47 KCAL/MOL
REMARK 923 INTER-LIGAND FREE ENERGY PREDICTED BY IDOCK:   -6.60 KCAL/MOL
REMARK 924 INTRA-LIGAND FREE ENERGY PREDICTED BY IDOCK:   -0.87 KCAL/MOL
REMARK 927      BINDING AFFINITY PREDICTED BY RF-SCORE:    0.00 PKD
ROOT
HETATM    1  C   UNL     1     -10.812  16.424  66.851  1.00  0.00    -0.118 C  
HETATM    2  C   UNL     1     -10.941  14.916  66.590  1.00  0.00    -0.325 C  
ENDROOT
BRANCH   2   3
HETATM    3  N   UNL     1     -12.043  14.319  67.380  1.00  0.00    -0.567 NA 
HETATM    4  H   UNL     1     -11.854  13.331  67.549  1.00  0.00     0.000 HD 
BRANCH   3   5
HETATM    5  C   UNL     1     -12.354  14.992  68.642  1.00  0.00     0.085 C  
BRANCH   5   6
HETATM    6  C   UNL     1     -11.471  14.527  69.809  1.00  0.00    -0.327 C  
BRANCH   6   7
HETATM    7  C   UNL     1     -12.055  13.326  70.508  1.00  0.00    -0.391 A  
HETATM    8  C   UNL     1     -11.721  12.031  70.085  1.00  0.00    -0.316 A  
HETATM    9  C   UNL     1     -13.185  11.102  71.750  1.00  0.00    -0.381 A  
HETATM   10  C   UNL     1     -12.284  10.918  70.708  1.00  0.00    -0.483 A  
HETATM   11  O   UNL     1     -13.769  10.043  72.377  1.00  0.00    -0.600 OA 
HETATM   12  C   UNL     1     -13.520  12.380  72.187  1.00  0.00    -0.481 A  
HETATM   13  H   UNL     1     -14.385  10.169  73.090  1.00  0.00     0.000 HD 
HETATM   14  C   UNL     1     -12.959  13.494  71.564  1.00  0.00    -0.440 A  
ENDBRANCH   6   7
ENDBRANCH   5   6
ENDBRANCH   3   5
ENDBRANCH   2   3
BRANCH   2  15
HETATM   15  C   UNL     1      -9.624  14.144  66.920  1.00  0.00    -0.270 C  
HETATM   16  O   UNL     1      -8.537  14.654  66.136  1.00  0.00    -0.385 OA 
HETATM   17  H   UNL     1      -7.736  14.184  66.337  1.00  0.00     0.000 HD 
BRANCH  15  18
HETATM   18  C   UNL     1      -9.748  12.639  66.754  1.00  0.00    -0.240 A  
HETATM   19  C   UNL     1      -9.254  11.779  67.749  1.00  0.00    -0.181 A  
HETATM   20  C   UNL     1     -10.500  10.696  65.498  1.00  0.00    -0.246 A  
HETATM   21  H   UNL     1     -10.514   8.158  65.524  1.00  0.00     0.000 HD 
HETATM   22  C   UNL     1      -9.368  10.392  67.611  1.00  0.00    -0.161 A  
HETATM   23  C   UNL     1      -9.981   9.864  66.481  1.00  0.00    -0.228 A  
HETATM   24  C   UNL     1     -10.386  12.078  65.634  1.00  0.00    -0.288 A  
HETATM   25  O   UNL     1     -10.096   8.518  66.296  1.00  0.00    -0.258 OA 
ENDBRANCH  15  18
ENDBRANCH   2  15
TORSDOF 6
ENDMDL
MODEL      145
REMARK 921   NORMALIZED FREE ENERGY PREDICTED BY IDOCK:   -4.75 KCAL/MOL
REMARK 922        TOTAL FREE ENERGY PREDICTED BY IDOCK:   -7.45 KCAL/MOL
REMARK 923 INTER-LIGAND FREE ENERGY PREDICTED BY IDOCK:   -6.46 KCAL/MOL
REMARK 924 INTRA-LIGAND FREE ENERGY PREDICTED BY IDOCK:   -1.00 KCAL/MOL
REMARK 927      BINDING AFFINITY PREDICTED BY RF-SCORE:    0.00 PKD
ROOT
HETATM    1  C   UNL     1     -10.472   6.057  72.559  1.00  0.00    -0.233 C  
HETATM    2  C   UNL     1     -11.321   6.791  71.511  1.00  0.00    -0.275 C  
ENDROOT
BRANCH   2   3
HETATM    3  N   UNL     1     -12.714   6.982  71.975  1.00  0.00    -0.519 NA 
HETATM    4  H   UNL     1     -12.752   6.930  72.994  1.00  0.00     0.000 HD 
BRANCH   3   5
HETATM    5  C   UNL     1     -13.374   8.203  71.513  1.00  0.00    -0.284 C  
BRANCH   5   6
HETATM    6  C   UNL     1     -13.054   9.430  72.378  1.00  0.00    -0.458 C  
BRANCH   6   7
HETATM    7  C   UNL     1     -12.754  10.645  71.538  1.00  0.00    -0.549 A  
HETATM    8  C   UNL     1     -13.134  11.921  71.980  1.00  0.00    -0.441 A  
HETATM    9  C   UNL     1     -12.266  12.887  69.958  1.00  0.00    -0.222 A  
HETATM   10  C   UNL     1     -12.887  13.043  71.191  1.00  0.00    -0.331 A  
HETATM   11  O   UNL     1     -12.019  13.955  69.148  1.00  0.00    -0.329 OA 
HETATM   12  C   UNL     1     -11.876  11.630  69.508  1.00  0.00    -0.414 A  
HETATM   13  H   UNL     1     -11.594  13.849  68.305  1.00  0.00     0.000 HD 
HETATM   14  C   UNL     1     -12.123  10.506  70.296  1.00  0.00    -0.402 A  
ENDBRANCH   6   7
ENDBRANCH   5   6
ENDBRANCH   3   5
ENDBRANCH   2   3
BRANCH   2  15
HETATM   15  C   UNL     1     -11.357   6.036  70.144  1.00  0.00    -0.281 C  
HETATM   16  O   UNL     1     -10.699   4.766  70.259  1.00  0.00     0.015 OA 
HETATM   17  H   UNL     1     -10.721   4.307  69.428  1.00  0.00     0.000 HD 
BRANCH  15  18
HETATM   18  C   UNL     1     -10.778   6.840  68.993  1.00  0.00    -0.280 A  
HETATM   19  C   UNL     1     -10.868   6.351  67.679  1.00  0.00    -0.425 A  
HETATM   20  C   UNL     1      -9.662   8.826  68.140  1.00  0.00    -0.177 A  
HETATM   21  H   UNL     1      -8.781   9.889  66.009  1.00  0.00     0.000 HD 
HETATM   22  C   UNL     1     -10.345   7.085  66.610  1.00  0.00    -0.215 A  
HETATM   23  C   UNL     1      -9.737   8.312  66.853  1.00  0.00    -0.225 A  
HETATM   24  C   UNL     1     -10.181   8.095  69.206  1.00  0.00    -0.216 A  
HETATM   25  O   UNL     1      -9.197   9.051  65.843  1.00  0.00    -0.198 OA 
ENDBRANCH  15  18
ENDBRANCH   2  15
TORSDOF 6
ENDMDL
MODEL      146
REMARK 921   NORMALIZED FREE ENERGY PREDICTED BY IDOCK:   -4.74 KCAL/MOL
REMARK 922        TOTAL FREE ENERGY PREDICTED BY IDOCK:   -7.45 KCAL/MOL
REMARK 923 INTER-LIGAND FREE ENERGY PREDICTED BY IDOCK:   -6.49 KCAL/MOL
REMARK 924 INTRA-LIGAND FREE ENERGY PREDICTED BY IDOCK:   -0.95 KCAL/MOL
REMARK 927      BINDING AFFINITY PREDICTED BY RF-SCORE:    0.00 PKD
ROOT
HETATM    1  C   UNL     1     -10.724  14.609  64.900  1.00  0.00    -0.447 C  
HETATM    2  C   UNL     1     -10.286  13.862  66.169  1.00  0.00    -0.301 C  
ENDROOT
BRANCH   2   3
HETATM    3  N   UNL     1      -8.842  13.532  66.134  1.00  0.00    -0.342 NA 
HETATM    4  H   UNL     1      -8.453  13.768  65.221  1.00  0.00     0.000 HD 
BRANCH   3   5
HETATM    5  C   UNL     1      -8.030  14.131  67.193  1.00  0.00    -0.075 C  
BRANCH   5   6
HETATM    6  C   UNL     1      -8.866  14.747  68.323  1.00  0.00    -0.179 C  
BRANCH   6   7
HETATM    7  C   UNL     1      -9.039  16.233  68.146  1.00  0.00    -0.188 A  
HETATM    8  C   UNL     1     -10.100  16.901  68.774  1.00  0.00    -0.295 A  
HETATM    9  C   UNL     1      -9.406  18.969  67.765  1.00  0.00    -0.302 A  
HETATM   10  C   UNL     1     -10.282  18.270  68.587  1.00  0.00    -0.377 A  
HETATM   11  O   UNL     1      -9.555  20.305  67.543  1.00  0.00    -0.387 OA 
HETATM   12  C   UNL     1      -8.343  18.323  67.141  1.00  0.00    -0.250 A  
HETATM   13  H   UNL     1      -8.956  20.783  66.981  1.00  0.00     0.000 HD 
HETATM   14  C   UNL     1      -8.161  16.953  67.327  1.00  0.00    -0.207 A  
ENDBRANCH   6   7
ENDBRANCH   5   6
ENDBRANCH   3   5
ENDBRANCH   2   3
BRANCH   2  15
HETATM   15  C   UNL     1     -11.088  12.539  66.383  1.00  0.00    -0.290 C  
HETATM   16  O   UNL     1     -12.183  12.466  65.460  1.00  0.00    -0.568 OA 
HETATM   17  H   UNL     1     -12.671  11.661  65.591  1.00  0.00     0.000 HD 
BRANCH  15  18
HETATM   18  C   UNL     1     -11.573  12.351  67.811  1.00  0.00    -0.413 A  
HETATM   19  C   UNL     1     -11.653  11.061  68.361  1.00  0.00    -0.372 A  
HETATM   20  C   UNL     1     -12.348  13.264  69.928  1.00  0.00    -0.228 A  
HETATM   21  H   UNL     1     -13.137  12.596  72.246  1.00  0.00     0.000 HD 
HETATM   22  C   UNL     1     -12.091  10.875  69.675  1.00  0.00    -0.400 A  
HETATM   23  C   UNL     1     -12.444  11.979  70.443  1.00  0.00    -0.153 A  
HETATM   24  C   UNL     1     -11.912  13.451  68.617  1.00  0.00    -0.362 A  
HETATM   25  O   UNL     1     -12.896  11.842  71.722  1.00  0.00    -0.358 OA 
ENDBRANCH  15  18
ENDBRANCH   2  15
TORSDOF 6
ENDMDL
MODEL      147
REMARK 921   NORMALIZED FREE ENERGY PREDICTED BY IDOCK:   -4.73 KCAL/MOL
REMARK 922        TOTAL FREE ENERGY PREDICTED BY IDOCK:   -7.43 KCAL/MOL
REMARK 923 INTER-LIGAND FREE ENERGY PREDICTED BY IDOCK:   -6.12 KCAL/MOL
REMARK 924 INTRA-LIGAND FREE ENERGY PREDICTED BY IDOCK:   -1.31 KCAL/MOL
REMARK 927      BINDING AFFINITY PREDICTED BY RF-SCORE:    0.00 PKD
ROOT
HETATM    1  C   UNL     1      -9.784  15.548  65.777  1.00  0.00    -0.383 C  
HETATM    2  C   UNL     1      -9.747  14.775  67.104  1.00  0.00    -0.233 C  
ENDROOT
BRANCH   2   3
HETATM    3  N   UNL     1      -8.702  15.303  68.012  1.00  0.00    -0.158 NA 
HETATM    4  H   UNL     1      -8.155  16.019  67.533  1.00  0.00     0.000 HD 
BRANCH   3   5
HETATM    5  C   UNL     1      -9.179  15.814  69.297  1.00  0.00    -0.266 C  
BRANCH   5   6
HETATM    6  C   UNL     1     -10.573  16.453  69.215  1.00  0.00    -0.311 C  
BRANCH   6   7
HETATM    7  C   UNL     1     -11.482  15.957  70.310  1.00  0.00    -0.376 A  
HETATM    8  C   UNL     1     -11.049  15.965  71.644  1.00  0.00    -0.042 A  
HETATM    9  C   UNL     1     -13.129  14.974  72.331  1.00  0.00    -0.372 A  
HETATM   10  C   UNL     1     -11.874  15.477  72.656  1.00  0.00    -0.575 A  
HETATM   11  O   UNL     1     -13.962  14.474  73.287  1.00  0.00    -0.307 OA 
HETATM   12  C   UNL     1     -13.576  14.966  71.014  1.00  0.00    -0.402 A  
HETATM   13  H   UNL     1     -14.819  14.131  73.065  1.00  0.00     0.000 HD 
HETATM   14  C   UNL     1     -12.751  15.454  70.001  1.00  0.00    -0.189 A  
ENDBRANCH   6   7
ENDBRANCH   5   6
ENDBRANCH   3   5
ENDBRANCH   2   3
BRANCH   2  15
HETATM   15  C   UNL     1      -9.490  13.249  66.893  1.00  0.00    -0.249 C  
HETATM   16  O   UNL     1      -9.978  12.835  65.609  1.00  0.00    -0.269 OA 
HETATM   17  H   UNL     1      -9.821  11.906  65.481  1.00  0.00     0.000 HD 
BRANCH  15  18
HETATM   18  C   UNL     1     -10.069  12.380  67.996  1.00  0.00    -0.214 A  
HETATM   19  C   UNL     1     -11.322  12.691  68.550  1.00  0.00    -0.333 A  
HETATM   20  C   UNL     1      -9.940  10.445  69.463  1.00  0.00    -0.229 A  
HETATM   21  H   UNL     1     -11.174   9.235  71.322  1.00  0.00     0.000 HD 
HETATM   22  C   UNL     1     -11.870  11.895  69.561  1.00  0.00    -0.395 A  
HETATM   23  C   UNL     1     -11.167  10.785  70.015  1.00  0.00    -0.291 A  
HETATM   24  C   UNL     1      -9.393  11.238  68.456  1.00  0.00    -0.182 A  
HETATM   25  O   UNL     1     -11.653   9.993  71.012  1.00  0.00    -0.343 OA 
ENDBRANCH  15  18
ENDBRANCH   2  15
TORSDOF 6
ENDMDL
MODEL      148
REMARK 921   NORMALIZED FREE ENERGY PREDICTED BY IDOCK:   -4.73 KCAL/MOL
REMARK 922        TOTAL FREE ENERGY PREDICTED BY IDOCK:   -7.43 KCAL/MOL
REMARK 923 INTER-LIGAND FREE ENERGY PREDICTED BY IDOCK:   -6.95 KCAL/MOL
REMARK 924 INTRA-LIGAND FREE ENERGY PREDICTED BY IDOCK:   -0.48 KCAL/MOL
REMARK 927      BINDING AFFINITY PREDICTED BY RF-SCORE:    0.00 PKD
ROOT
HETATM    1  C   UNL     1     -13.275  11.543  71.952  1.00  0.00    -0.479 C  
HETATM    2  C   UNL     1     -12.550  10.397  71.230  1.00  0.00    -0.419 C  
ENDROOT
BRANCH   2   3
HETATM    3  N   UNL     1     -12.820  10.415  69.774  1.00  0.00    -0.586 NA 
HETATM    4  H   UNL     1     -13.720  10.861  69.592  1.00  0.00     0.000 HD 
BRANCH   3   5
HETATM    5  C   UNL     1     -11.782  11.029  68.944  1.00  0.00    -0.330 C  
BRANCH   5   6
HETATM    6  C   UNL     1     -11.842  12.563  68.935  1.00  0.00    -0.346 C  
BRANCH   6   7
HETATM    7  C   UNL     1     -10.587  13.169  68.362  1.00  0.00    -0.264 A  
HETATM    8  C   UNL     1      -9.757  12.411  67.522  1.00  0.00    -0.191 A  
HETATM    9  C   UNL     1      -8.229  14.258  67.355  1.00  0.00    -0.202 A  
HETATM   10  C   UNL     1      -8.579  12.957  67.015  1.00  0.00    -0.171 A  
HETATM   11  O   UNL     1      -7.079  14.826  66.894  1.00  0.00    -0.324 OA 
HETATM   12  C   UNL     1      -9.044  15.026  68.181  1.00  0.00    -0.178 A  
HETATM   13  H   UNL     1      -6.839  15.716  67.126  1.00  0.00     0.000 HD 
HETATM   14  C   UNL     1     -10.223  14.480  68.689  1.00  0.00    -0.243 A  
ENDBRANCH   6   7
ENDBRANCH   5   6
ENDBRANCH   3   5
ENDBRANCH   2   3
BRANCH   2  15
HETATM   15  C   UNL     1     -12.955   8.996  71.788  1.00  0.00    -0.377 C  
HETATM   16  O   UNL     1     -13.533   9.128  73.095  1.00  0.00    -0.899 OA 
HETATM   17  H   UNL     1     -13.779   8.276  73.434  1.00  0.00     0.000 HD 
BRANCH  15  18
HETATM   18  C   UNL     1     -11.811   7.997  71.804  1.00  0.00    -0.339 A  
HETATM   19  C   UNL     1     -10.585   8.342  72.398  1.00  0.00    -0.408 A  
HETATM   20  C   UNL     1     -10.905   5.799  71.292  1.00  0.00    -0.313 A  
HETATM   21  H   UNL     1      -8.797   4.395  71.462  1.00  0.00     0.000 HD 
HETATM   22  C   UNL     1      -9.527   7.429  72.424  1.00  0.00    -0.189 A  
HETATM   23  C   UNL     1      -9.694   6.169  71.861  1.00  0.00    -0.152 A  
HETATM   24  C   UNL     1     -11.960   6.708  71.265  1.00  0.00    -0.409 A  
HETATM   25  O   UNL     1      -8.683   5.255  71.847  1.00  0.00    -0.129 OA 
ENDBRANCH  15  18
ENDBRANCH   2  15
TORSDOF 6
ENDMDL
MODEL      149
REMARK 921   NORMALIZED FREE ENERGY PREDICTED BY IDOCK:   -4.73 KCAL/MOL
REMARK 922        TOTAL FREE ENERGY PREDICTED BY IDOCK:   -7.42 KCAL/MOL
REMARK 923 INTER-LIGAND FREE ENERGY PREDICTED BY IDOCK:   -6.48 KCAL/MOL
REMARK 924 INTRA-LIGAND FREE ENERGY PREDICTED BY IDOCK:   -0.94 KCAL/MOL
REMARK 927      BINDING AFFINITY PREDICTED BY RF-SCORE:    0.00 PKD
ROOT
HETATM    1  C   UNL     1     -12.184  12.543  63.677  1.00  0.00    -0.642 C  
HETATM    2  C   UNL     1     -11.691  13.082  65.028  1.00  0.00    -0.339 C  
ENDROOT
BRANCH   2   3
HETATM    3  N   UNL     1     -12.378  12.419  66.161  1.00  0.00    -0.517 NA 
HETATM    4  H   UNL     1     -13.002  11.691  65.812  1.00  0.00     0.000 HD 
BRANCH   3   5
HETATM    5  C   UNL     1     -11.504  11.874  67.200  1.00  0.00    -0.319 C  
BRANCH   5   6
HETATM    6  C   UNL     1     -10.034  11.781  66.768  1.00  0.00    -0.224 C  
BRANCH   6   7
HETATM    7  C   UNL     1      -9.500  10.378  66.898  1.00  0.00    -0.196 A  
HETATM    8  C   UNL     1      -9.838   9.403  65.947  1.00  0.00    -0.362 A  
HETATM    9  C   UNL     1      -8.575   7.763  67.170  1.00  0.00    -0.128 A  
HETATM   10  C   UNL     1      -9.372   8.096  66.081  1.00  0.00    -0.232 A  
HETATM   11  O   UNL     1      -8.110   6.495  67.347  1.00  0.00    -0.118 OA 
HETATM   12  C   UNL     1      -8.224   8.720  68.117  1.00  0.00    -0.114 A  
HETATM   13  H   UNL     1      -7.565   6.267  68.091  1.00  0.00     0.000 HD 
HETATM   14  C   UNL     1      -8.690  10.028  67.985  1.00  0.00    -0.125 A  
ENDBRANCH   6   7
ENDBRANCH   5   6
ENDBRANCH   3   5
ENDBRANCH   2   3
BRANCH   2  15
HETATM   15  C   UNL     1     -11.898  14.624  65.161  1.00  0.00    -0.351 C  
HETATM   16  O   UNL     1     -11.882  15.242  63.867  1.00  0.00    -0.876 OA 
HETATM   17  H   UNL     1     -12.008  16.181  63.948  1.00  0.00     0.000 HD 
BRANCH  15  18
HETATM   18  C   UNL     1     -10.897  15.291  66.090  1.00  0.00    -0.320 A  
HETATM   19  C   UNL     1      -9.650  15.708  65.596  1.00  0.00    -0.319 A  
HETATM   20  C   UNL     1     -10.281  16.157  68.277  1.00  0.00    -0.248 A  
HETATM   21  H   UNL     1      -8.383  17.264  69.549  1.00  0.00     0.000 HD 
HETATM   22  C   UNL     1      -8.723  16.328  66.438  1.00  0.00    -0.354 A  
HETATM   23  C   UNL     1      -9.044  16.538  67.775  1.00  0.00    -0.204 A  
HETATM   24  C   UNL     1     -11.205  15.538  67.438  1.00  0.00    -0.248 A  
HETATM   25  O   UNL     1      -8.163  17.121  68.636  1.00  0.00    -0.245 OA 
ENDBRANCH  15  18
ENDBRANCH   2  15
TORSDOF 6
ENDMDL
MODEL      150
REMARK 921   NORMALIZED FREE ENERGY PREDICTED BY IDOCK:   -4.72 KCAL/MOL
REMARK 922        TOTAL FREE ENERGY PREDICTED BY IDOCK:   -7.41 KCAL/MOL
REMARK 923 INTER-LIGAND FREE ENERGY PREDICTED BY IDOCK:   -7.18 KCAL/MOL
REMARK 924 INTRA-LIGAND FREE ENERGY PREDICTED BY IDOCK:   -0.23 KCAL/MOL
REMARK 927      BINDING AFFINITY PREDICTED BY RF-SCORE:    0.00 PKD
ROOT
HETATM    1  C   UNL     1     -10.751  18.479  67.828  1.00  0.00    -0.378 C  
HETATM    2  C   UNL     1     -10.305  17.398  66.832  1.00  0.00    -0.317 C  
ENDROOT
BRANCH   2   3
HETATM    3  N   UNL     1     -10.393  16.043  67.423  1.00  0.00    -0.288 NA 
HETATM    4  H   UNL     1      -9.484  15.767  67.797  1.00  0.00     0.000 HD 
BRANCH   3   5
HETATM    5  C   UNL     1     -11.428  15.862  68.441  1.00  0.00    -0.348 C  
BRANCH   5   6
HETATM    6  C   UNL     1     -12.075  14.470  68.406  1.00  0.00    -0.249 C  
BRANCH   6   7
HETATM    7  C   UNL     1     -11.921  13.815  67.058  1.00  0.00    -0.452 A  
HETATM    8  C   UNL     1     -12.640  14.294  65.953  1.00  0.00    -0.376 A  
HETATM    9  C   UNL     1     -11.696  12.562  64.579  1.00  0.00    -0.362 A  
HETATM   10  C   UNL     1     -12.525  13.670  64.712  1.00  0.00    -0.391 A  
HETATM   11  O   UNL     1     -11.565  11.914  63.388  1.00  0.00    -0.587 OA 
HETATM   12  C   UNL     1     -10.970  12.079  65.663  1.00  0.00    -0.343 A  
HETATM   13  H   UNL     1     -10.998  11.157  63.297  1.00  0.00     0.000 HD 
HETATM   14  C   UNL     1     -11.085  12.702  66.906  1.00  0.00    -0.315 A  
ENDBRANCH   6   7
ENDBRANCH   5   6
ENDBRANCH   3   5
ENDBRANCH   2   3
BRANCH   2  15
HETATM   15  C   UNL     1      -8.842  17.623  66.331  1.00  0.00    -0.236 C  
HETATM   16  O   UNL     1      -8.180  16.363  66.146  1.00  0.00    -0.324 OA 
HETATM   17  H   UNL     1      -7.291  16.500  65.841  1.00  0.00     0.000 HD 
BRANCH  15  18
HETATM   18  C   UNL     1      -8.027  18.533  67.233  1.00  0.00    -0.241 A  
HETATM   19  C   UNL     1      -7.511  18.043  68.444  1.00  0.00    -0.281 A  
HETATM   20  C   UNL     1      -6.985  20.681  67.699  1.00  0.00    -0.376 A  
HETATM   21  H   UNL     1      -5.622  21.928  69.439  1.00  0.00     0.000 HD 
HETATM   22  C   UNL     1      -6.754  18.869  69.280  1.00  0.00    -0.310 A  
HETATM   23  C   UNL     1      -6.507  20.184  68.903  1.00  0.00    -0.311 A  
HETATM   24  C   UNL     1      -7.740  19.859  66.865  1.00  0.00    -0.317 A  
HETATM   25  O   UNL     1      -5.790  21.030  69.697  1.00  0.00    -0.382 OA 
ENDBRANCH  15  18
ENDBRANCH   2  15
TORSDOF 6
ENDMDL
MODEL      151
REMARK 921   NORMALIZED FREE ENERGY PREDICTED BY IDOCK:   -4.71 KCAL/MOL
REMARK 922        TOTAL FREE ENERGY PREDICTED BY IDOCK:   -7.40 KCAL/MOL
REMARK 923 INTER-LIGAND FREE ENERGY PREDICTED BY IDOCK:   -7.11 KCAL/MOL
REMARK 924 INTRA-LIGAND FREE ENERGY PREDICTED BY IDOCK:   -0.29 KCAL/MOL
REMARK 927      BINDING AFFINITY PREDICTED BY RF-SCORE:    0.00 PKD
ROOT
HETATM    1  C   UNL     1      -9.167  13.744  67.233  1.00  0.00    -0.239 C  
HETATM    2  C   UNL     1     -10.105  14.114  66.074  1.00  0.00    -0.316 C  
ENDROOT
BRANCH   2   3
HETATM    3  N   UNL     1     -11.374  14.698  66.566  1.00  0.00    -0.348 NA 
HETATM    4  H   UNL     1     -12.150  14.387  65.981  1.00  0.00     0.000 HD 
BRANCH   3   5
HETATM    5  C   UNL     1     -11.680  14.451  67.975  1.00  0.00    -0.340 C  
BRANCH   5   6
HETATM    6  C   UNL     1     -11.736  15.734  68.816  1.00  0.00    -0.387 C  
BRANCH   6   7
HETATM    7  C   UNL     1     -12.044  15.442  70.262  1.00  0.00    -0.402 A  
HETATM    8  C   UNL     1     -12.804  14.316  70.609  1.00  0.00    -0.378 A  
HETATM    9  C   UNL     1     -12.679  14.936  72.928  1.00  0.00    -0.435 A  
HETATM   10  C   UNL     1     -13.119  14.060  71.943  1.00  0.00    -0.467 A  
HETATM   11  O   UNL     1     -12.975  14.732  74.242  1.00  0.00    -0.314 OA 
HETATM   12  C   UNL     1     -11.918  16.054  72.602  1.00  0.00    -0.646 A  
HETATM   13  H   UNL     1     -12.675  15.330  74.916  1.00  0.00     0.000 HD 
HETATM   14  C   UNL     1     -11.603  16.311  71.268  1.00  0.00    -0.402 A  
ENDBRANCH   6   7
ENDBRANCH   5   6
ENDBRANCH   3   5
ENDBRANCH   2   3
BRANCH   2  15
HETATM   15  C   UNL     1     -10.446  12.884  65.173  1.00  0.00    -0.309 C  
HETATM   16  O   UNL     1     -11.752  13.033  64.600  1.00  0.00    -0.330 OA 
HETATM   17  H   UNL     1     -11.959  12.285  64.052  1.00  0.00     0.000 HD 
BRANCH  15  18
HETATM   18  C   UNL     1     -10.323  11.553  65.896  1.00  0.00    -0.293 A  
HETATM   19  C   UNL     1      -9.332  10.634  65.513  1.00  0.00    -0.245 A  
HETATM   20  C   UNL     1     -11.034  10.008  67.634  1.00  0.00    -0.297 A  
HETATM   21  H   UNL     1     -10.577   7.704  68.598  1.00  0.00     0.000 HD 
HETATM   22  C   UNL     1      -9.204   9.409  66.174  1.00  0.00    -0.241 A  
HETATM   23  C   UNL     1     -10.065   9.103  67.223  1.00  0.00    -0.233 A  
HETATM   24  C   UNL     1     -11.162  11.229  66.975  1.00  0.00    -0.324 A  
HETATM   25  O   UNL     1      -9.989   7.913  67.882  1.00  0.00    -0.162 OA 
ENDBRANCH  15  18
ENDBRANCH   2  15
TORSDOF 6
ENDMDL
MODEL      152
REMARK 921   NORMALIZED FREE ENERGY PREDICTED BY IDOCK:   -4.70 KCAL/MOL
REMARK 922        TOTAL FREE ENERGY PREDICTED BY IDOCK:   -7.39 KCAL/MOL
REMARK 923 INTER-LIGAND FREE ENERGY PREDICTED BY IDOCK:   -6.59 KCAL/MOL
REMARK 924 INTRA-LIGAND FREE ENERGY PREDICTED BY IDOCK:   -0.80 KCAL/MOL
REMARK 927      BINDING AFFINITY PREDICTED BY RF-SCORE:    0.00 PKD
ROOT
HETATM    1  C   UNL     1      -7.920   6.588  68.133  1.00  0.00    -0.110 C  
HETATM    2  C   UNL     1      -9.296   7.269  68.088  1.00  0.00    -0.131 C  
ENDROOT
BRANCH   2   3
HETATM    3  N   UNL     1      -9.396   8.360  69.084  1.00  0.00    -0.151 NA 
HETATM    4  H   UNL     1      -8.605   8.318  69.727  1.00  0.00     0.000 HD 
BRANCH   3   5
HETATM    5  C   UNL     1      -9.523   9.710  68.535  1.00  0.00    -0.141 C  
BRANCH   5   6
HETATM    6  C   UNL     1     -10.966  10.080  68.163  1.00  0.00    -0.289 C  
BRANCH   6   7
HETATM    7  C   UNL     1     -11.649  10.845  69.268  1.00  0.00    -0.388 A  
HETATM    8  C   UNL     1     -11.676  12.247  69.244  1.00  0.00    -0.388 A  
HETATM    9  C   UNL     1     -12.848  12.267  71.342  1.00  0.00    -0.271 A  
HETATM   10  C   UNL     1     -12.279  12.959  70.280  1.00  0.00    -0.362 A  
HETATM   11  O   UNL     1     -13.436  12.923  72.382  1.00  0.00    -0.566 OA 
HETATM   12  C   UNL     1     -12.837  10.876  71.377  1.00  0.00    -0.554 A  
HETATM   13  H   UNL     1     -13.825  12.450  73.109  1.00  0.00     0.000 HD 
HETATM   14  C   UNL     1     -12.234  10.163  70.342  1.00  0.00    -0.300 A  
ENDBRANCH   6   7
ENDBRANCH   5   6
ENDBRANCH   3   5
ENDBRANCH   2   3
BRANCH   2  15
HETATM   15  C   UNL     1     -10.463   6.262  68.342  1.00  0.00    -0.227 C  
HETATM   16  O   UNL     1     -11.660   6.713  67.692  1.00  0.00    -0.664 OA 
HETATM   17  H   UNL     1     -12.370   6.100  67.846  1.00  0.00     0.000 HD 
BRANCH  15  18
HETATM   18  C   UNL     1     -10.718   5.991  69.814  1.00  0.00    -0.399 A  
HETATM   19  C   UNL     1     -11.738   6.682  70.490  1.00  0.00    -0.453 A  
HETATM   20  C   UNL     1     -10.226   4.783  71.867  1.00  0.00    -0.261 A  
HETATM   21  H   UNL     1     -10.892   4.597  74.310  1.00  0.00     0.000 HD 
HETATM   22  C   UNL     1     -11.987   6.437  71.843  1.00  0.00    -0.381 A  
HETATM   23  C   UNL     1     -11.221   5.496  72.522  1.00  0.00    -0.274 A  
HETATM   24  C   UNL     1      -9.976   5.027  70.518  1.00  0.00    -0.312 A  
HETATM   25  O   UNL     1     -11.416   5.240  73.846  1.00  0.00     0.034 OA 
ENDBRANCH  15  18
ENDBRANCH   2  15
TORSDOF 6
ENDMDL
MODEL      153
REMARK 921   NORMALIZED FREE ENERGY PREDICTED BY IDOCK:   -4.69 KCAL/MOL
REMARK 922        TOTAL FREE ENERGY PREDICTED BY IDOCK:   -7.37 KCAL/MOL
REMARK 923 INTER-LIGAND FREE ENERGY PREDICTED BY IDOCK:   -6.16 KCAL/MOL
REMARK 924 INTRA-LIGAND FREE ENERGY PREDICTED BY IDOCK:   -1.22 KCAL/MOL
REMARK 927      BINDING AFFINITY PREDICTED BY RF-SCORE:    0.00 PKD
ROOT
HETATM    1  C   UNL     1      -8.256  16.040  69.139  1.00  0.00    -0.241 C  
HETATM    2  C   UNL     1      -8.809  15.022  68.130  1.00  0.00    -0.167 C  
ENDROOT
BRANCH   2   3
HETATM    3  N   UNL     1      -7.729  14.196  67.543  1.00  0.00    -0.177 NA 
HETATM    4  H   UNL     1      -6.831  14.667  67.655  1.00  0.00     0.000 HD 
BRANCH   3   5
HETATM    5  C   UNL     1      -7.640  12.823  68.041  1.00  0.00    -0.131 C  
BRANCH   5   6
HETATM    6  C   UNL     1      -8.021  11.771  66.990  1.00  0.00    -0.164 C  
BRANCH   6   7
HETATM    7  C   UNL     1      -8.885  10.683  67.575  1.00  0.00    -0.132 A  
HETATM    8  C   UNL     1      -8.868  10.433  68.955  1.00  0.00    -0.161 A  
HETATM    9  C   UNL     1     -10.424   8.626  68.654  1.00  0.00    -0.177 A  
HETATM   10  C   UNL     1      -9.641   9.407  69.496  1.00  0.00    -0.188 A  
HETATM   11  O   UNL     1     -11.183   7.603  69.138  1.00  0.00    -0.429 OA 
HETATM   12  C   UNL     1     -10.457   8.865  67.283  1.00  0.00    -0.348 A  
HETATM   13  H   UNL     1     -11.718   7.069  68.562  1.00  0.00     0.000 HD 
HETATM   14  C   UNL     1      -9.684   9.891  66.741  1.00  0.00    -0.244 A  
ENDBRANCH   6   7
ENDBRANCH   5   6
ENDBRANCH   3   5
ENDBRANCH   2   3
BRANCH   2  15
HETATM   15  C   UNL     1      -9.591  15.709  66.966  1.00  0.00    -0.223 C  
HETATM   16  O   UNL     1     -10.259  16.887  67.441  1.00  0.00    -0.283 OA 
HETATM   17  H   UNL     1     -10.734  17.306  66.732  1.00  0.00     0.000 HD 
BRANCH  15  18
HETATM   18  C   UNL     1     -10.569  14.782  66.264  1.00  0.00    -0.306 A  
HETATM   19  C   UNL     1     -10.712  14.838  64.868  1.00  0.00    -0.438 A  
HETATM   20  C   UNL     1     -12.204  12.983  66.323  1.00  0.00    -0.390 A  
HETATM   21  H   UNL     1     -13.753  11.613  64.850  1.00  0.00     0.000 HD 
HETATM   22  C   UNL     1     -11.603  13.986  64.209  1.00  0.00    -0.348 A  
HETATM   23  C   UNL     1     -12.348  13.073  64.946  1.00  0.00    -0.459 A  
HETATM   24  C   UNL     1     -11.317  13.832  66.981  1.00  0.00    -0.345 A  
HETATM   25  O   UNL     1     -13.244  12.237  64.347  1.00  0.00    -0.806 OA 
ENDBRANCH  15  18
ENDBRANCH   2  15
TORSDOF 6
ENDMDL
MODEL      154
REMARK 921   NORMALIZED FREE ENERGY PREDICTED BY IDOCK:   -4.63 KCAL/MOL
REMARK 922        TOTAL FREE ENERGY PREDICTED BY IDOCK:   -7.30 KCAL/MOL
REMARK 923 INTER-LIGAND FREE ENERGY PREDICTED BY IDOCK:   -6.83 KCAL/MOL
REMARK 924 INTRA-LIGAND FREE ENERGY PREDICTED BY IDOCK:   -0.46 KCAL/MOL
REMARK 927      BINDING AFFINITY PREDICTED BY RF-SCORE:    0.00 PKD
ROOT
HETATM    1  C   UNL     1     -10.278   8.518  72.163  1.00  0.00    -0.403 C  
HETATM    2  C   UNL     1     -10.993   9.215  70.996  1.00  0.00    -0.305 C  
ENDROOT
BRANCH   2   3
HETATM    3  N   UNL     1     -12.409   8.790  70.893  1.00  0.00    -0.486 NA 
HETATM    4  H   UNL     1     -12.619   8.103  71.617  1.00  0.00     0.000 HD 
BRANCH   3   5
HETATM    5  C   UNL     1     -13.397   9.868  70.925  1.00  0.00    -0.195 C  
BRANCH   5   6
HETATM    6  C   UNL     1     -13.183  10.854  72.082  1.00  0.00    -0.333 C  
BRANCH   6   7
HETATM    7  C   UNL     1     -13.064  12.274  71.594  1.00  0.00    -0.408 A  
HETATM    8  C   UNL     1     -13.769  13.303  72.236  1.00  0.00    -0.686 A  
HETATM    9  C   UNL     1     -12.908  14.892  70.652  1.00  0.00    -0.353 A  
HETATM   10  C   UNL     1     -13.688  14.613  71.768  1.00  0.00    -0.502 A  
HETATM   11  O   UNL     1     -12.812  16.156  70.151  1.00  0.00    -0.561 OA 
HETATM   12  C   UNL     1     -12.197  13.884  70.007  1.00  0.00    -0.408 A  
HETATM   13  H   UNL     1     -12.278  16.346  69.389  1.00  0.00     0.000 HD 
HETATM   14  C   UNL     1     -12.278  12.573  70.475  1.00  0.00    -0.382 A  
ENDBRANCH   6   7
ENDBRANCH   5   6
ENDBRANCH   3   5
ENDBRANCH   2   3
BRANCH   2  15
HETATM   15  C   UNL     1     -10.296   8.940  69.625  1.00  0.00    -0.212 C  
HETATM   16  O   UNL     1     -11.197   9.219  68.544  1.00  0.00    -0.463 OA 
HETATM   17  H   UNL     1     -10.773   9.052  67.710  1.00  0.00     0.000 HD 
BRANCH  15  18
HETATM   18  C   UNL     1      -9.730   7.535  69.506  1.00  0.00    -0.164 A  
HETATM   19  C   UNL     1     -10.594   6.442  69.330  1.00  0.00    -0.311 A  
HETATM   20  C   UNL     1      -7.838   6.010  69.413  1.00  0.00    -0.099 A  
HETATM   21  H   UNL     1      -7.234   3.552  69.211  1.00  0.00     0.000 HD 
HETATM   22  C   UNL     1     -10.085   5.145  69.212  1.00  0.00    -0.283 A  
HETATM   23  C   UNL     1      -8.711   4.941  69.265  1.00  0.00    -0.087 A  
HETATM   24  C   UNL     1      -8.344   7.303  69.531  1.00  0.00    -0.133 A  
HETATM   25  O   UNL     1      -8.173   3.692  69.175  1.00  0.00    -0.060 OA 
ENDBRANCH  15  18
ENDBRANCH   2  15
TORSDOF 6
ENDMDL
MODEL      155
REMARK 921   NORMALIZED FREE ENERGY PREDICTED BY IDOCK:   -4.62 KCAL/MOL
REMARK 922        TOTAL FREE ENERGY PREDICTED BY IDOCK:   -7.29 KCAL/MOL
REMARK 923 INTER-LIGAND FREE ENERGY PREDICTED BY IDOCK:   -6.98 KCAL/MOL
REMARK 924 INTRA-LIGAND FREE ENERGY PREDICTED BY IDOCK:   -0.30 KCAL/MOL
REMARK 927      BINDING AFFINITY PREDICTED BY RF-SCORE:    0.00 PKD
ROOT
HETATM    1  C   UNL     1     -10.336  11.608  67.622  1.00  0.00    -0.210 C  
HETATM    2  C   UNL     1     -11.129  10.399  68.143  1.00  0.00    -0.285 C  
ENDROOT
BRANCH   2   3
HETATM    3  N   UNL     1     -12.268  10.820  68.991  1.00  0.00    -0.761 NA 
HETATM    4  H   UNL     1     -12.758  10.000  69.348  1.00  0.00     0.000 HD 
BRANCH   3   5
HETATM    5  C   UNL     1     -11.937  11.724  70.093  1.00  0.00    -0.339 C  
BRANCH   5   6
HETATM    6  C   UNL     1     -12.225  13.198  69.776  1.00  0.00    -0.266 C  
BRANCH   6   7
HETATM    7  C   UNL     1     -12.441  14.009  71.028  1.00  0.00    -0.444 A  
HETATM    8  C   UNL     1     -13.682  13.985  71.679  1.00  0.00    -0.419 A  
HETATM    9  C   UNL     1     -12.869  15.561  73.302  1.00  0.00    -0.517 A  
HETATM   10  C   UNL     1     -13.896  14.758  72.819  1.00  0.00    -0.401 A  
HETATM   11  O   UNL     1     -13.039  16.343  74.404  1.00  0.00    -0.915 OA 
HETATM   12  C   UNL     1     -11.629  15.590  72.671  1.00  0.00    -0.503 A  
HETATM   13  H   UNL     1     -12.337  16.892  74.734  1.00  0.00     0.000 HD 
HETATM   14  C   UNL     1     -11.414  14.817  71.531  1.00  0.00    -0.203 A  
ENDBRANCH   6   7
ENDBRANCH   5   6
ENDBRANCH   3   5
ENDBRANCH   2   3
BRANCH   2  15
HETATM   15  C   UNL     1     -10.237   9.419  68.968  1.00  0.00    -0.205 C  
HETATM   16  O   UNL     1      -8.934   9.983  69.174  1.00  0.00    -0.147 OA 
HETATM   17  H   UNL     1      -8.392   9.387  69.677  1.00  0.00     0.000 HD 
BRANCH  15  18
HETATM   18  C   UNL     1     -10.132   8.033  68.354  1.00  0.00    -0.221 A  
HETATM   19  C   UNL     1      -9.295   7.067  68.937  1.00  0.00    -0.139 A  
HETATM   20  C   UNL     1     -10.790   6.400  66.677  1.00  0.00    -0.252 A  
HETATM   21  H   UNL     1     -10.362   4.022  65.897  1.00  0.00     0.000 HD 
HETATM   22  C   UNL     1      -9.195   5.787  68.385  1.00  0.00    -0.121 A  
HETATM   23  C   UNL     1      -9.937   5.469  67.253  1.00  0.00    -0.165 A  
HETATM   24  C   UNL     1     -10.890   7.677  67.225  1.00  0.00    -0.263 A  
HETATM   25  O   UNL     1      -9.856   4.239  66.670  1.00  0.00    -0.209 OA 
ENDBRANCH  15  18
ENDBRANCH   2  15
TORSDOF 6
ENDMDL
MODEL      156
REMARK 921   NORMALIZED FREE ENERGY PREDICTED BY IDOCK:   -4.61 KCAL/MOL
REMARK 922        TOTAL FREE ENERGY PREDICTED BY IDOCK:   -7.27 KCAL/MOL
REMARK 923 INTER-LIGAND FREE ENERGY PREDICTED BY IDOCK:   -6.65 KCAL/MOL
REMARK 924 INTRA-LIGAND FREE ENERGY PREDICTED BY IDOCK:   -0.62 KCAL/MOL
REMARK 927      BINDING AFFINITY PREDICTED BY RF-SCORE:    0.00 PKD
ROOT
HETATM    1  C   UNL     1      -7.909   6.228  67.985  1.00  0.00    -0.104 C  
HETATM    2  C   UNL     1      -9.228   7.004  68.111  1.00  0.00    -0.130 C  
ENDROOT
BRANCH   2   3
HETATM    3  N   UNL     1      -9.153   8.036  69.172  1.00  0.00    -0.145 NA 
HETATM    4  H   UNL     1      -8.351   7.856  69.776  1.00  0.00     0.000 HD 
BRANCH   3   5
HETATM    5  C   UNL     1      -9.127   9.423  68.706  1.00  0.00    -0.132 C  
BRANCH   5   6
HETATM    6  C   UNL     1     -10.517   9.967  68.346  1.00  0.00    -0.239 C  
BRANCH   6   7
HETATM    7  C   UNL     1     -10.569  10.477  66.928  1.00  0.00    -0.303 A  
HETATM    8  C   UNL     1     -11.325  11.615  66.614  1.00  0.00    -0.338 A  
HETATM    9  C   UNL     1     -10.727  11.383  64.298  1.00  0.00    -0.356 A  
HETATM   10  C   UNL     1     -11.402  12.071  65.299  1.00  0.00    -0.366 A  
HETATM   11  O   UNL     1     -10.786  11.785  62.998  1.00  0.00    -0.656 OA 
HETATM   12  C   UNL     1      -9.966  10.256  64.594  1.00  0.00    -0.377 A  
HETATM   13  H   UNL     1     -10.324  11.315  62.313  1.00  0.00     0.000 HD 
HETATM   14  C   UNL     1      -9.889   9.799  65.909  1.00  0.00    -0.352 A  
ENDBRANCH   6   7
ENDBRANCH   5   6
ENDBRANCH   3   5
ENDBRANCH   2   3
BRANCH   2  15
HETATM   15  C   UNL     1     -10.439   6.067  68.421  1.00  0.00    -0.238 C  
HETATM   16  O   UNL     1     -11.643   6.608  67.860  1.00  0.00    -0.608 OA 
HETATM   17  H   UNL     1     -12.380   6.038  68.048  1.00  0.00     0.000 HD 
BRANCH  15  18
HETATM   18  C   UNL     1     -10.616   5.777  69.901  1.00  0.00    -0.388 A  
HETATM   19  C   UNL     1     -11.547   6.511  70.655  1.00  0.00    -0.442 A  
HETATM   20  C   UNL     1     -10.068   4.495  71.894  1.00  0.00    -0.258 A  
HETATM   21  H   UNL     1     -10.587   4.292  74.370  1.00  0.00     0.000 HD 
HETATM   22  C   UNL     1     -11.724   6.250  72.016  1.00  0.00    -0.374 A  
HETATM   23  C   UNL     1     -10.974   5.250  72.625  1.00  0.00    -0.260 A  
HETATM   24  C   UNL     1      -9.889   4.756  70.537  1.00  0.00    -0.301 A  
HETATM   25  O   UNL     1     -11.100   4.974  73.954  1.00  0.00    -0.285 OA 
ENDBRANCH  15  18
ENDBRANCH   2  15
TORSDOF 6
ENDMDL
MODEL      157
REMARK 921   NORMALIZED FREE ENERGY PREDICTED BY IDOCK:   -4.61 KCAL/MOL
REMARK 922        TOTAL FREE ENERGY PREDICTED BY IDOCK:   -7.27 KCAL/MOL
REMARK 923 INTER-LIGAND FREE ENERGY PREDICTED BY IDOCK:   -7.56 KCAL/MOL
REMARK 924 INTRA-LIGAND FREE ENERGY PREDICTED BY IDOCK:    0.29 KCAL/MOL
REMARK 927      BINDING AFFINITY PREDICTED BY RF-SCORE:    0.00 PKD
ROOT
HETATM    1  C   UNL     1     -10.855   8.953  72.002  1.00  0.00    -0.404 C  
HETATM    2  C   UNL     1     -12.229   8.424  72.440  1.00  0.00    -0.367 C  
ENDROOT
BRANCH   2   3
HETATM    3  N   UNL     1     -12.464   7.046  71.951  1.00  0.00    -0.433 NA 
HETATM    4  H   UNL     1     -13.455   6.814  72.025  1.00  0.00     0.000 HD 
BRANCH   3   5
HETATM    5  C   UNL     1     -11.986   6.765  70.597  1.00  0.00    -0.362 C  
BRANCH   5   6
HETATM    6  C   UNL     1     -10.771   5.827  70.566  1.00  0.00    -0.361 C  
BRANCH   6   7
HETATM    7  C   UNL     1     -10.403   5.434  69.158  1.00  0.00    -0.300 A  
HETATM    8  C   UNL     1     -10.880   6.178  68.069  1.00  0.00    -0.398 A  
HETATM    9  C   UNL     1      -9.786   4.671  66.550  1.00  0.00    -0.223 A  
HETATM   10  C   UNL     1     -10.569   5.799  66.764  1.00  0.00    -0.373 A  
HETATM   11  O   UNL     1      -9.470   4.256  65.291  1.00  0.00    -0.152 OA 
HETATM   12  C   UNL     1      -9.298   3.926  67.619  1.00  0.00    -0.232 A  
HETATM   13  H   UNL     1      -8.934   3.485  65.145  1.00  0.00     0.000 HD 
HETATM   14  C   UNL     1      -9.610   4.304  68.925  1.00  0.00    -0.227 A  
ENDBRANCH   6   7
ENDBRANCH   5   6
ENDBRANCH   3   5
ENDBRANCH   2   3
BRANCH   2  15
HETATM   15  C   UNL     1     -13.399   9.330  71.939  1.00  0.00    -0.429 C  
HETATM   16  O   UNL     1     -14.246   8.599  71.042  1.00  0.00    -0.627 OA 
HETATM   17  H   UNL     1     -14.958   9.150  70.737  1.00  0.00     0.000 HD 
BRANCH  15  18
HETATM   18  C   UNL     1     -12.930  10.626  71.301  1.00  0.00    -0.513 A  
HETATM   19  C   UNL     1     -12.330  10.608  70.031  1.00  0.00    -0.341 A  
HETATM   20  C   UNL     1     -12.687  13.046  71.341  1.00  0.00    -0.375 A  
HETATM   21  H   UNL     1     -11.770  15.005  70.013  1.00  0.00     0.000 HD 
HETATM   22  C   UNL     1     -11.900  11.794  69.430  1.00  0.00    -0.398 A  
HETATM   23  C   UNL     1     -12.074  13.002  70.097  1.00  0.00    -0.307 A  
HETATM   24  C   UNL     1     -13.115  11.864  71.941  1.00  0.00    -0.474 A  
HETATM   25  O   UNL     1     -11.651  14.181  69.558  1.00  0.00    -0.262 OA 
ENDBRANCH  15  18
ENDBRANCH   2  15
TORSDOF 6
ENDMDL
MODEL      158
REMARK 921   NORMALIZED FREE ENERGY PREDICTED BY IDOCK:   -4.60 KCAL/MOL
REMARK 922        TOTAL FREE ENERGY PREDICTED BY IDOCK:   -7.25 KCAL/MOL
REMARK 923 INTER-LIGAND FREE ENERGY PREDICTED BY IDOCK:   -6.73 KCAL/MOL
REMARK 924 INTRA-LIGAND FREE ENERGY PREDICTED BY IDOCK:   -0.52 KCAL/MOL
REMARK 927      BINDING AFFINITY PREDICTED BY RF-SCORE:    0.00 PKD
ROOT
HETATM    1  C   UNL     1      -7.895  14.412  68.475  1.00  0.00    -0.138 C  
HETATM    2  C   UNL     1      -8.786  14.941  67.342  1.00  0.00    -0.194 C  
ENDROOT
BRANCH   2   3
HETATM    3  N   UNL     1      -9.226  13.850  66.441  1.00  0.00    -0.464 NA 
HETATM    4  H   UNL     1      -9.529  13.046  66.991  1.00  0.00     0.000 HD 
BRANCH   3   5
HETATM    5  C   UNL     1     -10.259  14.209  65.469  1.00  0.00    -0.351 C  
BRANCH   5   6
HETATM    6  C   UNL     1     -11.685  13.972  65.985  1.00  0.00    -0.378 C  
BRANCH   6   7
HETATM    7  C   UNL     1     -11.692  13.177  67.266  1.00  0.00    -0.425 A  
HETATM    8  C   UNL     1     -11.443  11.797  67.242  1.00  0.00    -0.373 A  
HETATM    9  C   UNL     1     -11.774  11.689  69.620  1.00  0.00    -0.350 A  
HETATM   10  C   UNL     1     -11.480  11.053  68.420  1.00  0.00    -0.378 A  
HETATM   11  O   UNL     1     -11.835  10.998  70.793  1.00  0.00    -0.329 OA 
HETATM   12  C   UNL     1     -12.017  13.059  69.662  1.00  0.00    -0.367 A  
HETATM   13  H   UNL     1     -12.036  11.432  71.613  1.00  0.00     0.000 HD 
HETATM   14  C   UNL     1     -11.980  13.804  68.484  1.00  0.00    -0.402 A  
ENDBRANCH   6   7
ENDBRANCH   5   6
ENDBRANCH   3   5
ENDBRANCH   2   3
BRANCH   2  15
HETATM   15  C   UNL     1      -8.066  16.029  66.482  1.00  0.00    -0.269 C  
HETATM   16  O   UNL     1      -6.651  15.995  66.719  1.00  0.00    -0.270 OA 
HETATM   17  H   UNL     1      -6.213  16.656  66.196  1.00  0.00     0.000 HD 
BRANCH  15  18
HETATM   18  C   UNL     1      -8.615  17.429  66.695  1.00  0.00    -0.283 A  
HETATM   19  C   UNL     1      -9.977  17.691  66.475  1.00  0.00    -0.332 A  
HETATM   20  C   UNL     1      -8.310  19.752  67.348  1.00  0.00    -0.348 A  
HETATM   21  H   UNL     1      -9.537  21.963  67.576  1.00  0.00     0.000 HD 
HETATM   22  C   UNL     1     -10.496  18.974  66.674  1.00  0.00    -0.517 A  
HETATM   23  C   UNL     1      -9.653  19.995  67.099  1.00  0.00    -0.402 A  
HETATM   24  C   UNL     1      -7.792  18.474  67.149  1.00  0.00    -0.236 A  
HETATM   25  O   UNL     1     -10.112  21.265  67.286  1.00  0.00     0.072 OA 
ENDBRANCH  15  18
ENDBRANCH   2  15
TORSDOF 6
ENDMDL
MODEL      159
REMARK 921   NORMALIZED FREE ENERGY PREDICTED BY IDOCK:   -4.59 KCAL/MOL
REMARK 922        TOTAL FREE ENERGY PREDICTED BY IDOCK:   -7.24 KCAL/MOL
REMARK 923 INTER-LIGAND FREE ENERGY PREDICTED BY IDOCK:   -6.41 KCAL/MOL
REMARK 924 INTRA-LIGAND FREE ENERGY PREDICTED BY IDOCK:   -0.83 KCAL/MOL
REMARK 927      BINDING AFFINITY PREDICTED BY RF-SCORE:    0.00 PKD
ROOT
HETATM    1  C   UNL     1     -11.026  13.535  66.926  1.00  0.00    -0.296 C  
HETATM    2  C   UNL     1     -11.156  12.005  66.897  1.00  0.00    -0.302 C  
ENDROOT
BRANCH   2   3
HETATM    3  N   UNL     1     -11.747  11.485  68.152  1.00  0.00    -0.508 NA 
HETATM    4  H   UNL     1     -11.476  10.510  68.286  1.00  0.00     0.000 HD 
BRANCH   3   5
HETATM    5  C   UNL     1     -11.449  12.257  69.359  1.00  0.00    -0.277 C  
BRANCH   5   6
HETATM    6  C   UNL     1     -12.445  12.005  70.500  1.00  0.00    -0.292 C  
BRANCH   6   7
HETATM    7  C   UNL     1     -12.336  10.602  71.039  1.00  0.00    -0.507 A  
HETATM    8  C   UNL     1     -13.471   9.947  71.539  1.00  0.00    -0.393 A  
HETATM    9  C   UNL     1     -12.127   8.036  72.105  1.00  0.00    -0.343 A  
HETATM   10  C   UNL     1     -13.368   8.662  72.069  1.00  0.00    -0.428 A  
HETATM   11  O   UNL     1     -11.979   6.786  72.626  1.00  0.00    -0.491 OA 
HETATM   12  C   UNL     1     -10.993   8.668  71.606  1.00  0.00    -0.378 A  
HETATM   13  H   UNL     1     -11.131   6.358  72.651  1.00  0.00     0.000 HD 
HETATM   14  C   UNL     1     -11.095   9.954  71.076  1.00  0.00    -0.401 A  
ENDBRANCH   6   7
ENDBRANCH   5   6
ENDBRANCH   3   5
ENDBRANCH   2   3
BRANCH   2  15
HETATM   15  C   UNL     1      -9.782  11.298  66.670  1.00  0.00    -0.196 C  
HETATM   16  O   UNL     1      -9.430  11.329  65.279  1.00  0.00    -0.219 OA 
HETATM   17  H   UNL     1      -8.594  10.899  65.141  1.00  0.00     0.000 HD 
BRANCH  15  18
HETATM   18  C   UNL     1      -9.736   9.878  67.206  1.00  0.00    -0.213 A  
HETATM   19  C   UNL     1     -10.488   8.867  66.584  1.00  0.00    -0.231 A  
HETATM   20  C   UNL     1      -8.884   8.228  68.777  1.00  0.00    -0.137 A  
HETATM   21  H   UNL     1      -9.060   5.781  69.428  1.00  0.00     0.000 HD 
HETATM   22  C   UNL     1     -10.449   7.555  67.063  1.00  0.00    -0.409 A  
HETATM   23  C   UNL     1      -9.655   7.250  68.163  1.00  0.00    -0.140 A  
HETATM   24  C   UNL     1      -8.923   9.537  68.300  1.00  0.00    -0.124 A  
HETATM   25  O   UNL     1      -9.602   5.989  68.677  1.00  0.00    -0.122 OA 
ENDBRANCH  15  18
ENDBRANCH   2  15
TORSDOF 6
ENDMDL
MODEL      160
REMARK 921   NORMALIZED FREE ENERGY PREDICTED BY IDOCK:   -4.58 KCAL/MOL
REMARK 922        TOTAL FREE ENERGY PREDICTED BY IDOCK:   -7.24 KCAL/MOL
REMARK 923 INTER-LIGAND FREE ENERGY PREDICTED BY IDOCK:   -6.54 KCAL/MOL
REMARK 924 INTRA-LIGAND FREE ENERGY PREDICTED BY IDOCK:   -0.69 KCAL/MOL
REMARK 927      BINDING AFFINITY PREDICTED BY RF-SCORE:    0.00 PKD
ROOT
HETATM    1  C   UNL     1     -14.167   8.536  71.796  1.00  0.00    -0.525 C  
HETATM    2  C   UNL     1     -12.723   8.731  72.281  1.00  0.00    -0.402 C  
ENDROOT
BRANCH   2   3
HETATM    3  N   UNL     1     -11.988   9.695  71.429  1.00  0.00    -0.372 NA 
HETATM    4  H   UNL     1     -11.269   9.208  70.894  1.00  0.00     0.000 HD 
BRANCH   3   5
HETATM    5  C   UNL     1     -12.814  10.507  70.534  1.00  0.00    -0.264 C  
BRANCH   5   6
HETATM    6  C   UNL     1     -12.158  11.840  70.147  1.00  0.00    -0.398 C  
BRANCH   6   7
HETATM    7  C   UNL     1     -11.637  11.818  68.733  1.00  0.00    -0.367 A  
HETATM    8  C   UNL     1     -11.009  10.670  68.229  1.00  0.00    -0.314 A  
HETATM    9  C   UNL     1     -10.608  11.795  66.144  1.00  0.00    -0.260 A  
HETATM   10  C   UNL     1     -10.497  10.657  66.933  1.00  0.00    -0.304 A  
HETATM   11  O   UNL     1     -10.109  11.831  64.876  1.00  0.00    -0.246 OA 
HETATM   12  C   UNL     1     -11.234  12.940  66.626  1.00  0.00    -0.342 A  
HETATM   13  H   UNL     1     -10.184  12.609  64.337  1.00  0.00     0.000 HD 
HETATM   14  C   UNL     1     -11.746  12.955  67.923  1.00  0.00    -0.405 A  
ENDBRANCH   6   7
ENDBRANCH   5   6
ENDBRANCH   3   5
ENDBRANCH   2   3
BRANCH   2  15
HETATM   15  C   UNL     1     -11.922   7.391  72.311  1.00  0.00    -0.239 C  
HETATM   16  O   UNL     1     -11.028   7.370  73.432  1.00  0.00    -0.506 OA 
HETATM   17  H   UNL     1     -10.540   6.554  73.450  1.00  0.00     0.000 HD 
BRANCH  15  18
HETATM   18  C   UNL     1     -11.174   7.105  71.020  1.00  0.00    -0.298 A  
HETATM   19  C   UNL     1      -9.852   7.552  70.859  1.00  0.00    -0.177 A  
HETATM   20  C   UNL     1     -11.065   6.100  68.808  1.00  0.00    -0.398 A  
HETATM   21  H   UNL     1      -9.552   5.824  66.788  1.00  0.00     0.000 HD 
HETATM   22  C   UNL     1      -9.151   7.289  69.679  1.00  0.00    -0.140 A  
HETATM   23  C   UNL     1      -9.769   6.574  68.659  1.00  0.00    -0.127 A  
HETATM   24  C   UNL     1     -11.765   6.362  69.983  1.00  0.00    -0.345 A  
HETATM   25  O   UNL     1      -9.130   6.312  67.484  1.00  0.00    -0.113 OA 
ENDBRANCH  15  18
ENDBRANCH   2  15
TORSDOF 6
ENDMDL
MODEL      161
REMARK 921   NORMALIZED FREE ENERGY PREDICTED BY IDOCK:   -4.57 KCAL/MOL
REMARK 922        TOTAL FREE ENERGY PREDICTED BY IDOCK:   -7.22 KCAL/MOL
REMARK 923 INTER-LIGAND FREE ENERGY PREDICTED BY IDOCK:   -5.67 KCAL/MOL
REMARK 924 INTRA-LIGAND FREE ENERGY PREDICTED BY IDOCK:   -1.55 KCAL/MOL
REMARK 927      BINDING AFFINITY PREDICTED BY RF-SCORE:    0.00 PKD
ROOT
HETATM    1  C   UNL     1     -12.984  12.913  71.388  1.00  0.00    -0.362 C  
HETATM    2  C   UNL     1     -12.095  13.000  70.139  1.00  0.00    -0.307 C  
ENDROOT
BRANCH   2   3
HETATM    3  N   UNL     1     -12.380  14.223  69.352  1.00  0.00    -0.516 NA 
HETATM    4  H   UNL     1     -13.316  14.167  68.950  1.00  0.00     0.000 HD 
BRANCH   3   5
HETATM    5  C   UNL     1     -12.217  15.488  70.068  1.00  0.00    -0.355 C  
BRANCH   5   6
HETATM    6  C   UNL     1     -11.216  16.440  69.397  1.00  0.00    -0.267 C  
BRANCH   6   7
HETATM    7  C   UNL     1     -10.067  15.692  68.771  1.00  0.00    -0.211 A  
HETATM    8  C   UNL     1      -8.925  15.390  69.527  1.00  0.00    -0.229 A  
HETATM    9  C   UNL     1      -7.910  14.374  67.600  1.00  0.00    -0.181 A  
HETATM   10  C   UNL     1      -7.847  14.727  68.942  1.00  0.00    -0.152 A  
HETATM   11  O   UNL     1      -6.873  13.738  66.985  1.00  0.00    -0.400 OA 
HETATM   12  C   UNL     1      -9.038  14.660  66.837  1.00  0.00    -0.272 A  
HETATM   13  H   UNL     1      -6.916  13.496  66.067  1.00  0.00     0.000 HD 
HETATM   14  C   UNL     1     -10.117  15.323  67.421  1.00  0.00    -0.232 A  
ENDBRANCH   6   7
ENDBRANCH   5   6
ENDBRANCH   3   5
ENDBRANCH   2   3
BRANCH   2  15
HETATM   15  C   UNL     1     -12.267  11.762  69.203  1.00  0.00    -0.108 C  
HETATM   16  O   UNL     1     -12.538  10.585  69.978  1.00  0.00    -0.502 OA 
HETATM   17  H   UNL     1     -12.643   9.832  69.408  1.00  0.00     0.000 HD 
BRANCH  15  18
HETATM   18  C   UNL     1     -11.086  11.536  68.275  1.00  0.00    -0.295 A  
HETATM   19  C   UNL     1      -9.822  11.235  68.807  1.00  0.00    -0.194 A  
HETATM   20  C   UNL     1     -10.145  11.367  66.038  1.00  0.00    -0.275 A  
HETATM   21  H   UNL     1      -7.973  10.966  64.787  1.00  0.00     0.000 HD 
HETATM   22  C   UNL     1      -8.728  11.018  67.964  1.00  0.00    -0.138 A  
HETATM   23  C   UNL     1      -8.899  11.096  66.586  1.00  0.00    -0.166 A  
HETATM   24  C   UNL     1     -11.236  11.584  66.878  1.00  0.00    -0.363 A  
HETATM   25  O   UNL     1      -7.856  10.912  65.728  1.00  0.00    -0.142 OA 
ENDBRANCH  15  18
ENDBRANCH   2  15
TORSDOF 6
ENDMDL
MODEL      162
REMARK 921   NORMALIZED FREE ENERGY PREDICTED BY IDOCK:   -4.57 KCAL/MOL
REMARK 922        TOTAL FREE ENERGY PREDICTED BY IDOCK:   -7.21 KCAL/MOL
REMARK 923 INTER-LIGAND FREE ENERGY PREDICTED BY IDOCK:   -6.46 KCAL/MOL
REMARK 924 INTRA-LIGAND FREE ENERGY PREDICTED BY IDOCK:   -0.75 KCAL/MOL
REMARK 927      BINDING AFFINITY PREDICTED BY RF-SCORE:    0.00 PKD
ROOT
HETATM    1  C   UNL     1      -7.125  18.043  69.123  1.00  0.00    -0.189 C  
HETATM    2  C   UNL     1      -8.011  16.950  68.506  1.00  0.00    -0.242 C  
ENDROOT
BRANCH   2   3
HETATM    3  N   UNL     1      -7.778  15.635  69.146  1.00  0.00    -0.195 NA 
HETATM    4  H   UNL     1      -7.116  15.735  69.916  1.00  0.00     0.000 HD 
BRANCH   3   5
HETATM    5  C   UNL     1      -8.976  14.933  69.606  1.00  0.00     0.114 C  
BRANCH   5   6
HETATM    6  C   UNL     1     -10.190  15.857  69.780  1.00  0.00    -0.268 C  
BRANCH   6   7
HETATM    7  C   UNL     1     -11.281  15.202  70.588  1.00  0.00    -0.321 A  
HETATM    8  C   UNL     1     -11.600  15.685  71.865  1.00  0.00    -0.547 A  
HETATM    9  C   UNL     1     -13.247  13.952  72.117  1.00  0.00    -0.444 A  
HETATM   10  C   UNL     1     -12.586  15.063  72.629  1.00  0.00    -0.459 A  
HETATM   11  O   UNL     1     -14.207  13.305  72.835  1.00  0.00    -0.600 OA 
HETATM   12  C   UNL     1     -12.947  13.465  70.849  1.00  0.00    -0.195 A  
HETATM   13  H   UNL     1     -14.658  12.546  72.485  1.00  0.00     0.000 HD 
HETATM   14  C   UNL     1     -11.961  14.087  70.084  1.00  0.00    -0.399 A  
ENDBRANCH   6   7
ENDBRANCH   5   6
ENDBRANCH   3   5
ENDBRANCH   2   3
BRANCH   2  15
HETATM   15  C   UNL     1      -7.777  16.797  66.969  1.00  0.00    -0.195 C  
HETATM   16  O   UNL     1      -7.346  18.044  66.405  1.00  0.00    -0.219 OA 
HETATM   17  H   UNL     1      -7.204  17.951  65.470  1.00  0.00     0.000 HD 
BRANCH  15  18
HETATM   18  C   UNL     1      -8.986  16.258  66.225  1.00  0.00    -0.366 A  
HETATM   19  C   UNL     1      -9.211  14.873  66.159  1.00  0.00    -0.268 A  
HETATM   20  C   UNL     1     -11.028  16.613  64.951  1.00  0.00    -0.162 A  
HETATM   21  H   UNL     1     -12.912  15.385  63.773  1.00  0.00     0.000 HD 
HETATM   22  C   UNL     1     -10.323  14.364  65.482  1.00  0.00    -0.382 A  
HETATM   23  C   UNL     1     -11.216  15.240  64.875  1.00  0.00    -0.415 A  
HETATM   24  C   UNL     1      -9.919  17.121  65.624  1.00  0.00    -0.041 A  
HETATM   25  O   UNL     1     -12.303  14.787  64.188  1.00  0.00    -0.669 OA 
ENDBRANCH  15  18
ENDBRANCH   2  15
TORSDOF 6
ENDMDL
MODEL      163
REMARK 921   NORMALIZED FREE ENERGY PREDICTED BY IDOCK:   -4.56 KCAL/MOL
REMARK 922        TOTAL FREE ENERGY PREDICTED BY IDOCK:   -7.21 KCAL/MOL
REMARK 923 INTER-LIGAND FREE ENERGY PREDICTED BY IDOCK:   -6.62 KCAL/MOL
REMARK 924 INTRA-LIGAND FREE ENERGY PREDICTED BY IDOCK:   -0.59 KCAL/MOL
REMARK 927      BINDING AFFINITY PREDICTED BY RF-SCORE:    0.00 PKD
ROOT
HETATM    1  C   UNL     1     -11.788  10.402  70.034  1.00  0.00    -0.351 C  
HETATM    2  C   UNL     1     -10.312  10.019  69.847  1.00  0.00    -0.272 C  
ENDROOT
BRANCH   2   3
HETATM    3  N   UNL     1      -9.501  11.177  69.406  1.00  0.00    -0.401 NA 
HETATM    4  H   UNL     1      -8.669  10.851  68.913  1.00  0.00     0.000 HD 
BRANCH   3   5
HETATM    5  C   UNL     1     -10.204  12.171  68.596  1.00  0.00    -0.174 C  
BRANCH   5   6
HETATM    6  C   UNL     1      -9.361  12.711  67.432  1.00  0.00    -0.189 C  
BRANCH   6   7
HETATM    7  C   UNL     1     -10.209  13.031  66.228  1.00  0.00    -0.291 A  
HETATM    8  C   UNL     1     -10.203  14.323  65.683  1.00  0.00    -0.366 A  
HETATM    9  C   UNL     1     -11.828  13.648  64.046  1.00  0.00    -0.400 A  
HETATM   10  C   UNL     1     -11.010  14.632  64.589  1.00  0.00    -0.340 A  
HETATM   11  O   UNL     1     -12.644  13.910  62.986  1.00  0.00    -1.030 OA 
HETATM   12  C   UNL     1     -11.841  12.360  64.570  1.00  0.00    -0.452 A  
HETATM   13  H   UNL     1     -13.203  13.238  62.615  1.00  0.00     0.000 HD 
HETATM   14  C   UNL     1     -11.034  12.050  65.665  1.00  0.00    -0.343 A  
ENDBRANCH   6   7
ENDBRANCH   5   6
ENDBRANCH   3   5
ENDBRANCH   2   3
BRANCH   2  15
HETATM   15  C   UNL     1     -10.128   8.865  68.811  1.00  0.00    -0.200 C  
HETATM   16  O   UNL     1     -11.206   8.868  67.865  1.00  0.00    -0.450 OA 
HETATM   17  H   UNL     1     -11.093   8.166  67.234  1.00  0.00     0.000 HD 
BRANCH  15  18
HETATM   18  C   UNL     1      -9.976   7.496  69.451  1.00  0.00    -0.178 A  
HETATM   19  C   UNL     1     -11.106   6.817  69.935  1.00  0.00    -0.374 A  
HETATM   20  C   UNL     1      -8.598   5.607  70.122  1.00  0.00    -0.127 A  
HETATM   21  H   UNL     1      -8.696   3.342  71.264  1.00  0.00     0.000 HD 
HETATM   22  C   UNL     1     -10.981   5.553  70.519  1.00  0.00    -0.196 A  
HETATM   23  C   UNL     1      -9.725   4.965  70.617  1.00  0.00    -0.201 A  
HETATM   24  C   UNL     1      -8.722   6.866  69.539  1.00  0.00    -0.133 A  
HETATM   25  O   UNL     1      -9.553   3.743  71.197  1.00  0.00    -0.154 OA 
ENDBRANCH  15  18
ENDBRANCH   2  15
TORSDOF 6
ENDMDL
MODEL      164
REMARK 921   NORMALIZED FREE ENERGY PREDICTED BY IDOCK:   -4.55 KCAL/MOL
REMARK 922        TOTAL FREE ENERGY PREDICTED BY IDOCK:   -7.19 KCAL/MOL
REMARK 923 INTER-LIGAND FREE ENERGY PREDICTED BY IDOCK:   -6.66 KCAL/MOL
REMARK 924 INTRA-LIGAND FREE ENERGY PREDICTED BY IDOCK:   -0.53 KCAL/MOL
REMARK 927      BINDING AFFINITY PREDICTED BY RF-SCORE:    0.00 PKD
ROOT
HETATM    1  C   UNL     1      -6.857   9.593  68.004  1.00  0.00    -0.073 C  
HETATM    2  C   UNL     1      -8.252   9.063  68.370  1.00  0.00    -0.116 C  
ENDROOT
BRANCH   2   3
HETATM    3  N   UNL     1      -9.167   9.091  67.205  1.00  0.00    -0.132 NA 
HETATM    4  H   UNL     1     -10.076   8.709  67.467  1.00  0.00     0.000 HD 
BRANCH   3   5
HETATM    5  C   UNL     1      -9.338  10.395  66.565  1.00  0.00    -0.163 C  
BRANCH   5   6
HETATM    6  C   UNL     1     -10.003  10.310  65.184  1.00  0.00    -0.395 C  
BRANCH   6   7
HETATM    7  C   UNL     1     -10.769  11.565  64.853  1.00  0.00    -0.357 A  
HETATM    8  C   UNL     1     -11.358  11.720  63.590  1.00  0.00    -0.525 A  
HETATM    9  C   UNL     1     -12.126  13.912  64.210  1.00  0.00    -0.440 A  
HETATM   10  C   UNL     1     -12.040  12.893  63.268  1.00  0.00    -0.520 A  
HETATM   11  O   UNL     1     -12.771  15.080  63.933  1.00  0.00    -0.848 OA 
HETATM   12  C   UNL     1     -11.554  13.770  65.470  1.00  0.00    -0.335 A  
HETATM   13  H   UNL     1     -12.830  15.777  64.576  1.00  0.00     0.000 HD 
HETATM   14  C   UNL     1     -10.871  12.598  65.792  1.00  0.00    -0.304 A  
ENDBRANCH   6   7
ENDBRANCH   5   6
ENDBRANCH   3   5
ENDBRANCH   2   3
BRANCH   2  15
HETATM   15  C   UNL     1      -8.908   9.876  69.530  1.00  0.00    -0.197 C  
HETATM   16  O   UNL     1      -7.997  10.871  70.018  1.00  0.00    -0.311 OA 
HETATM   17  H   UNL     1      -8.397  11.367  70.724  1.00  0.00     0.000 HD 
BRANCH  15  18
HETATM   18  C   UNL     1      -9.415   9.006  70.667  1.00  0.00    -0.286 A  
HETATM   19  C   UNL     1     -10.688   9.236  71.215  1.00  0.00    -0.422 A  
HETATM   20  C   UNL     1      -9.130   7.144  72.205  1.00  0.00    -0.148 A  
HETATM   21  H   UNL     1     -10.261   5.910  74.114  1.00  0.00     0.000 HD 
HETATM   22  C   UNL     1     -11.169   8.438  72.257  1.00  0.00    -0.446 A  
HETATM   23  C   UNL     1     -10.380   7.405  72.749  1.00  0.00    -0.258 A  
HETATM   24  C   UNL     1      -8.649   7.939  71.167  1.00  0.00    -0.136 A  
HETATM   25  O   UNL     1     -10.801   6.615  73.777  1.00  0.00    -0.247 OA 
ENDBRANCH  15  18
ENDBRANCH   2  15
TORSDOF 6
ENDMDL
MODEL      165
REMARK 921   NORMALIZED FREE ENERGY PREDICTED BY IDOCK:   -4.54 KCAL/MOL
REMARK 922        TOTAL FREE ENERGY PREDICTED BY IDOCK:   -7.18 KCAL/MOL
REMARK 923 INTER-LIGAND FREE ENERGY PREDICTED BY IDOCK:   -6.49 KCAL/MOL
REMARK 924 INTRA-LIGAND FREE ENERGY PREDICTED BY IDOCK:   -0.70 KCAL/MOL
REMARK 927      BINDING AFFINITY PREDICTED BY RF-SCORE:    0.00 PKD
ROOT
HETATM    1  C   UNL     1     -11.134  11.199  67.580  1.00  0.00    -0.348 C  
HETATM    2  C   UNL     1     -10.722  11.546  69.018  1.00  0.00    -0.193 C  
ENDROOT
BRANCH   2   3
HETATM    3  N   UNL     1      -9.511  10.801  69.432  1.00  0.00    -0.413 NA 
HETATM    4  H   UNL     1      -9.401  10.850  70.445  1.00  0.00     0.000 HD 
BRANCH   3   5
HETATM    5  C   UNL     1      -9.442   9.408  68.989  1.00  0.00    -0.160 C  
BRANCH   5   6
HETATM    6  C   UNL     1      -8.005   8.893  68.829  1.00  0.00    -0.102 C  
BRANCH   6   7
HETATM    7  C   UNL     1      -7.338   9.465  67.604  1.00  0.00    -0.084 A  
HETATM    8  C   UNL     1      -6.413  10.512  67.728  1.00  0.00    -0.060 A  
HETATM    9  C   UNL     1      -6.156  10.577  65.339  1.00  0.00    -0.122 A  
HETATM   10  C   UNL     1      -5.818  11.066  66.595  1.00  0.00    -0.113 A  
HETATM   11  O   UNL     1      -5.610  11.098  64.204  1.00  0.00    -0.428 OA 
HETATM   12  C   UNL     1      -7.067   9.534  65.199  1.00  0.00    -0.104 A  
HETATM   13  H   UNL     1      -5.841  10.764  63.346  1.00  0.00     0.000 HD 
HETATM   14  C   UNL     1      -7.663   8.979  66.332  1.00  0.00    -0.099 A  
ENDBRANCH   6   7
ENDBRANCH   5   6
ENDBRANCH   3   5
ENDBRANCH   2   3
BRANCH   2  15
HETATM   15  C   UNL     1     -11.858  11.249  70.048  1.00  0.00    -0.367 C  
HETATM   16  O   UNL     1     -12.899  10.477  69.432  1.00  0.00    -0.654 OA 
HETATM   17  H   UNL     1     -13.590  10.296  70.059  1.00  0.00     0.000 HD 
BRANCH  15  18
HETATM   18  C   UNL     1     -12.427  12.498  70.698  1.00  0.00    -0.323 A  
HETATM   19  C   UNL     1     -13.241  12.389  71.838  1.00  0.00    -0.486 A  
HETATM   20  C   UNL     1     -12.649  14.918  70.816  1.00  0.00    -0.414 A  
HETATM   21  H   UNL     1     -13.778  16.781  72.119  1.00  0.00     0.000 HD 
HETATM   22  C   UNL     1     -13.765  13.532  72.450  1.00  0.00    -0.704 A  
HETATM   23  C   UNL     1     -13.472  14.785  71.925  1.00  0.00    -0.371 A  
HETATM   24  C   UNL     1     -12.126  13.780  70.205  1.00  0.00    -0.429 A  
HETATM   25  O   UNL     1     -13.978  15.924  72.478  1.00  0.00    -0.511 OA 
ENDBRANCH  15  18
ENDBRANCH   2  15
TORSDOF 6
ENDMDL
MODEL      166
REMARK 921   NORMALIZED FREE ENERGY PREDICTED BY IDOCK:   -4.54 KCAL/MOL
REMARK 922        TOTAL FREE ENERGY PREDICTED BY IDOCK:   -7.18 KCAL/MOL
REMARK 923 INTER-LIGAND FREE ENERGY PREDICTED BY IDOCK:   -6.57 KCAL/MOL
REMARK 924 INTRA-LIGAND FREE ENERGY PREDICTED BY IDOCK:   -0.61 KCAL/MOL
REMARK 927      BINDING AFFINITY PREDICTED BY RF-SCORE:    0.00 PKD
ROOT
HETATM    1  C   UNL     1      -7.503  14.276  69.226  1.00  0.00    -0.022 C  
HETATM    2  C   UNL     1      -8.183  14.516  67.870  1.00  0.00    -0.153 C  
ENDROOT
BRANCH   2   3
HETATM    3  N   UNL     1      -7.468  15.542  67.076  1.00  0.00    -0.205 NA 
HETATM    4  H   UNL     1      -8.029  16.393  67.020  1.00  0.00     0.000 HD 
BRANCH   3   5
HETATM    5  C   UNL     1      -6.115  15.865  67.531  1.00  0.00    -0.145 C  
BRANCH   5   6
HETATM    6  C   UNL     1      -6.007  17.254  68.175  1.00  0.00    -0.135 C  
BRANCH   6   7
HETATM    7  C   UNL     1      -7.095  18.180  67.694  1.00  0.00    -0.202 A  
HETATM    8  C   UNL     1      -6.942  18.885  66.491  1.00  0.00    -0.231 A  
HETATM    9  C   UNL     1      -9.070  19.948  66.834  1.00  0.00    -0.356 A  
HETATM   10  C   UNL     1      -7.932  19.766  66.059  1.00  0.00    -0.339 A  
HETATM   11  O   UNL     1     -10.056  20.810  66.457  1.00  0.00    -0.480 OA 
HETATM   12  C   UNL     1      -9.241  19.251  68.026  1.00  0.00    -0.375 A  
HETATM   13  H   UNL     1     -10.834  20.934  66.987  1.00  0.00     0.000 HD 
HETATM   14  C   UNL     1      -8.252  18.369  68.460  1.00  0.00    -0.338 A  
ENDBRANCH   6   7
ENDBRANCH   5   6
ENDBRANCH   3   5
ENDBRANCH   2   3
BRANCH   2  15
HETATM   15  C   UNL     1      -9.671  14.965  68.026  1.00  0.00    -0.212 C  
HETATM   16  O   UNL     1     -10.274  14.308  69.150  1.00  0.00    -0.364 OA 
HETATM   17  H   UNL     1     -11.179  14.581  69.246  1.00  0.00     0.000 HD 
BRANCH  15  18
HETATM   18  C   UNL     1     -10.501  14.755  66.771  1.00  0.00    -0.282 A  
HETATM   19  C   UNL     1     -10.475  15.712  65.743  1.00  0.00    -0.383 A  
HETATM   20  C   UNL     1     -12.026  13.413  65.434  1.00  0.00    -0.419 A  
HETATM   21  H   UNL     1     -13.303  13.390  63.240  1.00  0.00     0.000 HD 
HETATM   22  C   UNL     1     -11.228  15.527  64.580  1.00  0.00    -0.381 A  
HETATM   23  C   UNL     1     -12.006  14.383  64.442  1.00  0.00    -0.452 A  
HETATM   24  C   UNL     1     -11.276  13.596  66.594  1.00  0.00    -0.324 A  
HETATM   25  O   UNL     1     -12.772  14.172  63.335  1.00  0.00    -0.767 OA 
ENDBRANCH  15  18
ENDBRANCH   2  15
TORSDOF 6
ENDMDL
MODEL      167
REMARK 921   NORMALIZED FREE ENERGY PREDICTED BY IDOCK:   -4.51 KCAL/MOL
REMARK 922        TOTAL FREE ENERGY PREDICTED BY IDOCK:   -7.14 KCAL/MOL
REMARK 923 INTER-LIGAND FREE ENERGY PREDICTED BY IDOCK:   -5.70 KCAL/MOL
REMARK 924 INTRA-LIGAND FREE ENERGY PREDICTED BY IDOCK:   -1.44 KCAL/MOL
REMARK 927      BINDING AFFINITY PREDICTED BY RF-SCORE:    0.00 PKD
ROOT
HETATM    1  C   UNL     1     -10.186  18.438  68.227  1.00  0.00    -0.412 C  
HETATM    2  C   UNL     1      -9.797  16.954  68.171  1.00  0.00    -0.264 C  
ENDROOT
BRANCH   2   3
HETATM    3  N   UNL     1     -10.313  16.211  69.344  1.00  0.00    -0.258 NA 
HETATM    4  H   UNL     1     -10.410  16.842  70.140  1.00  0.00     0.000 HD 
BRANCH   3   5
HETATM    5  C   UNL     1     -11.562  15.479  69.131  1.00  0.00    -0.362 C  
BRANCH   5   6
HETATM    6  C   UNL     1     -11.348  13.988  68.835  1.00  0.00    -0.314 C  
BRANCH   6   7
HETATM    7  C   UNL     1     -11.678  13.648  67.405  1.00  0.00    -0.416 A  
HETATM    8  C   UNL     1     -11.525  12.334  66.937  1.00  0.00    -0.418 A  
HETATM    9  C   UNL     1     -12.217  13.026  64.742  1.00  0.00    -0.435 A  
HETATM   10  C   UNL     1     -11.798  12.022  65.607  1.00  0.00    -0.242 A  
HETATM   11  O   UNL     1     -12.481  12.769  63.431  1.00  0.00    -0.682 OA 
HETATM   12  C   UNL     1     -12.381  14.333  65.191  1.00  0.00    -0.427 A  
HETATM   13  H   UNL     1     -12.768  13.455  62.840  1.00  0.00     0.000 HD 
HETATM   14  C   UNL     1     -12.108  14.647  66.522  1.00  0.00    -0.230 A  
ENDBRANCH   6   7
ENDBRANCH   5   6
ENDBRANCH   3   5
ENDBRANCH   2   3
BRANCH   2  15
HETATM   15  C   UNL     1      -8.250  16.750  68.101  1.00  0.00    -0.199 C  
HETATM   16  O   UNL     1      -7.715  17.394  66.936  1.00  0.00    -0.189 OA 
HETATM   17  H   UNL     1      -6.773  17.270  66.894  1.00  0.00     0.000 HD 
BRANCH  15  18
HETATM   18  C   UNL     1      -7.829  15.291  68.152  1.00  0.00    -0.122 A  
HETATM   19  C   UNL     1      -7.064  14.817  69.230  1.00  0.00    -0.154 A  
HETATM   20  C   UNL     1      -7.836  13.046  67.216  1.00  0.00    -0.132 A  
HETATM   21  H   UNL     1      -6.945  10.699  67.594  1.00  0.00     0.000 HD 
HETATM   22  C   UNL     1      -6.676  13.476  69.292  1.00  0.00    -0.080 A  
HETATM   23  C   UNL     1      -7.058  12.605  68.277  1.00  0.00    -0.105 A  
HETATM   24  C   UNL     1      -8.222  14.383  67.153  1.00  0.00    -0.202 A  
HETATM   25  O   UNL     1      -6.685  11.293  68.287  1.00  0.00    -0.057 OA 
ENDBRANCH  15  18
ENDBRANCH   2  15
TORSDOF 6
ENDMDL
MODEL      168
REMARK 921   NORMALIZED FREE ENERGY PREDICTED BY IDOCK:   -4.50 KCAL/MOL
REMARK 922        TOTAL FREE ENERGY PREDICTED BY IDOCK:   -7.11 KCAL/MOL
REMARK 923 INTER-LIGAND FREE ENERGY PREDICTED BY IDOCK:   -5.86 KCAL/MOL
REMARK 924 INTRA-LIGAND FREE ENERGY PREDICTED BY IDOCK:   -1.26 KCAL/MOL
REMARK 927      BINDING AFFINITY PREDICTED BY RF-SCORE:    0.00 PKD
ROOT
HETATM    1  C   UNL     1     -11.774  14.420  67.699  1.00  0.00    -0.421 C  
HETATM    2  C   UNL     1     -10.979  13.571  68.702  1.00  0.00    -0.263 C  
ENDROOT
BRANCH   2   3
HETATM    3  N   UNL     1      -9.547  13.952  68.723  1.00  0.00    -0.390 NA 
HETATM    4  H   UNL     1      -9.050  13.399  69.421  1.00  0.00     0.000 HD 
BRANCH   3   5
HETATM    5  C   UNL     1      -8.853  13.876  67.438  1.00  0.00    -0.207 C  
BRANCH   5   6
HETATM    6  C   UNL     1      -7.591  13.002  67.481  1.00  0.00    -0.166 C  
BRANCH   6   7
HETATM    7  C   UNL     1      -7.922  11.536  67.363  1.00  0.00    -0.143 A  
HETATM    8  C   UNL     1      -8.544  11.044  66.206  1.00  0.00    -0.167 A  
HETATM    9  C   UNL     1      -8.601   8.841  67.165  1.00  0.00    -0.117 A  
HETATM   10  C   UNL     1      -8.880   9.695  66.105  1.00  0.00    -0.173 A  
HETATM   11  O   UNL     1      -8.926   7.518  67.115  1.00  0.00    -0.122 OA 
HETATM   12  C   UNL     1      -7.978   9.312  68.317  1.00  0.00    -0.102 A  
HETATM   13  H   UNL     1      -8.735   6.934  67.840  1.00  0.00     0.000 HD 
HETATM   14  C   UNL     1      -7.641  10.661  68.419  1.00  0.00    -0.100 A  
ENDBRANCH   6   7
ENDBRANCH   5   6
ENDBRANCH   3   5
ENDBRANCH   2   3
BRANCH   2  15
HETATM   15  C   UNL     1     -11.077  12.044  68.393  1.00  0.00    -0.245 C  
HETATM   16  O   UNL     1     -11.846  11.825  67.202  1.00  0.00    -0.599 OA 
HETATM   17  H   UNL     1     -11.905  10.895  67.014  1.00  0.00     0.000 HD 
BRANCH  15  18
HETATM   18  C   UNL     1     -11.628  11.227  69.549  1.00  0.00    -0.398 A  
HETATM   19  C   UNL     1     -11.225   9.893  69.723  1.00  0.00    -0.279 A  
HETATM   20  C   UNL     1     -13.008  11.032  71.543  1.00  0.00    -0.553 A  
HETATM   21  H   UNL     1     -13.752   9.390  73.330  1.00  0.00     0.000 HD 
HETATM   22  C   UNL     1     -11.720   9.133  70.786  1.00  0.00    -0.308 A  
HETATM   23  C   UNL     1     -12.616   9.708  71.681  1.00  0.00    -0.402 A  
HETATM   24  C   UNL     1     -12.516  11.790  70.482  1.00  0.00    -0.317 A  
HETATM   25  O   UNL     1     -13.140   8.997  72.720  1.00  0.00    -0.386 OA 
ENDBRANCH  15  18
ENDBRANCH   2  15
TORSDOF 6
ENDMDL
MODEL      169
REMARK 921   NORMALIZED FREE ENERGY PREDICTED BY IDOCK:   -4.49 KCAL/MOL
REMARK 922        TOTAL FREE ENERGY PREDICTED BY IDOCK:   -7.10 KCAL/MOL
REMARK 923 INTER-LIGAND FREE ENERGY PREDICTED BY IDOCK:   -6.72 KCAL/MOL
REMARK 924 INTRA-LIGAND FREE ENERGY PREDICTED BY IDOCK:   -0.39 KCAL/MOL
REMARK 927      BINDING AFFINITY PREDICTED BY RF-SCORE:    0.00 PKD
ROOT
HETATM    1  C   UNL     1      -8.793  14.196  68.566  1.00  0.00    -0.173 C  
HETATM    2  C   UNL     1      -9.168  15.610  68.098  1.00  0.00    -0.185 C  
ENDROOT
BRANCH   2   3
HETATM    3  N   UNL     1      -8.481  16.649  68.900  1.00  0.00    -0.249 NA 
HETATM    4  H   UNL     1      -8.886  16.690  69.836  1.00  0.00     0.000 HD 
BRANCH   3   5
HETATM    5  C   UNL     1      -7.026  16.520  68.991  1.00  0.00    -0.208 C  
BRANCH   5   6
HETATM    6  C   UNL     1      -6.310  17.864  69.184  1.00  0.00    -0.236 C  
BRANCH   6   7
HETATM    7  C   UNL     1      -6.433  18.744  67.967  1.00  0.00    -0.227 A  
HETATM    8  C   UNL     1      -6.854  20.076  68.098  1.00  0.00    -0.329 A  
HETATM    9  C   UNL     1      -6.732  20.357  65.714  1.00  0.00    -0.240 A  
HETATM   10  C   UNL     1      -7.000  20.884  66.972  1.00  0.00    -0.393 A  
HETATM   11  O   UNL     1      -6.875  21.107  64.586  1.00  0.00    -0.535 OA 
HETATM   12  C   UNL     1      -6.306  19.040  65.568  1.00  0.00    -0.299 A  
HETATM   13  H   UNL     1      -6.691  20.747  63.726  1.00  0.00     0.000 HD 
HETATM   14  C   UNL     1      -6.160  18.231  66.694  1.00  0.00    -0.189 A  
ENDBRANCH   6   7
ENDBRANCH   5   6
ENDBRANCH   3   5
ENDBRANCH   2   3
BRANCH   2  15
HETATM   15  C   UNL     1     -10.706  15.869  68.173  1.00  0.00    -0.302 C  
HETATM   16  O   UNL     1     -10.986  17.264  67.988  1.00  0.00    -0.350 OA 
HETATM   17  H   UNL     1     -11.923  17.421  68.033  1.00  0.00     0.000 HD 
BRANCH  15  18
HETATM   18  C   UNL     1     -11.345  15.356  69.452  1.00  0.00    -0.315 A  
HETATM   19  C   UNL     1     -11.957  14.092  69.474  1.00  0.00    -0.390 A  
HETATM   20  C   UNL     1     -11.889  15.621  71.808  1.00  0.00    -0.524 A  
HETATM   21  H   UNL     1     -13.066  14.484  73.748  1.00  0.00     0.000 HD 
HETATM   22  C   UNL     1     -12.542  13.605  70.647  1.00  0.00    -0.366 A  
HETATM   23  C   UNL     1     -12.511  14.381  71.801  1.00  0.00    -0.339 A  
HETATM   24  C   UNL     1     -11.306  16.107  70.639  1.00  0.00    -0.394 A  
HETATM   25  O   UNL     1     -13.087  13.955  72.960  1.00  0.00    -0.476 OA 
ENDBRANCH  15  18
ENDBRANCH   2  15
TORSDOF 6
ENDMDL
MODEL      170
REMARK 921   NORMALIZED FREE ENERGY PREDICTED BY IDOCK:   -4.48 KCAL/MOL
REMARK 922        TOTAL FREE ENERGY PREDICTED BY IDOCK:   -7.10 KCAL/MOL
REMARK 923 INTER-LIGAND FREE ENERGY PREDICTED BY IDOCK:   -6.15 KCAL/MOL
REMARK 924 INTRA-LIGAND FREE ENERGY PREDICTED BY IDOCK:   -0.94 KCAL/MOL
REMARK 927      BINDING AFFINITY PREDICTED BY RF-SCORE:    0.00 PKD
ROOT
HETATM    1  C   UNL     1     -10.769  12.413  67.731  1.00  0.00    -0.247 C  
HETATM    2  C   UNL     1     -11.534  11.086  67.619  1.00  0.00    -0.224 C  
ENDROOT
BRANCH   2   3
HETATM    3  N   UNL     1     -12.383  10.846  68.810  1.00  0.00    -0.772 NA 
HETATM    4  H   UNL     1     -12.391   9.851  69.036  1.00  0.00     0.000 HD 
BRANCH   3   5
HETATM    5  C   UNL     1     -12.041  11.626  69.999  1.00  0.00    -0.319 C  
BRANCH   5   6
HETATM    6  C   UNL     1     -12.751  11.137  71.270  1.00  0.00    -0.531 C  
BRANCH   6   7
HETATM    7  C   UNL     1     -12.482   9.678  71.535  1.00  0.00    -0.476 A  
HETATM    8  C   UNL     1     -11.179   9.239  71.809  1.00  0.00    -0.413 A  
HETATM    9  C   UNL     1     -11.966   6.972  71.955  1.00  0.00    -0.320 A  
HETATM   10  C   UNL     1     -10.920   7.886  72.023  1.00  0.00    -0.329 A  
HETATM   11  O   UNL     1     -11.756   5.639  72.143  1.00  0.00    -0.215 OA 
HETATM   12  C   UNL     1     -13.266   7.393  71.691  1.00  0.00    -0.416 A  
HETATM   13  H   UNL     1     -12.471   5.015  72.097  1.00  0.00     0.000 HD 
HETATM   14  C   UNL     1     -13.525   8.746  71.476  1.00  0.00    -0.358 A  
ENDBRANCH   6   7
ENDBRANCH   5   6
ENDBRANCH   3   5
ENDBRANCH   2   3
BRANCH   2  15
HETATM   15  C   UNL     1     -10.578   9.865  67.442  1.00  0.00    -0.277 C  
HETATM   16  O   UNL     1     -11.140   8.698  68.060  1.00  0.00    -0.470 OA 
HETATM   17  H   UNL     1     -10.558   7.955  67.951  1.00  0.00     0.000 HD 
BRANCH  15  18
HETATM   18  C   UNL     1      -9.170  10.119  67.952  1.00  0.00    -0.144 A  
HETATM   19  C   UNL     1      -8.865   9.908  69.307  1.00  0.00    -0.178 A  
HETATM   20  C   UNL     1      -6.854  10.753  67.566  1.00  0.00    -0.079 A  
HETATM   21  H   UNL     1      -4.634  11.108  68.746  1.00  0.00     0.000 HD 
HETATM   22  C   UNL     1      -7.571  10.132  69.788  1.00  0.00    -0.175 A  
HETATM   23  C   UNL     1      -6.580  10.563  68.913  1.00  0.00    -0.054 A  
HETATM   24  C   UNL     1      -8.143  10.531  67.086  1.00  0.00    -0.120 A  
HETATM   25  O   UNL     1      -5.311  10.814  69.343  1.00  0.00    -0.038 OA 
ENDBRANCH  15  18
ENDBRANCH   2  15
TORSDOF 6
ENDMDL
MODEL      171
REMARK 921   NORMALIZED FREE ENERGY PREDICTED BY IDOCK:   -4.48 KCAL/MOL
REMARK 922        TOTAL FREE ENERGY PREDICTED BY IDOCK:   -7.10 KCAL/MOL
REMARK 923 INTER-LIGAND FREE ENERGY PREDICTED BY IDOCK:   -6.63 KCAL/MOL
REMARK 924 INTRA-LIGAND FREE ENERGY PREDICTED BY IDOCK:   -0.46 KCAL/MOL
REMARK 927      BINDING AFFINITY PREDICTED BY RF-SCORE:    0.00 PKD
ROOT
HETATM    1  C   UNL     1      -8.985  14.216  68.095  1.00  0.00    -0.188 C  
HETATM    2  C   UNL     1      -9.617  14.854  66.849  1.00  0.00    -0.245 C  
ENDROOT
BRANCH   2   3
HETATM    3  N   UNL     1      -9.979  13.833  65.839  1.00  0.00    -0.346 NA 
HETATM    4  H   UNL     1      -9.670  12.912  66.149  1.00  0.00     0.000 HD 
BRANCH   3   5
HETATM    5  C   UNL     1     -11.393  13.786  65.465  1.00  0.00    -0.307 C  
BRANCH   5   6
HETATM    6  C   UNL     1     -11.907  12.360  65.219  1.00  0.00    -0.451 C  
BRANCH   6   7
HETATM    7  C   UNL     1     -10.835  11.469  64.648  1.00  0.00    -0.372 A  
HETATM    8  C   UNL     1     -10.422  11.625  63.316  1.00  0.00    -0.438 A  
HETATM    9  C   UNL     1      -8.904   9.778  63.563  1.00  0.00    -0.241 A  
HETATM   10  C   UNL     1      -9.453  10.782  62.774  1.00  0.00    -0.358 A  
HETATM   11  O   UNL     1      -7.965   8.922  63.070  1.00  0.00    -0.143 OA 
HETATM   12  C   UNL     1      -9.297   9.614  64.888  1.00  0.00    -0.306 A  
HETATM   13  H   UNL     1      -7.590   8.236  63.609  1.00  0.00     0.000 HD 
HETATM   14  C   UNL     1     -10.266  10.457  65.431  1.00  0.00    -0.329 A  
ENDBRANCH   6   7
ENDBRANCH   5   6
ENDBRANCH   3   5
ENDBRANCH   2   3
BRANCH   2  15
HETATM   15  C   UNL     1      -8.671  15.899  66.176  1.00  0.00    -0.293 C  
HETATM   16  O   UNL     1      -7.300  15.585  66.460  1.00  0.00    -0.240 OA 
HETATM   17  H   UNL     1      -6.725  16.221  66.050  1.00  0.00     0.000 HD 
BRANCH  15  18
HETATM   18  C   UNL     1      -8.986  17.335  66.559  1.00  0.00    -0.294 A  
HETATM   19  C   UNL     1     -10.243  17.660  67.095  1.00  0.00    -0.342 A  
HETATM   20  C   UNL     1      -8.326  19.665  66.785  1.00  0.00    -0.338 A  
HETATM   21  H   UNL     1      -9.184  21.946  67.495  1.00  0.00     0.000 HD 
HETATM   22  C   UNL     1     -10.543  18.976  67.457  1.00  0.00    -0.546 A  
HETATM   23  C   UNL     1      -9.583  19.969  67.289  1.00  0.00    -0.397 A  
HETATM   24  C   UNL     1      -8.027  18.353  66.423  1.00  0.00    -0.288 A  
HETATM   25  O   UNL     1      -9.839  21.269  67.610  1.00  0.00    -0.171 OA 
ENDBRANCH  15  18
ENDBRANCH   2  15
TORSDOF 6
ENDMDL
MODEL      172
REMARK 921   NORMALIZED FREE ENERGY PREDICTED BY IDOCK:   -4.48 KCAL/MOL
REMARK 922        TOTAL FREE ENERGY PREDICTED BY IDOCK:   -7.09 KCAL/MOL
REMARK 923 INTER-LIGAND FREE ENERGY PREDICTED BY IDOCK:   -6.12 KCAL/MOL
REMARK 924 INTRA-LIGAND FREE ENERGY PREDICTED BY IDOCK:   -0.97 KCAL/MOL
REMARK 927      BINDING AFFINITY PREDICTED BY RF-SCORE:    0.00 PKD
ROOT
HETATM    1  C   UNL     1     -10.927  15.016  66.659  1.00  0.00    -0.325 C  
HETATM    2  C   UNL     1     -10.338  14.742  68.050  1.00  0.00    -0.237 C  
ENDROOT
BRANCH   2   3
HETATM    3  N   UNL     1      -8.973  14.174  67.961  1.00  0.00    -0.175 NA 
HETATM    4  H   UNL     1      -8.639  13.923  68.892  1.00  0.00     0.000 HD 
BRANCH   3   5
HETATM    5  C   UNL     1      -8.818  13.039  67.051  1.00  0.00    -0.212 C  
BRANCH   5   6
HETATM    6  C   UNL     1      -7.993  11.891  67.650  1.00  0.00    -0.146 C  
BRANCH   6   7
HETATM    7  C   UNL     1      -8.861  10.900  68.382  1.00  0.00    -0.147 A  
HETATM    8  C   UNL     1     -10.051  10.439  67.801  1.00  0.00    -0.212 A  
HETATM    9  C   UNL     1     -10.507   9.123  69.760  1.00  0.00    -0.223 A  
HETATM   10  C   UNL     1     -10.873   9.547  68.489  1.00  0.00    -0.175 A  
HETATM   11  O   UNL     1     -11.288   8.263  70.473  1.00  0.00    -0.283 OA 
HETATM   12  C   UNL     1      -9.326   9.564  70.348  1.00  0.00    -0.311 A  
HETATM   13  H   UNL     1     -11.037   7.973  71.342  1.00  0.00     0.000 HD 
HETATM   14  C   UNL     1      -8.503  10.457  69.662  1.00  0.00    -0.068 A  
ENDBRANCH   6   7
ENDBRANCH   5   6
ENDBRANCH   3   5
ENDBRANCH   2   3
BRANCH   2  15
HETATM   15  C   UNL     1     -11.224  13.765  68.886  1.00  0.00    -0.272 C  
HETATM   16  O   UNL     1     -12.332  13.302  68.101  1.00  0.00    -0.164 OA 
HETATM   17  H   UNL     1     -12.871  12.707  68.610  1.00  0.00     0.000 HD 
BRANCH  15  18
HETATM   18  C   UNL     1     -11.704  14.357  70.200  1.00  0.00    -0.361 A  
HETATM   19  C   UNL     1     -12.504  13.592  71.065  1.00  0.00    -0.451 A  
HETATM   20  C   UNL     1     -11.775  16.182  71.806  1.00  0.00    -0.568 A  
HETATM   21  H   UNL     1     -12.765  16.867  74.041  1.00  0.00     0.000 HD 
HETATM   22  C   UNL     1     -12.947  14.123  72.280  1.00  0.00    -0.469 A  
HETATM   23  C   UNL     1     -12.586  15.418  72.634  1.00  0.00    -0.387 A  
HETATM   24  C   UNL     1     -11.334  15.654  70.595  1.00  0.00    -0.392 A  
HETATM   25  O   UNL     1     -13.012  15.982  73.799  1.00  0.00    -0.544 OA 
ENDBRANCH  15  18
ENDBRANCH   2  15
TORSDOF 6
ENDMDL
MODEL      173
REMARK 921   NORMALIZED FREE ENERGY PREDICTED BY IDOCK:   -4.48 KCAL/MOL
REMARK 922        TOTAL FREE ENERGY PREDICTED BY IDOCK:   -7.09 KCAL/MOL
REMARK 923 INTER-LIGAND FREE ENERGY PREDICTED BY IDOCK:   -6.44 KCAL/MOL
REMARK 924 INTRA-LIGAND FREE ENERGY PREDICTED BY IDOCK:   -0.66 KCAL/MOL
REMARK 927      BINDING AFFINITY PREDICTED BY RF-SCORE:    0.00 PKD
ROOT
HETATM    1  C   UNL     1      -8.742  11.099  67.027  1.00  0.00    -0.148 C  
HETATM    2  C   UNL     1     -10.177  10.574  66.868  1.00  0.00    -0.229 C  
ENDROOT
BRANCH   2   3
HETATM    3  N   UNL     1     -10.194   9.182  66.362  1.00  0.00    -0.266 NA 
HETATM    4  H   UNL     1      -9.724   9.135  65.458  1.00  0.00     0.000 HD 
BRANCH   3   5
HETATM    5  C   UNL     1      -9.641   8.173  67.266  1.00  0.00    -0.163 C  
BRANCH   5   6
HETATM    6  C   UNL     1     -10.699   7.204  67.813  1.00  0.00    -0.282 C  
BRANCH   6   7
HETATM    7  C   UNL     1     -10.840   7.317  69.309  1.00  0.00    -0.177 A  
HETATM    8  C   UNL     1     -11.330   6.235  70.056  1.00  0.00    -0.486 A  
HETATM    9  C   UNL     1     -11.172   7.542  72.067  1.00  0.00    -0.257 A  
HETATM   10  C   UNL     1     -11.493   6.346  71.436  1.00  0.00    -0.363 A  
HETATM   11  O   UNL     1     -11.329   7.698  73.411  1.00  0.00    -0.622 OA 
HETATM   12  C   UNL     1     -10.678   8.622  71.342  1.00  0.00    -0.338 A  
HETATM   13  H   UNL     1     -11.110   8.516  73.843  1.00  0.00     0.000 HD 
HETATM   14  C   UNL     1     -10.515   8.512  69.961  1.00  0.00    -0.226 A  
ENDBRANCH   6   7
ENDBRANCH   5   6
ENDBRANCH   3   5
ENDBRANCH   2   3
BRANCH   2  15
HETATM   15  C   UNL     1     -11.028  11.459  65.902  1.00  0.00    -0.207 C  
HETATM   16  O   UNL     1     -10.699  11.164  64.537  1.00  0.00    -0.336 OA 
HETATM   17  H   UNL     1     -11.217  11.702  63.950  1.00  0.00     0.000 HD 
BRANCH  15  18
HETATM   18  C   UNL     1     -10.902  12.947  66.177  1.00  0.00    -0.300 A  
HETATM   19  C   UNL     1     -10.326  13.794  65.215  1.00  0.00    -0.378 A  
HETATM   20  C   UNL     1     -11.271  14.882  67.605  1.00  0.00    -0.330 A  
HETATM   21  H   UNL     1     -10.883  17.386  67.752  1.00  0.00     0.000 HD 
HETATM   22  C   UNL     1     -10.211  15.166  65.453  1.00  0.00    -0.402 A  
HETATM   23  C   UNL     1     -10.676  15.695  66.651  1.00  0.00    -0.296 A  
HETATM   24  C   UNL     1     -11.386  13.513  67.369  1.00  0.00    -0.338 A  
HETATM   25  O   UNL     1     -10.565  17.025  66.934  1.00  0.00    -0.295 OA 
ENDBRANCH  15  18
ENDBRANCH   2  15
TORSDOF 6
ENDMDL
MODEL      174
REMARK 921   NORMALIZED FREE ENERGY PREDICTED BY IDOCK:   -4.47 KCAL/MOL
REMARK 922        TOTAL FREE ENERGY PREDICTED BY IDOCK:   -7.08 KCAL/MOL
REMARK 923 INTER-LIGAND FREE ENERGY PREDICTED BY IDOCK:   -6.16 KCAL/MOL
REMARK 924 INTRA-LIGAND FREE ENERGY PREDICTED BY IDOCK:   -0.92 KCAL/MOL
REMARK 927      BINDING AFFINITY PREDICTED BY RF-SCORE:    0.00 PKD
ROOT
HETATM    1  C   UNL     1      -7.596   9.388  68.026  1.00  0.00    -0.083 C  
HETATM    2  C   UNL     1      -9.101   9.374  68.332  1.00  0.00    -0.128 C  
ENDROOT
BRANCH   2   3
HETATM    3  N   UNL     1      -9.893   9.901  67.197  1.00  0.00    -0.178 NA 
HETATM    4  H   UNL     1     -10.884   9.705  67.343  1.00  0.00     0.000 HD 
BRANCH   3   5
HETATM    5  C   UNL     1      -9.703  11.320  66.896  1.00  0.00    -0.192 C  
BRANCH   5   6
HETATM    6  C   UNL     1     -11.008  12.127  66.930  1.00  0.00    -0.317 C  
BRANCH   6   7
HETATM    7  C   UNL     1     -10.771  13.557  67.343  1.00  0.00    -0.269 A  
HETATM    8  C   UNL     1     -11.797  14.296  67.951  1.00  0.00    -0.393 A  
HETATM    9  C   UNL     1     -10.364  16.224  68.042  1.00  0.00    -0.279 A  
HETATM   10  C   UNL     1     -11.592  15.629  68.305  1.00  0.00    -0.326 A  
HETATM   11  O   UNL     1     -10.125  17.528  68.358  1.00  0.00    -0.314 OA 
HETATM   12  C   UNL     1      -9.334  15.503  67.446  1.00  0.00    -0.211 A  
HETATM   13  H   UNL     1      -9.286  17.934  68.179  1.00  0.00     0.000 HD 
HETATM   14  C   UNL     1      -9.537  14.170  67.091  1.00  0.00    -0.244 A  
ENDBRANCH   6   7
ENDBRANCH   5   6
ENDBRANCH   3   5
ENDBRANCH   2   3
BRANCH   2  15
HETATM   15  C   UNL     1      -9.454  10.206  69.606  1.00  0.00    -0.200 C  
HETATM   16  O   UNL     1      -8.368  10.167  70.543  1.00  0.00    -0.379 OA 
HETATM   17  H   UNL     1      -8.582  10.674  71.317  1.00  0.00     0.000 HD 
BRANCH  15  18
HETATM   18  C   UNL     1     -10.752   9.779  70.268  1.00  0.00    -0.358 A  
HETATM   19  C   UNL     1     -11.810  10.694  70.397  1.00  0.00    -0.441 A  
HETATM   20  C   UNL     1     -12.137   8.083  71.327  1.00  0.00    -0.314 A  
HETATM   21  H   UNL     1     -14.409   7.711  72.399  1.00  0.00     0.000 HD 
HETATM   22  C   UNL     1     -13.013  10.311  70.998  1.00  0.00    -0.488 A  
HETATM   23  C   UNL     1     -13.160   9.010  71.467  1.00  0.00    -0.335 A  
HETATM   24  C   UNL     1     -10.938   8.464  70.728  1.00  0.00    -0.276 A  
HETATM   25  O   UNL     1     -14.308   8.599  72.078  1.00  0.00    -0.434 OA 
ENDBRANCH  15  18
ENDBRANCH   2  15
TORSDOF 6
ENDMDL
MODEL      175
REMARK 921   NORMALIZED FREE ENERGY PREDICTED BY IDOCK:   -4.46 KCAL/MOL
REMARK 922        TOTAL FREE ENERGY PREDICTED BY IDOCK:   -7.07 KCAL/MOL
REMARK 923 INTER-LIGAND FREE ENERGY PREDICTED BY IDOCK:   -6.42 KCAL/MOL
REMARK 924 INTRA-LIGAND FREE ENERGY PREDICTED BY IDOCK:   -0.65 KCAL/MOL
REMARK 927      BINDING AFFINITY PREDICTED BY RF-SCORE:    0.00 PKD
ROOT
HETATM    1  C   UNL     1     -11.817  12.984  63.295  1.00  0.00    -0.432 C  
HETATM    2  C   UNL     1     -11.771  12.037  64.503  1.00  0.00    -0.305 C  
ENDROOT
BRANCH   2   3
HETATM    3  N   UNL     1     -12.608  12.537  65.618  1.00  0.00    -0.517 NA 
HETATM    4  H   UNL     1     -12.566  11.886  66.403  1.00  0.00     0.000 HD 
BRANCH   3   5
HETATM    5  C   UNL     1     -12.308  13.893  66.077  1.00  0.00    -0.475 C  
BRANCH   5   6
HETATM    6  C   UNL     1     -11.974  13.967  67.573  1.00  0.00    -0.430 C  
BRANCH   6   7
HETATM    7  C   UNL     1     -11.010  15.085  67.877  1.00  0.00    -0.291 A  
HETATM    8  C   UNL     1     -10.892  16.174  67.001  1.00  0.00    -0.194 A  
HETATM    9  C   UNL     1      -9.178  17.120  68.395  1.00  0.00    -0.266 A  
HETATM   10  C   UNL     1      -9.979  17.194  67.261  1.00  0.00    -0.274 A  
HETATM   11  O   UNL     1      -8.262  18.088  68.681  1.00  0.00    -0.304 OA 
HETATM   12  C   UNL     1      -9.288  16.051  69.278  1.00  0.00    -0.244 A  
HETATM   13  H   UNL     1      -7.715  18.037  69.456  1.00  0.00     0.000 HD 
HETATM   14  C   UNL     1     -10.201  15.029  69.019  1.00  0.00    -0.242 A  
ENDBRANCH   6   7
ENDBRANCH   5   6
ENDBRANCH   3   5
ENDBRANCH   2   3
BRANCH   2  15
HETATM   15  C   UNL     1     -10.317  11.827  65.035  1.00  0.00    -0.281 C  
HETATM   16  O   UNL     1      -9.365  12.060  63.988  1.00  0.00    -0.484 OA 
HETATM   17  H   UNL     1      -8.480  11.933  64.312  1.00  0.00     0.000 HD 
BRANCH  15  18
HETATM   18  C   UNL     1     -10.097  10.466  65.671  1.00  0.00    -0.337 A  
HETATM   19  C   UNL     1      -9.334   9.493  65.004  1.00  0.00    -0.294 A  
HETATM   20  C   UNL     1     -10.395   8.912  67.519  1.00  0.00    -0.328 A  
HETATM   21  H   UNL     1      -9.862   6.547  68.274  1.00  0.00     0.000 HD 
HETATM   22  C   UNL     1      -9.118   8.239  65.581  1.00  0.00    -0.122 A  
HETATM   23  C   UNL     1      -9.660   7.957  66.830  1.00  0.00    -0.203 A  
HETATM   24  C   UNL     1     -10.611  10.162  66.943  1.00  0.00    -0.267 A  
HETATM   25  O   UNL     1      -9.492   6.740  67.421  1.00  0.00    -0.130 OA 
ENDBRANCH  15  18
ENDBRANCH   2  15
TORSDOF 6
ENDMDL
MODEL      176
REMARK 921   NORMALIZED FREE ENERGY PREDICTED BY IDOCK:   -4.45 KCAL/MOL
REMARK 922        TOTAL FREE ENERGY PREDICTED BY IDOCK:   -7.06 KCAL/MOL
REMARK 923 INTER-LIGAND FREE ENERGY PREDICTED BY IDOCK:   -6.64 KCAL/MOL
REMARK 924 INTRA-LIGAND FREE ENERGY PREDICTED BY IDOCK:   -0.42 KCAL/MOL
REMARK 927      BINDING AFFINITY PREDICTED BY RF-SCORE:    0.00 PKD
ROOT
HETATM    1  C   UNL     1      -8.886  12.140  67.148  1.00  0.00    -0.191 C  
HETATM    2  C   UNL     1      -9.970  11.888  68.207  1.00  0.00    -0.202 C  
ENDROOT
BRANCH   2   3
HETATM    3  N   UNL     1     -10.774  10.685  67.886  1.00  0.00    -0.227 NA 
HETATM    4  H   UNL     1     -10.493  10.310  66.980  1.00  0.00     0.000 HD 
BRANCH   3   5
HETATM    5  C   UNL     1     -10.756   9.625  68.894  1.00  0.00    -0.206 C  
BRANCH   5   6
HETATM    6  C   UNL     1      -9.726   9.864  70.008  1.00  0.00    -0.274 C  
BRANCH   6   7
HETATM    7  C   UNL     1      -9.976   8.979  71.201  1.00  0.00    -0.365 A  
HETATM    8  C   UNL     1     -11.263   8.483  71.455  1.00  0.00    -0.345 A  
HETATM    9  C   UNL     1     -10.461   7.402  73.447  1.00  0.00    -0.368 A  
HETATM   10  C   UNL     1     -11.506   7.690  72.576  1.00  0.00    -0.405 A  
HETATM   11  O   UNL     1     -10.657   6.643  74.562  1.00  0.00    -0.375 OA 
HETATM   12  C   UNL     1      -9.177   7.880  73.206  1.00  0.00    -0.346 A  
HETATM   13  H   UNL     1      -9.943   6.446  75.157  1.00  0.00     0.000 HD 
HETATM   14  C   UNL     1      -8.934   8.673  72.085  1.00  0.00    -0.270 A  
ENDBRANCH   6   7
ENDBRANCH   5   6
ENDBRANCH   3   5
ENDBRANCH   2   3
BRANCH   2  15
HETATM   15  C   UNL     1     -10.941  13.102  68.360  1.00  0.00    -0.262 C  
HETATM   16  O   UNL     1     -12.183  12.676  68.940  1.00  0.00    -0.181 OA 
HETATM   17  H   UNL     1     -12.773  13.415  69.034  1.00  0.00     0.000 HD 
BRANCH  15  18
HETATM   18  C   UNL     1     -11.182  13.852  67.061  1.00  0.00    -0.327 A  
HETATM   19  C   UNL     1     -12.078  13.339  66.110  1.00  0.00    -0.477 A  
HETATM   20  C   UNL     1     -10.786  15.761  65.608  1.00  0.00    -0.360 A  
HETATM   21  H   UNL     1     -11.391  16.734  63.342  1.00  0.00     0.000 HD 
HETATM   22  C   UNL     1     -12.314  14.023  64.913  1.00  0.00    -0.447 A  
HETATM   23  C   UNL     1     -11.656  15.224  64.670  1.00  0.00    -0.333 A  
HETATM   24  C   UNL     1     -10.550  15.080  66.800  1.00  0.00    -0.301 A  
HETATM   25  O   UNL     1     -11.840  15.914  63.509  1.00  0.00    -0.374 OA 
ENDBRANCH  15  18
ENDBRANCH   2  15
TORSDOF 6
ENDMDL
MODEL      177
REMARK 921   NORMALIZED FREE ENERGY PREDICTED BY IDOCK:   -4.44 KCAL/MOL
REMARK 922        TOTAL FREE ENERGY PREDICTED BY IDOCK:   -7.04 KCAL/MOL
REMARK 923 INTER-LIGAND FREE ENERGY PREDICTED BY IDOCK:   -6.59 KCAL/MOL
REMARK 924 INTRA-LIGAND FREE ENERGY PREDICTED BY IDOCK:   -0.45 KCAL/MOL
REMARK 927      BINDING AFFINITY PREDICTED BY RF-SCORE:    0.00 PKD
ROOT
HETATM    1  C   UNL     1     -10.890   8.905  71.953  1.00  0.00    -0.433 C  
HETATM    2  C   UNL     1     -12.256   8.204  71.923  1.00  0.00    -0.331 C  
ENDROOT
BRANCH   2   3
HETATM    3  N   UNL     1     -12.325   7.192  70.844  1.00  0.00    -0.527 NA 
HETATM    4  H   UNL     1     -13.131   7.376  70.246  1.00  0.00     0.000 HD 
BRANCH   3   5
HETATM    5  C   UNL     1     -11.119   7.054  70.027  1.00  0.00    -0.278 C  
BRANCH   5   6
HETATM    6  C   UNL     1     -10.661   5.598  69.865  1.00  0.00    -0.399 C  
BRANCH   6   7
HETATM    7  C   UNL     1      -9.719   5.181  70.964  1.00  0.00    -0.245 A  
HETATM    8  C   UNL     1     -10.188   4.423  72.047  1.00  0.00    -0.233 A  
HETATM    9  C   UNL     1      -7.999   4.468  73.037  1.00  0.00    -0.095 A  
HETATM   10  C   UNL     1      -9.327   4.063  73.083  1.00  0.00    -0.131 A  
HETATM   11  O   UNL     1      -7.126   4.150  74.035  1.00  0.00    -0.059 OA 
HETATM   12  C   UNL     1      -7.515   5.213  71.967  1.00  0.00    -0.092 A  
HETATM   13  H   UNL     1      -6.218   4.426  74.004  1.00  0.00     0.000 HD 
HETATM   14  C   UNL     1      -8.375   5.574  70.930  1.00  0.00    -0.120 A  
ENDBRANCH   6   7
ENDBRANCH   5   6
ENDBRANCH   3   5
ENDBRANCH   2   3
BRANCH   2  15
HETATM   15  C   UNL     1     -13.434   9.212  71.729  1.00  0.00    -0.416 C  
HETATM   16  O   UNL     1     -14.408   8.671  70.825  1.00  0.00    -0.551 OA 
HETATM   17  H   UNL     1     -15.124   9.284  70.707  1.00  0.00     0.000 HD 
BRANCH  15  18
HETATM   18  C   UNL     1     -12.983  10.589  71.275  1.00  0.00    -0.532 A  
HETATM   19  C   UNL     1     -12.368  10.750  70.022  1.00  0.00    -0.371 A  
HETATM   20  C   UNL     1     -12.788  12.986  71.638  1.00  0.00    -0.376 A  
HETATM   21  H   UNL     1     -11.894  15.121  70.594  1.00  0.00     0.000 HD 
HETATM   22  C   UNL     1     -11.954  12.013  69.590  1.00  0.00    -0.360 A  
HETATM   23  C   UNL     1     -12.160  13.119  70.408  1.00  0.00    -0.317 A  
HETATM   24  C   UNL     1     -13.200  11.727  72.070  1.00  0.00    -0.460 A  
HETATM   25  O   UNL     1     -11.754  14.366  70.035  1.00  0.00    -0.269 OA 
ENDBRANCH  15  18
ENDBRANCH   2  15
TORSDOF 6
ENDMDL
MODEL      178
REMARK 921   NORMALIZED FREE ENERGY PREDICTED BY IDOCK:   -4.44 KCAL/MOL
REMARK 922        TOTAL FREE ENERGY PREDICTED BY IDOCK:   -7.04 KCAL/MOL
REMARK 923 INTER-LIGAND FREE ENERGY PREDICTED BY IDOCK:   -6.47 KCAL/MOL
REMARK 924 INTRA-LIGAND FREE ENERGY PREDICTED BY IDOCK:   -0.57 KCAL/MOL
REMARK 927      BINDING AFFINITY PREDICTED BY RF-SCORE:    0.00 PKD
ROOT
HETATM    1  C   UNL     1      -8.807  14.758  68.466  1.00  0.00    -0.176 C  
HETATM    2  C   UNL     1      -9.367  15.966  67.699  1.00  0.00    -0.217 C  
ENDROOT
BRANCH   2   3
HETATM    3  N   UNL     1      -9.151  17.230  68.441  1.00  0.00    -0.258 NA 
HETATM    4  H   UNL     1      -9.716  17.235  69.291  1.00  0.00     0.000 HD 
BRANCH   3   5
HETATM    5  C   UNL     1      -7.759  17.544  68.765  1.00  0.00    -0.252 C  
BRANCH   5   6
HETATM    6  C   UNL     1      -7.405  19.022  68.544  1.00  0.00    -0.341 C  
BRANCH   6   7
HETATM    7  C   UNL     1      -6.858  19.265  67.161  1.00  0.00    -0.206 A  
HETATM    8  C   UNL     1      -6.332  18.202  66.412  1.00  0.00    -0.240 A  
HETATM    9  C   UNL     1      -5.779  19.719  64.632  1.00  0.00    -0.220 A  
HETATM   10  C   UNL     1      -5.795  18.428  65.146  1.00  0.00    -0.230 A  
HETATM   11  O   UNL     1      -5.251  19.988  63.405  1.00  0.00    -0.180 OA 
HETATM   12  C   UNL     1      -6.303  20.784  65.359  1.00  0.00    -0.265 A  
HETATM   13  H   UNL     1      -5.240  20.870  63.054  1.00  0.00     0.000 HD 
HETATM   14  C   UNL     1      -6.840  20.559  66.626  1.00  0.00    -0.316 A  
ENDBRANCH   6   7
ENDBRANCH   5   6
ENDBRANCH   3   5
ENDBRANCH   2   3
BRANCH   2  15
HETATM   15  C   UNL     1     -10.894  15.823  67.404  1.00  0.00    -0.306 C  
HETATM   16  O   UNL     1     -11.609  15.528  68.613  1.00  0.00    -0.339 OA 
HETATM   17  H   UNL     1     -12.538  15.441  68.433  1.00  0.00     0.000 HD 
BRANCH  15  18
HETATM   18  C   UNL     1     -11.209  14.799  66.328  1.00  0.00    -0.343 A  
HETATM   19  C   UNL     1     -12.464  14.169  66.303  1.00  0.00    -0.395 A  
HETATM   20  C   UNL     1     -10.584  13.553  64.335  1.00  0.00    -0.394 A  
HETATM   21  H   UNL     1     -11.420  11.789  62.711  1.00  0.00     0.000 HD 
HETATM   22  C   UNL     1     -12.769  13.229  65.313  1.00  0.00    -0.474 A  
HETATM   23  C   UNL     1     -11.820  12.923  64.344  1.00  0.00    -0.383 A  
HETATM   24  C   UNL     1     -10.279  14.489  65.321  1.00  0.00    -0.431 A  
HETATM   25  O   UNL     1     -12.067  11.999  63.373  1.00  0.00    -0.507 OA 
ENDBRANCH  15  18
ENDBRANCH   2  15
TORSDOF 6
ENDMDL
MODEL      179
REMARK 921   NORMALIZED FREE ENERGY PREDICTED BY IDOCK:   -4.44 KCAL/MOL
REMARK 922        TOTAL FREE ENERGY PREDICTED BY IDOCK:   -7.03 KCAL/MOL
REMARK 923 INTER-LIGAND FREE ENERGY PREDICTED BY IDOCK:   -6.51 KCAL/MOL
REMARK 924 INTRA-LIGAND FREE ENERGY PREDICTED BY IDOCK:   -0.53 KCAL/MOL
REMARK 927      BINDING AFFINITY PREDICTED BY RF-SCORE:    0.00 PKD
ROOT
HETATM    1  C   UNL     1      -9.777  10.120  69.688  1.00  0.00    -0.250 C  
HETATM    2  C   UNL     1     -11.158   9.508  69.409  1.00  0.00    -0.110 C  
ENDROOT
BRANCH   2   3
HETATM    3  N   UNL     1     -11.998  10.412  68.590  1.00  0.00    -0.745 NA 
HETATM    4  H   UNL     1     -12.963  10.388  68.922  1.00  0.00     0.000 HD 
BRANCH   3   5
HETATM    5  C   UNL     1     -11.536  11.798  68.500  1.00  0.00    -0.321 C  
BRANCH   5   6
HETATM    6  C   UNL     1     -11.978  12.501  67.208  1.00  0.00    -0.286 C  
BRANCH   6   7
HETATM    7  C   UNL     1     -11.276  13.821  67.021  1.00  0.00    -0.326 A  
HETATM    8  C   UNL     1     -10.546  14.073  65.850  1.00  0.00    -0.302 A  
HETATM    9  C   UNL     1      -9.916  16.232  66.699  1.00  0.00    -0.264 A  
HETATM   10  C   UNL     1      -9.868  15.280  65.687  1.00  0.00    -0.383 A  
HETATM   11  O   UNL     1      -9.257  17.419  66.588  1.00  0.00    -0.245 OA 
HETATM   12  C   UNL     1     -10.642  16.001  67.864  1.00  0.00    -0.301 A  
HETATM   13  H   UNL     1      -9.290  18.070  67.279  1.00  0.00     0.000 HD 
HETATM   14  C   UNL     1     -11.320  14.793  68.028  1.00  0.00    -0.332 A  
ENDBRANCH   6   7
ENDBRANCH   5   6
ENDBRANCH   3   5
ENDBRANCH   2   3
BRANCH   2  15
HETATM   15  C   UNL     1     -11.933   9.174  70.724  1.00  0.00    -0.191 C  
HETATM   16  O   UNL     1     -12.037  10.341  71.551  1.00  0.00    -0.370 OA 
HETATM   17  H   UNL     1     -12.509  10.138  72.351  1.00  0.00     0.000 HD 
BRANCH  15  18
HETATM   18  C   UNL     1     -11.333   8.014  71.501  1.00  0.00    -0.299 A  
HETATM   19  C   UNL     1     -11.322   6.726  70.942  1.00  0.00    -0.363 A  
HETATM   20  C   UNL     1     -10.196   7.136  73.463  1.00  0.00    -0.394 A  
HETATM   21  H   UNL     1      -9.311   4.991  74.492  1.00  0.00     0.000 HD 
HETATM   22  C   UNL     1     -10.767   5.651  71.644  1.00  0.00    -0.313 A  
HETATM   23  C   UNL     1     -10.219   5.866  72.904  1.00  0.00    -0.191 A  
HETATM   24  C   UNL     1     -10.750   8.207  72.764  1.00  0.00    -0.391 A  
HETATM   25  O   UNL     1      -9.685   4.844  73.632  1.00  0.00    -0.134 OA 
ENDBRANCH  15  18
ENDBRANCH   2  15
TORSDOF 6
ENDMDL
MODEL      180
REMARK 921   NORMALIZED FREE ENERGY PREDICTED BY IDOCK:   -4.43 KCAL/MOL
REMARK 922        TOTAL FREE ENERGY PREDICTED BY IDOCK:   -7.02 KCAL/MOL
REMARK 923 INTER-LIGAND FREE ENERGY PREDICTED BY IDOCK:   -6.38 KCAL/MOL
REMARK 924 INTRA-LIGAND FREE ENERGY PREDICTED BY IDOCK:   -0.65 KCAL/MOL
REMARK 927      BINDING AFFINITY PREDICTED BY RF-SCORE:    0.00 PKD
ROOT
HETATM    1  C   UNL     1     -10.232   9.655  67.427  1.00  0.00    -0.283 C  
HETATM    2  C   UNL     1      -9.825  11.069  67.867  1.00  0.00    -0.171 C  
ENDROOT
BRANCH   2   3
HETATM    3  N   UNL     1      -9.096  11.049  69.156  1.00  0.00    -0.381 NA 
HETATM    4  H   UNL     1      -9.703  11.384  69.904  1.00  0.00     0.000 HD 
BRANCH   3   5
HETATM    5  C   UNL     1      -8.505   9.763  69.529  1.00  0.00    -0.170 C  
BRANCH   5   6
HETATM    6  C   UNL     1      -9.011   9.233  70.878  1.00  0.00    -0.273 C  
BRANCH   6   7
HETATM    7  C   UNL     1      -9.217   7.740  70.852  1.00  0.00    -0.155 A  
HETATM    8  C   UNL     1      -8.230   6.882  71.359  1.00  0.00    -0.110 A  
HETATM    9  C   UNL     1      -9.558   4.977  70.740  1.00  0.00    -0.180 A  
HETATM   10  C   UNL     1      -8.402   5.500  71.307  1.00  0.00    -0.126 A  
HETATM   11  O   UNL     1      -9.761   3.632  70.656  1.00  0.00    -0.180 OA 
HETATM   12  C   UNL     1     -10.550   5.814  70.239  1.00  0.00    -0.369 A  
HETATM   13  H   UNL     1     -10.551   3.275  70.268  1.00  0.00     0.000 HD 
HETATM   14  C   UNL     1     -10.379   7.197  70.290  1.00  0.00    -0.214 A  
ENDBRANCH   6   7
ENDBRANCH   5   6
ENDBRANCH   3   5
ENDBRANCH   2   3
BRANCH   2  15
HETATM   15  C   UNL     1     -11.055  12.021  68.012  1.00  0.00    -0.241 C  
HETATM   16  O   UNL     1     -12.274  11.265  67.997  1.00  0.00    -0.621 OA 
HETATM   17  H   UNL     1     -13.022  11.844  68.086  1.00  0.00     0.000 HD 
BRANCH  15  18
HETATM   18  C   UNL     1     -11.092  13.125  66.969  1.00  0.00    -0.305 A  
HETATM   19  C   UNL     1     -10.042  14.054  66.892  1.00  0.00    -0.259 A  
HETATM   20  C   UNL     1     -12.164  14.232  65.087  1.00  0.00    -0.422 A  
HETATM   21  H   UNL     1     -11.928  16.200  63.501  1.00  0.00     0.000 HD 
HETATM   22  C   UNL     1     -10.061  15.071  65.932  1.00  0.00    -0.343 A  
HETATM   23  C   UNL     1     -11.129  15.155  65.045  1.00  0.00    -0.419 A  
HETATM   24  C   UNL     1     -12.146  13.219  66.044  1.00  0.00    -0.491 A  
HETATM   25  O   UNL     1     -11.199  16.142  64.107  1.00  0.00    -0.661 OA 
ENDBRANCH  15  18
ENDBRANCH   2  15
TORSDOF 6
ENDMDL
MODEL      181
REMARK 921   NORMALIZED FREE ENERGY PREDICTED BY IDOCK:   -4.42 KCAL/MOL
REMARK 922        TOTAL FREE ENERGY PREDICTED BY IDOCK:   -7.02 KCAL/MOL
REMARK 923 INTER-LIGAND FREE ENERGY PREDICTED BY IDOCK:   -6.51 KCAL/MOL
REMARK 924 INTRA-LIGAND FREE ENERGY PREDICTED BY IDOCK:   -0.51 KCAL/MOL
REMARK 927      BINDING AFFINITY PREDICTED BY RF-SCORE:    0.00 PKD
ROOT
HETATM    1  C   UNL     1     -13.246  15.386  70.945  1.00  0.00    -0.512 C  
HETATM    2  C   UNL     1     -11.978  14.532  71.091  1.00  0.00    -0.339 C  
ENDROOT
BRANCH   2   3
HETATM    3  N   UNL     1     -10.753  15.361  71.024  1.00  0.00    -0.437 NA 
HETATM    4  H   UNL     1      -9.928  14.762  70.995  1.00  0.00     0.000 HD 
BRANCH   3   5
HETATM    5  C   UNL     1     -10.704  16.332  69.930  1.00  0.00    -0.322 C  
BRANCH   5   6
HETATM    6  C   UNL     1      -9.477  16.162  69.023  1.00  0.00    -0.246 C  
BRANCH   6   7
HETATM    7  C   UNL     1      -8.767  17.470  68.791  1.00  0.00    -0.214 A  
HETATM    8  C   UNL     1      -9.471  18.681  68.871  1.00  0.00    -0.297 A  
HETATM    9  C   UNL     1      -7.476  19.889  68.291  1.00  0.00    -0.284 A  
HETATM   10  C   UNL     1      -8.825  19.891  68.625  1.00  0.00    -0.145 A  
HETATM   11  O   UNL     1      -6.809  21.048  68.029  1.00  0.00    -0.263 OA 
HETATM   12  C   UNL     1      -6.761  18.698  68.215  1.00  0.00    -0.237 A  
HETATM   13  H   UNL     1      -5.887  21.046  67.801  1.00  0.00     0.000 HD 
HETATM   14  C   UNL     1      -7.406  17.486  68.460  1.00  0.00    -0.243 A  
ENDBRANCH   6   7
ENDBRANCH   5   6
ENDBRANCH   3   5
ENDBRANCH   2   3
BRANCH   2  15
HETATM   15  C   UNL     1     -11.882  13.423  69.995  1.00  0.00    -0.294 C  
HETATM   16  O   UNL     1     -12.740  13.739  68.890  1.00  0.00    -0.142 OA 
HETATM   17  H   UNL     1     -12.682  13.065  68.223  1.00  0.00     0.000 HD 
BRANCH  15  18
HETATM   18  C   UNL     1     -12.171  12.027  70.520  1.00  0.00    -0.414 A  
HETATM   19  C   UNL     1     -12.961  11.858  71.670  1.00  0.00    -0.447 A  
HETATM   20  C   UNL     1     -11.974   9.609  70.344  1.00  0.00    -0.171 A  
HETATM   21  H   UNL     1     -12.619   7.441  71.496  1.00  0.00     0.000 HD 
HETATM   22  C   UNL     1     -13.240  10.579  72.159  1.00  0.00    -0.398 A  
HETATM   23  C   UNL     1     -12.734   9.466  71.496  1.00  0.00    -0.361 A  
HETATM   24  C   UNL     1     -11.695  10.884  69.856  1.00  0.00    -0.418 A  
HETATM   25  O   UNL     1     -12.965   8.201  71.949  1.00  0.00    -0.324 OA 
ENDBRANCH  15  18
ENDBRANCH   2  15
TORSDOF 6
ENDMDL
MODEL      182
REMARK 921   NORMALIZED FREE ENERGY PREDICTED BY IDOCK:   -4.41 KCAL/MOL
REMARK 922        TOTAL FREE ENERGY PREDICTED BY IDOCK:   -7.00 KCAL/MOL
REMARK 923 INTER-LIGAND FREE ENERGY PREDICTED BY IDOCK:   -6.91 KCAL/MOL
REMARK 924 INTRA-LIGAND FREE ENERGY PREDICTED BY IDOCK:   -0.09 KCAL/MOL
REMARK 927      BINDING AFFINITY PREDICTED BY RF-SCORE:    0.00 PKD
ROOT
HETATM    1  C   UNL     1     -12.519  14.120  66.189  1.00  0.00    -0.426 C  
HETATM    2  C   UNL     1     -11.121  14.221  66.818  1.00  0.00    -0.314 C  
ENDROOT
BRANCH   2   3
HETATM    3  N   UNL     1     -10.064  13.822  65.860  1.00  0.00    -0.307 NA 
HETATM    4  H   UNL     1      -9.635  12.946  66.160  1.00  0.00     0.000 HD 
BRANCH   3   5
HETATM    5  C   UNL     1     -10.482  13.721  64.461  1.00  0.00    -0.356 C  
BRANCH   5   6
HETATM    6  C   UNL     1     -11.253  12.430  64.151  1.00  0.00    -0.434 C  
BRANCH   6   7
HETATM    7  C   UNL     1     -10.365  11.215  64.228  1.00  0.00    -0.413 A  
HETATM    8  C   UNL     1      -9.586  10.838  63.124  1.00  0.00    -0.385 A  
HETATM    9  C   UNL     1      -8.775   8.929  64.339  1.00  0.00    -0.066 A  
HETATM   10  C   UNL     1      -8.788   9.697  63.180  1.00  0.00    -0.254 A  
HETATM   11  O   UNL     1      -8.020   7.798  64.432  1.00  0.00    -0.133 OA 
HETATM   12  C   UNL     1      -9.536   9.293  65.445  1.00  0.00    -0.281 A  
HETATM   13  H   UNL     1      -8.012   7.273  65.223  1.00  0.00     0.000 HD 
HETATM   14  C   UNL     1     -10.335  10.434  65.390  1.00  0.00    -0.270 A  
ENDBRANCH   6   7
ENDBRANCH   5   6
ENDBRANCH   3   5
ENDBRANCH   2   3
BRANCH   2  15
HETATM   15  C   UNL     1     -10.984  13.337  68.098  1.00  0.00    -0.255 C  
HETATM   16  O   UNL     1     -11.671  12.091  67.920  1.00  0.00    -0.375 OA 
HETATM   17  H   UNL     1     -11.587  11.553  68.699  1.00  0.00     0.000 HD 
BRANCH  15  18
HETATM   18  C   UNL     1     -11.450  14.033  69.366  1.00  0.00    -0.343 A  
HETATM   19  C   UNL     1     -10.995  15.328  69.665  1.00  0.00    -0.291 A  
HETATM   20  C   UNL     1     -12.790  14.073  71.395  1.00  0.00    -0.434 A  
HETATM   21  H   UNL     1     -13.339  15.497  73.424  1.00  0.00     0.000 HD 
HETATM   22  C   UNL     1     -11.422  15.981  70.825  1.00  0.00    -0.444 A  
HETATM   23  C   UNL     1     -12.308  15.342  71.685  1.00  0.00    -0.363 A  
HETATM   24  C   UNL     1     -12.365  13.420  70.240  1.00  0.00    -0.354 A  
HETATM   25  O   UNL     1     -12.734  15.933  72.836  1.00  0.00    -0.411 OA 
ENDBRANCH  15  18
ENDBRANCH   2  15
TORSDOF 6
ENDMDL
MODEL      183
REMARK 921   NORMALIZED FREE ENERGY PREDICTED BY IDOCK:   -4.40 KCAL/MOL
REMARK 922        TOTAL FREE ENERGY PREDICTED BY IDOCK:   -6.99 KCAL/MOL
REMARK 923 INTER-LIGAND FREE ENERGY PREDICTED BY IDOCK:   -5.40 KCAL/MOL
REMARK 924 INTRA-LIGAND FREE ENERGY PREDICTED BY IDOCK:   -1.59 KCAL/MOL
REMARK 927      BINDING AFFINITY PREDICTED BY RF-SCORE:    0.00 PKD
ROOT
HETATM    1  C   UNL     1     -12.153  11.146  69.477  1.00  0.00    -0.396 C  
HETATM    2  C   UNL     1     -11.423   9.916  70.039  1.00  0.00    -0.217 C  
ENDROOT
BRANCH   2   3
HETATM    3  N   UNL     1     -11.593   9.806  71.506  1.00  0.00    -0.379 NA 
HETATM    4  H   UNL     1     -12.335  10.433  71.819  1.00  0.00     0.000 HD 
BRANCH   3   5
HETATM    5  C   UNL     1     -11.832   8.456  72.016  1.00  0.00    -0.353 C  
BRANCH   5   6
HETATM    6  C   UNL     1     -12.157   7.440  70.912  1.00  0.00    -0.290 C  
BRANCH   6   7
HETATM    7  C   UNL     1     -11.185   6.289  70.907  1.00  0.00    -0.386 A  
HETATM    8  C   UNL     1     -10.673   5.802  69.695  1.00  0.00    -0.416 A  
HETATM    9  C   UNL     1      -9.443   4.114  70.883  1.00  0.00    -0.162 A  
HETATM   10  C   UNL     1      -9.799   4.717  69.683  1.00  0.00    -0.293 A  
HETATM   11  O   UNL     1      -8.602   3.042  70.917  1.00  0.00    -0.063 OA 
HETATM   12  C   UNL     1      -9.935   4.589  72.095  1.00  0.00    -0.246 A  
HETATM   13  H   UNL     1      -8.359   2.630  71.737  1.00  0.00     0.000 HD 
HETATM   14  C   UNL     1     -10.811   5.674  72.108  1.00  0.00    -0.300 A  
ENDBRANCH   6   7
ENDBRANCH   5   6
ENDBRANCH   3   5
ENDBRANCH   2   3
BRANCH   2  15
HETATM   15  C   UNL     1      -9.895   9.940  69.721  1.00  0.00    -0.236 C  
HETATM   16  O   UNL     1      -9.463  11.280  69.447  1.00  0.00    -0.399 OA 
HETATM   17  H   UNL     1      -8.532  11.294  69.254  1.00  0.00     0.000 HD 
BRANCH  15  18
HETATM   18  C   UNL     1      -9.497   9.004  68.592  1.00  0.00    -0.149 A  
HETATM   19  C   UNL     1      -8.270   8.324  68.642  1.00  0.00    -0.120 A  
HETATM   20  C   UNL     1      -9.980   7.904  66.477  1.00  0.00    -0.267 A  
HETATM   21  H   UNL     1      -9.002   6.309  64.762  1.00  0.00     0.000 HD 
HETATM   22  C   UNL     1      -7.895   7.455  67.612  1.00  0.00    -0.113 A  
HETATM   23  C   UNL     1      -8.751   7.262  66.534  1.00  0.00    -0.133 A  
HETATM   24  C   UNL     1     -10.354   8.771  67.502  1.00  0.00    -0.334 A  
HETATM   25  O   UNL     1      -8.418   6.440  65.498  1.00  0.00    -0.148 OA 
ENDBRANCH  15  18
ENDBRANCH   2  15
TORSDOF 6
ENDMDL
MODEL      184
REMARK 921   NORMALIZED FREE ENERGY PREDICTED BY IDOCK:   -4.37 KCAL/MOL
REMARK 922        TOTAL FREE ENERGY PREDICTED BY IDOCK:   -6.95 KCAL/MOL
REMARK 923 INTER-LIGAND FREE ENERGY PREDICTED BY IDOCK:   -6.33 KCAL/MOL
REMARK 924 INTRA-LIGAND FREE ENERGY PREDICTED BY IDOCK:   -0.62 KCAL/MOL
REMARK 927      BINDING AFFINITY PREDICTED BY RF-SCORE:    0.00 PKD
ROOT
HETATM    1  C   UNL     1      -7.461  10.067  65.715  1.00  0.00    -0.121 C  
HETATM    2  C   UNL     1      -8.870  10.336  66.263  1.00  0.00    -0.146 C  
ENDROOT
BRANCH   2   3
HETATM    3  N   UNL     1      -9.207   9.414  67.373  1.00  0.00    -0.126 NA 
HETATM    4  H   UNL     1      -8.396   9.289  67.979  1.00  0.00     0.000 HD 
BRANCH   3   5
HETATM    5  C   UNL     1     -10.375   9.785  68.172  1.00  0.00    -0.202 C  
BRANCH   5   6
HETATM    6  C   UNL     1     -10.151   9.630  69.683  1.00  0.00    -0.242 C  
BRANCH   6   7
HETATM    7  C   UNL     1     -10.096   8.181  70.094  1.00  0.00    -0.194 A  
HETATM    8  C   UNL     1      -8.931   7.655  70.673  1.00  0.00    -0.153 A  
HETATM    9  C   UNL     1      -9.961   5.486  70.791  1.00  0.00    -0.201 A  
HETATM   10  C   UNL     1      -8.865   6.308  71.025  1.00  0.00    -0.136 A  
HETATM   11  O   UNL     1      -9.934   4.161  71.106  1.00  0.00    -0.188 OA 
HETATM   12  C   UNL     1     -11.126   5.994  70.224  1.00  0.00    -0.415 A  
HETATM   13  H   UNL     1     -10.683   3.599  70.946  1.00  0.00     0.000 HD 
HETATM   14  C   UNL     1     -11.194   7.341  69.871  1.00  0.00    -0.195 A  
ENDBRANCH   6   7
ENDBRANCH   5   6
ENDBRANCH   3   5
ENDBRANCH   2   3
BRANCH   2  15
HETATM   15  C   UNL     1      -9.969  10.201  65.161  1.00  0.00    -0.309 C  
HETATM   16  O   UNL     1      -9.412   9.630  63.969  1.00  0.00    -0.410 OA 
HETATM   17  H   UNL     1     -10.080   9.548  63.299  1.00  0.00     0.000 HD 
BRANCH  15  18
HETATM   18  C   UNL     1     -10.679  11.508  64.852  1.00  0.00    -0.357 A  
HETATM   19  C   UNL     1     -10.521  12.612  65.706  1.00  0.00    -0.299 A  
HETATM   20  C   UNL     1     -12.109  12.861  63.424  1.00  0.00    -0.610 A  
HETATM   21  H   UNL     1     -13.165  15.160  63.221  1.00  0.00     0.000 HD 
HETATM   22  C   UNL     1     -11.164  13.823  65.428  1.00  0.00    -0.306 A  
HETATM   23  C   UNL     1     -11.960  13.931  64.294  1.00  0.00    -0.444 A  
HETATM   24  C   UNL     1     -11.469  11.654  63.699  1.00  0.00    -0.458 A  
HETATM   25  O   UNL     1     -12.621  15.086  63.996  1.00  0.00    -0.817 OA 
ENDBRANCH  15  18
ENDBRANCH   2  15
TORSDOF 6
ENDMDL
MODEL      185
REMARK 921   NORMALIZED FREE ENERGY PREDICTED BY IDOCK:   -4.36 KCAL/MOL
REMARK 922        TOTAL FREE ENERGY PREDICTED BY IDOCK:   -6.93 KCAL/MOL
REMARK 923 INTER-LIGAND FREE ENERGY PREDICTED BY IDOCK:   -6.90 KCAL/MOL
REMARK 924 INTRA-LIGAND FREE ENERGY PREDICTED BY IDOCK:   -0.03 KCAL/MOL
REMARK 927      BINDING AFFINITY PREDICTED BY RF-SCORE:    0.00 PKD
ROOT
HETATM    1  C   UNL     1      -9.742  13.943  66.376  1.00  0.00    -0.309 C  
HETATM    2  C   UNL     1      -9.046  13.335  67.602  1.00  0.00    -0.204 C  
ENDROOT
BRANCH   2   3
HETATM    3  N   UNL     1     -10.019  12.987  68.663  1.00  0.00    -0.399 NA 
HETATM    4  H   UNL     1     -10.629  13.782  68.851  1.00  0.00     0.000 HD 
BRANCH   3   5
HETATM    5  C   UNL     1     -10.822  11.788  68.418  1.00  0.00    -0.223 C  
BRANCH   5   6
HETATM    6  C   UNL     1     -12.033  11.669  69.353  1.00  0.00    -0.381 C  
BRANCH   6   7
HETATM    7  C   UNL     1     -11.878  10.529  70.328  1.00  0.00    -0.418 A  
HETATM    8  C   UNL     1     -12.957  10.138  71.135  1.00  0.00    -0.488 A  
HETATM    9  C   UNL     1     -11.578   8.472  72.182  1.00  0.00    -0.377 A  
HETATM   10  C   UNL     1     -12.809   9.106  72.060  1.00  0.00    -0.483 A  
HETATM   11  O   UNL     1     -11.385   7.468  73.084  1.00  0.00    -0.571 OA 
HETATM   12  C   UNL     1     -10.500   8.842  71.385  1.00  0.00    -0.375 A  
HETATM   13  H   UNL     1     -10.544   7.034  73.167  1.00  0.00     0.000 HD 
HETATM   14  C   UNL     1     -10.648   9.875  70.459  1.00  0.00    -0.359 A  
ENDBRANCH   6   7
ENDBRANCH   5   6
ENDBRANCH   3   5
ENDBRANCH   2   3
BRANCH   2  15
HETATM   15  C   UNL     1      -7.976  14.296  68.212  1.00  0.00    -0.140 C  
HETATM   16  O   UNL     1      -7.540  13.810  69.489  1.00  0.00    -0.324 OA 
HETATM   17  H   UNL     1      -6.889  14.395  69.860  1.00  0.00     0.000 HD 
BRANCH  15  18
HETATM   18  C   UNL     1      -8.446  15.737  68.315  1.00  0.00    -0.164 A  
HETATM   19  C   UNL     1      -9.704  16.028  68.869  1.00  0.00    -0.232 A  
HETATM   20  C   UNL     1      -8.070  18.120  68.008  1.00  0.00    -0.264 A  
HETATM   21  H   UNL     1      -9.167  20.391  68.298  1.00  0.00     0.000 HD 
HETATM   22  C   UNL     1     -10.146  17.350  68.975  1.00  0.00    -0.295 A  
HETATM   23  C   UNL     1      -9.327  18.383  68.534  1.00  0.00    -0.335 A  
HETATM   24  C   UNL     1      -7.629  16.802  67.900  1.00  0.00    -0.177 A  
HETATM   25  O   UNL     1      -9.725  19.685  68.600  1.00  0.00    -0.380 OA 
ENDBRANCH  15  18
ENDBRANCH   2  15
TORSDOF 6
ENDMDL
MODEL      186
REMARK 921   NORMALIZED FREE ENERGY PREDICTED BY IDOCK:   -4.33 KCAL/MOL
REMARK 922        TOTAL FREE ENERGY PREDICTED BY IDOCK:   -6.89 KCAL/MOL
REMARK 923 INTER-LIGAND FREE ENERGY PREDICTED BY IDOCK:   -6.36 KCAL/MOL
REMARK 924 INTRA-LIGAND FREE ENERGY PREDICTED BY IDOCK:   -0.53 KCAL/MOL
REMARK 927      BINDING AFFINITY PREDICTED BY RF-SCORE:    0.00 PKD
ROOT
HETATM    1  C   UNL     1     -12.895  12.950  71.539  1.00  0.00    -0.380 C  
HETATM    2  C   UNL     1     -12.168  11.837  70.771  1.00  0.00    -0.326 C  
ENDROOT
BRANCH   2   3
HETATM    3  N   UNL     1     -12.228  12.056  69.307  1.00  0.00    -0.159 NA 
HETATM    4  H   UNL     1     -13.141  11.772  68.950  1.00  0.00     0.000 HD 
BRANCH   3   5
HETATM    5  C   UNL     1     -11.915  13.413  68.857  1.00  0.00    -0.324 C  
BRANCH   5   6
HETATM    6  C   UNL     1     -10.448  13.589  68.440  1.00  0.00    -0.252 C  
BRANCH   6   7
HETATM    7  C   UNL     1     -10.057  15.043  68.371  1.00  0.00    -0.225 A  
HETATM    8  C   UNL     1      -8.705  15.407  68.287  1.00  0.00    -0.164 A  
HETATM    9  C   UNL     1      -9.322  17.730  68.316  1.00  0.00    -0.288 A  
HETATM   10  C   UNL     1      -8.337  16.751  68.255  1.00  0.00    -0.213 A  
HETATM   11  O   UNL     1      -9.006  19.056  68.303  1.00  0.00    -0.307 OA 
HETATM   12  C   UNL     1     -10.668  17.386  68.393  1.00  0.00    -0.301 A  
HETATM   13  H   UNL     1      -9.679  19.725  68.344  1.00  0.00     0.000 HD 
HETATM   14  C   UNL     1     -11.037  16.041  68.425  1.00  0.00    -0.351 A  
ENDBRANCH   6   7
ENDBRANCH   5   6
ENDBRANCH   3   5
ENDBRANCH   2   3
BRANCH   2  15
HETATM   15  C   UNL     1     -12.755  10.423  71.081  1.00  0.00    -0.415 C  
HETATM   16  O   UNL     1     -13.771  10.516  72.090  1.00  0.00    -0.409 OA 
HETATM   17  H   UNL     1     -14.128   9.656  72.279  1.00  0.00     0.000 HD 
BRANCH  15  18
HETATM   18  C   UNL     1     -11.700   9.402  71.471  1.00  0.00    -0.465 A  
HETATM   19  C   UNL     1     -12.024   8.360  72.356  1.00  0.00    -0.451 A  
HETATM   20  C   UNL     1      -9.447   8.503  71.294  1.00  0.00    -0.265 A  
HETATM   21  H   UNL     1      -7.932   6.665  72.170  1.00  0.00     0.000 HD 
HETATM   22  C   UNL     1     -11.064   7.410  72.717  1.00  0.00    -0.394 A  
HETATM   23  C   UNL     1      -9.781   7.498  72.190  1.00  0.00    -0.164 A  
HETATM   24  C   UNL     1     -10.403   9.451  70.933  1.00  0.00    -0.380 A  
HETATM   25  O   UNL     1      -8.808   6.605  72.530  1.00  0.00    -0.129 OA 
ENDBRANCH  15  18
ENDBRANCH   2  15
TORSDOF 6
ENDMDL
MODEL      187
REMARK 921   NORMALIZED FREE ENERGY PREDICTED BY IDOCK:   -4.33 KCAL/MOL
REMARK 922        TOTAL FREE ENERGY PREDICTED BY IDOCK:   -6.89 KCAL/MOL
REMARK 923 INTER-LIGAND FREE ENERGY PREDICTED BY IDOCK:   -5.84 KCAL/MOL
REMARK 924 INTRA-LIGAND FREE ENERGY PREDICTED BY IDOCK:   -1.05 KCAL/MOL
REMARK 927      BINDING AFFINITY PREDICTED BY RF-SCORE:    0.00 PKD
ROOT
HETATM    1  C   UNL     1      -8.445   6.540  65.235  1.00  0.00    -0.091 C  
HETATM    2  C   UNL     1      -9.433   6.742  66.394  1.00  0.00    -0.119 C  
ENDROOT
BRANCH   2   3
HETATM    3  N   UNL     1      -8.836   7.547  67.484  1.00  0.00    -0.127 NA 
HETATM    4  H   UNL     1      -7.819   7.468  67.459  1.00  0.00     0.000 HD 
BRANCH   3   5
HETATM    5  C   UNL     1      -9.228   8.956  67.518  1.00  0.00    -0.136 C  
BRANCH   5   6
HETATM    6  C   UNL     1      -8.846   9.659  68.829  1.00  0.00    -0.130 C  
BRANCH   6   7
HETATM    7  C   UNL     1     -10.028   9.803  69.752  1.00  0.00    -0.265 A  
HETATM    8  C   UNL     1     -10.016   9.193  71.015  1.00  0.00    -0.367 A  
HETATM    9  C   UNL     1     -12.239  10.004  71.436  1.00  0.00    -0.416 A  
HETATM   10  C   UNL     1     -11.121   9.296  71.859  1.00  0.00    -0.308 A  
HETATM   11  O   UNL     1     -13.346  10.118  72.223  1.00  0.00    -0.570 OA 
HETATM   12  C   UNL     1     -12.264  10.622  70.189  1.00  0.00    -0.398 A  
HETATM   13  H   UNL     1     -14.110  10.602  71.934  1.00  0.00     0.000 HD 
HETATM   14  C   UNL     1     -11.160  10.519  69.344  1.00  0.00    -0.310 A  
ENDBRANCH   6   7
ENDBRANCH   5   6
ENDBRANCH   3   5
ENDBRANCH   2   3
BRANCH   2  15
HETATM   15  C   UNL     1      -9.925   5.386  66.995  1.00  0.00    -0.179 C  
HETATM   16  O   UNL     1     -11.013   4.863  66.220  1.00  0.00    -0.514 OA 
HETATM   17  H   UNL     1     -11.311   4.038  66.585  1.00  0.00     0.000 HD 
BRANCH  15  18
HETATM   18  C   UNL     1     -10.304   5.478  68.463  1.00  0.00    -0.247 A  
HETATM   19  C   UNL     1     -11.379   6.288  68.862  1.00  0.00    -0.269 A  
HETATM   20  C   UNL     1      -9.984   4.822  70.783  1.00  0.00    -0.291 A  
HETATM   21  H   UNL     1     -10.856   5.224  73.133  1.00  0.00     0.000 HD 
HETATM   22  C   UNL     1     -11.743   6.376  70.209  1.00  0.00    -0.389 A  
HETATM   23  C   UNL     1     -11.033   5.649  71.158  1.00  0.00    -0.177 A  
HETATM   24  C   UNL     1      -9.621   4.734  69.441  1.00  0.00    -0.249 A  
HETATM   25  O   UNL     1     -11.340   5.720  72.485  1.00  0.00    -0.282 OA 
ENDBRANCH  15  18
ENDBRANCH   2  15
TORSDOF 6
ENDMDL
MODEL      188
REMARK 921   NORMALIZED FREE ENERGY PREDICTED BY IDOCK:   -4.31 KCAL/MOL
REMARK 922        TOTAL FREE ENERGY PREDICTED BY IDOCK:   -6.87 KCAL/MOL
REMARK 923 INTER-LIGAND FREE ENERGY PREDICTED BY IDOCK:   -6.54 KCAL/MOL
REMARK 924 INTRA-LIGAND FREE ENERGY PREDICTED BY IDOCK:   -0.33 KCAL/MOL
REMARK 927      BINDING AFFINITY PREDICTED BY RF-SCORE:    0.00 PKD
ROOT
HETATM    1  C   UNL     1      -9.010  15.343  67.291  1.00  0.00    -0.213 C  
HETATM    2  C   UNL     1     -10.436  15.419  67.857  1.00  0.00    -0.256 C  
ENDROOT
BRANCH   2   3
HETATM    3  N   UNL     1     -10.712  16.744  68.459  1.00  0.00    -0.345 NA 
HETATM    4  H   UNL     1     -11.402  16.650  69.205  1.00  0.00     0.000 HD 
BRANCH   3   5
HETATM    5  C   UNL     1      -9.542  17.473  68.950  1.00  0.00    -0.224 C  
BRANCH   5   6
HETATM    6  C   UNL     1      -9.640  18.990  68.734  1.00  0.00    -0.451 C  
BRANCH   6   7
HETATM    7  C   UNL     1      -8.545  19.499  67.832  1.00  0.00    -0.357 A  
HETATM    8  C   UNL     1      -7.447  20.185  68.372  1.00  0.00    -0.200 A  
HETATM    9  C   UNL     1      -6.552  20.505  66.165  1.00  0.00    -0.235 A  
HETATM   10  C   UNL     1      -6.448  20.685  67.539  1.00  0.00    -0.346 A  
HETATM   11  O   UNL     1      -5.606  20.990  65.312  1.00  0.00    -0.214 OA 
HETATM   12  C   UNL     1      -7.631  19.821  65.614  1.00  0.00    -0.223 A  
HETATM   13  H   UNL     1      -5.677  20.868  64.373  1.00  0.00     0.000 HD 
HETATM   14  C   UNL     1      -8.631  19.320  66.446  1.00  0.00    -0.355 A  
ENDBRANCH   6   7
ENDBRANCH   5   6
ENDBRANCH   3   5
ENDBRANCH   2   3
BRANCH   2  15
HETATM   15  C   UNL     1     -10.703  14.323  68.937  1.00  0.00    -0.257 C  
HETATM   16  O   UNL     1     -11.306  13.168  68.337  1.00  0.00    -0.251 OA 
HETATM   17  H   UNL     1     -11.468  12.501  68.994  1.00  0.00     0.000 HD 
BRANCH  15  18
HETATM   18  C   UNL     1     -11.534  14.817  70.108  1.00  0.00    -0.313 A  
HETATM   19  C   UNL     1     -12.937  14.816  70.025  1.00  0.00     0.017 A  
HETATM   20  C   UNL     1     -11.706  15.690  72.372  1.00  0.00    -0.574 A  
HETATM   21  H   UNL     1     -13.380  16.470  74.114  1.00  0.00     0.000 HD 
HETATM   22  C   UNL     1     -13.714  15.262  71.098  1.00  0.00    -0.519 A  
HETATM   23  C   UNL     1     -13.089  15.705  72.259  1.00  0.00    -0.456 A  
HETATM   24  C   UNL     1     -10.930  15.246  71.303  1.00  0.00    -0.210 A  
HETATM   25  O   UNL     1     -13.806  16.167  73.322  1.00  0.00    -0.559 OA 
ENDBRANCH  15  18
ENDBRANCH   2  15
TORSDOF 6
ENDMDL
MODEL      189
REMARK 921   NORMALIZED FREE ENERGY PREDICTED BY IDOCK:   -4.31 KCAL/MOL
REMARK 922        TOTAL FREE ENERGY PREDICTED BY IDOCK:   -6.86 KCAL/MOL
REMARK 923 INTER-LIGAND FREE ENERGY PREDICTED BY IDOCK:   -6.22 KCAL/MOL
REMARK 924 INTRA-LIGAND FREE ENERGY PREDICTED BY IDOCK:   -0.64 KCAL/MOL
REMARK 927      BINDING AFFINITY PREDICTED BY RF-SCORE:    0.00 PKD
ROOT
HETATM    1  C   UNL     1      -9.800   8.268  69.310  1.00  0.00    -0.186 C  
HETATM    2  C   UNL     1     -10.469   8.896  70.542  1.00  0.00    -0.215 C  
ENDROOT
BRANCH   2   3
HETATM    3  N   UNL     1     -10.724  10.341  70.345  1.00  0.00    -0.416 NA 
HETATM    4  H   UNL     1      -9.847  10.861  70.405  1.00  0.00     0.000 HD 
BRANCH   3   5
HETATM    5  C   UNL     1     -11.432  10.698  69.115  1.00  0.00    -0.280 C  
BRANCH   5   6
HETATM    6  C   UNL     1     -10.820  11.906  68.392  1.00  0.00    -0.263 C  
BRANCH   6   7
HETATM    7  C   UNL     1     -10.797  11.711  66.898  1.00  0.00    -0.322 A  
HETATM    8  C   UNL     1      -9.862  10.844  66.312  1.00  0.00    -0.261 A  
HETATM    9  C   UNL     1     -10.702  11.400  64.130  1.00  0.00    -0.371 A  
HETATM   10  C   UNL     1      -9.817  10.686  64.928  1.00  0.00    -0.363 A  
HETATM   11  O   UNL     1     -10.683  11.286  62.772  1.00  0.00    -0.732 OA 
HETATM   12  C   UNL     1     -11.641  12.258  64.695  1.00  0.00    -0.404 A  
HETATM   13  H   UNL     1     -11.288  11.775  62.227  1.00  0.00     0.000 HD 
HETATM   14  C   UNL     1     -11.687  12.418  66.080  1.00  0.00    -0.469 A  
ENDBRANCH   6   7
ENDBRANCH   5   6
ENDBRANCH   3   5
ENDBRANCH   2   3
BRANCH   2  15
HETATM   15  C   UNL     1      -9.611   8.719  71.835  1.00  0.00    -0.302 C  
HETATM   16  O   UNL     1      -8.250   9.098  71.586  1.00  0.00    -0.343 OA 
HETATM   17  H   UNL     1      -7.728   8.991  72.373  1.00  0.00     0.000 HD 
BRANCH  15  18
HETATM   18  C   UNL     1      -9.682   7.320  72.422  1.00  0.00    -0.186 A  
HETATM   19  C   UNL     1      -8.516   6.543  72.529  1.00  0.00    -0.121 A  
HETATM   20  C   UNL     1     -10.941   5.507  73.443  1.00  0.00    -0.324 A  
HETATM   21  H   UNL     1     -10.712   3.142  74.336  1.00  0.00     0.000 HD 
HETATM   22  C   UNL     1      -8.567   5.256  73.073  1.00  0.00    -0.118 A  
HETATM   23  C   UNL     1      -9.782   4.747  73.516  1.00  0.00    -0.135 A  
HETATM   24  C   UNL     1     -10.892   6.789  72.900  1.00  0.00    -0.304 A  
HETATM   25  O   UNL     1      -9.882   3.490  74.034  1.00  0.00    -0.106 OA 
ENDBRANCH  15  18
ENDBRANCH   2  15
TORSDOF 6
ENDMDL
MODEL      190
REMARK 921   NORMALIZED FREE ENERGY PREDICTED BY IDOCK:   -4.30 KCAL/MOL
REMARK 922        TOTAL FREE ENERGY PREDICTED BY IDOCK:   -6.85 KCAL/MOL
REMARK 923 INTER-LIGAND FREE ENERGY PREDICTED BY IDOCK:   -6.22 KCAL/MOL
REMARK 924 INTRA-LIGAND FREE ENERGY PREDICTED BY IDOCK:   -0.64 KCAL/MOL
REMARK 927      BINDING AFFINITY PREDICTED BY RF-SCORE:    0.00 PKD
ROOT
HETATM    1  C   UNL     1      -6.595  10.009  68.055  1.00  0.00    -0.063 C  
HETATM    2  C   UNL     1      -7.945   9.280  68.121  1.00  0.00    -0.099 C  
ENDROOT
BRANCH   2   3
HETATM    3  N   UNL     1      -8.398   8.849  66.778  1.00  0.00    -0.111 NA 
HETATM    4  H   UNL     1      -8.580   7.846  66.777  1.00  0.00     0.000 HD 
BRANCH   3   5
HETATM    5  C   UNL     1      -9.553   9.568  66.239  1.00  0.00    -0.226 C  
BRANCH   5   6
HETATM    6  C   UNL     1      -9.184  10.912  65.595  1.00  0.00    -0.227 C  
BRANCH   6   7
HETATM    7  C   UNL     1     -10.357  11.857  65.562  1.00  0.00    -0.303 A  
HETATM    8  C   UNL     1     -10.505  12.834  66.557  1.00  0.00    -0.276 A  
HETATM    9  C   UNL     1     -12.561  13.562  65.547  1.00  0.00    -0.481 A  
HETATM   10  C   UNL     1     -11.606  13.690  66.548  1.00  0.00    -0.392 A  
HETATM   11  O   UNL     1     -13.660  14.367  65.508  1.00  0.00    -0.576 OA 
HETATM   12  C   UNL     1     -12.426  12.603  64.548  1.00  0.00    -0.525 A  
HETATM   13  H   UNL     1     -14.313  14.280  64.824  1.00  0.00     0.000 HD 
HETATM   14  C   UNL     1     -11.325  11.746  64.556  1.00  0.00    -0.349 A  
ENDBRANCH   6   7
ENDBRANCH   5   6
ENDBRANCH   3   5
ENDBRANCH   2   3
BRANCH   2  15
HETATM   15  C   UNL     1      -9.065  10.163  68.758  1.00  0.00    -0.153 C  
HETATM   16  O   UNL     1      -8.546  11.457  69.097  1.00  0.00    -0.373 OA 
HETATM   17  H   UNL     1      -9.227  11.995  69.483  1.00  0.00     0.000 HD 
BRANCH  15  18
HETATM   18  C   UNL     1      -9.734   9.520  69.960  1.00  0.00    -0.271 A  
HETATM   19  C   UNL     1      -9.144   8.405  70.579  1.00  0.00    -0.163 A  
HETATM   20  C   UNL     1     -11.523   9.443  71.606  1.00  0.00    -0.463 A  
HETATM   21  H   UNL     1     -12.382   8.119  73.594  1.00  0.00     0.000 HD 
HETATM   22  C   UNL     1      -9.746   7.807  71.690  1.00  0.00    -0.200 A  
HETATM   23  C   UNL     1     -10.937   8.327  72.187  1.00  0.00    -0.326 A  
HETATM   24  C   UNL     1     -10.924  10.039  70.498  1.00  0.00    -0.392 A  
HETATM   25  O   UNL     1     -11.569   7.764  73.255  1.00  0.00    -0.248 OA 
ENDBRANCH  15  18
ENDBRANCH   2  15
TORSDOF 6
ENDMDL
MODEL      191
REMARK 921   NORMALIZED FREE ENERGY PREDICTED BY IDOCK:   -4.29 KCAL/MOL
REMARK 922        TOTAL FREE ENERGY PREDICTED BY IDOCK:   -6.84 KCAL/MOL
REMARK 923 INTER-LIGAND FREE ENERGY PREDICTED BY IDOCK:   -6.25 KCAL/MOL
REMARK 924 INTRA-LIGAND FREE ENERGY PREDICTED BY IDOCK:   -0.59 KCAL/MOL
REMARK 927      BINDING AFFINITY PREDICTED BY RF-SCORE:    0.00 PKD
ROOT
HETATM    1  C   UNL     1      -7.428   8.529  72.111  1.00  0.00    -0.111 C  
HETATM    2  C   UNL     1      -8.933   8.320  71.885  1.00  0.00    -0.187 C  
ENDROOT
BRANCH   2   3
HETATM    3  N   UNL     1      -9.594   9.566  71.435  1.00  0.00    -0.295 NA 
HETATM    4  H   UNL     1      -9.048  10.001  70.691  1.00  0.00     0.000 HD 
BRANCH   3   5
HETATM    5  C   UNL     1     -10.989   9.427  71.016  1.00  0.00    -0.338 C  
BRANCH   5   6
HETATM    6  C   UNL     1     -11.282  10.084  69.659  1.00  0.00    -0.285 C  
BRANCH   6   7
HETATM    7  C   UNL     1     -11.750  11.508  69.816  1.00  0.00    -0.426 A  
HETATM    8  C   UNL     1     -11.583  12.426  68.769  1.00  0.00    -0.373 A  
HETATM    9  C   UNL     1     -12.545  14.161  70.125  1.00  0.00    -0.268 A  
HETATM   10  C   UNL     1     -11.985  13.752  68.921  1.00  0.00    -0.394 A  
HETATM   11  O   UNL     1     -12.938  15.451  70.323  1.00  0.00    -0.644 OA 
HETATM   12  C   UNL     1     -12.724  13.262  71.172  1.00  0.00    -0.404 A  
HETATM   13  H   UNL     1     -13.322  15.730  71.146  1.00  0.00     0.000 HD 
HETATM   14  C   UNL     1     -12.323  11.935  71.021  1.00  0.00    -0.362 A  
ENDBRANCH   6   7
ENDBRANCH   5   6
ENDBRANCH   3   5
ENDBRANCH   2   3
BRANCH   2  15
HETATM   15  C   UNL     1      -9.660   7.814  73.172  1.00  0.00    -0.275 C  
HETATM   16  O   UNL     1      -8.906   8.167  74.341  1.00  0.00    -0.382 OA 
HETATM   17  H   UNL     1      -9.349   7.860  75.124  1.00  0.00     0.000 HD 
BRANCH  15  18
HETATM   18  C   UNL     1      -9.958   6.325  73.152  1.00  0.00    -0.183 A  
HETATM   19  C   UNL     1      -9.906   5.613  71.942  1.00  0.00    -0.203 A  
HETATM   20  C   UNL     1     -10.518   4.257  74.303  1.00  0.00    -0.307 A  
HETATM   21  H   UNL     1     -10.987   1.792  73.913  1.00  0.00     0.000 HD 
HETATM   22  C   UNL     1     -10.172   4.241  71.912  1.00  0.00    -0.200 A  
HETATM   23  C   UNL     1     -10.486   3.578  73.093  1.00  0.00    -0.172 A  
HETATM   24  C   UNL     1     -10.254   5.624  74.334  1.00  0.00    -0.295 A  
HETATM   25  O   UNL     1     -10.772   2.245  73.107  1.00  0.00    -0.147 OA 
ENDBRANCH  15  18
ENDBRANCH   2  15
TORSDOF 6
ENDMDL
MODEL      192
REMARK 921   NORMALIZED FREE ENERGY PREDICTED BY IDOCK:   -4.29 KCAL/MOL
REMARK 922        TOTAL FREE ENERGY PREDICTED BY IDOCK:   -6.83 KCAL/MOL
REMARK 923 INTER-LIGAND FREE ENERGY PREDICTED BY IDOCK:   -6.30 KCAL/MOL
REMARK 924 INTRA-LIGAND FREE ENERGY PREDICTED BY IDOCK:   -0.53 KCAL/MOL
REMARK 927      BINDING AFFINITY PREDICTED BY RF-SCORE:    0.00 PKD
ROOT
HETATM    1  C   UNL     1     -11.518   7.818  72.446  1.00  0.00    -0.418 C  
HETATM    2  C   UNL     1     -11.007   8.434  71.134  1.00  0.00    -0.244 C  
ENDROOT
BRANCH   2   3
HETATM    3  N   UNL     1     -11.923   9.485  70.634  1.00  0.00    -0.407 NA 
HETATM    4  H   UNL     1     -12.379   9.952  71.418  1.00  0.00     0.000 HD 
BRANCH   3   5
HETATM    5  C   UNL     1     -11.321  10.477  69.742  1.00  0.00    -0.300 C  
BRANCH   5   6
HETATM    6  C   UNL     1     -11.960  11.868  69.865  1.00  0.00    -0.398 C  
BRANCH   6   7
HETATM    7  C   UNL     1     -11.805  12.669  68.598  1.00  0.00    -0.342 A  
HETATM    8  C   UNL     1     -11.768  14.070  68.648  1.00  0.00    -0.389 A  
HETATM    9  C   UNL     1     -11.592  14.158  66.253  1.00  0.00    -0.370 A  
HETATM   10  C   UNL     1     -11.658  14.816  67.476  1.00  0.00    -0.379 A  
HETATM   11  O   UNL     1     -11.498  14.848  65.082  1.00  0.00    -0.353 OA 
HETATM   12  C   UNL     1     -11.620  12.769  66.186  1.00  0.00    -0.431 A  
HETATM   13  H   UNL     1     -11.453  14.399  64.246  1.00  0.00     0.000 HD 
HETATM   14  C   UNL     1     -11.731  12.022  67.359  1.00  0.00    -0.352 A  
ENDBRANCH   6   7
ENDBRANCH   5   6
ENDBRANCH   3   5
ENDBRANCH   2   3
BRANCH   2  15
HETATM   15  C   UNL     1     -10.825   7.364  70.011  1.00  0.00    -0.252 C  
HETATM   16  O   UNL     1     -12.080   6.737  69.711  1.00  0.00    -0.648 OA 
HETATM   17  H   UNL     1     -11.969   6.087  69.027  1.00  0.00     0.000 HD 
BRANCH  15  18
HETATM   18  C   UNL     1      -9.765   6.324  70.332  1.00  0.00    -0.189 A  
HETATM   19  C   UNL     1     -10.120   4.969  70.435  1.00  0.00    -0.330 A  
HETATM   20  C   UNL     1      -7.454   5.717  70.782  1.00  0.00    -0.089 A  
HETATM   21  H   UNL     1      -5.955   3.743  71.331  1.00  0.00     0.000 HD 
HETATM   22  C   UNL     1      -9.153   4.001  70.723  1.00  0.00    -0.177 A  
HETATM   23  C   UNL     1      -7.830   4.387  70.904  1.00  0.00    -0.067 A  
HETATM   24  C   UNL     1      -8.416   6.682  70.495  1.00  0.00    -0.138 A  
HETATM   25  O   UNL     1      -6.859   3.479  71.207  1.00  0.00    -0.030 OA 
ENDBRANCH  15  18
ENDBRANCH   2  15
TORSDOF 6
ENDMDL
MODEL      193
REMARK 921   NORMALIZED FREE ENERGY PREDICTED BY IDOCK:   -4.25 KCAL/MOL
REMARK 922        TOTAL FREE ENERGY PREDICTED BY IDOCK:   -6.78 KCAL/MOL
REMARK 923 INTER-LIGAND FREE ENERGY PREDICTED BY IDOCK:   -5.95 KCAL/MOL
REMARK 924 INTRA-LIGAND FREE ENERGY PREDICTED BY IDOCK:   -0.83 KCAL/MOL
REMARK 927      BINDING AFFINITY PREDICTED BY RF-SCORE:    0.00 PKD
ROOT
HETATM    1  C   UNL     1      -6.907   8.478  69.169  1.00  0.00    -0.058 C  
HETATM    2  C   UNL     1      -7.980   7.379  69.162  1.00  0.00    -0.118 C  
ENDROOT
BRANCH   2   3
HETATM    3  N   UNL     1      -9.133   7.749  68.309  1.00  0.00    -0.131 NA 
HETATM    4  H   UNL     1      -9.975   7.830  68.878  1.00  0.00     0.000 HD 
BRANCH   3   5
HETATM    5  C   UNL     1      -8.959   8.955  67.498  1.00  0.00    -0.133 C  
BRANCH   5   6
HETATM    6  C   UNL     1     -10.176   9.272  66.616  1.00  0.00    -0.323 C  
BRANCH   6   7
HETATM    7  C   UNL     1     -10.709  10.657  66.875  1.00  0.00    -0.297 A  
HETATM    8  C   UNL     1     -11.272  10.976  68.120  1.00  0.00    -0.364 A  
HETATM    9  C   UNL     1     -11.763  13.195  67.338  1.00  0.00    -0.370 A  
HETATM   10  C   UNL     1     -11.795  12.247  68.353  1.00  0.00    -0.358 A  
HETATM   11  O   UNL     1     -12.276  14.444  67.518  1.00  0.00    -0.593 OA 
HETATM   12  C   UNL     1     -11.201  12.897  66.100  1.00  0.00    -0.326 A  
HETATM   13  H   UNL     1     -12.254  15.093  66.824  1.00  0.00     0.000 HD 
HETATM   14  C   UNL     1     -10.678  11.627  65.865  1.00  0.00    -0.328 A  
ENDBRANCH   6   7
ENDBRANCH   5   6
ENDBRANCH   3   5
ENDBRANCH   2   3
BRANCH   2  15
HETATM   15  C   UNL     1      -8.511   7.063  70.596  1.00  0.00    -0.139 C  
HETATM   16  O   UNL     1      -8.420   5.656  70.862  1.00  0.00    -0.121 OA 
HETATM   17  H   UNL     1      -8.743   5.464  71.735  1.00  0.00     0.000 HD 
BRANCH  15  18
HETATM   18  C   UNL     1      -9.922   7.568  70.844  1.00  0.00    -0.181 A  
HETATM   19  C   UNL     1     -11.007   6.677  70.790  1.00  0.00    -0.318 A  
HETATM   20  C   UNL     1     -11.469   9.362  71.397  1.00  0.00    -0.449 A  
HETATM   21  H   UNL     1     -13.934   9.873  71.726  1.00  0.00     0.000 HD 
HETATM   22  C   UNL     1     -12.310   7.128  71.022  1.00  0.00    -0.376 A  
HETATM   23  C   UNL     1     -12.529   8.470  71.314  1.00  0.00    -0.249 A  
HETATM   24  C   UNL     1     -10.170   8.913  71.165  1.00  0.00    -0.336 A  
HETATM   25  O   UNL     1     -13.784   8.956  71.527  1.00  0.00    -0.377 OA 
ENDBRANCH  15  18
ENDBRANCH   2  15
TORSDOF 6
ENDMDL
MODEL      194
REMARK 921   NORMALIZED FREE ENERGY PREDICTED BY IDOCK:   -4.25 KCAL/MOL
REMARK 922        TOTAL FREE ENERGY PREDICTED BY IDOCK:   -6.78 KCAL/MOL
REMARK 923 INTER-LIGAND FREE ENERGY PREDICTED BY IDOCK:   -4.74 KCAL/MOL
REMARK 924 INTRA-LIGAND FREE ENERGY PREDICTED BY IDOCK:   -2.04 KCAL/MOL
REMARK 927      BINDING AFFINITY PREDICTED BY RF-SCORE:    0.00 PKD
ROOT
HETATM    1  C   UNL     1     -12.132  12.243  63.435  1.00  0.00    -0.615 C  
HETATM    2  C   UNL     1     -11.661  12.892  64.745  1.00  0.00    -0.331 C  
ENDROOT
BRANCH   2   3
HETATM    3  N   UNL     1     -12.110  12.121  65.927  1.00  0.00    -0.571 NA 
HETATM    4  H   UNL     1     -12.737  11.371  65.635  1.00  0.00     0.000 HD 
BRANCH   3   5
HETATM    5  C   UNL     1     -11.045  11.581  66.773  1.00  0.00    -0.302 C  
BRANCH   5   6
HETATM    6  C   UNL     1     -11.092  12.105  68.215  1.00  0.00    -0.288 C  
BRANCH   6   7
HETATM    7  C   UNL     1      -9.959  13.057  68.502  1.00  0.00    -0.174 A  
HETATM    8  C   UNL     1     -10.140  14.121  69.398  1.00  0.00     0.176 A  
HETATM    9  C   UNL     1      -7.892  14.863  68.982  1.00  0.00    -0.165 A  
HETATM   10  C   UNL     1      -9.105  15.022  69.641  1.00  0.00     0.005 A  
HETATM   11  O   UNL     1      -6.859  15.729  69.179  1.00  0.00    -0.144 OA 
HETATM   12  C   UNL     1      -7.694  13.809  68.096  1.00  0.00    -0.140 A  
HETATM   13  H   UNL     1      -6.030  15.620  68.729  1.00  0.00     0.000 HD 
HETATM   14  C   UNL     1      -8.728  12.906  67.851  1.00  0.00    -0.186 A  
ENDBRANCH   6   7
ENDBRANCH   5   6
ENDBRANCH   3   5
ENDBRANCH   2   3
BRANCH   2  15
HETATM   15  C   UNL     1     -12.170  14.361  64.894  1.00  0.00    -0.433 C  
HETATM   16  O   UNL     1     -12.560  14.885  63.616  1.00  0.00    -1.006 OA 
HETATM   17  H   UNL     1     -12.870  15.779  63.707  1.00  0.00     0.000 HD 
BRANCH  15  18
HETATM   18  C   UNL     1     -11.171  15.282  65.573  1.00  0.00    -0.277 A  
HETATM   19  C   UNL     1      -9.850  15.357  65.101  1.00  0.00    -0.136 A  
HETATM   20  C   UNL     1     -10.624  16.947  67.259  1.00  0.00    -0.270 A  
HETATM   21  H   UNL     1      -8.711  18.344  68.171  1.00  0.00     0.000 HD 
HETATM   22  C   UNL     1      -8.923  16.205  65.712  1.00  0.00    -0.086 A  
HETATM   23  C   UNL     1      -9.317  16.985  66.793  1.00  0.00    -0.252 A  
HETATM   24  C   UNL     1     -11.549  16.101  66.651  1.00  0.00     0.677 A  
HETATM   25  O   UNL     1      -8.442  17.812  67.432  1.00  0.00    -0.222 OA 
ENDBRANCH  15  18
ENDBRANCH   2  15
TORSDOF 6
ENDMDL
MODEL      195
REMARK 921   NORMALIZED FREE ENERGY PREDICTED BY IDOCK:   -4.24 KCAL/MOL
REMARK 922        TOTAL FREE ENERGY PREDICTED BY IDOCK:   -6.77 KCAL/MOL
REMARK 923 INTER-LIGAND FREE ENERGY PREDICTED BY IDOCK:   -6.13 KCAL/MOL
REMARK 924 INTRA-LIGAND FREE ENERGY PREDICTED BY IDOCK:   -0.64 KCAL/MOL
REMARK 927      BINDING AFFINITY PREDICTED BY RF-SCORE:    0.00 PKD
ROOT
HETATM    1  C   UNL     1     -10.127  14.343  65.376  1.00  0.00    -0.388 C  
HETATM    2  C   UNL     1     -10.581  13.402  66.502  1.00  0.00    -0.287 C  
ENDROOT
BRANCH   2   3
HETATM    3  N   UNL     1     -11.342  14.129  67.545  1.00  0.00    -0.306 NA 
HETATM    4  H   UNL     1     -10.950  13.926  68.466  1.00  0.00     0.000 HD 
BRANCH   3   5
HETATM    5  C   UNL     1     -11.452  15.575  67.356  1.00  0.00    -0.140 C  
BRANCH   5   6
HETATM    6  C   UNL     1     -10.998  16.382  68.581  1.00  0.00    -0.345 C  
BRANCH   6   7
HETATM    7  C   UNL     1     -10.383  17.700  68.186  1.00  0.00    -0.386 A  
HETATM    8  C   UNL     1     -10.422  18.126  66.850  1.00  0.00    -0.372 A  
HETATM    9  C   UNL     1      -9.185  20.102  67.436  1.00  0.00    -0.374 A  
HETATM   10  C   UNL     1      -9.826  19.329  66.475  1.00  0.00    -0.444 A  
HETATM   11  O   UNL     1      -8.578  21.278  67.111  1.00  0.00    -0.530 OA 
HETATM   12  C   UNL     1      -9.144  19.698  68.767  1.00  0.00    -0.322 A  
HETATM   13  H   UNL     1      -8.139  21.806  67.768  1.00  0.00     0.000 HD 
HETATM   14  C   UNL     1      -9.739  18.494  69.143  1.00  0.00    -0.177 A  
ENDBRANCH   6   7
ENDBRANCH   5   6
ENDBRANCH   3   5
ENDBRANCH   2   3
BRANCH   2  15
HETATM   15  C   UNL     1      -9.380  12.674  67.185  1.00  0.00    -0.210 C  
HETATM   16  O   UNL     1      -8.137  13.195  66.694  1.00  0.00    -0.397 OA 
HETATM   17  H   UNL     1      -7.406  12.753  67.111  1.00  0.00     0.000 HD 
BRANCH  15  18
HETATM   18  C   UNL     1      -9.426  11.163  67.039  1.00  0.00    -0.193 A  
HETATM   19  C   UNL     1     -10.594  10.459  67.376  1.00  0.00    -0.321 A  
HETATM   20  C   UNL     1      -8.387   9.059  66.398  1.00  0.00    -0.117 A  
HETATM   21  H   UNL     1      -8.789   6.555  66.305  1.00  0.00     0.000 HD 
HETATM   22  C   UNL     1     -10.652   9.069  67.240  1.00  0.00    -0.301 A  
HETATM   23  C   UNL     1      -9.542   8.381  66.761  1.00  0.00    -0.219 A  
HETATM   24  C   UNL     1      -8.328  10.445  66.534  1.00  0.00    -0.130 A  
HETATM   25  O   UNL     1      -9.547   7.024  66.631  1.00  0.00    -0.168 OA 
ENDBRANCH  15  18
ENDBRANCH   2  15
TORSDOF 6
ENDMDL
MODEL      196
REMARK 921   NORMALIZED FREE ENERGY PREDICTED BY IDOCK:   -4.19 KCAL/MOL
REMARK 922        TOTAL FREE ENERGY PREDICTED BY IDOCK:   -6.70 KCAL/MOL
REMARK 923 INTER-LIGAND FREE ENERGY PREDICTED BY IDOCK:   -5.99 KCAL/MOL
REMARK 924 INTRA-LIGAND FREE ENERGY PREDICTED BY IDOCK:   -0.72 KCAL/MOL
REMARK 927      BINDING AFFINITY PREDICTED BY RF-SCORE:    0.00 PKD
ROOT
HETATM    1  C   UNL     1      -6.810  11.140  66.257  1.00  0.00    -0.055 C  
HETATM    2  C   UNL     1      -7.898  10.958  67.325  1.00  0.00    -0.116 C  
ENDROOT
BRANCH   2   3
HETATM    3  N   UNL     1      -8.216  12.237  68.002  1.00  0.00    -0.153 NA 
HETATM    4  H   UNL     1      -7.881  13.020  67.441  1.00  0.00     0.000 HD 
BRANCH   3   5
HETATM    5  C   UNL     1      -9.623  12.437  68.350  1.00  0.00    -0.180 C  
BRANCH   5   6
HETATM    6  C   UNL     1     -10.590  11.991  67.243  1.00  0.00    -0.252 C  
BRANCH   6   7
HETATM    7  C   UNL     1     -10.892  13.109  66.280  1.00  0.00    -0.292 A  
HETATM    8  C   UNL     1      -9.923  14.085  66.004  1.00  0.00    -0.331 A  
HETATM    9  C   UNL     1     -11.468  15.221  64.555  1.00  0.00    -0.315 A  
HETATM   10  C   UNL     1     -10.209  15.140  65.138  1.00  0.00    -0.386 A  
HETATM   11  O   UNL     1     -11.795  16.242  63.714  1.00  0.00    -1.445 OA 
HETATM   12  C   UNL     1     -12.438  14.257  64.812  1.00  0.00    -0.390 A  
HETATM   13  H   UNL     1     -12.656  16.297  63.315  1.00  0.00     0.000 HD 
HETATM   14  C   UNL     1     -12.153  13.202  65.678  1.00  0.00    -0.501 A  
ENDBRANCH   6   7
ENDBRANCH   5   6
ENDBRANCH   3   5
ENDBRANCH   2   3
BRANCH   2  15
HETATM   15  C   UNL     1      -7.490   9.914  68.413  1.00  0.00    -0.082 C  
HETATM   16  O   UNL     1      -6.279   9.246  68.032  1.00  0.00    -0.049 OA 
HETATM   17  H   UNL     1      -6.031   8.611  68.694  1.00  0.00     0.000 HD 
BRANCH  15  18
HETATM   18  C   UNL     1      -8.585   8.908  68.726  1.00  0.00    -0.136 A  
HETATM   19  C   UNL     1      -8.678   7.718  67.986  1.00  0.00    -0.125 A  
HETATM   20  C   UNL     1     -10.489   8.188  70.056  1.00  0.00    -0.231 A  
HETATM   21  H   UNL     1     -12.198   6.326  70.294  1.00  0.00     0.000 HD 
HETATM   22  C   UNL     1      -9.677   6.781  68.268  1.00  0.00    -0.126 A  
HETATM   23  C   UNL     1     -10.580   7.031  69.296  1.00  0.00    -0.224 A  
HETATM   24  C   UNL     1      -9.495   9.123  69.775  1.00  0.00    -0.191 A  
HETATM   25  O   UNL     1     -11.581   6.155  69.593  1.00  0.00    -0.407 OA 
ENDBRANCH  15  18
ENDBRANCH   2  15
TORSDOF 6
ENDMDL
MODEL      197
REMARK 921   NORMALIZED FREE ENERGY PREDICTED BY IDOCK:   -4.19 KCAL/MOL
REMARK 922        TOTAL FREE ENERGY PREDICTED BY IDOCK:   -6.70 KCAL/MOL
REMARK 923 INTER-LIGAND FREE ENERGY PREDICTED BY IDOCK:   -6.42 KCAL/MOL
REMARK 924 INTRA-LIGAND FREE ENERGY PREDICTED BY IDOCK:   -0.28 KCAL/MOL
REMARK 927      BINDING AFFINITY PREDICTED BY RF-SCORE:    0.00 PKD
ROOT
HETATM    1  C   UNL     1     -11.479  13.340  69.064  1.00  0.00    -0.350 C  
HETATM    2  C   UNL     1     -12.035  12.459  67.935  1.00  0.00    -0.196 C  
ENDROOT
BRANCH   2   3
HETATM    3  N   UNL     1     -12.192  11.052  68.370  1.00  0.00    -0.780 NA 
HETATM    4  H   UNL     1     -11.823  10.423  67.656  1.00  0.00     0.000 HD 
BRANCH   3   5
HETATM    5  C   UNL     1     -11.612  10.723  69.673  1.00  0.00    -0.316 C  
BRANCH   5   6
HETATM    6  C   UNL     1     -10.601   9.569  69.612  1.00  0.00    -0.245 C  
BRANCH   6   7
HETATM    7  C   UNL     1     -10.916   8.494  70.620  1.00  0.00    -0.268 A  
HETATM    8  C   UNL     1     -11.427   8.836  71.881  1.00  0.00    -0.428 A  
HETATM    9  C   UNL     1     -11.434   6.518  72.515  1.00  0.00    -0.239 A  
HETATM   10  C   UNL     1     -11.690   7.848  72.828  1.00  0.00    -0.338 A  
HETATM   11  O   UNL     1     -11.663   5.521  73.415  1.00  0.00    -0.459 OA 
HETATM   12  C   UNL     1     -10.935   6.161  71.266  1.00  0.00    -0.340 A  
HETATM   13  H   UNL     1     -11.489   4.612  73.201  1.00  0.00     0.000 HD 
HETATM   14  C   UNL     1     -10.672   7.149  70.318  1.00  0.00    -0.258 A  
ENDBRANCH   6   7
ENDBRANCH   5   6
ENDBRANCH   3   5
ENDBRANCH   2   3
BRANCH   2  15
HETATM   15  C   UNL     1     -11.126  12.483  66.665  1.00  0.00    -0.283 C  
HETATM   16  O   UNL     1     -10.615  11.170  66.394  1.00  0.00    -0.252 OA 
HETATM   17  H   UNL     1     -10.062  11.184  65.621  1.00  0.00     0.000 HD 
BRANCH  15  18
HETATM   18  C   UNL     1      -9.997  13.495  66.748  1.00  0.00    -0.269 A  
HETATM   19  C   UNL     1      -8.834  13.192  67.476  1.00  0.00    -0.199 A  
HETATM   20  C   UNL     1      -9.023  15.643  66.154  1.00  0.00    -0.362 A  
HETATM   21  H   UNL     1      -6.979  17.104  66.520  1.00  0.00     0.000 HD 
HETATM   22  C   UNL     1      -7.784  14.112  67.554  1.00  0.00    -0.201 A  
HETATM   23  C   UNL     1      -7.894  15.334  66.900  1.00  0.00    -0.117 A  
HETATM   24  C   UNL     1     -10.070  14.727  66.076  1.00  0.00    -0.327 A  
HETATM   25  O   UNL     1      -6.904  16.269  66.966  1.00  0.00    -0.192 OA 
ENDBRANCH  15  18
ENDBRANCH   2  15
TORSDOF 6
ENDMDL
MODEL      198
REMARK 921   NORMALIZED FREE ENERGY PREDICTED BY IDOCK:   -4.18 KCAL/MOL
REMARK 922        TOTAL FREE ENERGY PREDICTED BY IDOCK:   -6.69 KCAL/MOL
REMARK 923 INTER-LIGAND FREE ENERGY PREDICTED BY IDOCK:   -4.68 KCAL/MOL
REMARK 924 INTRA-LIGAND FREE ENERGY PREDICTED BY IDOCK:   -2.01 KCAL/MOL
REMARK 927      BINDING AFFINITY PREDICTED BY RF-SCORE:    0.00 PKD
ROOT
HETATM    1  C   UNL     1     -11.576  10.683  70.083  1.00  0.00    -0.414 C  
HETATM    2  C   UNL     1     -10.445   9.737  69.653  1.00  0.00    -0.242 C  
ENDROOT
BRANCH   2   3
HETATM    3  N   UNL     1      -9.134  10.181  70.181  1.00  0.00    -0.361 NA 
HETATM    4  H   UNL     1      -9.251  11.031  70.733  1.00  0.00     0.000 HD 
BRANCH   3   5
HETATM    5  C   UNL     1      -8.391   9.183  70.952  1.00  0.00    -0.185 C  
BRANCH   5   6
HETATM    6  C   UNL     1      -9.298   8.217  71.727  1.00  0.00    -0.266 C  
BRANCH   6   7
HETATM    7  C   UNL     1      -9.143   6.797  71.248  1.00  0.00    -0.150 A  
HETATM    8  C   UNL     1      -9.973   5.786  71.755  1.00  0.00    -0.209 A  
HETATM    9  C   UNL     1      -8.814   4.156  70.421  1.00  0.00    -0.085 A  
HETATM   10  C   UNL     1      -9.811   4.465  71.338  1.00  0.00    -0.262 A  
HETATM   11  O   UNL     1      -8.611   2.877  69.998  1.00  0.00    -0.055 OA 
HETATM   12  C   UNL     1      -7.987   5.148  69.903  1.00  0.00    -0.078 A  
HETATM   13  H   UNL     1      -7.930   2.665  69.371  1.00  0.00     0.000 HD 
HETATM   14  C   UNL     1      -8.147   6.470  70.319  1.00  0.00    -0.121 A  
ENDBRANCH   6   7
ENDBRANCH   5   6
ENDBRANCH   3   5
ENDBRANCH   2   3
BRANCH   2  15
HETATM   15  C   UNL     1     -10.334   9.615  68.100  1.00  0.00    -0.209 C  
HETATM   16  O   UNL     1     -11.445  10.268  67.469  1.00  0.00    -0.527 OA 
HETATM   17  H   UNL     1     -11.377  10.194  66.524  1.00  0.00     0.000 HD 
BRANCH  15  18
HETATM   18  C   UNL     1     -10.203   8.182  67.613  1.00  0.00    -0.296 A  
HETATM   19  C   UNL     1      -9.217   7.848  66.670  1.00  0.00    -0.221 A  
HETATM   20  C   UNL     1     -10.893   5.851  67.666  1.00  0.00    -0.331 A  
HETATM   21  H   UNL     1     -10.425   3.583  66.626  1.00  0.00     0.000 HD 
HETATM   22  C   UNL     1      -9.082   6.532  66.219  1.00  0.00    -0.168 A  
HETATM   23  C   UNL     1      -9.929   5.547  66.715  1.00  0.00    -0.183 A  
HETATM   24  C   UNL     1     -11.029   7.163  68.116  1.00  0.00    -0.114 A  
HETATM   25  O   UNL     1      -9.846   4.255  66.288  1.00  0.00    -0.201 OA 
ENDBRANCH  15  18
ENDBRANCH   2  15
TORSDOF 6
ENDMDL
MODEL      199
REMARK 921   NORMALIZED FREE ENERGY PREDICTED BY IDOCK:   -4.17 KCAL/MOL
REMARK 922        TOTAL FREE ENERGY PREDICTED BY IDOCK:   -6.67 KCAL/MOL
REMARK 923 INTER-LIGAND FREE ENERGY PREDICTED BY IDOCK:   -5.54 KCAL/MOL
REMARK 924 INTRA-LIGAND FREE ENERGY PREDICTED BY IDOCK:   -1.13 KCAL/MOL
REMARK 927      BINDING AFFINITY PREDICTED BY RF-SCORE:    0.00 PKD
ROOT
HETATM    1  C   UNL     1     -11.982  14.388  67.733  1.00  0.00    -0.368 C  
HETATM    2  C   UNL     1     -11.115  13.575  68.706  1.00  0.00    -0.264 C  
ENDROOT
BRANCH   2   3
HETATM    3  N   UNL     1      -9.714  14.056  68.719  1.00  0.00    -0.371 NA 
HETATM    4  H   UNL     1      -9.329  13.983  69.661  1.00  0.00     0.000 HD 
BRANCH   3   5
HETATM    5  C   UNL     1      -8.815  13.411  67.761  1.00  0.00    -0.199 C  
BRANCH   5   6
HETATM    6  C   UNL     1      -7.334  13.522  68.150  1.00  0.00    -0.121 C  
BRANCH   6   7
HETATM    7  C   UNL     1      -6.894  12.368  69.014  1.00  0.00    -0.093 A  
HETATM    8  C   UNL     1      -5.849  12.533  69.935  1.00  0.00    -0.134 A  
HETATM    9  C   UNL     1      -6.028  10.220  70.563  1.00  0.00    -0.106 A  
HETATM   10  C   UNL     1      -5.418  11.459  70.713  1.00  0.00    -0.126 A  
HETATM   11  O   UNL     1      -5.628   9.140  71.292  1.00  0.00    -0.040 OA 
HETATM   12  C   UNL     1      -7.071  10.041  69.660  1.00  0.00    -0.104 A  
HETATM   13  H   UNL     1      -6.045   8.293  71.190  1.00  0.00     0.000 HD 
HETATM   14  C   UNL     1      -7.503  11.114  68.881  1.00  0.00    -0.125 A  
ENDBRANCH   6   7
ENDBRANCH   5   6
ENDBRANCH   3   5
ENDBRANCH   2   3
BRANCH   2  15
HETATM   15  C   UNL     1     -11.110  12.052  68.363  1.00  0.00    -0.245 C  
HETATM   16  O   UNL     1     -11.961  11.792  67.238  1.00  0.00    -0.618 OA 
HETATM   17  H   UNL     1     -11.958  10.865  67.028  1.00  0.00     0.000 HD 
BRANCH  15  18
HETATM   18  C   UNL     1     -11.485  11.165  69.538  1.00  0.00    -0.374 A  
HETATM   19  C   UNL     1     -10.919   9.886  69.662  1.00  0.00    -0.285 A  
HETATM   20  C   UNL     1     -12.696  10.792  71.614  1.00  0.00    -0.520 A  
HETATM   21  H   UNL     1     -13.123   9.057  73.418  1.00  0.00     0.000 HD 
HETATM   22  C   UNL     1     -11.250   9.063  70.742  1.00  0.00    -0.329 A  
HETATM   23  C   UNL     1     -12.145   9.521  71.703  1.00  0.00    -0.398 A  
HETATM   24  C   UNL     1     -12.366  11.612  70.537  1.00  0.00    -0.410 A  
HETATM   25  O   UNL     1     -12.511   8.745  72.762  1.00  0.00    -0.308 OA 
ENDBRANCH  15  18
ENDBRANCH   2  15
TORSDOF 6
ENDMDL
MODEL      200
REMARK 921   NORMALIZED FREE ENERGY PREDICTED BY IDOCK:   -4.15 KCAL/MOL
REMARK 922        TOTAL FREE ENERGY PREDICTED BY IDOCK:   -6.65 KCAL/MOL
REMARK 923 INTER-LIGAND FREE ENERGY PREDICTED BY IDOCK:   -6.85 KCAL/MOL
REMARK 924 INTRA-LIGAND FREE ENERGY PREDICTED BY IDOCK:    0.21 KCAL/MOL
REMARK 927      BINDING AFFINITY PREDICTED BY RF-SCORE:    0.00 PKD
ROOT
HETATM    1  C   UNL     1     -11.044  11.192  70.069  1.00  0.00    -0.174 C  
HETATM    2  C   UNL     1      -9.969  10.473  69.241  1.00  0.00    -0.213 C  
ENDROOT
BRANCH   2   3
HETATM    3  N   UNL     1      -8.839  11.375  68.916  1.00  0.00    -0.364 NA 
HETATM    4  H   UNL     1      -8.083  10.844  68.484  1.00  0.00     0.000 HD 
BRANCH   3   5
HETATM    5  C   UNL     1      -9.172  12.534  68.086  1.00  0.00    -0.209 C  
BRANCH   5   6
HETATM    6  C   UNL     1      -9.562  12.158  66.650  1.00  0.00    -0.226 C  
BRANCH   6   7
HETATM    7  C   UNL     1     -10.191  13.317  65.919  1.00  0.00    -0.295 A  
HETATM    8  C   UNL     1     -11.254  13.098  65.030  1.00  0.00    -0.322 A  
HETATM    9  C   UNL     1     -11.313  15.444  64.511  1.00  0.00    -0.313 A  
HETATM   10  C   UNL     1     -11.818  14.162  64.328  1.00  0.00    -0.420 A  
HETATM   11  O   UNL     1     -11.824  16.511  63.835  1.00  0.00    -1.389 OA 
HETATM   12  C   UNL     1     -10.264  15.679  65.395  1.00  0.00    -0.401 A  
HETATM   13  H   UNL     1     -11.479  17.387  63.960  1.00  0.00     0.000 HD 
HETATM   14  C   UNL     1      -9.699  14.615  66.097  1.00  0.00    -0.344 A  
ENDBRANCH   6   7
ENDBRANCH   5   6
ENDBRANCH   3   5
ENDBRANCH   2   3
BRANCH   2  15
HETATM   15  C   UNL     1     -10.537   9.896  67.906  1.00  0.00    -0.254 C  
HETATM   16  O   UNL     1     -11.920  10.249  67.759  1.00  0.00    -0.416 OA 
HETATM   17  H   UNL     1     -12.266   9.898  66.946  1.00  0.00     0.000 HD 
BRANCH  15  18
HETATM   18  C   UNL     1     -10.346   8.396  67.766  1.00  0.00    -0.297 A  
HETATM   19  C   UNL     1      -9.583   7.880  66.705  1.00  0.00    -0.278 A  
HETATM   20  C   UNL     1     -10.700   6.127  68.567  1.00  0.00    -0.365 A  
HETATM   21  H   UNL     1     -10.212   3.695  68.025  1.00  0.00     0.000 HD 
HETATM   22  C   UNL     1      -9.395   6.502  66.569  1.00  0.00    -0.188 A  
HETATM   23  C   UNL     1      -9.964   5.637  67.497  1.00  0.00    -0.154 A  
HETATM   24  C   UNL     1     -10.889   7.500  68.703  1.00  0.00    -0.044 A  
HETATM   25  O   UNL     1      -9.823   4.285  67.392  1.00  0.00    -0.185 OA 
ENDBRANCH  15  18
ENDBRANCH   2  15
TORSDOF 6
ENDMDL
MODEL      201
REMARK 921   NORMALIZED FREE ENERGY PREDICTED BY IDOCK:   -4.13 KCAL/MOL
REMARK 922        TOTAL FREE ENERGY PREDICTED BY IDOCK:   -6.62 KCAL/MOL
REMARK 923 INTER-LIGAND FREE ENERGY PREDICTED BY IDOCK:   -5.78 KCAL/MOL
REMARK 924 INTRA-LIGAND FREE ENERGY PREDICTED BY IDOCK:   -0.83 KCAL/MOL
REMARK 927      BINDING AFFINITY PREDICTED BY RF-SCORE:    0.00 PKD
ROOT
HETATM    1  C   UNL     1     -10.434   8.782  67.165  1.00  0.00    -0.354 C  
HETATM    2  C   UNL     1     -10.455  10.153  67.857  1.00  0.00    -0.222 C  
ENDROOT
BRANCH   2   3
HETATM    3  N   UNL     1     -11.837  10.667  68.003  1.00  0.00    -0.767 NA 
HETATM    4  H   UNL     1     -12.446  10.229  67.312  1.00  0.00     0.000 HD 
BRANCH   3   5
HETATM    5  C   UNL     1     -12.423  10.538  69.338  1.00  0.00     0.220 C  
BRANCH   5   6
HETATM    6  C   UNL     1     -11.636  11.291  70.420  1.00  0.00    -0.319 C  
BRANCH   6   7
HETATM    7  C   UNL     1     -12.375  12.512  70.903  1.00  0.00    -0.349 A  
HETATM    8  C   UNL     1     -12.116  13.767  70.332  1.00  0.00    -0.421 A  
HETATM    9  C   UNL     1     -13.686  14.786  71.839  1.00  0.00    -0.419 A  
HETATM   10  C   UNL     1     -12.774  14.904  70.797  1.00  0.00    -0.421 A  
HETATM   11  O   UNL     1     -14.342  15.873  72.335  1.00  0.00    -0.434 OA 
HETATM   12  C   UNL     1     -13.961  13.548  72.412  1.00  0.00    -0.638 A  
HETATM   13  H   UNL     1     -14.965  15.793  73.047  1.00  0.00     0.000 HD 
HETATM   14  C   UNL     1     -13.303  12.410  71.947  1.00  0.00    -0.450 A  
ENDBRANCH   6   7
ENDBRANCH   5   6
ENDBRANCH   3   5
ENDBRANCH   2   3
BRANCH   2  15
HETATM   15  C   UNL     1      -9.613  11.219  67.086  1.00  0.00    -0.177 C  
HETATM   16  O   UNL     1      -9.133  10.673  65.849  1.00  0.00    -0.167 OA 
HETATM   17  H   UNL     1      -8.621  11.322  65.379  1.00  0.00     0.000 HD 
BRANCH  15  18
HETATM   18  C   UNL     1      -8.468  11.792  67.903  1.00  0.00    -0.154 A  
HETATM   19  C   UNL     1      -8.132  13.150  67.785  1.00  0.00    -0.165 A  
HETATM   20  C   UNL     1      -6.708  11.537  69.562  1.00  0.00    -0.106 A  
HETATM   21  H   UNL     1      -4.850  12.799  70.745  1.00  0.00     0.000 HD 
HETATM   22  C   UNL     1      -7.084  13.692  68.536  1.00  0.00    -0.107 A  
HETATM   23  C   UNL     1      -6.376  12.876  69.411  1.00  0.00    -0.109 A  
HETATM   24  C   UNL     1      -7.752  10.996  68.813  1.00  0.00    -0.135 A  
HETATM   25  O   UNL     1      -5.334  13.357  70.148  1.00  0.00    -0.092 OA 
ENDBRANCH  15  18
ENDBRANCH   2  15
TORSDOF 6
ENDMDL
MODEL      202
REMARK 921   NORMALIZED FREE ENERGY PREDICTED BY IDOCK:   -4.12 KCAL/MOL
REMARK 922        TOTAL FREE ENERGY PREDICTED BY IDOCK:   -6.61 KCAL/MOL
REMARK 923 INTER-LIGAND FREE ENERGY PREDICTED BY IDOCK:   -6.07 KCAL/MOL
REMARK 924 INTRA-LIGAND FREE ENERGY PREDICTED BY IDOCK:   -0.54 KCAL/MOL
REMARK 927      BINDING AFFINITY PREDICTED BY RF-SCORE:    0.00 PKD
ROOT
HETATM    1  C   UNL     1     -11.698  12.120  68.178  1.00  0.00    -0.402 C  
HETATM    2  C   UNL     1     -10.507  11.985  67.218  1.00  0.00    -0.218 C  
ENDROOT
BRANCH   2   3
HETATM    3  N   UNL     1      -9.870  10.652  67.326  1.00  0.00    -0.172 NA 
HETATM    4  H   UNL     1      -9.024  10.716  67.893  1.00  0.00     0.000 HD 
BRANCH   3   5
HETATM    5  C   UNL     1     -10.728   9.579  67.828  1.00  0.00    -0.242 C  
BRANCH   5   6
HETATM    6  C   UNL     1     -10.008   8.629  68.796  1.00  0.00    -0.194 C  
BRANCH   6   7
HETATM    7  C   UNL     1      -9.916   7.230  68.244  1.00  0.00    -0.177 A  
HETATM    8  C   UNL     1     -10.635   6.877  67.092  1.00  0.00    -0.408 A  
HETATM    9  C   UNL     1      -9.808   4.626  67.258  1.00  0.00    -0.180 A  
HETATM   10  C   UNL     1     -10.578   5.575  66.596  1.00  0.00    -0.365 A  
HETATM   11  O   UNL     1      -9.736   3.339  66.816  1.00  0.00    -0.406 OA 
HETATM   12  C   UNL     1      -9.083   4.962  68.397  1.00  0.00    -0.141 A  
HETATM   13  H   UNL     1      -9.209   2.690  67.268  1.00  0.00     0.000 HD 
HETATM   14  C   UNL     1      -9.140   6.263  68.894  1.00  0.00    -0.124 A  
ENDBRANCH   6   7
ENDBRANCH   5   6
ENDBRANCH   3   5
ENDBRANCH   2   3
BRANCH   2  15
HETATM   15  C   UNL     1      -9.416  13.074  67.471  1.00  0.00    -0.198 C  
HETATM   16  O   UNL     1      -9.125  13.170  68.873  1.00  0.00    -0.384 OA 
HETATM   17  H   UNL     1      -8.461  13.832  69.027  1.00  0.00     0.000 HD 
BRANCH  15  18
HETATM   18  C   UNL     1      -9.776  14.435  66.901  1.00  0.00    -0.266 A  
HETATM   19  C   UNL     1      -9.454  15.603  67.612  1.00  0.00    -0.211 A  
HETATM   20  C   UNL     1     -10.717  15.815  65.132  1.00  0.00    -0.455 A  
HETATM   21  H   UNL     1     -11.197  18.223  64.490  1.00  0.00     0.000 HD 
HETATM   22  C   UNL     1      -9.774  16.861  67.095  1.00  0.00    -0.253 A  
HETATM   23  C   UNL     1     -10.412  16.954  65.864  1.00  0.00    -0.285 A  
HETATM   24  C   UNL     1     -10.399  14.559  65.647  1.00  0.00    -0.367 A  
HETATM   25  O   UNL     1     -10.761  18.160  65.331  1.00  0.00    -0.620 OA 
ENDBRANCH  15  18
ENDBRANCH   2  15
TORSDOF 6
ENDMDL
MODEL      203
REMARK 921   NORMALIZED FREE ENERGY PREDICTED BY IDOCK:   -4.12 KCAL/MOL
REMARK 922        TOTAL FREE ENERGY PREDICTED BY IDOCK:   -6.60 KCAL/MOL
REMARK 923 INTER-LIGAND FREE ENERGY PREDICTED BY IDOCK:   -5.57 KCAL/MOL
REMARK 924 INTRA-LIGAND FREE ENERGY PREDICTED BY IDOCK:   -1.03 KCAL/MOL
REMARK 927      BINDING AFFINITY PREDICTED BY RF-SCORE:    0.00 PKD
ROOT
HETATM    1  C   UNL     1      -7.882  11.313  68.830  1.00  0.00    -0.139 C  
HETATM    2  C   UNL     1      -9.040  12.066  68.157  1.00  0.00    -0.191 C  
ENDROOT
BRANCH   2   3
HETATM    3  N   UNL     1     -10.331  11.794  68.831  1.00  0.00    -0.357 NA 
HETATM    4  H   UNL     1     -11.068  11.676  68.136  1.00  0.00     0.000 HD 
BRANCH   3   5
HETATM    5  C   UNL     1     -10.334  10.664  69.761  1.00  0.00    -0.100 C  
BRANCH   5   6
HETATM    6  C   UNL     1     -11.035   9.419  69.198  1.00  0.00    -0.114 C  
BRANCH   6   7
HETATM    7  C   UNL     1     -10.045   8.383  68.731  1.00  0.00    -0.209 A  
HETATM    8  C   UNL     1      -9.815   8.194  67.360  1.00  0.00    -0.242 A  
HETATM    9  C   UNL     1      -8.270   6.420  67.857  1.00  0.00    -0.115 A  
HETATM   10  C   UNL     1      -8.924   7.215  66.923  1.00  0.00    -0.145 A  
HETATM   11  O   UNL     1      -7.403   5.442  67.473  1.00  0.00    -0.074 OA 
HETATM   12  C   UNL     1      -8.482   6.600  69.221  1.00  0.00    -0.124 A  
HETATM   13  H   UNL     1      -6.956   4.899  68.112  1.00  0.00     0.000 HD 
HETATM   14  C   UNL     1      -9.373   7.579  69.659  1.00  0.00    -0.153 A  
ENDBRANCH   6   7
ENDBRANCH   5   6
ENDBRANCH   3   5
ENDBRANCH   2   3
BRANCH   2  15
HETATM   15  C   UNL     1      -9.187  11.697  66.646  1.00  0.00    -0.191 C  
HETATM   16  O   UNL     1      -7.902  11.691  66.008  1.00  0.00    -0.370 OA 
HETATM   17  H   UNL     1      -7.992  11.467  65.089  1.00  0.00     0.000 HD 
BRANCH  15  18
HETATM   18  C   UNL     1     -10.157  12.594  65.897  1.00  0.00    -0.276 A  
HETATM   19  C   UNL     1     -11.344  12.059  65.368  1.00  0.00    -0.375 A  
HETATM   20  C   UNL     1     -10.816  14.783  65.064  1.00  0.00    -0.440 A  
HETATM   21  H   UNL     1     -12.622  15.980  63.744  1.00  0.00     0.000 HD 
HETATM   22  C   UNL     1     -12.248  12.875  64.682  1.00  0.00    -0.494 A  
HETATM   23  C   UNL     1     -11.969  14.228  64.528  1.00  0.00    -0.462 A  
HETATM   24  C   UNL     1      -9.913  13.970  65.748  1.00  0.00    -0.319 A  
HETATM   25  O   UNL     1     -12.813  15.056  63.849  1.00  0.00    -0.679 OA 
ENDBRANCH  15  18
ENDBRANCH   2  15
TORSDOF 6
ENDMDL
MODEL      204
REMARK 921   NORMALIZED FREE ENERGY PREDICTED BY IDOCK:   -4.11 KCAL/MOL
REMARK 922        TOTAL FREE ENERGY PREDICTED BY IDOCK:   -6.59 KCAL/MOL
REMARK 923 INTER-LIGAND FREE ENERGY PREDICTED BY IDOCK:   -6.04 KCAL/MOL
REMARK 924 INTRA-LIGAND FREE ENERGY PREDICTED BY IDOCK:   -0.55 KCAL/MOL
REMARK 927      BINDING AFFINITY PREDICTED BY RF-SCORE:    0.00 PKD
ROOT
HETATM    1  C   UNL     1      -7.801  14.056  68.304  1.00  0.00    -0.140 C  
HETATM    2  C   UNL     1      -8.671  14.730  67.232  1.00  0.00    -0.210 C  
ENDROOT
BRANCH   2   3
HETATM    3  N   UNL     1      -8.920  13.825  66.086  1.00  0.00    -0.443 NA 
HETATM    4  H   UNL     1      -8.398  12.957  66.208  1.00  0.00     0.000 HD 
BRANCH   3   5
HETATM    5  C   UNL     1     -10.325  13.528  65.806  1.00  0.00    -0.292 C  
BRANCH   5   6
HETATM    6  C   UNL     1     -10.972  12.617  66.859  1.00  0.00    -0.297 C  
BRANCH   6   7
HETATM    7  C   UNL     1     -10.628  11.168  66.632  1.00  0.00    -0.314 A  
HETATM    8  C   UNL     1     -10.828  10.226  67.653  1.00  0.00    -0.363 A  
HETATM    9  C   UNL     1      -9.926   8.499  66.246  1.00  0.00    -0.181 A  
HETATM   10  C   UNL     1     -10.480   8.890  67.458  1.00  0.00    -0.337 A  
HETATM   11  O   UNL     1      -9.559   7.206  66.018  1.00  0.00    -0.400 OA 
HETATM   12  C   UNL     1      -9.728   9.418  65.220  1.00  0.00    -0.184 A  
HETATM   13  H   UNL     1      -9.180   6.939  65.189  1.00  0.00     0.000 HD 
HETATM   14  C   UNL     1     -10.075  10.755  65.414  1.00  0.00    -0.347 A  
ENDBRANCH   6   7
ENDBRANCH   5   6
ENDBRANCH   3   5
ENDBRANCH   2   3
BRANCH   2  15
HETATM   15  C   UNL     1      -8.028  16.046  66.691  1.00  0.00    -0.256 C  
HETATM   16  O   UNL     1      -6.613  16.042  66.925  1.00  0.00    -0.275 OA 
HETATM   17  H   UNL     1      -6.222  16.843  66.594  1.00  0.00     0.000 HD 
BRANCH  15  18
HETATM   18  C   UNL     1      -8.664  17.306  67.253  1.00  0.00    -0.221 A  
HETATM   19  C   UNL     1      -7.914  18.167  68.070  1.00  0.00    -0.269 A  
HETATM   20  C   UNL     1     -10.559  18.817  67.459  1.00  0.00    -0.497 A  
HETATM   21  H   UNL     1     -11.314  20.967  68.578  1.00  0.00     0.000 HD 
HETATM   22  C   UNL     1      -8.486  19.333  68.588  1.00  0.00    -0.403 A  
HETATM   23  C   UNL     1      -9.807  19.641  68.285  1.00  0.00    -0.419 A  
HETATM   24  C   UNL     1      -9.990  17.655  66.942  1.00  0.00    -0.323 A  
HETATM   25  O   UNL     1     -10.411  20.757  68.785  1.00  0.00     0.128 OA 
ENDBRANCH  15  18
ENDBRANCH   2  15
TORSDOF 6
ENDMDL
MODEL      205
REMARK 921   NORMALIZED FREE ENERGY PREDICTED BY IDOCK:   -4.10 KCAL/MOL
REMARK 922        TOTAL FREE ENERGY PREDICTED BY IDOCK:   -6.58 KCAL/MOL
REMARK 923 INTER-LIGAND FREE ENERGY PREDICTED BY IDOCK:   -5.26 KCAL/MOL
REMARK 924 INTRA-LIGAND FREE ENERGY PREDICTED BY IDOCK:   -1.31 KCAL/MOL
REMARK 927      BINDING AFFINITY PREDICTED BY RF-SCORE:    0.00 PKD
ROOT
HETATM    1  C   UNL     1      -8.977  10.004  65.989  1.00  0.00    -0.174 C  
HETATM    2  C   UNL     1      -9.227  11.294  66.784  1.00  0.00    -0.175 C  
ENDROOT
BRANCH   2   3
HETATM    3  N   UNL     1     -10.137  11.061  67.929  1.00  0.00    -0.174 NA 
HETATM    4  H   UNL     1      -9.771  11.519  68.764  1.00  0.00     0.000 HD 
BRANCH   3   5
HETATM    5  C   UNL     1     -11.532  11.448  67.718  1.00  0.00    -0.281 C  
BRANCH   5   6
HETATM    6  C   UNL     1     -12.246  11.871  69.009  1.00  0.00    -0.103 C  
BRANCH   6   7
HETATM    7  C   UNL     1     -11.918  13.292  69.391  1.00  0.00    -0.356 A  
HETATM    8  C   UNL     1     -11.722  13.635  70.737  1.00  0.00    -0.015 A  
HETATM    9  C   UNL     1     -11.382  15.930  70.111  1.00  0.00    -0.365 A  
HETATM   10  C   UNL     1     -11.450  14.953  71.097  1.00  0.00    -0.312 A  
HETATM   11  O   UNL     1     -11.133  17.233  70.419  1.00  0.00    -0.166 OA 
HETATM   12  C   UNL     1     -11.566  15.605  68.770  1.00  0.00    -0.393 A  
HETATM   13  H   UNL     1     -11.085  17.901  69.745  1.00  0.00     0.000 HD 
HETATM   14  C   UNL     1     -11.838  14.287  68.409  1.00  0.00    -0.373 A  
ENDBRANCH   6   7
ENDBRANCH   5   6
ENDBRANCH   3   5
ENDBRANCH   2   3
BRANCH   2  15
HETATM   15  C   UNL     1      -9.832  12.428  65.897  1.00  0.00    -0.252 C  
HETATM   16  O   UNL     1      -9.606  12.148  64.508  1.00  0.00    -0.457 OA 
HETATM   17  H   UNL     1      -9.975  12.838  63.968  1.00  0.00     0.000 HD 
BRANCH  15  18
HETATM   18  C   UNL     1      -9.325  13.814  66.257  1.00  0.00    -0.166 A  
HETATM   19  C   UNL     1      -9.861  14.946  65.621  1.00  0.00    -0.372 A  
HETATM   20  C   UNL     1      -7.896  15.276  67.575  1.00  0.00    -0.198 A  
HETATM   21  H   UNL     1      -7.262  17.711  67.912  1.00  0.00     0.000 HD 
HETATM   22  C   UNL     1      -9.408  16.227  65.948  1.00  0.00    -0.299 A  
HETATM   23  C   UNL     1      -8.421  16.378  66.916  1.00  0.00    -0.221 A  
HETATM   24  C   UNL     1      -8.347  13.998  67.249  1.00  0.00    -0.209 A  
HETATM   25  O   UNL     1      -7.936  17.607  67.251  1.00  0.00    -0.201 OA 
ENDBRANCH  15  18
ENDBRANCH   2  15
TORSDOF 6
ENDMDL
MODEL      206
REMARK 921   NORMALIZED FREE ENERGY PREDICTED BY IDOCK:   -4.08 KCAL/MOL
REMARK 922        TOTAL FREE ENERGY PREDICTED BY IDOCK:   -6.55 KCAL/MOL
REMARK 923 INTER-LIGAND FREE ENERGY PREDICTED BY IDOCK:   -5.95 KCAL/MOL
REMARK 924 INTRA-LIGAND FREE ENERGY PREDICTED BY IDOCK:   -0.61 KCAL/MOL
REMARK 927      BINDING AFFINITY PREDICTED BY RF-SCORE:    0.00 PKD
ROOT
HETATM    1  C   UNL     1      -6.593  10.607  70.105  1.00  0.00    -0.151 C  
HETATM    2  C   UNL     1      -7.435  10.813  68.837  1.00  0.00    -0.116 C  
ENDROOT
BRANCH   2   3
HETATM    3  N   UNL     1      -8.152  12.109  68.864  1.00  0.00    -0.350 NA 
HETATM    4  H   UNL     1      -8.379  12.361  69.826  1.00  0.00     0.000 HD 
BRANCH   3   5
HETATM    5  C   UNL     1      -7.471  13.222  68.203  1.00  0.00    -0.128 C  
BRANCH   5   6
HETATM    6  C   UNL     1      -8.416  14.107  67.377  1.00  0.00    -0.214 C  
BRANCH   6   7
HETATM    7  C   UNL     1      -9.601  14.567  68.186  1.00  0.00    -0.212 A  
HETATM    8  C   UNL     1     -10.883  14.070  67.908  1.00  0.00    -0.255 A  
HETATM    9  C   UNL     1     -11.807  15.468  69.631  1.00  0.00    -0.366 A  
HETATM   10  C   UNL     1     -11.986  14.518  68.633  1.00  0.00    -0.320 A  
HETATM   11  O   UNL     1     -12.860  15.944  70.354  1.00  0.00    -0.601 OA 
HETATM   12  C   UNL     1     -10.542  15.966  69.925  1.00  0.00    -0.327 A  
HETATM   13  H   UNL     1     -12.737  16.593  71.036  1.00  0.00     0.000 HD 
HETATM   14  C   UNL     1      -9.437  15.519  69.200  1.00  0.00    -0.246 A  
ENDBRANCH   6   7
ENDBRANCH   5   6
ENDBRANCH   3   5
ENDBRANCH   2   3
BRANCH   2  15
HETATM   15  C   UNL     1      -8.485   9.674  68.634  1.00  0.00    -0.119 C  
HETATM   16  O   UNL     1      -8.903   9.621  67.262  1.00  0.00    -0.131 OA 
HETATM   17  H   UNL     1      -9.541   8.928  67.138  1.00  0.00     0.000 HD 
BRANCH  15  18
HETATM   18  C   UNL     1      -9.685   9.786  69.559  1.00  0.00    -0.228 A  
HETATM   19  C   UNL     1      -9.790   8.945  70.679  1.00  0.00    -0.261 A  
HETATM   20  C   UNL     1     -11.779  10.843  70.201  1.00  0.00    -0.433 A  
HETATM   21  H   UNL     1     -13.648  10.744  71.916  1.00  0.00     0.000 HD 
HETATM   22  C   UNL     1     -10.885   9.042  71.541  1.00  0.00    -0.416 A  
HETATM   23  C   UNL     1     -11.876   9.985  71.287  1.00  0.00    -0.385 A  
HETATM   24  C   UNL     1     -10.688  10.746  69.340  1.00  0.00    -0.272 A  
HETATM   25  O   UNL     1     -12.971  10.101  72.090  1.00  0.00    -0.415 OA 
ENDBRANCH  15  18
ENDBRANCH   2  15
TORSDOF 6
ENDMDL
MODEL      207
REMARK 921   NORMALIZED FREE ENERGY PREDICTED BY IDOCK:   -4.08 KCAL/MOL
REMARK 922        TOTAL FREE ENERGY PREDICTED BY IDOCK:   -6.55 KCAL/MOL
REMARK 923 INTER-LIGAND FREE ENERGY PREDICTED BY IDOCK:   -5.94 KCAL/MOL
REMARK 924 INTRA-LIGAND FREE ENERGY PREDICTED BY IDOCK:   -0.61 KCAL/MOL
REMARK 927      BINDING AFFINITY PREDICTED BY RF-SCORE:    0.00 PKD
ROOT
HETATM    1  C   UNL     1     -10.243  18.434  68.366  1.00  0.00    -0.407 C  
HETATM    2  C   UNL     1      -9.782  16.980  68.542  1.00  0.00    -0.282 C  
ENDROOT
BRANCH   2   3
HETATM    3  N   UNL     1     -10.509  16.308  69.645  1.00  0.00    -0.297 NA 
HETATM    4  H   UNL     1     -10.573  16.932  70.450  1.00  0.00     0.000 HD 
BRANCH   3   5
HETATM    5  C   UNL     1     -11.835  15.791  69.306  1.00  0.00    -0.346 C  
BRANCH   5   6
HETATM    6  C   UNL     1     -12.711  15.519  70.537  1.00  0.00    -0.436 C  
BRANCH   6   7
HETATM    7  C   UNL     1     -12.781  14.049  70.861  1.00  0.00    -0.420 A  
HETATM    8  C   UNL     1     -13.602  13.593  71.903  1.00  0.00    -0.512 A  
HETATM    9  C   UNL     1     -12.860  11.341  71.513  1.00  0.00    -0.414 A  
HETATM   10  C   UNL     1     -13.644  12.238  72.227  1.00  0.00    -0.299 A  
HETATM   11  O   UNL     1     -12.860  10.010  71.805  1.00  0.00    -0.387 OA 
HETATM   12  C   UNL     1     -12.045  11.775  70.472  1.00  0.00    -0.439 A  
HETATM   13  H   UNL     1     -12.323   9.396  71.317  1.00  0.00     0.000 HD 
HETATM   14  C   UNL     1     -12.002  13.130  70.147  1.00  0.00    -0.381 A  
ENDBRANCH   6   7
ENDBRANCH   5   6
ENDBRANCH   3   5
ENDBRANCH   2   3
BRANCH   2  15
HETATM   15  C   UNL     1      -8.250  16.876  68.828  1.00  0.00    -0.244 C  
HETATM   16  O   UNL     1      -7.508  17.597  67.834  1.00  0.00    -0.195 OA 
HETATM   17  H   UNL     1      -6.576  17.534  68.008  1.00  0.00     0.000 HD 
BRANCH  15  18
HETATM   18  C   UNL     1      -7.751  15.445  68.940  1.00  0.00    -0.165 A  
HETATM   19  C   UNL     1      -6.746  15.122  69.866  1.00  0.00    -0.165 A  
HETATM   20  C   UNL     1      -7.841  13.107  68.275  1.00  0.00    -0.143 A  
HETATM   21  H   UNL     1      -6.767  10.846  68.695  1.00  0.00     0.000 HD 
HETATM   22  C   UNL     1      -6.283  13.808  69.984  1.00  0.00    -0.120 A  
HETATM   23  C   UNL     1      -6.829  12.815  69.179  1.00  0.00    -0.054 A  
HETATM   24  C   UNL     1      -8.303  14.417  68.157  1.00  0.00    -0.158 A  
HETATM   25  O   UNL     1      -6.394  11.524  69.245  1.00  0.00    -0.072 OA 
ENDBRANCH  15  18
ENDBRANCH   2  15
TORSDOF 6
ENDMDL
MODEL      208
REMARK 921   NORMALIZED FREE ENERGY PREDICTED BY IDOCK:   -4.08 KCAL/MOL
REMARK 922        TOTAL FREE ENERGY PREDICTED BY IDOCK:   -6.55 KCAL/MOL
REMARK 923 INTER-LIGAND FREE ENERGY PREDICTED BY IDOCK:   -6.23 KCAL/MOL
REMARK 924 INTRA-LIGAND FREE ENERGY PREDICTED BY IDOCK:   -0.32 KCAL/MOL
REMARK 927      BINDING AFFINITY PREDICTED BY RF-SCORE:    0.00 PKD
ROOT
HETATM    1  C   UNL     1     -12.165  14.054  66.697  1.00  0.00    -0.463 C  
HETATM    2  C   UNL     1     -11.249  13.077  67.449  1.00  0.00    -0.288 C  
ENDROOT
BRANCH   2   3
HETATM    3  N   UNL     1      -9.831  13.247  67.054  1.00  0.00    -0.236 NA 
HETATM    4  H   UNL     1      -9.748  13.224  66.038  1.00  0.00     0.000 HD 
BRANCH   3   5
HETATM    5  C   UNL     1      -9.165  14.438  67.584  1.00  0.00    -0.196 C  
BRANCH   5   6
HETATM    6  C   UNL     1      -8.385  15.220  66.518  1.00  0.00    -0.124 C  
BRANCH   6   7
HETATM    7  C   UNL     1      -8.812  16.665  66.460  1.00  0.00    -0.314 A  
HETATM    8  C   UNL     1     -10.140  16.997  66.153  1.00  0.00    -0.332 A  
HETATM    9  C   UNL     1      -9.591  19.334  66.280  1.00  0.00    -0.362 A  
HETATM   10  C   UNL     1     -10.531  18.333  66.067  1.00  0.00    -0.380 A  
HETATM   11  O   UNL     1      -9.926  20.652  66.191  1.00  0.00    -0.566 OA 
HETATM   12  C   UNL     1      -8.271  19.021  66.592  1.00  0.00    -0.301 A  
HETATM   13  H   UNL     1      -9.284  21.336  66.337  1.00  0.00     0.000 HD 
HETATM   14  C   UNL     1      -7.879  17.686  66.678  1.00  0.00    -0.283 A  
ENDBRANCH   6   7
ENDBRANCH   5   6
ENDBRANCH   3   5
ENDBRANCH   2   3
BRANCH   2  15
HETATM   15  C   UNL     1     -11.650  11.587  67.209  1.00  0.00    -0.199 C  
HETATM   16  O   UNL     1     -12.299  11.053  68.372  1.00  0.00    -0.762 OA 
HETATM   17  H   UNL     1     -12.544  10.146  68.227  1.00  0.00     0.000 HD 
BRANCH  15  18
HETATM   18  C   UNL     1     -10.486  10.706  66.790  1.00  0.00    -0.303 A  
HETATM   19  C   UNL     1     -10.283  10.408  65.433  1.00  0.00    -0.329 A  
HETATM   20  C   UNL     1      -8.504   9.406  67.335  1.00  0.00    -0.125 A  
HETATM   21  H   UNL     1      -6.694   7.956  66.303  1.00  0.00     0.000 HD 
HETATM   22  C   UNL     1      -9.211   9.605  65.033  1.00  0.00    -0.310 A  
HETATM   23  C   UNL     1      -8.337   9.103  65.991  1.00  0.00    -0.121 A  
HETATM   24  C   UNL     1      -9.572  10.206  67.734  1.00  0.00    -0.168 A  
HETATM   25  O   UNL     1      -7.291   8.299  65.649  1.00  0.00    -0.070 OA 
ENDBRANCH  15  18
ENDBRANCH   2  15
TORSDOF 6
ENDMDL
MODEL      209
REMARK 921   NORMALIZED FREE ENERGY PREDICTED BY IDOCK:   -4.05 KCAL/MOL
REMARK 922        TOTAL FREE ENERGY PREDICTED BY IDOCK:   -6.51 KCAL/MOL
REMARK 923 INTER-LIGAND FREE ENERGY PREDICTED BY IDOCK:   -5.55 KCAL/MOL
REMARK 924 INTRA-LIGAND FREE ENERGY PREDICTED BY IDOCK:   -0.96 KCAL/MOL
REMARK 927      BINDING AFFINITY PREDICTED BY RF-SCORE:    0.00 PKD
ROOT
HETATM    1  C   UNL     1      -9.257   6.164  72.676  1.00  0.00    -0.140 C  
HETATM    2  C   UNL     1     -10.323   5.903  71.602  1.00  0.00    -0.219 C  
ENDROOT
BRANCH   2   3
HETATM    3  N   UNL     1     -11.690   5.944  72.171  1.00  0.00    -0.271 NA 
HETATM    4  H   UNL     1     -11.642   5.985  73.189  1.00  0.00     0.000 HD 
BRANCH   3   5
HETATM    5  C   UNL     1     -12.554   7.012  71.668  1.00  0.00    -0.380 C  
BRANCH   5   6
HETATM    6  C   UNL     1     -12.281   8.372  72.324  1.00  0.00    -0.449 C  
BRANCH   6   7
HETATM    7  C   UNL     1     -12.010   9.444  71.300  1.00  0.00    -0.430 A  
HETATM    8  C   UNL     1     -10.771   9.497  70.644  1.00  0.00    -0.375 A  
HETATM    9  C   UNL     1     -11.475  11.466  69.459  1.00  0.00    -0.312 A  
HETATM   10  C   UNL     1     -10.504  10.506  69.720  1.00  0.00    -0.245 A  
HETATM   11  O   UNL     1     -11.251  12.477  68.574  1.00  0.00    -0.244 OA 
HETATM   12  C   UNL     1     -12.711  11.423  70.095  1.00  0.00    -0.073 A  
HETATM   13  H   UNL     1     -11.914  13.133  68.395  1.00  0.00     0.000 HD 
HETATM   14  C   UNL     1     -12.979  10.415  71.020  1.00  0.00    -0.490 A  
ENDBRANCH   6   7
ENDBRANCH   5   6
ENDBRANCH   3   5
ENDBRANCH   2   3
BRANCH   2  15
HETATM   15  C   UNL     1     -10.125   4.525  70.895  1.00  0.00    -0.158 C  
HETATM   16  O   UNL     1      -8.985   3.845  71.439  1.00  0.00    -0.099 OA 
HETATM   17  H   UNL     1      -8.865   3.006  71.008  1.00  0.00     0.000 HD 
BRANCH  15  18
HETATM   18  C   UNL     1     -10.019   4.630  69.383  1.00  0.00    -0.249 A  
HETATM   19  C   UNL     1     -10.568   5.738  68.715  1.00  0.00    -0.321 A  
HETATM   20  C   UNL     1      -9.248   3.768  67.244  1.00  0.00    -0.208 A  
HETATM   21  H   UNL     1      -9.275   4.238  64.749  1.00  0.00     0.000 HD 
HETATM   22  C   UNL     1     -10.471   5.850  67.325  1.00  0.00    -0.325 A  
HETATM   23  C   UNL     1      -9.820   4.857  66.602  1.00  0.00    -0.204 A  
HETATM   24  C   UNL     1      -9.344   3.655  68.629  1.00  0.00    -0.228 A  
HETATM   25  O   UNL     1      -9.719   4.916  65.243  1.00  0.00    -0.131 OA 
ENDBRANCH  15  18
ENDBRANCH   2  15
TORSDOF 6
ENDMDL
MODEL      210
REMARK 921   NORMALIZED FREE ENERGY PREDICTED BY IDOCK:   -4.03 KCAL/MOL
REMARK 922        TOTAL FREE ENERGY PREDICTED BY IDOCK:   -6.49 KCAL/MOL
REMARK 923 INTER-LIGAND FREE ENERGY PREDICTED BY IDOCK:   -5.23 KCAL/MOL
REMARK 924 INTRA-LIGAND FREE ENERGY PREDICTED BY IDOCK:   -1.25 KCAL/MOL
REMARK 927      BINDING AFFINITY PREDICTED BY RF-SCORE:    0.00 PKD
ROOT
HETATM    1  C   UNL     1      -9.735  10.226  65.902  1.00  0.00    -0.283 C  
HETATM    2  C   UNL     1     -10.737  10.305  67.063  1.00  0.00    -0.216 C  
ENDROOT
BRANCH   2   3
HETATM    3  N   UNL     1     -11.733  11.381  66.851  1.00  0.00    -0.467 NA 
HETATM    4  H   UNL     1     -11.730  12.020  67.646  1.00  0.00     0.000 HD 
BRANCH   3   5
HETATM    5  C   UNL     1     -11.596  12.134  65.604  1.00  0.00    -0.351 C  
BRANCH   5   6
HETATM    6  C   UNL     1     -12.413  13.434  65.587  1.00  0.00    -0.519 C  
BRANCH   6   7
HETATM    7  C   UNL     1     -11.820  14.480  66.496  1.00  0.00    -0.367 A  
HETATM    8  C   UNL     1     -12.191  14.534  67.847  1.00  0.00    -0.144 A  
HETATM    9  C   UNL     1     -10.782  16.456  68.164  1.00  0.00    -0.336 A  
HETATM   10  C   UNL     1     -11.669  15.520  68.683  1.00  0.00    -0.363 A  
HETATM   11  O   UNL     1     -10.258  17.445  68.941  1.00  0.00    -0.331 OA 
HETATM   12  C   UNL     1     -10.397  16.411  66.827  1.00  0.00    -0.293 A  
HETATM   13  H   UNL     1      -9.652  18.084  68.587  1.00  0.00     0.000 HD 
HETATM   14  C   UNL     1     -10.919  15.425  65.990  1.00  0.00    -0.286 A  
ENDBRANCH   6   7
ENDBRANCH   5   6
ENDBRANCH   3   5
ENDBRANCH   2   3
BRANCH   2  15
HETATM   15  C   UNL     1     -10.034  10.550  68.436  1.00  0.00    -0.164 C  
HETATM   16  O   UNL     1     -10.973  11.062  69.392  1.00  0.00    -0.227 OA 
HETATM   17  H   UNL     1     -10.545  11.211  70.228  1.00  0.00     0.000 HD 
BRANCH  15  18
HETATM   18  C   UNL     1      -8.817  11.453  68.339  1.00  0.00    -0.167 A  
HETATM   19  C   UNL     1      -8.980  12.837  68.158  1.00  0.00    -0.199 A  
HETATM   20  C   UNL     1      -6.407  11.781  68.380  1.00  0.00    -0.051 A  
HETATM   21  H   UNL     1      -4.606  13.555  68.149  1.00  0.00     0.000 HD 
HETATM   22  C   UNL     1      -7.869  13.680  68.074  1.00  0.00    -0.150 A  
HETATM   23  C   UNL     1      -6.591  13.141  68.176  1.00  0.00    -0.107 A  
HETATM   24  C   UNL     1      -7.514  10.939  68.464  1.00  0.00    -0.103 A  
HETATM   25  O   UNL     1      -5.478  13.923  68.079  1.00  0.00    -0.110 OA 
ENDBRANCH  15  18
ENDBRANCH   2  15
TORSDOF 6
ENDMDL
MODEL      211
REMARK 921   NORMALIZED FREE ENERGY PREDICTED BY IDOCK:   -3.99 KCAL/MOL
REMARK 922        TOTAL FREE ENERGY PREDICTED BY IDOCK:   -6.43 KCAL/MOL
REMARK 923 INTER-LIGAND FREE ENERGY PREDICTED BY IDOCK:   -6.22 KCAL/MOL
REMARK 924 INTRA-LIGAND FREE ENERGY PREDICTED BY IDOCK:   -0.21 KCAL/MOL
REMARK 927      BINDING AFFINITY PREDICTED BY RF-SCORE:    0.00 PKD
ROOT
HETATM    1  C   UNL     1      -8.371  11.977  67.146  1.00  0.00    -0.181 C  
HETATM    2  C   UNL     1      -9.809  12.340  66.745  1.00  0.00    -0.209 C  
ENDROOT
BRANCH   2   3
HETATM    3  N   UNL     1     -10.379  13.374  67.640  1.00  0.00    -0.235 NA 
HETATM    4  H   UNL     1     -10.190  13.133  68.614  1.00  0.00     0.000 HD 
BRANCH   3   5
HETATM    5  C   UNL     1      -9.952  14.748  67.374  1.00  0.00    -0.223 C  
BRANCH   5   6
HETATM    6  C   UNL     1     -10.823  15.799  68.076  1.00  0.00    -0.309 C  
BRANCH   6   7
HETATM    7  C   UNL     1     -10.382  17.202  67.747  1.00  0.00    -0.347 A  
HETATM    8  C   UNL     1     -10.172  18.136  68.773  1.00  0.00    -0.353 A  
HETATM    9  C   UNL     1      -9.635  19.818  67.142  1.00  0.00    -0.361 A  
HETATM   10  C   UNL     1      -9.795  19.443  68.471  1.00  0.00    -0.509 A  
HETATM   11  O   UNL     1      -9.282  21.089  66.801  1.00  0.00    -0.580 OA 
HETATM   12  C   UNL     1      -9.832  18.902  66.113  1.00  0.00    -0.346 A  
HETATM   13  H   UNL     1      -9.172  21.345  65.893  1.00  0.00     0.000 HD 
HETATM   14  C   UNL     1     -10.209  17.594  66.414  1.00  0.00    -0.364 A  
ENDBRANCH   6   7
ENDBRANCH   5   6
ENDBRANCH   3   5
ENDBRANCH   2   3
BRANCH   2  15
HETATM   15  C   UNL     1     -10.758  11.100  66.758  1.00  0.00    -0.276 C  
HETATM   16  O   UNL     1     -12.013  11.440  67.365  1.00  0.00    -0.606 OA 
HETATM   17  H   UNL     1     -12.590  10.685  67.373  1.00  0.00     0.000 HD 
BRANCH  15  18
HETATM   18  C   UNL     1     -10.149   9.880  67.426  1.00  0.00    -0.254 A  
HETATM   19  C   UNL     1     -10.290   9.693  68.812  1.00  0.00    -0.233 A  
HETATM   20  C   UNL     1      -8.924   7.782  67.305  1.00  0.00    -0.136 A  
HETATM   21  H   UNL     1      -8.014   5.889  68.731  1.00  0.00     0.000 HD 
HETATM   22  C   UNL     1      -9.740   8.571  69.438  1.00  0.00    -0.177 A  
HETATM   23  C   UNL     1      -9.053   7.630  68.678  1.00  0.00    -0.135 A  
HETATM   24  C   UNL     1      -9.471   8.901  66.680  1.00  0.00    -0.261 A  
HETATM   25  O   UNL     1      -8.483   6.531  69.250  1.00  0.00    -0.125 OA 
ENDBRANCH  15  18
ENDBRANCH   2  15
TORSDOF 6
ENDMDL
MODEL      212
REMARK 921   NORMALIZED FREE ENERGY PREDICTED BY IDOCK:   -3.97 KCAL/MOL
REMARK 922        TOTAL FREE ENERGY PREDICTED BY IDOCK:   -6.41 KCAL/MOL
REMARK 923 INTER-LIGAND FREE ENERGY PREDICTED BY IDOCK:   -5.88 KCAL/MOL
REMARK 924 INTRA-LIGAND FREE ENERGY PREDICTED BY IDOCK:   -0.54 KCAL/MOL
REMARK 927      BINDING AFFINITY PREDICTED BY RF-SCORE:    0.00 PKD
ROOT
HETATM    1  C   UNL     1      -7.345   8.358  69.292  1.00  0.00    -0.071 C  
HETATM    2  C   UNL     1      -8.750   7.781  69.519  1.00  0.00    -0.135 C  
ENDROOT
BRANCH   2   3
HETATM    3  N   UNL     1      -9.636   8.035  68.359  1.00  0.00    -0.149 NA 
HETATM    4  H   UNL     1     -10.564   8.309  68.684  1.00  0.00     0.000 HD 
BRANCH   3   5
HETATM    5  C   UNL     1      -9.140   9.006  67.384  1.00  0.00    -0.131 C  
BRANCH   5   6
HETATM    6  C   UNL     1     -10.209   9.452  66.375  1.00  0.00    -0.300 C  
BRANCH   6   7
HETATM    7  C   UNL     1     -10.780  10.802  66.724  1.00  0.00    -0.291 A  
HETATM    8  C   UNL     1     -11.141  11.096  68.048  1.00  0.00    -0.334 A  
HETATM    9  C   UNL     1     -11.904  13.270  67.365  1.00  0.00    -0.366 A  
HETATM   10  C   UNL     1     -11.699  12.332  68.369  1.00  0.00    -0.390 A  
HETATM   11  O   UNL     1     -12.460  14.485  67.632  1.00  0.00    -0.595 OA 
HETATM   12  C   UNL     1     -11.545  12.997  66.048  1.00  0.00    -0.409 A  
HETATM   13  H   UNL     1     -12.600  15.127  66.945  1.00  0.00     0.000 HD 
HETATM   14  C   UNL     1     -10.986  11.761  65.725  1.00  0.00    -0.353 A  
ENDBRANCH   6   7
ENDBRANCH   5   6
ENDBRANCH   3   5
ENDBRANCH   2   3
BRANCH   2  15
HETATM   15  C   UNL     1      -9.432   8.368  70.796  1.00  0.00    -0.169 C  
HETATM   16  O   UNL     1      -8.577   9.340  71.415  1.00  0.00    -0.326 OA 
HETATM   17  H   UNL     1      -8.992   9.697  72.192  1.00  0.00     0.000 HD 
BRANCH  15  18
HETATM   18  C   UNL     1      -9.853   7.307  71.798  1.00  0.00    -0.175 A  
HETATM   19  C   UNL     1      -9.594   7.489  73.166  1.00  0.00    -0.286 A  
HETATM   20  C   UNL     1     -10.927   5.187  72.321  1.00  0.00    -0.209 A  
HETATM   21  H   UNL     1     -11.463   3.615  74.240  1.00  0.00     0.000 HD 
HETATM   22  C   UNL     1      -9.983   6.523  74.099  1.00  0.00    -0.344 A  
HETATM   23  C   UNL     1     -10.637   5.376  73.665  1.00  0.00    -0.279 A  
HETATM   24  C   UNL     1     -10.539   6.149  71.390  1.00  0.00    -0.294 A  
HETATM   25  O   UNL     1     -11.017   4.399  74.537  1.00  0.00    -0.268 OA 
ENDBRANCH  15  18
ENDBRANCH   2  15
TORSDOF 6
ENDMDL
MODEL      213
REMARK 921   NORMALIZED FREE ENERGY PREDICTED BY IDOCK:   -3.96 KCAL/MOL
REMARK 922        TOTAL FREE ENERGY PREDICTED BY IDOCK:   -6.39 KCAL/MOL
REMARK 923 INTER-LIGAND FREE ENERGY PREDICTED BY IDOCK:   -5.33 KCAL/MOL
REMARK 924 INTRA-LIGAND FREE ENERGY PREDICTED BY IDOCK:   -1.06 KCAL/MOL
REMARK 927      BINDING AFFINITY PREDICTED BY RF-SCORE:    0.00 PKD
ROOT
HETATM    1  C   UNL     1     -11.162   6.187  69.406  1.00  0.00    -0.466 C  
HETATM    2  C   UNL     1     -10.326   5.206  70.241  1.00  0.00    -0.261 C  
ENDROOT
BRANCH   2   3
HETATM    3  N   UNL     1     -10.242   5.632  71.658  1.00  0.00    -0.201 NA 
HETATM    4  H   UNL     1      -9.425   6.227  71.795  1.00  0.00     0.000 HD 
BRANCH   3   5
HETATM    5  C   UNL     1     -11.435   6.289  72.193  1.00  0.00    -0.307 C  
BRANCH   5   6
HETATM    6  C   UNL     1     -11.132   7.629  72.878  1.00  0.00    -0.448 C  
BRANCH   6   7
HETATM    7  C   UNL     1     -11.365   8.796  71.954  1.00  0.00    -0.431 A  
HETATM    8  C   UNL     1     -12.628   9.404  71.889  1.00  0.00    -0.481 A  
HETATM    9  C   UNL     1     -11.825  10.908  70.195  1.00  0.00    -0.353 A  
HETATM   10  C   UNL     1     -12.857  10.463  71.012  1.00  0.00    -0.494 A  
HETATM   11  O   UNL     1     -12.009  11.931  69.313  1.00  0.00    -0.305 OA 
HETATM   12  C   UNL     1     -10.565  10.321  70.252  1.00  0.00    -0.264 A  
HETATM   13  H   UNL     1     -11.304  12.235  68.754  1.00  0.00     0.000 HD 
HETATM   14  C   UNL     1     -10.334   9.262  71.128  1.00  0.00    -0.392 A  
ENDBRANCH   6   7
ENDBRANCH   5   6
ENDBRANCH   3   5
ENDBRANCH   2   3
BRANCH   2  15
HETATM   15  C   UNL     1      -8.874   5.048  69.689  1.00  0.00    -0.094 C  
HETATM   16  O   UNL     1      -7.935   4.972  70.771  1.00  0.00    -0.083 OA 
HETATM   17  H   UNL     1      -7.051   4.875  70.435  1.00  0.00     0.000 HD 
BRANCH  15  18
HETATM   18  C   UNL     1      -8.477   6.137  68.707  1.00  0.00    -0.118 A  
HETATM   19  C   UNL     1      -7.973   7.360  69.180  1.00  0.00    -0.118 A  
HETATM   20  C   UNL     1      -8.195   6.943  66.430  1.00  0.00    -0.117 A  
HETATM   21  H   UNL     1      -7.475   8.969  65.079  1.00  0.00     0.000 HD 
HETATM   22  C   UNL     1      -7.598   8.368  68.287  1.00  0.00    -0.098 A  
HETATM   23  C   UNL     1      -7.723   8.153  66.919  1.00  0.00    -0.096 A  
HETATM   24  C   UNL     1      -8.570   5.938  67.319  1.00  0.00    -0.106 A  
HETATM   25  O   UNL     1      -7.389   9.115  66.014  1.00  0.00    -0.092 OA 
ENDBRANCH  15  18
ENDBRANCH   2  15
TORSDOF 6
ENDMDL
MODEL      214
REMARK 921   NORMALIZED FREE ENERGY PREDICTED BY IDOCK:   -3.95 KCAL/MOL
REMARK 922        TOTAL FREE ENERGY PREDICTED BY IDOCK:   -6.38 KCAL/MOL
REMARK 923 INTER-LIGAND FREE ENERGY PREDICTED BY IDOCK:   -5.47 KCAL/MOL
REMARK 924 INTRA-LIGAND FREE ENERGY PREDICTED BY IDOCK:   -0.91 KCAL/MOL
REMARK 927      BINDING AFFINITY PREDICTED BY RF-SCORE:    0.00 PKD
ROOT
HETATM    1  C   UNL     1      -9.315   9.442  70.624  1.00  0.00    -0.314 C  
HETATM    2  C   UNL     1      -9.311   9.136  69.119  1.00  0.00    -0.152 C  
ENDROOT
BRANCH   2   3
HETATM    3  N   UNL     1      -8.623   7.858  68.825  1.00  0.00    -0.128 NA 
HETATM    4  H   UNL     1      -8.335   7.410  69.695  1.00  0.00     0.000 HD 
BRANCH   3   5
HETATM    5  C   UNL     1      -9.373   6.911  67.999  1.00  0.00    -0.123 C  
BRANCH   5   6
HETATM    6  C   UNL     1     -10.812   6.689  68.485  1.00  0.00    -0.319 C  
BRANCH   6   7
HETATM    7  C   UNL     1     -10.850   6.013  69.831  1.00  0.00    -0.434 A  
HETATM    8  C   UNL     1     -11.536   6.607  70.901  1.00  0.00    -0.416 A  
HETATM    9  C   UNL     1     -10.865   4.804  72.342  1.00  0.00    -0.102 A  
HETATM   10  C   UNL     1     -11.547   6.001  72.156  1.00  0.00    -0.348 A  
HETATM   11  O   UNL     1     -10.838   4.185  73.555  1.00  0.00    -0.205 OA 
HETATM   12  C   UNL     1     -10.186   4.198  71.289  1.00  0.00    -0.067 A  
HETATM   13  H   UNL     1     -10.371   3.367  73.682  1.00  0.00     0.000 HD 
HETATM   14  C   UNL     1     -10.174   4.804  70.033  1.00  0.00    -0.251 A  
ENDBRANCH   6   7
ENDBRANCH   5   6
ENDBRANCH   3   5
ENDBRANCH   2   3
BRANCH   2  15
HETATM   15  C   UNL     1      -8.625  10.267  68.287  1.00  0.00    -0.122 C  
HETATM   16  O   UNL     1      -8.333  11.394  69.126  1.00  0.00    -0.366 OA 
HETATM   17  H   UNL     1      -7.916  12.082  68.620  1.00  0.00     0.000 HD 
BRANCH  15  18
HETATM   18  C   UNL     1      -9.427  10.694  67.070  1.00  0.00    -0.187 A  
HETATM   19  C   UNL     1      -9.127  10.156  65.807  1.00  0.00    -0.206 A  
HETATM   20  C   UNL     1     -11.231  11.973  66.058  1.00  0.00    -0.385 A  
HETATM   21  H   UNL     1     -12.340  12.487  63.833  1.00  0.00     0.000 HD 
HETATM   22  C   UNL     1      -9.862  10.536  64.680  1.00  0.00    -0.404 A  
HETATM   23  C   UNL     1     -10.901  11.450  64.815  1.00  0.00    -0.273 A  
HETATM   24  C   UNL     1     -10.499  11.596  67.182  1.00  0.00    -0.252 A  
HETATM   25  O   UNL     1     -11.631  11.863  63.741  1.00  0.00    -0.417 OA 
ENDBRANCH  15  18
ENDBRANCH   2  15
TORSDOF 6
ENDMDL
MODEL      215
REMARK 921   NORMALIZED FREE ENERGY PREDICTED BY IDOCK:   -3.89 KCAL/MOL
REMARK 922        TOTAL FREE ENERGY PREDICTED BY IDOCK:   -6.30 KCAL/MOL
REMARK 923 INTER-LIGAND FREE ENERGY PREDICTED BY IDOCK:   -5.71 KCAL/MOL
REMARK 924 INTRA-LIGAND FREE ENERGY PREDICTED BY IDOCK:   -0.59 KCAL/MOL
REMARK 927      BINDING AFFINITY PREDICTED BY RF-SCORE:    0.00 PKD
ROOT
HETATM    1  C   UNL     1     -11.735  15.450  64.455  1.00  0.00    -0.277 C  
HETATM    2  C   UNL     1     -10.665  14.603  65.159  1.00  0.00    -0.414 C  
ENDROOT
BRANCH   2   3
HETATM    3  N   UNL     1     -10.832  13.161  64.866  1.00  0.00    -0.315 NA 
HETATM    4  H   UNL     1     -10.576  12.970  63.897  1.00  0.00     0.000 HD 
BRANCH   3   5
HETATM    5  C   UNL     1     -10.122  12.246  65.760  1.00  0.00    -0.252 C  
BRANCH   5   6
HETATM    6  C   UNL     1     -10.800  10.874  65.886  1.00  0.00    -0.132 C  
BRANCH   6   7
HETATM    7  C   UNL     1     -10.157  10.028  66.955  1.00  0.00    -0.274 A  
HETATM    8  C   UNL     1     -10.545   8.691  67.126  1.00  0.00    -0.304 A  
HETATM    9  C   UNL     1      -9.025   8.479  68.976  1.00  0.00    -0.146 A  
HETATM   10  C   UNL     1      -9.976   7.915  68.134  1.00  0.00    -0.210 A  
HETATM   11  O   UNL     1      -8.454   7.761  69.983  1.00  0.00    -0.131 OA 
HETATM   12  C   UNL     1      -8.624   9.802  68.815  1.00  0.00    -0.127 A  
HETATM   13  H   UNL     1      -7.803   8.147  70.558  1.00  0.00     0.000 HD 
HETATM   14  C   UNL     1      -9.192  10.580  67.807  1.00  0.00    -0.151 A  
ENDBRANCH   6   7
ENDBRANCH   5   6
ENDBRANCH   3   5
ENDBRANCH   2   3
BRANCH   2  15
HETATM   15  C   UNL     1     -10.683  14.795  66.709  1.00  0.00    -0.309 C  
HETATM   16  O   UNL     1     -12.020  14.663  67.211  1.00  0.00    -0.448 OA 
HETATM   17  H   UNL     1     -12.031  14.780  68.155  1.00  0.00     0.000 HD 
BRANCH  15  18
HETATM   18  C   UNL     1     -10.063  16.105  67.163  1.00  0.00    -0.269 A  
HETATM   19  C   UNL     1      -8.849  16.539  66.606  1.00  0.00    -0.288 A  
HETATM   20  C   UNL     1     -10.125  18.127  68.514  1.00  0.00    -0.413 A  
HETATM   21  H   UNL     1      -8.812  20.229  69.064  1.00  0.00     0.000 HD 
HETATM   22  C   UNL     1      -8.272  17.746  67.011  1.00  0.00    -0.239 A  
HETATM   23  C   UNL     1      -8.912  18.524  67.970  1.00  0.00    -0.301 A  
HETATM   24  C   UNL     1     -10.701  16.924  68.112  1.00  0.00    -0.375 A  
HETATM   25  O   UNL     1      -8.375  19.698  68.409  1.00  0.00    -0.335 OA 
ENDBRANCH  15  18
ENDBRANCH   2  15
TORSDOF 6
ENDMDL
MODEL      216
REMARK 921   NORMALIZED FREE ENERGY PREDICTED BY IDOCK:   -3.88 KCAL/MOL
REMARK 922        TOTAL FREE ENERGY PREDICTED BY IDOCK:   -6.28 KCAL/MOL
REMARK 923 INTER-LIGAND FREE ENERGY PREDICTED BY IDOCK:   -5.40 KCAL/MOL
REMARK 924 INTRA-LIGAND FREE ENERGY PREDICTED BY IDOCK:   -0.87 KCAL/MOL
REMARK 927      BINDING AFFINITY PREDICTED BY RF-SCORE:    0.00 PKD
ROOT
HETATM    1  C   UNL     1      -6.113  17.822  69.829  1.00  0.00    -0.213 C  
HETATM    2  C   UNL     1      -7.211  17.108  69.027  1.00  0.00    -0.229 C  
ENDROOT
BRANCH   2   3
HETATM    3  N   UNL     1      -7.205  15.647  69.277  1.00  0.00    -0.184 NA 
HETATM    4  H   UNL     1      -6.671  15.441  70.122  1.00  0.00     0.000 HD 
BRANCH   3   5
HETATM    5  C   UNL     1      -8.521  15.012  69.350  1.00  0.00    -0.125 C  
BRANCH   5   6
HETATM    6  C   UNL     1      -9.645  15.989  69.723  1.00  0.00    -0.007 C  
BRANCH   6   7
HETATM    7  C   UNL     1     -10.820  15.279  70.345  1.00  0.00    -0.293 A  
HETATM    8  C   UNL     1     -11.453  15.817  71.475  1.00  0.00    -0.504 A  
HETATM    9  C   UNL     1     -12.947  13.936  71.544  1.00  0.00    -0.358 A  
HETATM   10  C   UNL     1     -12.519  15.147  72.073  1.00  0.00    -0.414 A  
HETATM   11  O   UNL     1     -13.976  13.240  72.105  1.00  0.00    -0.471 OA 
HETATM   12  C   UNL     1     -12.335  13.391  70.419  1.00  0.00    -0.382 A  
HETATM   13  H   UNL     1     -14.268  12.412  71.743  1.00  0.00     0.000 HD 
HETATM   14  C   UNL     1     -11.268  14.060  69.820  1.00  0.00    -0.175 A  
ENDBRANCH   6   7
ENDBRANCH   5   6
ENDBRANCH   3   5
ENDBRANCH   2   3
BRANCH   2  15
HETATM   15  C   UNL     1      -7.069  17.344  67.490  1.00  0.00    -0.163 C  
HETATM   16  O   UNL     1      -5.836  18.018  67.201  1.00  0.00    -0.131 OA 
HETATM   17  H   UNL     1      -5.750  18.162  66.266  1.00  0.00     0.000 HD 
BRANCH  15  18
HETATM   18  C   UNL     1      -8.246  18.088  66.882  1.00  0.00    -0.259 A  
HETATM   19  C   UNL     1      -9.320  17.373  66.328  1.00  0.00    -0.240 A  
HETATM   20  C   UNL     1      -9.394  20.162  66.338  1.00  0.00    -0.446 A  
HETATM   21  H   UNL     1     -11.481  21.082  65.223  1.00  0.00     0.000 HD 
HETATM   22  C   UNL     1     -10.411  18.045  65.771  1.00  0.00    -0.202 A  
HETATM   23  C   UNL     1     -10.432  19.436  65.773  1.00  0.00    -0.392 A  
HETATM   24  C   UNL     1      -8.305  19.493  66.892  1.00  0.00    -0.314 A  
HETATM   25  O   UNL     1     -11.467  20.133  65.223  1.00  0.00     0.100 OA 
ENDBRANCH  15  18
ENDBRANCH   2  15
TORSDOF 6
ENDMDL
MODEL      217
REMARK 921   NORMALIZED FREE ENERGY PREDICTED BY IDOCK:   -3.87 KCAL/MOL
REMARK 922        TOTAL FREE ENERGY PREDICTED BY IDOCK:   -6.27 KCAL/MOL
REMARK 923 INTER-LIGAND FREE ENERGY PREDICTED BY IDOCK:   -4.75 KCAL/MOL
REMARK 924 INTRA-LIGAND FREE ENERGY PREDICTED BY IDOCK:   -1.52 KCAL/MOL
REMARK 927      BINDING AFFINITY PREDICTED BY RF-SCORE:    0.00 PKD
ROOT
HETATM    1  C   UNL     1     -12.014  11.010  69.298  1.00  0.00    -0.410 C  
HETATM    2  C   UNL     1     -10.579  10.563  68.985  1.00  0.00    -0.222 C  
ENDROOT
BRANCH   2   3
HETATM    3  N   UNL     1      -9.808  10.300  70.222  1.00  0.00    -0.367 NA 
HETATM    4  H   UNL     1     -10.345  10.600  71.037  1.00  0.00     0.000 HD 
BRANCH   3   5
HETATM    5  C   UNL     1      -9.352   8.922  70.404  1.00  0.00    -0.193 C  
BRANCH   5   6
HETATM    6  C   UNL     1     -10.363   7.879  69.906  1.00  0.00    -0.224 C  
BRANCH   6   7
HETATM    7  C   UNL     1      -9.961   7.300  68.574  1.00  0.00    -0.168 A  
HETATM    8  C   UNL     1     -10.814   6.411  67.903  1.00  0.00    -0.404 A  
HETATM    9  C   UNL     1      -9.193   6.171  66.145  1.00  0.00    -0.131 A  
HETATM   10  C   UNL     1     -10.432   5.849  66.686  1.00  0.00    -0.310 A  
HETATM   11  O   UNL     1      -8.774   5.633  64.965  1.00  0.00    -0.235 OA 
HETATM   12  C   UNL     1      -8.338   7.057  66.794  1.00  0.00    -0.116 A  
HETATM   13  H   UNL     1      -7.927   5.853  64.595  1.00  0.00     0.000 HD 
HETATM   14  C   UNL     1      -8.719   7.620  68.011  1.00  0.00    -0.125 A  
ENDBRANCH   6   7
ENDBRANCH   5   6
ENDBRANCH   3   5
ENDBRANCH   2   3
BRANCH   2  15
HETATM   15  C   UNL     1      -9.802  11.620  68.137  1.00  0.00    -0.191 C  
HETATM   16  O   UNL     1     -10.629  12.767  67.891  1.00  0.00    -0.212 OA 
HETATM   17  H   UNL     1     -10.156  13.410  67.375  1.00  0.00     0.000 HD 
BRANCH  15  18
HETATM   18  C   UNL     1      -9.250  11.064  66.836  1.00  0.00    -0.168 A  
HETATM   19  C   UNL     1      -7.861  10.953  66.652  1.00  0.00    -0.145 A  
HETATM   20  C   UNL     1      -9.583  10.104  64.626  1.00  0.00    -0.379 A  
HETATM   21  H   UNL     1      -8.336   9.257  62.584  1.00  0.00     0.000 HD 
HETATM   22  C   UNL     1      -7.341  10.437  65.462  1.00  0.00    -0.139 A  
HETATM   23  C   UNL     1      -8.208  10.027  64.455  1.00  0.00    -0.164 A  
HETATM   24  C   UNL     1     -10.103  10.619  65.812  1.00  0.00    -0.327 A  
HETATM   25  O   UNL     1      -7.744   9.536  63.271  1.00  0.00    -0.118 OA 
ENDBRANCH  15  18
ENDBRANCH   2  15
TORSDOF 6
ENDMDL
MODEL      218
REMARK 921   NORMALIZED FREE ENERGY PREDICTED BY IDOCK:   -3.85 KCAL/MOL
REMARK 922        TOTAL FREE ENERGY PREDICTED BY IDOCK:   -6.24 KCAL/MOL
REMARK 923 INTER-LIGAND FREE ENERGY PREDICTED BY IDOCK:   -5.50 KCAL/MOL
REMARK 924 INTRA-LIGAND FREE ENERGY PREDICTED BY IDOCK:   -0.74 KCAL/MOL
REMARK 927      BINDING AFFINITY PREDICTED BY RF-SCORE:    0.00 PKD
ROOT
HETATM    1  C   UNL     1      -8.757  11.012  68.825  1.00  0.00    -0.146 C  
HETATM    2  C   UNL     1      -9.732  10.527  67.741  1.00  0.00    -0.160 C  
ENDROOT
BRANCH   2   3
HETATM    3  N   UNL     1     -10.030   9.083  67.884  1.00  0.00    -0.168 NA 
HETATM    4  H   UNL     1     -10.615   8.770  67.109  1.00  0.00     0.000 HD 
BRANCH   3   5
HETATM    5  C   UNL     1      -8.867   8.206  68.019  1.00  0.00    -0.131 C  
BRANCH   5   6
HETATM    6  C   UNL     1      -9.076   7.073  69.033  1.00  0.00    -0.135 C  
BRANCH   6   7
HETATM    7  C   UNL     1      -8.753   7.513  70.438  1.00  0.00    -0.144 A  
HETATM    8  C   UNL     1      -7.502   7.221  71.000  1.00  0.00    -0.075 A  
HETATM    9  C   UNL     1      -8.176   8.259  73.060  1.00  0.00    -0.164 A  
HETATM   10  C   UNL     1      -7.211   7.597  72.310  1.00  0.00    -0.079 A  
HETATM   11  O   UNL     1      -7.939   8.633  74.349  1.00  0.00    -0.366 OA 
HETATM   12  C   UNL     1      -9.419   8.563  72.515  1.00  0.00    -0.328 A  
HETATM   13  H   UNL     1      -8.598   9.086  74.861  1.00  0.00     0.000 HD 
HETATM   14  C   UNL     1      -9.712   8.187  71.205  1.00  0.00    -0.200 A  
ENDBRANCH   6   7
ENDBRANCH   5   6
ENDBRANCH   3   5
ENDBRANCH   2   3
BRANCH   2  15
HETATM   15  C   UNL     1      -9.185  10.776  66.300  1.00  0.00    -0.173 C  
HETATM   16  O   UNL     1      -7.904  11.420  66.357  1.00  0.00    -0.260 OA 
HETATM   17  H   UNL     1      -7.571  11.571  65.479  1.00  0.00     0.000 HD 
BRANCH  15  18
HETATM   18  C   UNL     1     -10.142  11.557  65.416  1.00  0.00    -0.304 A  
HETATM   19  C   UNL     1     -11.141  12.356  65.997  1.00  0.00    -0.344 A  
HETATM   20  C   UNL     1     -10.909  12.259  63.217  1.00  0.00    -0.359 A  
HETATM   21  H   UNL     1     -12.676  13.655  62.046  1.00  0.00     0.000 HD 
HETATM   22  C   UNL     1     -12.024  13.085  65.195  1.00  0.00    -0.440 A  
HETATM   23  C   UNL     1     -11.905  13.021  63.811  1.00  0.00    -0.502 A  
HETATM   24  C   UNL     1     -10.029  11.531  64.015  1.00  0.00    -0.341 A  
HETATM   25  O   UNL     1     -12.757  13.699  62.991  1.00  0.00    -0.681 OA 
ENDBRANCH  15  18
ENDBRANCH   2  15
TORSDOF 6
ENDMDL
MODEL      219
REMARK 921   NORMALIZED FREE ENERGY PREDICTED BY IDOCK:   -3.83 KCAL/MOL
REMARK 922        TOTAL FREE ENERGY PREDICTED BY IDOCK:   -6.21 KCAL/MOL
REMARK 923 INTER-LIGAND FREE ENERGY PREDICTED BY IDOCK:   -5.43 KCAL/MOL
REMARK 924 INTRA-LIGAND FREE ENERGY PREDICTED BY IDOCK:   -0.78 KCAL/MOL
REMARK 927      BINDING AFFINITY PREDICTED BY RF-SCORE:    0.00 PKD
ROOT
HETATM    1  C   UNL     1     -11.642  14.657  66.160  1.00  0.00    -0.332 C  
HETATM    2  C   UNL     1     -11.002  14.340  67.520  1.00  0.00    -0.289 C  
ENDROOT
BRANCH   2   3
HETATM    3  N   UNL     1      -9.796  15.165  67.760  1.00  0.00    -0.222 NA 
HETATM    4  H   UNL     1      -9.270  14.792  68.551  1.00  0.00     0.000 HD 
BRANCH   3   5
HETATM    5  C   UNL     1      -8.909  15.340  66.609  1.00  0.00    -0.293 C  
BRANCH   5   6
HETATM    6  C   UNL     1      -7.468  15.697  67.003  1.00  0.00    -0.228 C  
BRANCH   6   7
HETATM    7  C   UNL     1      -6.991  14.884  68.178  1.00  0.00    -0.132 A  
HETATM    8  C   UNL     1      -6.874  13.491  68.072  1.00  0.00    -0.136 A  
HETATM    9  C   UNL     1      -6.179  13.367  70.370  1.00  0.00    -0.006 A  
HETATM   10  C   UNL     1      -6.464  12.732  69.167  1.00  0.00    -0.109 A  
HETATM   11  O   UNL     1      -5.788  12.663  71.469  1.00  0.00    -0.500 OA 
HETATM   12  C   UNL     1      -6.283  14.750  70.490  1.00  0.00    -0.123 A  
HETATM   13  H   UNL     1      -5.593  13.097  72.291  1.00  0.00     0.000 HD 
HETATM   14  C   UNL     1      -6.693  15.510  69.395  1.00  0.00    -0.169 A  
ENDBRANCH   6   7
ENDBRANCH   5   6
ENDBRANCH   3   5
ENDBRANCH   2   3
BRANCH   2  15
HETATM   15  C   UNL     1     -10.602  12.836  67.649  1.00  0.00    -0.219 C  
HETATM   16  O   UNL     1     -10.923  12.130  66.442  1.00  0.00    -0.263 OA 
HETATM   17  H   UNL     1     -10.680  11.214  66.520  1.00  0.00     0.000 HD 
BRANCH  15  18
HETATM   18  C   UNL     1     -11.217  12.147  68.855  1.00  0.00    -0.320 A  
HETATM   19  C   UNL     1     -11.162  10.749  68.971  1.00  0.00    -0.322 A  
HETATM   20  C   UNL     1     -12.369  12.243  70.995  1.00  0.00    -0.320 A  
HETATM   21  H   UNL     1     -13.314  10.785  72.846  1.00  0.00     0.000 HD 
HETATM   22  C   UNL     1     -11.718  10.104  70.079  1.00  0.00    -0.294 A  
HETATM   23  C   UNL     1     -12.326  10.858  71.077  1.00  0.00    -0.393 A  
HETATM   24  C   UNL     1     -11.815  12.886  69.890  1.00  0.00    -0.373 A  
HETATM   25  O   UNL     1     -12.899  10.270  72.165  1.00  0.00    -0.388 OA 
ENDBRANCH  15  18
ENDBRANCH   2  15
TORSDOF 6
ENDMDL
MODEL      220
REMARK 921   NORMALIZED FREE ENERGY PREDICTED BY IDOCK:   -3.79 KCAL/MOL
REMARK 922        TOTAL FREE ENERGY PREDICTED BY IDOCK:   -6.17 KCAL/MOL
REMARK 923 INTER-LIGAND FREE ENERGY PREDICTED BY IDOCK:   -5.89 KCAL/MOL
REMARK 924 INTRA-LIGAND FREE ENERGY PREDICTED BY IDOCK:   -0.28 KCAL/MOL
REMARK 927      BINDING AFFINITY PREDICTED BY RF-SCORE:    0.00 PKD
ROOT
HETATM    1  C   UNL     1      -8.259  10.981  67.459  1.00  0.00    -0.117 C  
HETATM    2  C   UNL     1      -9.452  11.497  68.278  1.00  0.00    -0.189 C  
ENDROOT
BRANCH   2   3
HETATM    3  N   UNL     1     -10.683  10.724  67.991  1.00  0.00    -0.209 NA 
HETATM    4  H   UNL     1     -11.078  11.018  67.097  1.00  0.00     0.000 HD 
BRANCH   3   5
HETATM    5  C   UNL     1     -10.538   9.269  68.020  1.00  0.00    -0.208 C  
BRANCH   5   6
HETATM    6  C   UNL     1     -10.939   8.646  69.365  1.00  0.00    -0.034 C  
BRANCH   6   7
HETATM    7  C   UNL     1     -10.253   7.325  69.598  1.00  0.00    -0.214 A  
HETATM    8  C   UNL     1     -10.920   6.292  70.274  1.00  0.00    -0.400 A  
HETATM    9  C   UNL     1      -8.966   4.904  70.095  1.00  0.00    -0.107 A  
HETATM   10  C   UNL     1     -10.277   5.080  70.519  1.00  0.00    -0.316 A  
HETATM   11  O   UNL     1      -8.295   3.741  70.326  1.00  0.00    -0.056 OA 
HETATM   12  C   UNL     1      -8.293   5.916  69.416  1.00  0.00    -0.114 A  
HETATM   13  H   UNL     1      -7.399   3.620  70.036  1.00  0.00     0.000 HD 
HETATM   14  C   UNL     1      -8.934   7.129  69.170  1.00  0.00    -0.138 A  
ENDBRANCH   6   7
ENDBRANCH   5   6
ENDBRANCH   3   5
ENDBRANCH   2   3
BRANCH   2  15
HETATM   15  C   UNL     1      -9.746  13.007  68.009  1.00  0.00    -0.224 C  
HETATM   16  O   UNL     1     -10.401  13.597  69.141  1.00  0.00    -0.421 OA 
HETATM   17  H   UNL     1     -10.579  14.516  68.978  1.00  0.00     0.000 HD 
BRANCH  15  18
HETATM   18  C   UNL     1     -10.542  13.252  66.739  1.00  0.00    -0.276 A  
HETATM   19  C   UNL     1     -10.000  12.900  65.491  1.00  0.00    -0.226 A  
HETATM   20  C   UNL     1     -12.560  14.006  65.610  1.00  0.00    -0.542 A  
HETATM   21  H   UNL     1     -13.597  14.303  63.312  1.00  0.00     0.000 HD 
HETATM   22  C   UNL     1     -10.725  13.114  64.315  1.00  0.00    -0.431 A  
HETATM   23  C   UNL     1     -11.995  13.675  64.386  1.00  0.00    -0.437 A  
HETATM   24  C   UNL     1     -11.838  13.794  66.783  1.00  0.00    -0.454 A  
HETATM   25  O   UNL     1     -12.729  13.920  63.264  1.00  0.00    -0.775 OA 
ENDBRANCH  15  18
ENDBRANCH   2  15
TORSDOF 6
ENDMDL
MODEL      221
REMARK 921   NORMALIZED FREE ENERGY PREDICTED BY IDOCK:   -3.78 KCAL/MOL
REMARK 922        TOTAL FREE ENERGY PREDICTED BY IDOCK:   -6.15 KCAL/MOL
REMARK 923 INTER-LIGAND FREE ENERGY PREDICTED BY IDOCK:   -5.62 KCAL/MOL
REMARK 924 INTRA-LIGAND FREE ENERGY PREDICTED BY IDOCK:   -0.53 KCAL/MOL
REMARK 927      BINDING AFFINITY PREDICTED BY RF-SCORE:    0.00 PKD
ROOT
HETATM    1  C   UNL     1     -12.316  10.102  70.991  1.00  0.00    -0.474 C  
HETATM    2  C   UNL     1     -10.942   9.885  70.339  1.00  0.00    -0.318 C  
ENDROOT
BRANCH   2   3
HETATM    3  N   UNL     1     -11.038   9.012  69.146  1.00  0.00    -0.439 NA 
HETATM    4  H   UNL     1     -12.013   8.924  68.856  1.00  0.00     0.000 HD 
BRANCH   3   5
HETATM    5  C   UNL     1     -10.211   9.406  68.005  1.00  0.00    -0.204 C  
BRANCH   5   6
HETATM    6  C   UNL     1     -10.938  10.334  67.021  1.00  0.00    -0.189 C  
BRANCH   6   7
HETATM    7  C   UNL     1     -10.796  11.783  67.411  1.00  0.00    -0.299 A  
HETATM    8  C   UNL     1      -9.559  12.280  67.845  1.00  0.00    -0.203 A  
HETATM    9  C   UNL     1     -10.544  14.443  68.200  1.00  0.00    -0.236 A  
HETATM   10  C   UNL     1      -9.431  13.612  68.237  1.00  0.00    -0.213 A  
HETATM   11  O   UNL     1     -10.468  15.748  68.588  1.00  0.00    -0.219 OA 
HETATM   12  C   UNL     1     -11.777  13.968  67.765  1.00  0.00    -0.403 A  
HETATM   13  H   UNL     1     -11.228  16.316  68.563  1.00  0.00     0.000 HD 
HETATM   14  C   UNL     1     -11.906  12.636  67.373  1.00  0.00    -0.393 A  
ENDBRANCH   6   7
ENDBRANCH   5   6
ENDBRANCH   3   5
ENDBRANCH   2   3
BRANCH   2  15
HETATM   15  C   UNL     1      -9.911   9.255  71.328  1.00  0.00    -0.248 C  
HETATM   16  O   UNL     1      -8.586   9.717  71.026  1.00  0.00    -0.344 OA 
HETATM   17  H   UNL     1      -7.958   9.333  71.628  1.00  0.00     0.000 HD 
BRANCH  15  18
HETATM   18  C   UNL     1      -9.957   7.737  71.364  1.00  0.00    -0.207 A  
HETATM   19  C   UNL     1     -10.970   7.082  72.084  1.00  0.00    -0.267 A  
HETATM   20  C   UNL     1      -9.082   5.570  70.694  1.00  0.00    -0.168 A  
HETATM   21  H   UNL     1      -9.431   3.072  70.987  1.00  0.00     0.000 HD 
HETATM   22  C   UNL     1     -11.028   5.686  72.120  1.00  0.00    -0.307 A  
HETATM   23  C   UNL     1     -10.076   4.943  71.432  1.00  0.00    -0.198 A  
HETATM   24  C   UNL     1      -9.023   6.961  70.658  1.00  0.00    -0.151 A  
HETATM   25  O   UNL     1     -10.082   3.580  71.457  1.00  0.00    -0.142 OA 
ENDBRANCH  15  18
ENDBRANCH   2  15
TORSDOF 6
ENDMDL
MODEL      222
REMARK 921   NORMALIZED FREE ENERGY PREDICTED BY IDOCK:   -3.74 KCAL/MOL
REMARK 922        TOTAL FREE ENERGY PREDICTED BY IDOCK:   -6.10 KCAL/MOL
REMARK 923 INTER-LIGAND FREE ENERGY PREDICTED BY IDOCK:   -5.42 KCAL/MOL
REMARK 924 INTRA-LIGAND FREE ENERGY PREDICTED BY IDOCK:   -0.67 KCAL/MOL
REMARK 927      BINDING AFFINITY PREDICTED BY RF-SCORE:    0.00 PKD
ROOT
HETATM    1  C   UNL     1      -7.013  12.293  68.946  1.00  0.00    -0.098 C  
HETATM    2  C   UNL     1      -7.643  10.939  68.586  1.00  0.00    -0.114 C  
ENDROOT
BRANCH   2   3
HETATM    3  N   UNL     1      -7.314   9.902  69.591  1.00  0.00    -0.098 NA 
HETATM    4  H   UNL     1      -6.502  10.191  70.137  1.00  0.00     0.000 HD 
BRANCH   3   5
HETATM    5  C   UNL     1      -8.406   9.518  70.485  1.00  0.00    -0.163 C  
BRANCH   5   6
HETATM    6  C   UNL     1      -9.658   9.033  69.740  1.00  0.00    -0.182 C  
BRANCH   6   7
HETATM    7  C   UNL     1     -10.875   9.037  70.628  1.00  0.00    -0.295 A  
HETATM    8  C   UNL     1     -11.303   7.853  71.247  1.00  0.00    -0.289 A  
HETATM    9  C   UNL     1     -13.167   9.022  72.213  1.00  0.00    -0.460 A  
HETATM   10  C   UNL     1     -12.447   7.846  72.043  1.00  0.00    -0.338 A  
HETATM   11  O   UNL     1     -14.299   9.057  72.971  1.00  0.00    -1.108 OA 
HETATM   12  C   UNL     1     -12.753  10.207  71.613  1.00  0.00    -0.549 A  
HETATM   13  H   UNL     1     -14.791   9.861  73.088  1.00  0.00     0.000 HD 
HETATM   14  C   UNL     1     -11.609  10.215  70.816  1.00  0.00    -0.445 A  
ENDBRANCH   6   7
ENDBRANCH   5   6
ENDBRANCH   3   5
ENDBRANCH   2   3
BRANCH   2  15
HETATM   15  C   UNL     1      -7.186  10.428  67.183  1.00  0.00    -0.091 C  
HETATM   16  O   UNL     1      -7.455  11.418  66.180  1.00  0.00    -0.355 OA 
HETATM   17  H   UNL     1      -7.176  11.106  65.326  1.00  0.00     0.000 HD 
BRANCH  15  18
HETATM   18  C   UNL     1      -7.796   9.091  66.798  1.00  0.00    -0.104 A  
HETATM   19  C   UNL     1      -7.017   7.923  66.847  1.00  0.00    -0.073 A  
HETATM   20  C   UNL     1      -9.695   7.752  66.083  1.00  0.00    -0.057 A  
HETATM   21  H   UNL     1     -10.384   5.383  65.482  1.00  0.00     0.000 HD 
HETATM   22  C   UNL     1      -7.568   6.686  66.502  1.00  0.00    -0.090 A  
HETATM   23  C   UNL     1      -8.901   6.614  66.112  1.00  0.00    -0.149 A  
HETATM   24  C   UNL     1      -9.147   8.986  66.426  1.00  0.00    -0.213 A  
HETATM   25  O   UNL     1      -9.474   5.432  65.748  1.00  0.00    -0.154 OA 
ENDBRANCH  15  18
ENDBRANCH   2  15
TORSDOF 6
ENDMDL
MODEL      223
REMARK 921   NORMALIZED FREE ENERGY PREDICTED BY IDOCK:   -3.74 KCAL/MOL
REMARK 922        TOTAL FREE ENERGY PREDICTED BY IDOCK:   -6.09 KCAL/MOL
REMARK 923 INTER-LIGAND FREE ENERGY PREDICTED BY IDOCK:   -5.45 KCAL/MOL
REMARK 924 INTRA-LIGAND FREE ENERGY PREDICTED BY IDOCK:   -0.64 KCAL/MOL
REMARK 927      BINDING AFFINITY PREDICTED BY RF-SCORE:    0.00 PKD
ROOT
HETATM    1  C   UNL     1     -10.336  14.999  65.311  1.00  0.00    -0.424 C  
HETATM    2  C   UNL     1     -10.707  15.019  66.801  1.00  0.00    -0.308 C  
ENDROOT
BRANCH   2   3
HETATM    3  N   UNL     1      -9.538  14.711  67.657  1.00  0.00    -0.211 NA 
HETATM    4  H   UNL     1      -9.148  13.804  67.400  1.00  0.00     0.000 HD 
BRANCH   3   5
HETATM    5  C   UNL     1      -8.482  15.723  67.675  1.00  0.00    -0.160 C  
BRANCH   5   6
HETATM    6  C   UNL     1      -7.085  15.146  67.401  1.00  0.00    -0.219 C  
BRANCH   6   7
HETATM    7  C   UNL     1      -6.774  13.981  68.306  1.00  0.00    -0.109 A  
HETATM    8  C   UNL     1      -7.122  12.677  67.924  1.00  0.00    -0.113 A  
HETATM    9  C   UNL     1      -6.266  11.832  70.004  1.00  0.00    -0.136 A  
HETATM   10  C   UNL     1      -6.865  11.601  68.771  1.00  0.00    -0.090 A  
HETATM   11  O   UNL     1      -6.010  10.811  70.870  1.00  0.00    -0.285 OA 
HETATM   12  C   UNL     1      -5.908  13.118  70.395  1.00  0.00    -0.156 A  
HETATM   13  H   UNL     1      -5.601  10.968  71.712  1.00  0.00     0.000 HD 
HETATM   14  C   UNL     1      -6.165  14.195  69.548  1.00  0.00    -0.119 A  
ENDBRANCH   6   7
ENDBRANCH   5   6
ENDBRANCH   3   5
ENDBRANCH   2   3
BRANCH   2  15
HETATM   15  C   UNL     1     -11.846  14.006  67.141  1.00  0.00    -0.411 C  
HETATM   16  O   UNL     1     -12.514  14.394  68.350  1.00  0.00    -0.583 OA 
HETATM   17  H   UNL     1     -13.207  13.777  68.557  1.00  0.00     0.000 HD 
BRANCH  15  18
HETATM   18  C   UNL     1     -11.370  12.566  67.226  1.00  0.00    -0.373 A  
HETATM   19  C   UNL     1     -11.495  11.855  68.431  1.00  0.00    -0.357 A  
HETATM   20  C   UNL     1     -10.407  10.584  66.197  1.00  0.00    -0.276 A  
HETATM   21  H   UNL     1      -9.691   8.199  66.689  1.00  0.00     0.000 HD 
HETATM   22  C   UNL     1     -11.066  10.527  68.521  1.00  0.00    -0.329 A  
HETATM   23  C   UNL     1     -10.516   9.908  67.404  1.00  0.00    -0.267 A  
HETATM   24  C   UNL     1     -10.833  11.907  66.106  1.00  0.00    -0.334 A  
HETATM   25  O   UNL     1     -10.067   8.622  67.452  1.00  0.00    -0.191 OA 
ENDBRANCH  15  18
ENDBRANCH   2  15
TORSDOF 6
ENDMDL
MODEL      224
REMARK 921   NORMALIZED FREE ENERGY PREDICTED BY IDOCK:   -3.73 KCAL/MOL
REMARK 922        TOTAL FREE ENERGY PREDICTED BY IDOCK:   -6.08 KCAL/MOL
REMARK 923 INTER-LIGAND FREE ENERGY PREDICTED BY IDOCK:   -6.19 KCAL/MOL
REMARK 924 INTRA-LIGAND FREE ENERGY PREDICTED BY IDOCK:    0.11 KCAL/MOL
REMARK 927      BINDING AFFINITY PREDICTED BY RF-SCORE:    0.00 PKD
ROOT
HETATM    1  C   UNL     1     -11.877  12.249  69.598  1.00  0.00    -0.393 C  
HETATM    2  C   UNL     1     -10.838  11.175  69.239  1.00  0.00    -0.229 C  
ENDROOT
BRANCH   2   3
HETATM    3  N   UNL     1     -11.332  10.277  68.169  1.00  0.00    -0.527 NA 
HETATM    4  H   UNL     1     -12.076  10.738  67.644  1.00  0.00     0.000 HD 
BRANCH   3   5
HETATM    5  C   UNL     1     -10.314   9.766  67.251  1.00  0.00    -0.248 C  
BRANCH   5   6
HETATM    6  C   UNL     1      -9.741  10.845  66.321  1.00  0.00    -0.245 C  
BRANCH   6   7
HETATM    7  C   UNL     1     -10.756  11.915  66.012  1.00  0.00    -0.326 A  
HETATM    8  C   UNL     1     -11.820  11.648  65.139  1.00  0.00     0.065 A  
HETATM    9  C   UNL     1     -12.595  13.911  65.380  1.00  0.00    -0.507 A  
HETATM   10  C   UNL     1     -12.743  12.645  64.825  1.00  0.00    -0.460 A  
HETATM   11  O   UNL     1     -13.465  14.918  65.090  1.00  0.00     0.095 OA 
HETATM   12  C   UNL     1     -11.549  14.190  66.255  1.00  0.00    -0.379 A  
HETATM   13  H   UNL     1     -13.365  15.783  65.470  1.00  0.00     0.000 HD 
HETATM   14  C   UNL     1     -10.626  13.193  66.569  1.00  0.00    -0.290 A  
ENDBRANCH   6   7
ENDBRANCH   5   6
ENDBRANCH   3   5
ENDBRANCH   2   3
BRANCH   2  15
HETATM   15  C   UNL     1     -10.441  10.301  70.471  1.00  0.00     0.016 C  
HETATM   16  O   UNL     1      -9.178   9.661  70.240  1.00  0.00    -0.242 OA 
HETATM   17  H   UNL     1      -8.936   9.129  70.990  1.00  0.00     0.000 HD 
BRANCH  15  18
HETATM   18  C   UNL     1     -11.500   9.282  70.856  1.00  0.00    -0.367 A  
HETATM   19  C   UNL     1     -12.730   9.711  71.381  1.00  0.00    -0.466 A  
HETATM   20  C   UNL     1     -12.274   6.982  71.015  1.00  0.00    -0.419 A  
HETATM   21  H   UNL     1     -14.231   5.559  71.783  1.00  0.00     0.000 HD 
HETATM   22  C   UNL     1     -13.715   8.784  71.733  1.00  0.00    -0.461 A  
HETATM   23  C   UNL     1     -13.473   7.426  71.556  1.00  0.00    -0.372 A  
HETATM   24  C   UNL     1     -11.292   7.906  70.664  1.00  0.00    -0.267 A  
HETATM   25  O   UNL     1     -14.397   6.486  71.904  1.00  0.00    -0.162 OA 
ENDBRANCH  15  18
ENDBRANCH   2  15
TORSDOF 6
ENDMDL
MODEL      225
REMARK 921   NORMALIZED FREE ENERGY PREDICTED BY IDOCK:   -3.71 KCAL/MOL
REMARK 922        TOTAL FREE ENERGY PREDICTED BY IDOCK:   -6.05 KCAL/MOL
REMARK 923 INTER-LIGAND FREE ENERGY PREDICTED BY IDOCK:   -5.61 KCAL/MOL
REMARK 924 INTRA-LIGAND FREE ENERGY PREDICTED BY IDOCK:   -0.45 KCAL/MOL
REMARK 927      BINDING AFFINITY PREDICTED BY RF-SCORE:    0.00 PKD
ROOT
HETATM    1  C   UNL     1      -8.710   8.854  71.355  1.00  0.00    -0.262 C  
HETATM    2  C   UNL     1      -9.470   8.873  70.020  1.00  0.00    -0.178 C  
ENDROOT
BRANCH   2   3
HETATM    3  N   UNL     1      -9.545   7.522  69.417  1.00  0.00    -0.155 NA 
HETATM    4  H   UNL     1      -8.820   6.924  69.814  1.00  0.00     0.000 HD 
BRANCH   3   5
HETATM    5  C   UNL     1     -10.846   6.860  69.508  1.00  0.00    -0.252 C  
BRANCH   5   6
HETATM    6  C   UNL     1     -11.423   6.850  70.931  1.00  0.00    -0.368 C  
BRANCH   6   7
HETATM    7  C   UNL     1     -10.963   5.648  71.714  1.00  0.00    -0.290 A  
HETATM    8  C   UNL     1      -9.999   4.782  71.177  1.00  0.00    -0.273 A  
HETATM    9  C   UNL     1     -10.160   3.383  73.125  1.00  0.00    -0.144 A  
HETATM   10  C   UNL     1      -9.594   3.651  71.884  1.00  0.00    -0.216 A  
HETATM   11  O   UNL     1      -9.805   2.281  73.843  1.00  0.00    -0.088 OA 
HETATM   12  C   UNL     1     -11.113   4.235  73.674  1.00  0.00    -0.351 A  
HETATM   13  H   UNL     1     -10.192   2.098  74.691  1.00  0.00     0.000 HD 
HETATM   14  C   UNL     1     -11.519   5.367  72.968  1.00  0.00    -0.324 A  
ENDBRANCH   6   7
ENDBRANCH   5   6
ENDBRANCH   3   5
ENDBRANCH   2   3
BRANCH   2  15
HETATM   15  C   UNL     1      -8.817   9.840  68.982  1.00  0.00    -0.153 C  
HETATM   16  O   UNL     1      -7.891  10.720  69.635  1.00  0.00    -0.338 OA 
HETATM   17  H   UNL     1      -7.493  11.308  69.003  1.00  0.00     0.000 HD 
BRANCH  15  18
HETATM   18  C   UNL     1      -9.829  10.629  68.170  1.00  0.00    -0.170 A  
HETATM   19  C   UNL     1     -10.805  11.401  68.822  1.00  0.00    -0.251 A  
HETATM   20  C   UNL     1     -10.722  11.371  66.032  1.00  0.00    -0.318 A  
HETATM   21  H   UNL     1     -12.566  12.770  64.990  1.00  0.00     0.000 HD 
HETATM   22  C   UNL     1     -11.738  12.137  68.086  1.00  0.00    -0.402 A  
HETATM   23  C   UNL     1     -11.693  12.106  66.696  1.00  0.00    -0.313 A  
HETATM   24  C   UNL     1      -9.792  10.636  66.765  1.00  0.00    -0.240 A  
HETATM   25  O   UNL     1     -12.596  12.792  65.939  1.00  0.00    -0.518 OA 
ENDBRANCH  15  18
ENDBRANCH   2  15
TORSDOF 6
ENDMDL
MODEL      226
REMARK 921   NORMALIZED FREE ENERGY PREDICTED BY IDOCK:   -3.70 KCAL/MOL
REMARK 922        TOTAL FREE ENERGY PREDICTED BY IDOCK:   -6.04 KCAL/MOL
REMARK 923 INTER-LIGAND FREE ENERGY PREDICTED BY IDOCK:   -5.52 KCAL/MOL
REMARK 924 INTRA-LIGAND FREE ENERGY PREDICTED BY IDOCK:   -0.52 KCAL/MOL
REMARK 927      BINDING AFFINITY PREDICTED BY RF-SCORE:    0.00 PKD
ROOT
HETATM    1  C   UNL     1     -11.843  14.556  68.352  1.00  0.00    -0.351 C  
HETATM    2  C   UNL     1     -11.727  13.904  66.966  1.00  0.00    -0.397 C  
ENDROOT
BRANCH   2   3
HETATM    3  N   UNL     1     -10.729  12.809  66.962  1.00  0.00    -0.250 NA 
HETATM    4  H   UNL     1      -9.920  13.078  66.401  1.00  0.00     0.000 HD 
BRANCH   3   5
HETATM    5  C   UNL     1     -10.292  12.346  68.279  1.00  0.00    -0.227 C  
BRANCH   5   6
HETATM    6  C   UNL     1      -8.913  11.671  68.257  1.00  0.00    -0.185 C  
BRANCH   6   7
HETATM    7  C   UNL     1      -8.850  10.559  67.243  1.00  0.00    -0.138 A  
HETATM    8  C   UNL     1      -9.818   9.543  67.247  1.00  0.00    -0.228 A  
HETATM    9  C   UNL     1      -8.699   8.459  65.417  1.00  0.00    -0.141 A  
HETATM   10  C   UNL     1      -9.745   8.495  66.331  1.00  0.00    -0.328 A  
HETATM   11  O   UNL     1      -8.582   7.446  64.513  1.00  0.00    -0.365 OA 
HETATM   12  C   UNL     1      -7.735   9.462  65.394  1.00  0.00    -0.103 A  
HETATM   13  H   UNL     1      -7.867   7.421  63.888  1.00  0.00     0.000 HD 
HETATM   14  C   UNL     1      -7.807  10.511  66.310  1.00  0.00    -0.141 A  
ENDBRANCH   6   7
ENDBRANCH   5   6
ENDBRANCH   3   5
ENDBRANCH   2   3
BRANCH   2  15
HETATM   15  C   UNL     1     -11.334  14.933  65.859  1.00  0.00    -0.306 C  
HETATM   16  O   UNL     1     -10.914  14.249  64.670  1.00  0.00    -0.445 OA 
HETATM   17  H   UNL     1     -10.675  14.875  63.996  1.00  0.00     0.000 HD 
BRANCH  15  18
HETATM   18  C   UNL     1     -10.279  15.930  66.308  1.00  0.00    -0.324 A  
HETATM   19  C   UNL     1      -8.921  15.571  66.294  1.00  0.00    -0.362 A  
HETATM   20  C   UNL     1      -9.650  18.139  67.108  1.00  0.00    -0.277 A  
HETATM   21  H   UNL     1      -7.653  19.537  67.815  1.00  0.00     0.000 HD 
HETATM   22  C   UNL     1      -7.941  16.481  66.698  1.00  0.00    -0.320 A  
HETATM   23  C   UNL     1      -8.316  17.755  67.111  1.00  0.00    -0.223 A  
HETATM   24  C   UNL     1     -10.628  17.232  66.706  1.00  0.00    -0.192 A  
HETATM   25  O   UNL     1      -7.396  18.668  67.532  1.00  0.00    -0.217 OA 
ENDBRANCH  15  18
ENDBRANCH   2  15
TORSDOF 6
ENDMDL
MODEL      227
REMARK 921   NORMALIZED FREE ENERGY PREDICTED BY IDOCK:   -3.69 KCAL/MOL
REMARK 922        TOTAL FREE ENERGY PREDICTED BY IDOCK:   -6.03 KCAL/MOL
REMARK 923 INTER-LIGAND FREE ENERGY PREDICTED BY IDOCK:   -5.51 KCAL/MOL
REMARK 924 INTRA-LIGAND FREE ENERGY PREDICTED BY IDOCK:   -0.51 KCAL/MOL
REMARK 927      BINDING AFFINITY PREDICTED BY RF-SCORE:    0.00 PKD
ROOT
HETATM    1  C   UNL     1     -11.780  10.601  70.434  1.00  0.00    -0.446 C  
HETATM    2  C   UNL     1     -10.353  10.102  70.162  1.00  0.00    -0.224 C  
ENDROOT
BRANCH   2   3
HETATM    3  N   UNL     1     -10.072  10.022  68.710  1.00  0.00    -0.176 NA 
HETATM    4  H   UNL     1     -10.840  10.438  68.183  1.00  0.00     0.000 HD 
BRANCH   3   5
HETATM    5  C   UNL     1      -8.799  10.600  68.278  1.00  0.00    -0.139 C  
BRANCH   5   6
HETATM    6  C   UNL     1      -8.831  12.133  68.183  1.00  0.00    -0.187 C  
BRANCH   6   7
HETATM    7  C   UNL     1     -10.018  12.620  67.393  1.00  0.00    -0.204 A  
HETATM    8  C   UNL     1     -10.146  12.291  66.036  1.00  0.00    -0.269 A  
HETATM    9  C   UNL     1     -12.172  13.578  65.908  1.00  0.00    -0.460 A  
HETATM   10  C   UNL     1     -11.226  12.767  65.293  1.00  0.00    -0.328 A  
HETATM   11  O   UNL     1     -13.235  14.076  65.216  1.00  0.00    -0.782 OA 
HETATM   12  C   UNL     1     -12.064  13.908  67.255  1.00  0.00    -0.403 A  
HETATM   13  H   UNL     1     -13.883  14.631  65.636  1.00  0.00     0.000 HD 
HETATM   14  C   UNL     1     -10.984  13.433  67.999  1.00  0.00    -0.265 A  
ENDBRANCH   6   7
ENDBRANCH   5   6
ENDBRANCH   3   5
ENDBRANCH   2   3
BRANCH   2  15
HETATM   15  C   UNL     1     -10.087   8.698  70.792  1.00  0.00    -0.198 C  
HETATM   16  O   UNL     1      -8.956   8.754  71.674  1.00  0.00    -0.217 OA 
HETATM   17  H   UNL     1      -8.795   7.899  72.058  1.00  0.00     0.000 HD 
BRANCH  15  18
HETATM   18  C   UNL     1      -9.913   7.595  69.762  1.00  0.00    -0.184 A  
HETATM   19  C   UNL     1     -11.026   7.116  69.051  1.00  0.00    -0.122 A  
HETATM   20  C   UNL     1      -8.500   6.055  68.519  1.00  0.00    -0.113 A  
HETATM   21  H   UNL     1      -8.568   4.218  66.768  1.00  0.00     0.000 HD 
HETATM   22  C   UNL     1     -10.878   6.107  68.096  1.00  0.00    -0.389 A  
HETATM   23  C   UNL     1      -9.617   5.578  67.846  1.00  0.00    -0.124 A  
HETATM   24  C   UNL     1      -8.646   7.061  69.472  1.00  0.00    -0.134 A  
HETATM   25  O   UNL     1      -9.430   4.579  66.938  1.00  0.00    -0.149 OA 
ENDBRANCH  15  18
ENDBRANCH   2  15
TORSDOF 6
ENDMDL
MODEL      228
REMARK 921   NORMALIZED FREE ENERGY PREDICTED BY IDOCK:   -3.68 KCAL/MOL
REMARK 922        TOTAL FREE ENERGY PREDICTED BY IDOCK:   -6.02 KCAL/MOL
REMARK 923 INTER-LIGAND FREE ENERGY PREDICTED BY IDOCK:   -5.15 KCAL/MOL
REMARK 924 INTRA-LIGAND FREE ENERGY PREDICTED BY IDOCK:   -0.86 KCAL/MOL
REMARK 927      BINDING AFFINITY PREDICTED BY RF-SCORE:    0.00 PKD
ROOT
HETATM    1  C   UNL     1      -8.447   9.378  66.287  1.00  0.00    -0.133 C  
HETATM    2  C   UNL     1      -9.310  10.431  66.998  1.00  0.00    -0.154 C  
ENDROOT
BRANCH   2   3
HETATM    3  N   UNL     1     -10.353   9.800  67.841  1.00  0.00    -0.198 NA 
HETATM    4  H   UNL     1     -10.896   9.139  67.286  1.00  0.00     0.000 HD 
BRANCH   3   5
HETATM    5  C   UNL     1      -9.874   9.152  69.062  1.00  0.00    -0.174 C  
BRANCH   5   6
HETATM    6  C   UNL     1     -10.512   7.778  69.309  1.00  0.00    -0.221 C  
BRANCH   6   7
HETATM    7  C   UNL     1     -10.047   6.756  68.304  1.00  0.00    -0.173 A  
HETATM    8  C   UNL     1     -10.925   6.286  67.316  1.00  0.00    -0.455 A  
HETATM    9  C   UNL     1      -9.216   4.813  66.487  1.00  0.00    -0.133 A  
HETATM   10  C   UNL     1     -10.508   5.317  66.405  1.00  0.00    -0.347 A  
HETATM   11  O   UNL     1      -8.772   3.855  65.626  1.00  0.00    -0.112 OA 
HETATM   12  C   UNL     1      -8.330   5.274  67.456  1.00  0.00    -0.106 A  
HETATM   13  H   UNL     1      -7.888   3.511  65.682  1.00  0.00     0.000 HD 
HETATM   14  C   UNL     1      -8.745   6.243  68.369  1.00  0.00    -0.116 A  
ENDBRANCH   6   7
ENDBRANCH   5   6
ENDBRANCH   3   5
ENDBRANCH   2   3
BRANCH   2  15
HETATM   15  C   UNL     1     -10.010  11.400  65.993  1.00  0.00    -0.231 C  
HETATM   16  O   UNL     1      -9.179  11.610  64.843  1.00  0.00    -0.410 OA 
HETATM   17  H   UNL     1      -9.605  12.200  64.231  1.00  0.00     0.000 HD 
BRANCH  15  18
HETATM   18  C   UNL     1     -10.415  12.726  66.614  1.00  0.00    -0.270 A  
HETATM   19  C   UNL     1     -11.771  13.089  66.674  1.00  0.00    -0.438 A  
HETATM   20  C   UNL     1      -9.846  14.803  67.745  1.00  0.00    -0.214 A  
HETATM   21  H   UNL     1     -10.857  16.937  68.676  1.00  0.00     0.000 HD 
HETATM   22  C   UNL     1     -12.158  14.303  67.248  1.00  0.00    -0.390 A  
HETATM   23  C   UNL     1     -11.189  15.154  67.770  1.00  0.00    -0.323 A  
HETATM   24  C   UNL     1      -9.460  13.593  67.171  1.00  0.00    -0.244 A  
HETATM   25  O   UNL     1     -11.519  16.356  68.321  1.00  0.00    -0.312 OA 
ENDBRANCH  15  18
ENDBRANCH   2  15
TORSDOF 6
ENDMDL
MODEL      229
REMARK 921   NORMALIZED FREE ENERGY PREDICTED BY IDOCK:   -3.68 KCAL/MOL
REMARK 922        TOTAL FREE ENERGY PREDICTED BY IDOCK:   -6.02 KCAL/MOL
REMARK 923 INTER-LIGAND FREE ENERGY PREDICTED BY IDOCK:   -5.68 KCAL/MOL
REMARK 924 INTRA-LIGAND FREE ENERGY PREDICTED BY IDOCK:   -0.34 KCAL/MOL
REMARK 927      BINDING AFFINITY PREDICTED BY RF-SCORE:    0.00 PKD
ROOT
HETATM    1  C   UNL     1      -6.273  11.526  70.086  1.00  0.00    -0.132 C  
HETATM    2  C   UNL     1      -7.168  11.268  68.864  1.00  0.00    -0.112 C  
ENDROOT
BRANCH   2   3
HETATM    3  N   UNL     1      -8.286  12.237  68.795  1.00  0.00    -0.343 NA 
HETATM    4  H   UNL     1      -8.813  12.224  69.668  1.00  0.00     0.000 HD 
BRANCH   3   5
HETATM    5  C   UNL     1      -7.913  13.612  68.457  1.00  0.00    -0.127 C  
BRANCH   5   6
HETATM    6  C   UNL     1      -8.153  13.960  66.981  1.00  0.00    -0.016 C  
BRANCH   6   7
HETATM    7  C   UNL     1      -9.621  13.975  66.642  1.00  0.00    -0.299 A  
HETATM    8  C   UNL     1     -10.119  13.155  65.618  1.00  0.00    -0.279 A  
HETATM    9  C   UNL     1     -12.322  14.052  65.959  1.00  0.00    -0.473 A  
HETATM   10  C   UNL     1     -11.470  13.190  65.279  1.00  0.00    -0.328 A  
HETATM   11  O   UNL     1     -13.647  14.129  65.651  1.00  0.00    -0.671 OA 
HETATM   12  C   UNL     1     -11.847  14.867  66.982  1.00  0.00    -0.216 A  
HETATM   13  H   UNL     1     -14.230  14.718  66.116  1.00  0.00     0.000 HD 
HETATM   14  C   UNL     1     -10.495  14.833  67.322  1.00  0.00    -0.264 A  
ENDBRANCH   6   7
ENDBRANCH   5   6
ENDBRANCH   3   5
ENDBRANCH   2   3
BRANCH   2  15
HETATM   15  C   UNL     1      -7.766   9.826  68.863  1.00  0.00    -0.082 C  
HETATM   16  O   UNL     1      -8.074   9.416  67.523  1.00  0.00    -0.108 OA 
HETATM   17  H   UNL     1      -8.438   8.538  67.522  1.00  0.00     0.000 HD 
BRANCH  15  18
HETATM   18  C   UNL     1      -8.978   9.673  69.766  1.00  0.00    -0.226 A  
HETATM   19  C   UNL     1      -8.836   9.103  71.042  1.00  0.00    -0.267 A  
HETATM   20  C   UNL     1     -11.349   9.986  70.208  1.00  0.00    -0.376 A  
HETATM   21  H   UNL     1     -13.153   9.557  71.942  1.00  0.00     0.000 HD 
HETATM   22  C   UNL     1      -9.942   8.962  71.885  1.00  0.00    -0.384 A  
HETATM   23  C   UNL     1     -11.191   9.397  71.455  1.00  0.00    -0.381 A  
HETATM   24  C   UNL     1     -10.247  10.126  69.367  1.00  0.00    -0.246 A  
HETATM   25  O   UNL     1     -12.300   9.261  72.235  1.00  0.00    -0.344 OA 
ENDBRANCH  15  18
ENDBRANCH   2  15
TORSDOF 6
ENDMDL
MODEL      230
REMARK 921   NORMALIZED FREE ENERGY PREDICTED BY IDOCK:   -3.67 KCAL/MOL
REMARK 922        TOTAL FREE ENERGY PREDICTED BY IDOCK:   -6.00 KCAL/MOL
REMARK 923 INTER-LIGAND FREE ENERGY PREDICTED BY IDOCK:   -4.86 KCAL/MOL
REMARK 924 INTRA-LIGAND FREE ENERGY PREDICTED BY IDOCK:   -1.14 KCAL/MOL
REMARK 927      BINDING AFFINITY PREDICTED BY RF-SCORE:    0.00 PKD
ROOT
HETATM    1  C   UNL     1      -6.224  14.257  70.292  1.00  0.00    -0.163 C  
HETATM    2  C   UNL     1      -6.513  14.506  68.804  1.00  0.00    -0.089 C  
ENDROOT
BRANCH   2   3
HETATM    3  N   UNL     1      -5.584  13.747  67.935  1.00  0.00    -0.193 NA 
HETATM    4  H   UNL     1      -4.625  13.864  68.265  1.00  0.00     0.000 HD 
BRANCH   3   5
HETATM    5  C   UNL     1      -5.887  12.325  67.773  1.00  0.00    -0.098 C  
BRANCH   5   6
HETATM    6  C   UNL     1      -6.868  12.041  66.627  1.00  0.00     0.154 C  
BRANCH   6   7
HETATM    7  C   UNL     1      -8.222  11.621  67.139  1.00  0.00    -0.165 A  
HETATM    8  C   UNL     1      -8.350  11.064  68.420  1.00  0.00    -0.139 A  
HETATM    9  C   UNL     1     -10.710  10.776  68.066  1.00  0.00    -0.228 A  
HETATM   10  C   UNL     1      -9.595  10.644  68.886  1.00  0.00    -0.204 A  
HETATM   11  O   UNL     1     -11.943  10.366  68.475  1.00  0.00    -0.747 OA 
HETATM   12  C   UNL     1     -10.601  11.334  66.796  1.00  0.00    -0.305 A  
HETATM   13  H   UNL     1     -12.705  10.456  67.915  1.00  0.00     0.000 HD 
HETATM   14  C   UNL     1      -9.356  11.753  66.329  1.00  0.00    -0.235 A  
ENDBRANCH   6   7
ENDBRANCH   5   6
ENDBRANCH   3   5
ENDBRANCH   2   3
BRANCH   2  15
HETATM   15  C   UNL     1      -6.415  16.018  68.427  1.00  0.00    -0.120 C  
HETATM   16  O   UNL     1      -6.240  16.815  69.607  1.00  0.00    -0.216 OA 
HETATM   17  H   UNL     1      -6.180  17.736  69.378  1.00  0.00     0.000 HD 
BRANCH  15  18
HETATM   18  C   UNL     1      -7.595  16.516  67.610  1.00  0.00    -0.165 A  
HETATM   19  C   UNL     1      -7.986  17.863  67.689  1.00  0.00    -0.219 A  
HETATM   20  C   UNL     1      -9.367  16.133  65.989  1.00  0.00    -0.368 A  
HETATM   21  H   UNL     1     -11.293  17.277  64.795  1.00  0.00     0.000 HD 
HETATM   22  C   UNL     1      -9.066  18.335  66.938  1.00  0.00    -0.282 A  
HETATM   23  C   UNL     1      -9.753  17.461  66.102  1.00  0.00    -0.217 A  
HETATM   24  C   UNL     1      -8.291  15.661  66.738  1.00  0.00    -0.313 A  
HETATM   25  O   UNL     1     -10.824  17.873  65.366  1.00  0.00    -0.548 OA 
ENDBRANCH  15  18
ENDBRANCH   2  15
TORSDOF 6
ENDMDL
MODEL      231
REMARK 921   NORMALIZED FREE ENERGY PREDICTED BY IDOCK:   -3.66 KCAL/MOL
REMARK 922        TOTAL FREE ENERGY PREDICTED BY IDOCK:   -5.98 KCAL/MOL
REMARK 923 INTER-LIGAND FREE ENERGY PREDICTED BY IDOCK:   -5.57 KCAL/MOL
REMARK 924 INTRA-LIGAND FREE ENERGY PREDICTED BY IDOCK:   -0.42 KCAL/MOL
REMARK 927      BINDING AFFINITY PREDICTED BY RF-SCORE:    0.00 PKD
ROOT
HETATM    1  C   UNL     1      -6.916   8.940  68.619  1.00  0.00    -0.064 C  
HETATM    2  C   UNL     1      -6.574  10.118  69.544  1.00  0.00    -0.060 C  
ENDROOT
BRANCH   2   3
HETATM    3  N   UNL     1      -7.321  10.041  70.821  1.00  0.00    -0.394 NA 
HETATM    4  H   UNL     1      -8.050  10.755  70.842  1.00  0.00     0.000 HD 
BRANCH   3   5
HETATM    5  C   UNL     1      -7.893   8.734  71.142  1.00  0.00    -0.134 C  
BRANCH   5   6
HETATM    6  C   UNL     1      -8.802   8.757  72.380  1.00  0.00    -0.049 C  
BRANCH   6   7
HETATM    7  C   UNL     1     -10.223   8.389  72.039  1.00  0.00    -0.364 A  
HETATM    8  C   UNL     1     -10.674   7.073  72.218  1.00  0.00    -0.250 A  
HETATM    9  C   UNL     1     -12.827   7.685  71.342  1.00  0.00    -0.319 A  
HETATM   10  C   UNL     1     -11.978   6.721  71.874  1.00  0.00    -0.374 A  
HETATM   11  O   UNL     1     -14.105   7.381  70.978  1.00  0.00    -0.640 OA 
HETATM   12  C   UNL     1     -12.398   8.996  71.165  1.00  0.00    -0.306 A  
HETATM   13  H   UNL     1     -14.685   8.039  70.615  1.00  0.00     0.000 HD 
HETATM   14  C   UNL     1     -11.093   9.349  71.509  1.00  0.00    -0.446 A  
ENDBRANCH   6   7
ENDBRANCH   5   6
ENDBRANCH   3   5
ENDBRANCH   2   3
BRANCH   2  15
HETATM   15  C   UNL     1      -6.877  11.499  68.879  1.00  0.00    -0.095 C  
HETATM   16  O   UNL     1      -6.723  12.556  69.836  1.00  0.00    -0.352 OA 
HETATM   17  H   UNL     1      -6.907  13.397  69.431  1.00  0.00     0.000 HD 
BRANCH  15  18
HETATM   18  C   UNL     1      -8.243  11.565  68.218  1.00  0.00    -0.152 A  
HETATM   19  C   UNL     1      -9.369  11.045  68.878  1.00  0.00    -0.155 A  
HETATM   20  C   UNL     1      -9.679  12.236  66.373  1.00  0.00    -0.243 A  
HETATM   21  H   UNL     1     -12.079  12.156  65.549  1.00  0.00     0.000 HD 
HETATM   22  C   UNL     1     -10.633  11.106  68.283  1.00  0.00    -0.221 A  
HETATM   23  C   UNL     1     -10.773  11.692  67.030  1.00  0.00    -0.253 A  
HETATM   24  C   UNL     1      -8.418  12.175  66.964  1.00  0.00    -0.183 A  
HETATM   25  O   UNL     1     -11.983  11.756  66.405  1.00  0.00    -0.515 OA 
ENDBRANCH  15  18
ENDBRANCH   2  15
TORSDOF 6
ENDMDL
MODEL      232
REMARK 921   NORMALIZED FREE ENERGY PREDICTED BY IDOCK:   -3.66 KCAL/MOL
REMARK 922        TOTAL FREE ENERGY PREDICTED BY IDOCK:   -5.98 KCAL/MOL
REMARK 923 INTER-LIGAND FREE ENERGY PREDICTED BY IDOCK:   -5.38 KCAL/MOL
REMARK 924 INTRA-LIGAND FREE ENERGY PREDICTED BY IDOCK:   -0.60 KCAL/MOL
REMARK 927      BINDING AFFINITY PREDICTED BY RF-SCORE:    0.00 PKD
ROOT
HETATM    1  C   UNL     1      -9.468  10.136  70.051  1.00  0.00    -0.086 C  
HETATM    2  C   UNL     1     -10.692   9.376  69.519  1.00  0.00    -0.222 C  
ENDROOT
BRANCH   2   3
HETATM    3  N   UNL     1     -11.875  10.260  69.406  1.00  0.00    -0.488 NA 
HETATM    4  H   UNL     1     -12.495  10.117  70.204  1.00  0.00     0.000 HD 
BRANCH   3   5
HETATM    5  C   UNL     1     -11.587  11.686  69.248  1.00  0.00    -0.320 C  
BRANCH   5   6
HETATM    6  C   UNL     1     -11.893  12.213  67.838  1.00  0.00    -0.338 C  
BRANCH   6   7
HETATM    7  C   UNL     1     -11.142  13.485  67.541  1.00  0.00    -0.293 A  
HETATM    8  C   UNL     1     -11.520  14.292  66.458  1.00  0.00    -0.368 A  
HETATM    9  C   UNL     1      -9.714  15.802  66.942  1.00  0.00    -0.230 A  
HETATM   10  C   UNL     1     -10.809  15.453  66.160  1.00  0.00    -0.313 A  
HETATM   11  O   UNL     1      -8.981  16.920  66.678  1.00  0.00    -0.224 OA 
HETATM   12  C   UNL     1      -9.330  15.017  68.025  1.00  0.00    -0.185 A  
HETATM   13  H   UNL     1      -8.233  17.159  67.213  1.00  0.00     0.000 HD 
HETATM   14  C   UNL     1     -10.041  13.855  68.323  1.00  0.00    -0.241 A  
ENDBRANCH   6   7
ENDBRANCH   5   6
ENDBRANCH   3   5
ENDBRANCH   2   3
BRANCH   2  15
HETATM   15  C   UNL     1     -11.072   8.159  70.421  1.00  0.00    -0.239 C  
HETATM   16  O   UNL     1     -10.540   8.334  71.742  1.00  0.00    -0.226 OA 
HETATM   17  H   UNL     1     -10.772   7.593  72.292  1.00  0.00     0.000 HD 
BRANCH  15  18
HETATM   18  C   UNL     1     -10.647   6.821  69.842  1.00  0.00    -0.257 A  
HETATM   19  C   UNL     1     -10.641   6.627  68.451  1.00  0.00    -0.289 A  
HETATM   20  C   UNL     1      -9.825   4.549  70.126  1.00  0.00    -0.296 A  
HETATM   21  H   UNL     1      -9.209   2.450  68.839  1.00  0.00     0.000 HD 
HETATM   22  C   UNL     1     -10.246   5.402  67.905  1.00  0.00    -0.219 A  
HETATM   23  C   UNL     1      -9.851   4.371  68.750  1.00  0.00    -0.079 A  
HETATM   24  C   UNL     1     -10.220   5.770  70.671  1.00  0.00    -0.280 A  
HETATM   25  O   UNL     1      -9.478   3.154  68.262  1.00  0.00    -0.193 OA 
ENDBRANCH  15  18
ENDBRANCH   2  15
TORSDOF 6
ENDMDL
MODEL      233
REMARK 921   NORMALIZED FREE ENERGY PREDICTED BY IDOCK:   -3.64 KCAL/MOL
REMARK 922        TOTAL FREE ENERGY PREDICTED BY IDOCK:   -5.96 KCAL/MOL
REMARK 923 INTER-LIGAND FREE ENERGY PREDICTED BY IDOCK:   -4.88 KCAL/MOL
REMARK 924 INTRA-LIGAND FREE ENERGY PREDICTED BY IDOCK:   -1.08 KCAL/MOL
REMARK 927      BINDING AFFINITY PREDICTED BY RF-SCORE:    0.00 PKD
ROOT
HETATM    1  C   UNL     1     -11.396   9.380  71.948  1.00  0.00    -0.276 C  
HETATM    2  C   UNL     1     -11.012   7.902  71.777  1.00  0.00    -0.243 C  
ENDROOT
BRANCH   2   3
HETATM    3  N   UNL     1     -12.156   7.096  71.290  1.00  0.00    -0.330 NA 
HETATM    4  H   UNL     1     -13.013   7.648  71.331  1.00  0.00     0.000 HD 
BRANCH   3   5
HETATM    5  C   UNL     1     -12.000   6.515  69.956  1.00  0.00    -0.065 C  
BRANCH   5   6
HETATM    6  C   UNL     1     -10.568   6.623  69.413  1.00  0.00    -0.279 C  
BRANCH   6   7
HETATM    7  C   UNL     1     -10.291   5.586  68.355  1.00  0.00    -0.243 A  
HETATM    8  C   UNL     1     -10.705   5.799  67.032  1.00  0.00    -0.369 A  
HETATM    9  C   UNL     1      -9.847   3.643  66.408  1.00  0.00     0.019 A  
HETATM   10  C   UNL     1     -10.480   4.829  66.056  1.00  0.00    -0.332 A  
HETATM   11  O   UNL     1      -9.620   2.661  65.490  1.00  0.00    -0.354 OA 
HETATM   12  C   UNL     1      -9.424   3.418  67.714  1.00  0.00    -0.229 A  
HETATM   13  H   UNL     1      -9.188   1.850  65.730  1.00  0.00     0.000 HD 
HETATM   14  C   UNL     1      -9.649   4.388  68.690  1.00  0.00    -0.216 A  
ENDBRANCH   6   7
ENDBRANCH   5   6
ENDBRANCH   3   5
ENDBRANCH   2   3
BRANCH   2  15
HETATM   15  C   UNL     1     -10.494   7.268  73.106  1.00  0.00    -0.339 C  
HETATM   16  O   UNL     1      -9.365   8.002  73.602  1.00  0.00    -0.270 OA 
HETATM   17  H   UNL     1      -9.050   7.616  74.411  1.00  0.00     0.000 HD 
BRANCH  15  18
HETATM   18  C   UNL     1     -10.164   5.790  72.983  1.00  0.00    -0.209 A  
HETATM   19  C   UNL     1     -11.096   4.825  73.398  1.00  0.00    -0.422 A  
HETATM   20  C   UNL     1      -8.662   4.000  72.309  1.00  0.00    -0.118 A  
HETATM   21  H   UNL     1      -8.422   1.473  72.273  1.00  0.00     0.000 HD 
HETATM   22  C   UNL     1     -10.807   3.462  73.284  1.00  0.00    -0.287 A  
HETATM   23  C   UNL     1      -9.587   3.063  72.749  1.00  0.00    -0.111 A  
HETATM   24  C   UNL     1      -8.949   5.358  72.423  1.00  0.00    -0.139 A  
HETATM   25  O   UNL     1      -9.255   1.745  72.638  1.00  0.00    -0.071 OA 
ENDBRANCH  15  18
ENDBRANCH   2  15
TORSDOF 6
ENDMDL
MODEL      234
REMARK 921   NORMALIZED FREE ENERGY PREDICTED BY IDOCK:   -3.62 KCAL/MOL
REMARK 922        TOTAL FREE ENERGY PREDICTED BY IDOCK:   -5.94 KCAL/MOL
REMARK 923 INTER-LIGAND FREE ENERGY PREDICTED BY IDOCK:   -5.22 KCAL/MOL
REMARK 924 INTRA-LIGAND FREE ENERGY PREDICTED BY IDOCK:   -0.71 KCAL/MOL
REMARK 927      BINDING AFFINITY PREDICTED BY RF-SCORE:    0.00 PKD
ROOT
HETATM    1  C   UNL     1     -11.802  11.823  67.984  1.00  0.00    -0.304 C  
HETATM    2  C   UNL     1     -10.487  11.028  67.998  1.00  0.00    -0.189 C  
ENDROOT
BRANCH   2   3
HETATM    3  N   UNL     1      -9.816  11.110  69.316  1.00  0.00    -0.423 NA 
HETATM    4  H   UNL     1     -10.348  11.716  69.941  1.00  0.00     0.000 HD 
BRANCH   3   5
HETATM    5  C   UNL     1      -9.547   9.829  69.970  1.00  0.00    -0.241 C  
BRANCH   5   6
HETATM    6  C   UNL     1     -10.728   8.851  69.895  1.00  0.00    -0.236 C  
BRANCH   6   7
HETATM    7  C   UNL     1     -10.711   7.864  71.034  1.00  0.00    -0.239 A  
HETATM    8  C   UNL     1     -10.878   6.494  70.784  1.00  0.00    -0.311 A  
HETATM    9  C   UNL     1     -10.754   6.042  73.141  1.00  0.00    -0.260 A  
HETATM   10  C   UNL     1     -10.895   5.582  71.838  1.00  0.00    -0.286 A  
HETATM   11  O   UNL     1     -10.779   5.186  74.202  1.00  0.00    -0.287 OA 
HETATM   12  C   UNL     1     -10.581   7.397  73.406  1.00  0.00    -0.427 A  
HETATM   13  H   UNL     1     -10.682   5.501  75.093  1.00  0.00     0.000 HD 
HETATM   14  C   UNL     1     -10.563   8.311  72.353  1.00  0.00    -0.408 A  
ENDBRANCH   6   7
ENDBRANCH   5   6
ENDBRANCH   3   5
ENDBRANCH   2   3
BRANCH   2  15
HETATM   15  C   UNL     1      -9.487  11.522  66.905  1.00  0.00    -0.182 C  
HETATM   16  O   UNL     1     -10.036  12.641  66.196  1.00  0.00    -0.252 OA 
HETATM   17  H   UNL     1      -9.427  12.941  65.531  1.00  0.00     0.000 HD 
BRANCH  15  18
HETATM   18  C   UNL     1      -9.059  10.429  65.940  1.00  0.00    -0.192 A  
HETATM   19  C   UNL     1      -8.949  10.708  64.567  1.00  0.00    -0.214 A  
HETATM   20  C   UNL     1      -8.332   8.151  65.499  1.00  0.00    -0.160 A  
HETATM   21  H   UNL     1      -7.680   6.566  63.626  1.00  0.00     0.000 HD 
HETATM   22  C   UNL     1      -8.550   9.713  63.670  1.00  0.00    -0.216 A  
HETATM   23  C   UNL     1      -8.255   8.440  64.144  1.00  0.00    -0.119 A  
HETATM   24  C   UNL     1      -8.730   9.141  66.395  1.00  0.00    -0.147 A  
HETATM   25  O   UNL     1      -7.881   7.435  63.303  1.00  0.00    -0.129 OA 
ENDBRANCH  15  18
ENDBRANCH   2  15
TORSDOF 6
ENDMDL
MODEL      235
REMARK 921   NORMALIZED FREE ENERGY PREDICTED BY IDOCK:   -3.62 KCAL/MOL
REMARK 922        TOTAL FREE ENERGY PREDICTED BY IDOCK:   -5.93 KCAL/MOL
REMARK 923 INTER-LIGAND FREE ENERGY PREDICTED BY IDOCK:   -5.59 KCAL/MOL
REMARK 924 INTRA-LIGAND FREE ENERGY PREDICTED BY IDOCK:   -0.33 KCAL/MOL
REMARK 927      BINDING AFFINITY PREDICTED BY RF-SCORE:    0.00 PKD
ROOT
HETATM    1  C   UNL     1      -7.532   9.314  64.821  1.00  0.00    -0.104 C  
HETATM    2  C   UNL     1      -8.476  10.269  65.567  1.00  0.00    -0.162 C  
ENDROOT
BRANCH   2   3
HETATM    3  N   UNL     1      -8.629   9.881  66.989  1.00  0.00    -0.128 NA 
HETATM    4  H   UNL     1      -9.239   9.067  67.064  1.00  0.00     0.000 HD 
BRANCH   3   5
HETATM    5  C   UNL     1      -7.384   9.642  67.718  1.00  0.00    -0.086 C  
BRANCH   5   6
HETATM    6  C   UNL     1      -7.416   8.364  68.569  1.00  0.00    -0.094 C  
BRANCH   6   7
HETATM    7  C   UNL     1      -8.508   8.409  69.605  1.00  0.00    -0.127 A  
HETATM    8  C   UNL     1      -9.812   8.008  69.276  1.00  0.00    -0.178 A  
HETATM    9  C   UNL     1     -10.549   8.558  71.497  1.00  0.00    -0.263 A  
HETATM   10  C   UNL     1     -10.832   8.079  70.223  1.00  0.00    -0.241 A  
HETATM   11  O   UNL     1     -11.519   8.657  72.449  1.00  0.00    -0.363 OA 
HETATM   12  C   UNL     1      -9.260   8.952  71.842  1.00  0.00    -0.240 A  
HETATM   13  H   UNL     1     -11.326   8.984  73.319  1.00  0.00     0.000 HD 
HETATM   14  C   UNL     1      -8.239   8.883  70.895  1.00  0.00    -0.207 A  
ENDBRANCH   6   7
ENDBRANCH   5   6
ENDBRANCH   3   5
ENDBRANCH   2   3
BRANCH   2  15
HETATM   15  C   UNL     1      -9.895  10.326  64.917  1.00  0.00    -0.336 C  
HETATM   16  O   UNL     1      -9.888   9.655  63.648  1.00  0.00    -0.413 OA 
HETATM   17  H   UNL     1     -10.752   9.690  63.253  1.00  0.00     0.000 HD 
BRANCH  15  18
HETATM   18  C   UNL     1     -10.440  11.736  64.778  1.00  0.00    -0.341 A  
HETATM   19  C   UNL     1      -9.858  12.790  65.502  1.00  0.00    -0.169 A  
HETATM   20  C   UNL     1     -11.988  13.326  63.781  1.00  0.00    -0.551 A  
HETATM   21  H   UNL     1     -12.665  15.772  63.807  1.00  0.00     0.000 HD 
HETATM   22  C   UNL     1     -10.346  14.094  65.379  1.00  0.00    -0.384 A  
HETATM   23  C   UNL     1     -11.414  14.347  64.526  1.00  0.00    -0.345 A  
HETATM   24  C   UNL     1     -11.502  12.026  63.904  1.00  0.00    -0.518 A  
HETATM   25  O   UNL     1     -11.936  15.599  64.389  1.00  0.00    -0.343 OA 
ENDBRANCH  15  18
ENDBRANCH   2  15
TORSDOF 6
ENDMDL
MODEL      236
REMARK 921   NORMALIZED FREE ENERGY PREDICTED BY IDOCK:   -3.57 KCAL/MOL
REMARK 922        TOTAL FREE ENERGY PREDICTED BY IDOCK:   -5.87 KCAL/MOL
REMARK 923 INTER-LIGAND FREE ENERGY PREDICTED BY IDOCK:   -5.56 KCAL/MOL
REMARK 924 INTRA-LIGAND FREE ENERGY PREDICTED BY IDOCK:   -0.31 KCAL/MOL
REMARK 927      BINDING AFFINITY PREDICTED BY RF-SCORE:    0.00 PKD
ROOT
HETATM    1  C   UNL     1     -10.815  18.815  67.046  1.00  0.00    -0.343 C  
HETATM    2  C   UNL     1      -9.699  17.781  66.832  1.00  0.00    -0.300 C  
ENDROOT
BRANCH   2   3
HETATM    3  N   UNL     1      -9.540  16.901  68.014  1.00  0.00    -0.242 NA 
HETATM    4  H   UNL     1      -8.717  17.182  68.548  1.00  0.00     0.000 HD 
BRANCH   3   5
HETATM    5  C   UNL     1     -10.702  16.810  68.897  1.00  0.00    -0.333 C  
BRANCH   5   6
HETATM    6  C   UNL     1     -11.489  15.502  68.729  1.00  0.00    -0.363 C  
BRANCH   6   7
HETATM    7  C   UNL     1     -10.695  14.463  67.981  1.00  0.00    -0.244 A  
HETATM    8  C   UNL     1      -9.631  13.798  68.609  1.00  0.00    -0.121 A  
HETATM    9  C   UNL     1      -9.176  12.593  66.580  1.00  0.00    -0.218 A  
HETATM   10  C   UNL     1      -8.873  12.860  67.910  1.00  0.00    -0.190 A  
HETATM   11  O   UNL     1      -8.452  11.694  65.855  1.00  0.00    -0.371 OA 
HETATM   12  C   UNL     1     -10.232  13.237  65.944  1.00  0.00    -0.295 A  
HETATM   13  H   UNL     1      -8.659  11.511  64.946  1.00  0.00     0.000 HD 
HETATM   14  C   UNL     1     -10.991  14.176  66.642  1.00  0.00    -0.303 A  
ENDBRANCH   6   7
ENDBRANCH   5   6
ENDBRANCH   3   5
ENDBRANCH   2   3
BRANCH   2  15
HETATM   15  C   UNL     1      -8.322  18.452  66.529  1.00  0.00    -0.272 C  
HETATM   16  O   UNL     1      -7.574  17.655  65.599  1.00  0.00    -0.521 OA 
HETATM   17  H   UNL     1      -6.736  18.063  65.414  1.00  0.00     0.000 HD 
BRANCH  15  18
HETATM   18  C   UNL     1      -7.501  18.739  67.774  1.00  0.00    -0.245 A  
HETATM   19  C   UNL     1      -6.353  17.978  68.050  1.00  0.00    -0.183 A  
HETATM   20  C   UNL     1      -7.078  20.041  69.785  1.00  0.00    -0.044 A  
HETATM   21  H   UNL     1      -5.512  20.233  71.774  1.00  0.00     0.000 HD 
HETATM   22  C   UNL     1      -5.586  18.236  69.190  1.00  0.00    -0.206 A  
HETATM   23  C   UNL     1      -5.962  19.260  70.052  1.00  0.00    -0.252 A  
HETATM   24  C   UNL     1      -7.844  19.784  68.649  1.00  0.00    -0.284 A  
HETATM   25  O   UNL     1      -5.255  19.534  71.184  1.00  0.00    -0.227 OA 
ENDBRANCH  15  18
ENDBRANCH   2  15
TORSDOF 6
ENDMDL
MODEL      237
REMARK 921   NORMALIZED FREE ENERGY PREDICTED BY IDOCK:   -3.56 KCAL/MOL
REMARK 922        TOTAL FREE ENERGY PREDICTED BY IDOCK:   -5.86 KCAL/MOL
REMARK 923 INTER-LIGAND FREE ENERGY PREDICTED BY IDOCK:   -6.25 KCAL/MOL
REMARK 924 INTRA-LIGAND FREE ENERGY PREDICTED BY IDOCK:    0.40 KCAL/MOL
REMARK 927      BINDING AFFINITY PREDICTED BY RF-SCORE:    0.00 PKD
ROOT
HETATM    1  C   UNL     1      -8.405   8.109  65.450  1.00  0.00    -0.163 C  
HETATM    2  C   UNL     1      -8.980   9.415  66.020  1.00  0.00    -0.168 C  
ENDROOT
BRANCH   2   3
HETATM    3  N   UNL     1      -9.700   9.181  67.294  1.00  0.00    -0.163 NA 
HETATM    4  H   UNL     1     -10.614   8.769  67.107  1.00  0.00     0.000 HD 
BRANCH   3   5
HETATM    5  C   UNL     1      -8.985   8.380  68.288  1.00  0.00    -0.139 C  
BRANCH   5   6
HETATM    6  C   UNL     1      -9.910   7.753  69.340  1.00  0.00    -0.176 C  
BRANCH   6   7
HETATM    7  C   UNL     1     -10.769   8.789  70.019  1.00  0.00    -0.236 A  
HETATM    8  C   UNL     1     -11.454   8.474  71.201  1.00  0.00    -0.322 A  
HETATM    9  C   UNL     1     -12.416  10.676  71.240  1.00  0.00    -0.410 A  
HETATM   10  C   UNL     1     -12.275   9.419  71.815  1.00  0.00    -0.465 A  
HETATM   11  O   UNL     1     -13.219  11.625  71.798  1.00  0.00    -0.453 OA 
HETATM   12  C   UNL     1     -11.738  11.007  70.071  1.00  0.00    -0.437 A  
HETATM   13  H   UNL     1     -13.316  12.484  71.405  1.00  0.00     0.000 HD 
HETATM   14  C   UNL     1     -10.917  10.063  69.456  1.00  0.00    -0.289 A  
ENDBRANCH   6   7
ENDBRANCH   5   6
ENDBRANCH   3   5
ENDBRANCH   2   3
BRANCH   2  15
HETATM   15  C   UNL     1      -9.957  10.116  65.024  1.00  0.00    -0.305 C  
HETATM   16  O   UNL     1      -9.575   9.834  63.670  1.00  0.00    -0.464 OA 
HETATM   17  H   UNL     1     -10.170  10.261  63.064  1.00  0.00     0.000 HD 
BRANCH  15  18
HETATM   18  C   UNL     1     -10.080  11.613  65.250  1.00  0.00    -0.305 A  
HETATM   19  C   UNL     1      -9.922  12.145  66.540  1.00  0.00    -0.230 A  
HETATM   20  C   UNL     1     -10.416  13.867  64.401  1.00  0.00    -0.189 A  
HETATM   21  H   UNL     1     -10.586  16.294  65.128  1.00  0.00     0.000 HD 
HETATM   22  C   UNL     1     -10.025  13.521  66.760  1.00  0.00    -0.269 A  
HETATM   23  C   UNL     1     -10.282  14.369  65.688  1.00  0.00    -0.350 A  
HETATM   24  C   UNL     1     -10.313  12.495  64.181  1.00  0.00    -0.416 A  
HETATM   25  O   UNL     1     -10.411  15.715  65.859  1.00  0.00    -0.305 OA 
ENDBRANCH  15  18
ENDBRANCH   2  15
TORSDOF 6
ENDMDL
MODEL      238
REMARK 921   NORMALIZED FREE ENERGY PREDICTED BY IDOCK:   -3.55 KCAL/MOL
REMARK 922        TOTAL FREE ENERGY PREDICTED BY IDOCK:   -5.84 KCAL/MOL
REMARK 923 INTER-LIGAND FREE ENERGY PREDICTED BY IDOCK:   -5.59 KCAL/MOL
REMARK 924 INTRA-LIGAND FREE ENERGY PREDICTED BY IDOCK:   -0.25 KCAL/MOL
REMARK 927      BINDING AFFINITY PREDICTED BY RF-SCORE:    0.00 PKD
ROOT
HETATM    1  C   UNL     1     -11.887  12.317  69.607  1.00  0.00    -0.393 C  
HETATM    2  C   UNL     1     -10.926  11.250  69.061  1.00  0.00    -0.236 C  
ENDROOT
BRANCH   2   3
HETATM    3  N   UNL     1     -11.601  10.354  68.094  1.00  0.00    -0.703 NA 
HETATM    4  H   UNL     1     -12.425  10.816  67.707  1.00  0.00     0.000 HD 
BRANCH   3   5
HETATM    5  C   UNL     1     -10.760   9.843  67.010  1.00  0.00    -0.167 C  
BRANCH   5   6
HETATM    6  C   UNL     1     -10.409  10.909  65.963  1.00  0.00    -0.304 C  
BRANCH   6   7
HETATM    7  C   UNL     1      -9.193  10.525  65.159  1.00  0.00    -0.243 A  
HETATM    8  C   UNL     1      -7.926  10.503  65.761  1.00  0.00    -0.158 A  
HETATM    9  C   UNL     1      -6.932   9.885  63.662  1.00  0.00    -0.123 A  
HETATM   10  C   UNL     1      -6.795  10.180  65.013  1.00  0.00    -0.132 A  
HETATM   11  O   UNL     1      -5.851   9.577  62.891  1.00  0.00    -0.091 OA 
HETATM   12  C   UNL     1      -8.182   9.894  63.051  1.00  0.00    -0.152 A  
HETATM   13  H   UNL     1      -5.945   9.375  61.967  1.00  0.00     0.000 HD 
HETATM   14  C   UNL     1      -9.314  10.218  63.798  1.00  0.00    -0.339 A  
ENDBRANCH   6   7
ENDBRANCH   5   6
ENDBRANCH   3   5
ENDBRANCH   2   3
BRANCH   2  15
HETATM   15  C   UNL     1     -10.309  10.373  70.196  1.00  0.00    -0.056 C  
HETATM   16  O   UNL     1      -9.104   9.742  69.739  1.00  0.00    -0.197 OA 
HETATM   17  H   UNL     1      -8.728   9.209  70.430  1.00  0.00     0.000 HD 
BRANCH  15  18
HETATM   18  C   UNL     1     -11.275   9.345  70.759  1.00  0.00    -0.367 A  
HETATM   19  C   UNL     1     -11.088   7.980  70.484  1.00  0.00    -0.251 A  
HETATM   20  C   UNL     1     -13.217   8.771  72.106  1.00  0.00    -0.456 A  
HETATM   21  H   UNL     1     -14.647   6.811  72.855  1.00  0.00     0.000 HD 
HETATM   22  C   UNL     1     -11.966   7.023  71.001  1.00  0.00    -0.406 A  
HETATM   23  C   UNL     1     -13.029   7.430  71.800  1.00  0.00    -0.325 A  
HETATM   24  C   UNL     1     -12.343   9.725  71.590  1.00  0.00    -0.495 A  
HETATM   25  O   UNL     1     -13.921   6.534  72.309  1.00  0.00     0.008 OA 
ENDBRANCH  15  18
ENDBRANCH   2  15
TORSDOF 6
ENDMDL
MODEL      239
REMARK 921   NORMALIZED FREE ENERGY PREDICTED BY IDOCK:   -3.55 KCAL/MOL
REMARK 922        TOTAL FREE ENERGY PREDICTED BY IDOCK:   -5.83 KCAL/MOL
REMARK 923 INTER-LIGAND FREE ENERGY PREDICTED BY IDOCK:   -4.80 KCAL/MOL
REMARK 924 INTRA-LIGAND FREE ENERGY PREDICTED BY IDOCK:   -1.04 KCAL/MOL
REMARK 927      BINDING AFFINITY PREDICTED BY RF-SCORE:    0.00 PKD
ROOT
HETATM    1  C   UNL     1     -11.310   8.539  70.859  1.00  0.00    -0.304 C  
HETATM    2  C   UNL     1     -10.825   7.205  70.272  1.00  0.00    -0.249 C  
ENDROOT
BRANCH   2   3
HETATM    3  N   UNL     1     -11.734   6.715  69.210  1.00  0.00    -0.628 NA 
HETATM    4  H   UNL     1     -12.539   7.336  69.127  1.00  0.00     0.000 HD 
BRANCH   3   5
HETATM    5  C   UNL     1     -11.122   6.512  67.897  1.00  0.00    -0.255 C  
BRANCH   5   6
HETATM    6  C   UNL     1      -9.704   7.093  67.792  1.00  0.00    -0.161 C  
BRANCH   6   7
HETATM    7  C   UNL     1      -9.641   8.244  66.822  1.00  0.00    -0.288 A  
HETATM    8  C   UNL     1      -8.859   8.149  65.662  1.00  0.00    -0.160 A  
HETATM    9  C   UNL     1      -9.463  10.396  65.061  1.00  0.00    -0.253 A  
HETATM   10  C   UNL     1      -8.772   9.224  64.779  1.00  0.00    -0.220 A  
HETATM   11  O   UNL     1      -9.395  11.476  64.233  1.00  0.00    -0.399 OA 
HETATM   12  C   UNL     1     -10.249  10.505  66.204  1.00  0.00    -0.299 A  
HETATM   13  H   UNL     1      -9.867  12.278  64.426  1.00  0.00     0.000 HD 
HETATM   14  C   UNL     1     -10.336   9.431  67.089  1.00  0.00    -0.326 A  
ENDBRANCH   6   7
ENDBRANCH   5   6
ENDBRANCH   3   5
ENDBRANCH   2   3
BRANCH   2  15
HETATM   15  C   UNL     1     -10.694   6.093  71.360  1.00  0.00    -0.255 C  
HETATM   16  O   UNL     1     -10.657   6.679  72.669  1.00  0.00    -0.204 OA 
HETATM   17  H   UNL     1     -10.578   6.002  73.332  1.00  0.00     0.000 HD 
BRANCH  15  18
HETATM   18  C   UNL     1      -9.503   5.175  71.147  1.00  0.00    -0.205 A  
HETATM   19  C   UNL     1      -9.685   3.912  70.559  1.00  0.00    -0.247 A  
HETATM   20  C   UNL     1      -7.117   4.726  71.285  1.00  0.00    -0.051 A  
HETATM   21  H   UNL     1      -5.366   2.948  70.817  1.00  0.00     0.000 HD 
HETATM   22  C   UNL     1      -8.597   3.060  70.352  1.00  0.00    -0.112 A  
HETATM   23  C   UNL     1      -7.323   3.473  70.727  1.00  0.00    -0.037 A  
HETATM   24  C   UNL     1      -8.201   5.576  71.493  1.00  0.00    -0.119 A  
HETATM   25  O   UNL     1      -6.236   2.667  70.561  1.00  0.00    -0.022 OA 
ENDBRANCH  15  18
ENDBRANCH   2  15
TORSDOF 6
ENDMDL
MODEL      240
REMARK 921   NORMALIZED FREE ENERGY PREDICTED BY IDOCK:   -3.54 KCAL/MOL
REMARK 922        TOTAL FREE ENERGY PREDICTED BY IDOCK:   -5.83 KCAL/MOL
REMARK 923 INTER-LIGAND FREE ENERGY PREDICTED BY IDOCK:   -5.47 KCAL/MOL
REMARK 924 INTRA-LIGAND FREE ENERGY PREDICTED BY IDOCK:   -0.36 KCAL/MOL
REMARK 927      BINDING AFFINITY PREDICTED BY RF-SCORE:    0.00 PKD
ROOT
HETATM    1  C   UNL     1      -9.984  11.625  68.578  1.00  0.00    -0.198 C  
HETATM    2  C   UNL     1      -9.874  11.180  67.112  1.00  0.00    -0.187 C  
ENDROOT
BRANCH   2   3
HETATM    3  N   UNL     1      -9.255   9.839  66.996  1.00  0.00    -0.141 NA 
HETATM    4  H   UNL     1      -8.293   9.869  67.336  1.00  0.00     0.000 HD 
BRANCH   3   5
HETATM    5  C   UNL     1      -9.981   8.748  67.646  1.00  0.00    -0.193 C  
BRANCH   5   6
HETATM    6  C   UNL     1      -9.094   7.890  68.561  1.00  0.00    -0.132 C  
BRANCH   6   7
HETATM    7  C   UNL     1      -9.693   7.733  69.935  1.00  0.00    -0.176 A  
HETATM    8  C   UNL     1      -9.918   8.860  70.740  1.00  0.00    -0.282 A  
HETATM    9  C   UNL     1     -10.732   7.445  72.504  1.00  0.00    -0.272 A  
HETATM   10  C   UNL     1     -10.441   8.716  72.024  1.00  0.00    -0.422 A  
HETATM   11  O   UNL     1     -11.231   7.258  73.758  1.00  0.00    -0.529 OA 
HETATM   12  C   UNL     1     -10.522   6.318  71.716  1.00  0.00    -0.249 A  
HETATM   13  H   UNL     1     -11.431   6.389  74.086  1.00  0.00     0.000 HD 
HETATM   14  C   UNL     1      -9.998   6.460  70.431  1.00  0.00    -0.213 A  
ENDBRANCH   6   7
ENDBRANCH   5   6
ENDBRANCH   3   5
ENDBRANCH   2   3
BRANCH   2  15
HETATM   15  C   UNL     1      -9.042  12.182  66.250  1.00  0.00    -0.141 C  
HETATM   16  O   UNL     1      -7.638  11.992  66.481  1.00  0.00    -0.373 OA 
HETATM   17  H   UNL     1      -7.132  12.601  65.957  1.00  0.00     0.000 HD 
BRANCH  15  18
HETATM   18  C   UNL     1      -9.432  13.634  66.466  1.00  0.00    -0.270 A  
HETATM   19  C   UNL     1      -8.811  14.386  67.477  1.00  0.00    -0.197 A  
HETATM   20  C   UNL     1     -10.726  15.599  65.849  1.00  0.00    -0.336 A  
HETATM   21  H   UNL     1     -11.158  18.016  66.494  1.00  0.00     0.000 HD 
HETATM   22  C   UNL     1      -9.156  15.725  67.682  1.00  0.00    -0.193 A  
HETATM   23  C   UNL     1     -10.119  16.315  66.871  1.00  0.00    -0.278 A  
HETATM   24  C   UNL     1     -10.383  14.264  65.645  1.00  0.00    -0.352 A  
HETATM   25  O   UNL     1     -10.501  17.612  67.047  1.00  0.00    -0.336 OA 
ENDBRANCH  15  18
ENDBRANCH   2  15
TORSDOF 6
ENDMDL
MODEL      241
REMARK 921   NORMALIZED FREE ENERGY PREDICTED BY IDOCK:   -3.47 KCAL/MOL
REMARK 922        TOTAL FREE ENERGY PREDICTED BY IDOCK:   -5.73 KCAL/MOL
REMARK 923 INTER-LIGAND FREE ENERGY PREDICTED BY IDOCK:   -5.20 KCAL/MOL
REMARK 924 INTRA-LIGAND FREE ENERGY PREDICTED BY IDOCK:   -0.54 KCAL/MOL
REMARK 927      BINDING AFFINITY PREDICTED BY RF-SCORE:    0.00 PKD
ROOT
HETATM    1  C   UNL     1      -7.213  10.425  66.873  1.00  0.00    -0.099 C  
HETATM    2  C   UNL     1      -8.465  10.365  67.762  1.00  0.00    -0.114 C  
ENDROOT
BRANCH   2   3
HETATM    3  N   UNL     1      -8.960  11.721  68.095  1.00  0.00    -0.175 NA 
HETATM    4  H   UNL     1      -8.911  12.322  67.272  1.00  0.00     0.000 HD 
BRANCH   3   5
HETATM    5  C   UNL     1     -10.302  11.779  68.677  1.00  0.00    -0.214 C  
BRANCH   5   6
HETATM    6  C   UNL     1     -11.414  11.453  67.669  1.00  0.00    -0.348 C  
BRANCH   6   7
HETATM    7  C   UNL     1     -11.600  12.560  66.663  1.00  0.00    -0.442 A  
HETATM    8  C   UNL     1     -11.820  12.256  65.312  1.00  0.00    -0.411 A  
HETATM    9  C   UNL     1     -11.872  14.600  64.785  1.00  0.00    -0.440 A  
HETATM   10  C   UNL     1     -11.961  13.276  64.372  1.00  0.00    -0.459 A  
HETATM   11  O   UNL     1     -11.989  15.629  63.899  1.00  0.00    -0.990 OA 
HETATM   12  C   UNL     1     -11.661  14.919  66.123  1.00  0.00    -0.178 A  
HETATM   13  H   UNL     1     -11.929  16.534  64.181  1.00  0.00     0.000 HD 
HETATM   14  C   UNL     1     -11.521  13.899  67.063  1.00  0.00    -0.367 A  
ENDBRANCH   6   7
ENDBRANCH   5   6
ENDBRANCH   3   5
ENDBRANCH   2   3
BRANCH   2  15
HETATM   15  C   UNL     1      -8.207   9.594  69.095  1.00  0.00    -0.120 C  
HETATM   16  O   UNL     1      -6.933   9.960  69.644  1.00  0.00    -0.065 OA 
HETATM   17  H   UNL     1      -6.776   9.491  70.456  1.00  0.00     0.000 HD 
BRANCH  15  18
HETATM   18  C   UNL     1      -8.319   8.086  68.954  1.00  0.00    -0.126 A  
HETATM   19  C   UNL     1      -8.072   7.256  70.059  1.00  0.00    -0.130 A  
HETATM   20  C   UNL     1      -8.813   6.109  67.625  1.00  0.00    -0.103 A  
HETATM   21  H   UNL     1      -8.880   3.574  67.726  1.00  0.00     0.000 HD 
HETATM   22  C   UNL     1      -8.179   5.867  69.944  1.00  0.00    -0.117 A  
HETATM   23  C   UNL     1      -8.539   5.306  68.723  1.00  0.00    -0.091 A  
HETATM   24  C   UNL     1      -8.706   7.494  67.739  1.00  0.00    -0.123 A  
HETATM   25  O   UNL     1      -8.635   3.957  68.560  1.00  0.00    -0.089 OA 
ENDBRANCH  15  18
ENDBRANCH   2  15
TORSDOF 6
ENDMDL
MODEL      242
REMARK 921   NORMALIZED FREE ENERGY PREDICTED BY IDOCK:   -3.44 KCAL/MOL
REMARK 922        TOTAL FREE ENERGY PREDICTED BY IDOCK:   -5.69 KCAL/MOL
REMARK 923 INTER-LIGAND FREE ENERGY PREDICTED BY IDOCK:   -5.16 KCAL/MOL
REMARK 924 INTRA-LIGAND FREE ENERGY PREDICTED BY IDOCK:   -0.52 KCAL/MOL
REMARK 927      BINDING AFFINITY PREDICTED BY RF-SCORE:    0.00 PKD
ROOT
HETATM    1  C   UNL     1      -9.439   9.922  69.300  1.00  0.00    -0.218 C  
HETATM    2  C   UNL     1      -8.501   9.379  68.211  1.00  0.00    -0.120 C  
ENDROOT
BRANCH   2   3
HETATM    3  N   UNL     1      -9.133   9.435  66.872  1.00  0.00    -0.133 NA 
HETATM    4  H   UNL     1     -10.146   9.357  66.962  1.00  0.00     0.000 HD 
BRANCH   3   5
HETATM    5  C   UNL     1      -8.791  10.602  66.059  1.00  0.00    -0.175 C  
BRANCH   5   6
HETATM    6  C   UNL     1     -10.008  11.240  65.374  1.00  0.00    -0.297 C  
BRANCH   6   7
HETATM    7  C   UNL     1     -10.618  12.330  66.217  1.00  0.00    -0.282 A  
HETATM    8  C   UNL     1     -10.266  13.670  66.002  1.00  0.00    -0.312 A  
HETATM    9  C   UNL     1     -11.687  14.343  67.820  1.00  0.00    -0.376 A  
HETATM   10  C   UNL     1     -10.803  14.678  66.802  1.00  0.00    -0.312 A  
HETATM   11  O   UNL     1     -12.225  15.295  68.634  1.00  0.00    -0.575 OA 
HETATM   12  C   UNL     1     -12.053  13.019  68.042  1.00  0.00    -0.220 A  
HETATM   13  H   UNL     1     -12.829  15.066  69.331  1.00  0.00     0.000 HD 
HETATM   14  C   UNL     1     -11.516  12.010  67.244  1.00  0.00    -0.403 A  
ENDBRANCH   6   7
ENDBRANCH   5   6
ENDBRANCH   3   5
ENDBRANCH   2   3
BRANCH   2  15
HETATM   15  C   UNL     1      -8.063   7.906  68.488  1.00  0.00    -0.123 C  
HETATM   16  O   UNL     1      -7.986   7.170  67.258  1.00  0.00    -0.108 OA 
HETATM   17  H   UNL     1      -7.719   6.274  67.427  1.00  0.00     0.000 HD 
BRANCH  15  18
HETATM   18  C   UNL     1      -8.951   7.189  69.490  1.00  0.00    -0.140 A  
HETATM   19  C   UNL     1     -10.225   6.740  69.105  1.00  0.00    -0.195 A  
HETATM   20  C   UNL     1      -9.333   6.261  71.706  1.00  0.00    -0.155 A  
HETATM   21  H   UNL     1     -11.068   5.068  73.124  1.00  0.00     0.000 HD 
HETATM   22  C   UNL     1     -11.050   6.073  70.016  1.00  0.00    -0.451 A  
HETATM   23  C   UNL     1     -10.598   5.849  71.312  1.00  0.00    -0.252 A  
HETATM   24  C   UNL     1      -8.511   6.927  70.799  1.00  0.00    -0.136 A  
HETATM   25  O   UNL     1     -11.376   5.221  72.239  1.00  0.00    -0.179 OA 
ENDBRANCH  15  18
ENDBRANCH   2  15
TORSDOF 6
ENDMDL
MODEL      243
REMARK 921   NORMALIZED FREE ENERGY PREDICTED BY IDOCK:   -3.43 KCAL/MOL
REMARK 922        TOTAL FREE ENERGY PREDICTED BY IDOCK:   -5.68 KCAL/MOL
REMARK 923 INTER-LIGAND FREE ENERGY PREDICTED BY IDOCK:   -5.57 KCAL/MOL
REMARK 924 INTRA-LIGAND FREE ENERGY PREDICTED BY IDOCK:   -0.11 KCAL/MOL
REMARK 927      BINDING AFFINITY PREDICTED BY RF-SCORE:    0.00 PKD
ROOT
HETATM    1  C   UNL     1     -11.557  12.614  68.978  1.00  0.00    -0.367 C  
HETATM    2  C   UNL     1     -11.922  11.537  67.945  1.00  0.00    -0.073 C  
ENDROOT
BRANCH   2   3
HETATM    3  N   UNL     1     -11.736  10.173  68.492  1.00  0.00    -0.645 NA 
HETATM    4  H   UNL     1     -11.258   9.585  67.808  1.00  0.00     0.000 HD 
BRANCH   3   5
HETATM    5  C   UNL     1     -11.050  10.096  69.783  1.00  0.00    -0.279 C  
BRANCH   5   6
HETATM    6  C   UNL     1      -9.652   9.469  69.690  1.00  0.00    -0.216 C  
BRANCH   6   7
HETATM    7  C   UNL     1      -9.694   7.976  69.893  1.00  0.00    -0.180 A  
HETATM    8  C   UNL     1      -8.595   7.308  70.453  1.00  0.00    -0.144 A  
HETATM    9  C   UNL     1      -9.736   5.207  70.206  1.00  0.00    -0.203 A  
HETATM   10  C   UNL     1      -8.617   5.924  70.614  1.00  0.00    -0.133 A  
HETATM   11  O   UNL     1      -9.793   3.852  70.331  1.00  0.00    -0.196 OA 
HETATM   12  C   UNL     1     -10.837   5.855  69.656  1.00  0.00    -0.444 A  
HETATM   13  H   UNL     1     -10.558   3.362  70.053  1.00  0.00     0.000 HD 
HETATM   14  C   UNL     1     -10.816   7.240  69.494  1.00  0.00    -0.224 A  
ENDBRANCH   6   7
ENDBRANCH   5   6
ENDBRANCH   3   5
ENDBRANCH   2   3
BRANCH   2  15
HETATM   15  C   UNL     1     -11.076  11.661  66.637  1.00  0.00    -0.307 C  
HETATM   16  O   UNL     1     -10.189  10.541  66.509  1.00  0.00    -0.217 OA 
HETATM   17  H   UNL     1      -9.675  10.617  65.713  1.00  0.00     0.000 HD 
BRANCH  15  18
HETATM   18  C   UNL     1     -10.311  12.969  66.534  1.00  0.00    -0.278 A  
HETATM   19  C   UNL     1     -10.875  14.061  65.853  1.00  0.00    -0.288 A  
HETATM   20  C   UNL     1      -8.367  14.338  67.045  1.00  0.00    -0.156 A  
HETATM   21  H   UNL     1      -7.357  16.635  66.661  1.00  0.00     0.000 HD 
HETATM   22  C   UNL     1     -10.184  15.272  65.756  1.00  0.00    -0.372 A  
HETATM   23  C   UNL     1      -8.930  15.395  66.345  1.00  0.00    -0.316 A  
HETATM   24  C   UNL     1      -9.054  13.129  67.141  1.00  0.00    -0.230 A  
HETATM   25  O   UNL     1      -8.213  16.551  66.259  1.00  0.00    -0.302 OA 
ENDBRANCH  15  18
ENDBRANCH   2  15
TORSDOF 6
ENDMDL
MODEL      244
REMARK 921   NORMALIZED FREE ENERGY PREDICTED BY IDOCK:   -3.40 KCAL/MOL
REMARK 922        TOTAL FREE ENERGY PREDICTED BY IDOCK:   -5.64 KCAL/MOL
REMARK 923 INTER-LIGAND FREE ENERGY PREDICTED BY IDOCK:   -5.15 KCAL/MOL
REMARK 924 INTRA-LIGAND FREE ENERGY PREDICTED BY IDOCK:   -0.48 KCAL/MOL
REMARK 927      BINDING AFFINITY PREDICTED BY RF-SCORE:    0.00 PKD
ROOT
HETATM    1  C   UNL     1      -8.343  11.140  68.904  1.00  0.00    -0.101 C  
HETATM    2  C   UNL     1      -9.044  10.384  67.766  1.00  0.00    -0.131 C  
ENDROOT
BRANCH   2   3
HETATM    3  N   UNL     1      -8.743   8.935  67.809  1.00  0.00    -0.125 NA 
HETATM    4  H   UNL     1      -9.573   8.399  67.554  1.00  0.00     0.000 HD 
BRANCH   3   5
HETATM    5  C   UNL     1      -7.601   8.501  67.002  1.00  0.00    -0.092 C  
BRANCH   5   6
HETATM    6  C   UNL     1      -8.000   7.604  65.821  1.00  0.00    -0.116 C  
BRANCH   6   7
HETATM    7  C   UNL     1      -8.467   6.248  66.282  1.00  0.00    -0.133 A  
HETATM    8  C   UNL     1      -9.834   5.999  66.473  1.00  0.00    -0.186 A  
HETATM    9  C   UNL     1      -9.333   3.764  67.202  1.00  0.00    -0.196 A  
HETATM   10  C   UNL     1     -10.268   4.756  66.930  1.00  0.00    -0.230 A  
HETATM   11  O   UNL     1      -9.713   2.539  67.663  1.00  0.00    -0.379 OA 
HETATM   12  C   UNL     1      -7.974   3.992  67.009  1.00  0.00    -0.096 A  
HETATM   13  H   UNL     1      -9.074   1.861  67.848  1.00  0.00     0.000 HD 
HETATM   14  C   UNL     1      -7.539   5.235  66.553  1.00  0.00    -0.088 A  
ENDBRANCH   6   7
ENDBRANCH   5   6
ENDBRANCH   3   5
ENDBRANCH   2   3
BRANCH   2  15
HETATM   15  C   UNL     1      -8.643  10.929  66.359  1.00  0.00    -0.160 C  
HETATM   16  O   UNL     1      -7.588  11.894  66.480  1.00  0.00    -0.360 OA 
HETATM   17  H   UNL     1      -7.343  12.225  65.623  1.00  0.00     0.000 HD 
BRANCH  15  18
HETATM   18  C   UNL     1      -9.811  11.505  65.577  1.00  0.00    -0.269 A  
HETATM   19  C   UNL     1     -10.754  12.322  66.222  1.00  0.00    -0.293 A  
HETATM   20  C   UNL     1     -11.028  11.808  63.493  1.00  0.00    -0.499 A  
HETATM   21  H   UNL     1     -13.096  12.897  62.502  1.00  0.00     0.000 HD 
HETATM   22  C   UNL     1     -11.830  12.863  65.513  1.00  0.00    -0.455 A  
HETATM   23  C   UNL     1     -11.962  12.592  64.155  1.00  0.00    -0.429 A  
HETATM   24  C   UNL     1      -9.955  11.268  64.199  1.00  0.00    -0.350 A  
HETATM   25  O   UNL     1     -13.006  13.082  63.429  1.00  0.00    -0.464 OA 
ENDBRANCH  15  18
ENDBRANCH   2  15
TORSDOF 6
ENDMDL
MODEL      245
REMARK 921   NORMALIZED FREE ENERGY PREDICTED BY IDOCK:   -3.33 KCAL/MOL
REMARK 922        TOTAL FREE ENERGY PREDICTED BY IDOCK:   -5.54 KCAL/MOL
REMARK 923 INTER-LIGAND FREE ENERGY PREDICTED BY IDOCK:   -5.28 KCAL/MOL
REMARK 924 INTRA-LIGAND FREE ENERGY PREDICTED BY IDOCK:   -0.26 KCAL/MOL
REMARK 927      BINDING AFFINITY PREDICTED BY RF-SCORE:    0.00 PKD
ROOT
HETATM    1  C   UNL     1      -9.356   9.971  69.120  1.00  0.00    -0.200 C  
HETATM    2  C   UNL     1      -9.835   9.296  67.826  1.00  0.00    -0.171 C  
ENDROOT
BRANCH   2   3
HETATM    3  N   UNL     1      -9.221   7.959  67.651  1.00  0.00    -0.136 NA 
HETATM    4  H   UNL     1      -8.211   8.019  67.781  1.00  0.00     0.000 HD 
BRANCH   3   5
HETATM    5  C   UNL     1      -9.770   6.895  68.492  1.00  0.00    -0.138 C  
BRANCH   5   6
HETATM    6  C   UNL     1      -8.774   6.375  69.539  1.00  0.00    -0.133 C  
BRANCH   6   7
HETATM    7  C   UNL     1      -9.473   5.872  70.775  1.00  0.00    -0.192 A  
HETATM    8  C   UNL     1      -9.704   4.499  70.947  1.00  0.00    -0.263 A  
HETATM    9  C   UNL     1     -10.829   4.939  73.024  1.00  0.00    -0.265 A  
HETATM   10  C   UNL     1     -10.378   4.031  72.074  1.00  0.00    -0.121 A  
HETATM   11  O   UNL     1     -11.505   4.528  74.133  1.00  0.00    -0.185 OA 
HETATM   12  C   UNL     1     -10.602   6.304  72.873  1.00  0.00    -0.257 A  
HETATM   13  H   UNL     1     -11.813   5.148  74.783  1.00  0.00     0.000 HD 
HETATM   14  C   UNL     1      -9.928   6.772  71.746  1.00  0.00    -0.184 A  
ENDBRANCH   6   7
ENDBRANCH   5   6
ENDBRANCH   3   5
ENDBRANCH   2   3
BRANCH   2  15
HETATM   15  C   UNL     1      -9.516  10.152  66.559  1.00  0.00    -0.169 C  
HETATM   16  O   UNL     1      -8.208  10.731  66.665  1.00  0.00    -0.129 OA 
HETATM   17  H   UNL     1      -8.015  11.252  65.894  1.00  0.00     0.000 HD 
BRANCH  15  18
HETATM   18  C   UNL     1     -10.558  11.221  66.274  1.00  0.00    -0.315 A  
HETATM   19  C   UNL     1     -11.033  11.408  64.966  1.00  0.00    -0.271 A  
HETATM   20  C   UNL     1     -12.052  12.984  67.031  1.00  0.00    -0.330 A  
HETATM   21  H   UNL     1     -13.749  14.683  66.210  1.00  0.00     0.000 HD 
HETATM   22  C   UNL     1     -11.996  12.384  64.692  1.00  0.00    -0.462 A  
HETATM   23  C   UNL     1     -12.489  13.170  65.727  1.00  0.00    -0.377 A  
HETATM   24  C   UNL     1     -11.091  12.013  67.306  1.00  0.00    -0.341 A  
HETATM   25  O   UNL     1     -13.413  14.146  65.503  1.00  0.00    -0.643 OA 
ENDBRANCH  15  18
ENDBRANCH   2  15
TORSDOF 6
ENDMDL
MODEL      246
REMARK 921   NORMALIZED FREE ENERGY PREDICTED BY IDOCK:   -3.32 KCAL/MOL
REMARK 922        TOTAL FREE ENERGY PREDICTED BY IDOCK:   -5.52 KCAL/MOL
REMARK 923 INTER-LIGAND FREE ENERGY PREDICTED BY IDOCK:   -4.25 KCAL/MOL
REMARK 924 INTRA-LIGAND FREE ENERGY PREDICTED BY IDOCK:   -1.27 KCAL/MOL
REMARK 927      BINDING AFFINITY PREDICTED BY RF-SCORE:    0.00 PKD
ROOT
HETATM    1  C   UNL     1      -6.637   6.570  63.774  1.00  0.00    -0.037 C  
HETATM    2  C   UNL     1      -7.759   6.786  64.801  1.00  0.00    -0.111 C  
ENDROOT
BRANCH   2   3
HETATM    3  N   UNL     1      -8.640   5.600  64.902  1.00  0.00    -0.261 NA 
HETATM    4  H   UNL     1      -8.284   4.851  64.308  1.00  0.00     0.000 HD 
BRANCH   3   5
HETATM    5  C   UNL     1      -8.870   5.096  66.256  1.00  0.00    -0.124 C  
BRANCH   5   6
HETATM    6  C   UNL     1     -10.306   5.324  66.751  1.00  0.00    -0.320 C  
BRANCH   6   7
HETATM    7  C   UNL     1     -10.368   5.444  68.252  1.00  0.00    -0.213 A  
HETATM    8  C   UNL     1     -11.003   6.544  68.847  1.00  0.00    -0.376 A  
HETATM    9  C   UNL     1     -10.425   5.709  71.026  1.00  0.00    -0.250 A  
HETATM   10  C   UNL     1     -11.035   6.675  70.234  1.00  0.00    -0.355 A  
HETATM   11  O   UNL     1     -10.419   5.805  72.385  1.00  0.00    -0.197 OA 
HETATM   12  C   UNL     1      -9.797   4.608  70.452  1.00  0.00    -0.306 A  
HETATM   13  H   UNL     1     -10.003   5.145  72.926  1.00  0.00     0.000 HD 
HETATM   14  C   UNL     1      -9.764   4.476  69.064  1.00  0.00    -0.235 A  
ENDBRANCH   6   7
ENDBRANCH   5   6
ENDBRANCH   3   5
ENDBRANCH   2   3
BRANCH   2  15
HETATM   15  C   UNL     1      -8.643   8.028  64.459  1.00  0.00     0.145 C  
HETATM   16  O   UNL     1      -8.012   8.825  63.446  1.00  0.00    -0.145 OA 
HETATM   17  H   UNL     1      -8.550   9.580  63.238  1.00  0.00     0.000 HD 
BRANCH  15  18
HETATM   18  C   UNL     1      -8.992   8.874  65.671  1.00  0.00    -0.249 A  
HETATM   19  C   UNL     1      -8.260   8.733  66.861  1.00  0.00    -0.108 A  
HETATM   20  C   UNL     1     -10.324  10.607  66.737  1.00  0.00    -0.299 A  
HETATM   21  H   UNL     1     -10.660  11.828  68.937  1.00  0.00     0.000 HD 
HETATM   22  C   UNL     1      -8.567   9.511  67.981  1.00  0.00    -0.120 A  
HETATM   23  C   UNL     1      -9.605  10.434  67.911  1.00  0.00    -0.142 A  
HETATM   24  C   UNL     1     -10.019   9.832  65.620  1.00  0.00    -0.352 A  
HETATM   25  O   UNL     1      -9.952  11.198  68.985  1.00  0.00    -0.199 OA 
ENDBRANCH  15  18
ENDBRANCH   2  15
TORSDOF 6
ENDMDL
MODEL      247
REMARK 921   NORMALIZED FREE ENERGY PREDICTED BY IDOCK:   -3.26 KCAL/MOL
REMARK 922        TOTAL FREE ENERGY PREDICTED BY IDOCK:   -5.45 KCAL/MOL
REMARK 923 INTER-LIGAND FREE ENERGY PREDICTED BY IDOCK:   -4.34 KCAL/MOL
REMARK 924 INTRA-LIGAND FREE ENERGY PREDICTED BY IDOCK:   -1.11 KCAL/MOL
REMARK 927      BINDING AFFINITY PREDICTED BY RF-SCORE:    0.00 PKD
ROOT
HETATM    1  C   UNL     1      -6.926   8.762  64.149  1.00  0.00    -0.089 C  
HETATM    2  C   UNL     1      -8.162   8.893  65.051  1.00  0.00    -0.153 C  
ENDROOT
BRANCH   2   3
HETATM    3  N   UNL     1      -8.750   7.570  65.363  1.00  0.00    -0.345 NA 
HETATM    4  H   UNL     1      -8.108   6.828  65.082  1.00  0.00     0.000 HD 
BRANCH   3   5
HETATM    5  C   UNL     1      -9.165   7.372  66.752  1.00  0.00    -0.156 C  
BRANCH   5   6
HETATM    6  C   UNL     1      -8.246   8.072  67.764  1.00  0.00    -0.129 C  
BRANCH   6   7
HETATM    7  C   UNL     1      -8.949   8.333  69.071  1.00  0.00    -0.147 A  
HETATM    8  C   UNL     1      -8.295   9.029  70.098  1.00  0.00    -0.156 A  
HETATM    9  C   UNL     1     -10.216   8.756  71.516  1.00  0.00    -0.300 A  
HETATM   10  C   UNL     1      -8.930   9.245  71.320  1.00  0.00    -0.097 A  
HETATM   11  O   UNL     1     -10.868   8.932  72.700  1.00  0.00    -0.050 OA 
HETATM   12  C   UNL     1     -10.882   8.069  70.506  1.00  0.00    -0.241 A  
HETATM   13  H   UNL     1     -11.747   8.598  72.834  1.00  0.00     0.000 HD 
HETATM   14  C   UNL     1     -10.248   7.853  69.283  1.00  0.00    -0.216 A  
ENDBRANCH   6   7
ENDBRANCH   5   6
ENDBRANCH   3   5
ENDBRANCH   2   3
BRANCH   2  15
HETATM   15  C   UNL     1      -9.271   9.786  64.410  1.00  0.00    -0.245 C  
HETATM   16  O   UNL     1      -8.876  10.203  63.095  1.00  0.00    -0.182 OA 
HETATM   17  H   UNL     1      -9.551  10.746  62.705  1.00  0.00     0.000 HD 
BRANCH  15  18
HETATM   18  C   UNL     1      -9.652  10.983  65.263  1.00  0.00    -0.270 A  
HETATM   19  C   UNL     1     -10.787  11.745  64.938  1.00  0.00    -0.353 A  
HETATM   20  C   UNL     1      -9.277  12.427  67.184  1.00  0.00    -0.199 A  
HETATM   21  H   UNL     1     -10.171  14.488  68.366  1.00  0.00     0.000 HD 
HETATM   22  C   UNL     1     -11.153  12.845  65.720  1.00  0.00    -0.312 A  
HETATM   23  C   UNL     1     -10.387  13.182  66.830  1.00  0.00    -0.247 A  
HETATM   24  C   UNL     1      -8.911  11.331  66.405  1.00  0.00    -0.194 A  
HETATM   25  O   UNL     1     -10.695  14.258  67.608  1.00  0.00    -0.254 OA 
ENDBRANCH  15  18
ENDBRANCH   2  15
TORSDOF 6
ENDMDL
MODEL      248
REMARK 921   NORMALIZED FREE ENERGY PREDICTED BY IDOCK:   -3.23 KCAL/MOL
REMARK 922        TOTAL FREE ENERGY PREDICTED BY IDOCK:   -5.40 KCAL/MOL
REMARK 923 INTER-LIGAND FREE ENERGY PREDICTED BY IDOCK:   -4.75 KCAL/MOL
REMARK 924 INTRA-LIGAND FREE ENERGY PREDICTED BY IDOCK:   -0.65 KCAL/MOL
REMARK 927      BINDING AFFINITY PREDICTED BY RF-SCORE:    0.00 PKD
ROOT
HETATM    1  C   UNL     1      -7.926   8.887  66.466  1.00  0.00    -0.103 C  
HETATM    2  C   UNL     1      -8.410   7.793  67.430  1.00  0.00    -0.123 C  
ENDROOT
BRANCH   2   3
HETATM    3  N   UNL     1      -8.543   8.307  68.813  1.00  0.00    -0.132 NA 
HETATM    4  H   UNL     1      -9.308   8.981  68.861  1.00  0.00     0.000 HD 
BRANCH   3   5
HETATM    5  C   UNL     1      -8.707   7.290  69.853  1.00  0.00    -0.141 C  
BRANCH   5   6
HETATM    6  C   UNL     1     -10.066   6.578  69.795  1.00  0.00    -0.207 C  
BRANCH   6   7
HETATM    7  C   UNL     1     -11.080   7.233  70.698  1.00  0.00    -0.287 A  
HETATM    8  C   UNL     1     -12.398   6.755  70.744  1.00  0.00    -0.289 A  
HETATM    9  C   UNL     1     -12.978   8.483  72.310  1.00  0.00    -0.341 A  
HETATM   10  C   UNL     1     -13.347   7.377  71.554  1.00  0.00    -0.435 A  
HETATM   11  O   UNL     1     -13.876   9.131  73.104  1.00  0.00    -1.065 OA 
HETATM   12  C   UNL     1     -11.673   8.966  72.282  1.00  0.00    -0.351 A  
HETATM   13  H   UNL     1     -13.625   9.886  73.622  1.00  0.00     0.000 HD 
HETATM   14  C   UNL     1     -10.723   8.344  71.472  1.00  0.00    -0.313 A  
ENDBRANCH   6   7
ENDBRANCH   5   6
ENDBRANCH   3   5
ENDBRANCH   2   3
BRANCH   2  15
HETATM   15  C   UNL     1      -7.452   6.560  67.454  1.00  0.00    -0.092 C  
HETATM   16  O   UNL     1      -6.146   6.935  66.994  1.00  0.00    -0.033 OA 
HETATM   17  H   UNL     1      -5.563   6.184  67.008  1.00  0.00     0.000 HD 
BRANCH  15  18
HETATM   18  C   UNL     1      -7.978   5.370  66.670  1.00  0.00    -0.105 A  
HETATM   19  C   UNL     1      -8.806   4.425  67.298  1.00  0.00    -0.114 A  
HETATM   20  C   UNL     1      -8.180   4.116  64.596  1.00  0.00    -0.098 A  
HETATM   21  H   UNL     1      -9.197   2.014  63.598  1.00  0.00     0.000 HD 
HETATM   22  C   UNL     1      -9.303   3.329  66.586  1.00  0.00    -0.159 A  
HETATM   23  C   UNL     1      -8.976   3.180  65.242  1.00  0.00    -0.144 A  
HETATM   24  C   UNL     1      -7.684   5.208  65.305  1.00  0.00    -0.087 A  
HETATM   25  O   UNL     1      -9.421   2.117  64.515  1.00  0.00    -0.135 OA 
ENDBRANCH  15  18
ENDBRANCH   2  15
TORSDOF 6
ENDMDL
MODEL      249
REMARK 921   NORMALIZED FREE ENERGY PREDICTED BY IDOCK:   -3.18 KCAL/MOL
REMARK 922        TOTAL FREE ENERGY PREDICTED BY IDOCK:   -5.34 KCAL/MOL
REMARK 923 INTER-LIGAND FREE ENERGY PREDICTED BY IDOCK:   -5.91 KCAL/MOL
REMARK 924 INTRA-LIGAND FREE ENERGY PREDICTED BY IDOCK:    0.57 KCAL/MOL
REMARK 927      BINDING AFFINITY PREDICTED BY RF-SCORE:    0.00 PKD
ROOT
HETATM    1  C   UNL     1      -9.342   8.367  68.318  1.00  0.00    -0.139 C  
HETATM    2  C   UNL     1     -10.068   8.437  69.670  1.00  0.00    -0.199 C  
ENDROOT
BRANCH   2   3
HETATM    3  N   UNL     1     -11.395   7.781  69.610  1.00  0.00    -0.446 NA 
HETATM    4  H   UNL     1     -11.685   7.672  68.638  1.00  0.00     0.000 HD 
BRANCH   3   5
HETATM    5  C   UNL     1     -11.500   6.501  70.310  1.00  0.00    -0.411 C  
BRANCH   5   6
HETATM    6  C   UNL     1     -10.137   5.895  70.674  1.00  0.00    -0.252 C  
BRANCH   6   7
HETATM    7  C   UNL     1      -9.785   4.733  69.782  1.00  0.00    -0.272 A  
HETATM    8  C   UNL     1      -9.779   4.889  68.388  1.00  0.00    -0.212 A  
HETATM    9  C   UNL     1      -9.204   2.570  68.124  1.00  0.00    -0.205 A  
HETATM   10  C   UNL     1      -9.485   3.808  67.558  1.00  0.00    -0.237 A  
HETATM   11  O   UNL     1      -8.925   1.484  67.350  1.00  0.00    -0.111 OA 
HETATM   12  C   UNL     1      -9.198   2.400  69.505  1.00  0.00    -0.189 A  
HETATM   13  H   UNL     1      -8.733   0.638  67.736  1.00  0.00     0.000 HD 
HETATM   14  C   UNL     1      -9.493   3.480  70.336  1.00  0.00    -0.254 A  
ENDBRANCH   6   7
ENDBRANCH   5   6
ENDBRANCH   3   5
ENDBRANCH   2   3
BRANCH   2  15
HETATM   15  C   UNL     1     -10.267   9.907  70.158  1.00  0.00    -0.273 C  
HETATM   16  O   UNL     1     -11.143   9.940  71.294  1.00  0.00    -0.351 OA 
HETATM   17  H   UNL     1     -11.265  10.835  71.591  1.00  0.00     0.000 HD 
BRANCH  15  18
HETATM   18  C   UNL     1     -10.761  10.844  69.070  1.00  0.00    -0.262 A  
HETATM   19  C   UNL     1     -11.455  12.016  69.413  1.00  0.00    -0.361 A  
HETATM   20  C   UNL     1     -10.958  11.457  66.724  1.00  0.00    -0.347 A  
HETATM   21  H   UNL     1     -11.939  13.208  65.170  1.00  0.00     0.000 HD 
HETATM   22  C   UNL     1     -11.909  12.890  68.421  1.00  0.00    -0.357 A  
HETATM   23  C   UNL     1     -11.664  12.596  67.084  1.00  0.00    -0.371 A  
HETATM   24  C   UNL     1     -10.506  10.585  67.712  1.00  0.00    -0.263 A  
HETATM   25  O   UNL     1     -12.106  13.410  66.083  1.00  0.00    -0.399 OA 
ENDBRANCH  15  18
ENDBRANCH   2  15
TORSDOF 6
ENDMDL
MODEL      250
REMARK 921   NORMALIZED FREE ENERGY PREDICTED BY IDOCK:   -3.05 KCAL/MOL
REMARK 922        TOTAL FREE ENERGY PREDICTED BY IDOCK:   -5.16 KCAL/MOL
REMARK 923 INTER-LIGAND FREE ENERGY PREDICTED BY IDOCK:   -3.74 KCAL/MOL
REMARK 924 INTRA-LIGAND FREE ENERGY PREDICTED BY IDOCK:   -1.42 KCAL/MOL
REMARK 927      BINDING AFFINITY PREDICTED BY RF-SCORE:    0.00 PKD
ROOT
HETATM    1  C   UNL     1      -7.788   4.820  64.127  1.00  0.00    -0.083 C  
HETATM    2  C   UNL     1      -8.954   4.361  65.015  1.00  0.00    -0.145 C  
ENDROOT
BRANCH   2   3
HETATM    3  N   UNL     1      -9.251   5.351  66.076  1.00  0.00    -0.157 NA 
HETATM    4  H   UNL     1      -8.726   6.209  65.909  1.00  0.00     0.000 HD 
BRANCH   3   5
HETATM    5  C   UNL     1     -10.667   5.662  66.274  1.00  0.00    -0.076 C  
BRANCH   5   6
HETATM    6  C   UNL     1     -10.899   6.916  67.129  1.00  0.00    -0.447 C  
BRANCH   6   7
HETATM    7  C   UNL     1     -10.471   6.705  68.559  1.00  0.00    -0.246 A  
HETATM    8  C   UNL     1      -9.154   6.990  68.951  1.00  0.00    -0.134 A  
HETATM    9  C   UNL     1      -9.652   6.249  71.183  1.00  0.00    -0.175 A  
HETATM   10  C   UNL     1      -8.745   6.765  70.265  1.00  0.00    -0.144 A  
HETATM   11  O   UNL     1      -9.291   6.001  72.473  1.00  0.00    -0.143 OA 
HETATM   12  C   UNL     1     -10.963   5.968  70.812  1.00  0.00    -0.364 A  
HETATM   13  H   UNL     1      -9.910   5.649  73.101  1.00  0.00     0.000 HD 
HETATM   14  C   UNL     1     -11.373   6.192  69.498  1.00  0.00    -0.426 A  
ENDBRANCH   6   7
ENDBRANCH   5   6
ENDBRANCH   3   5
ENDBRANCH   2   3
BRANCH   2  15
HETATM   15  C   UNL     1      -8.675   2.982  65.693  1.00  0.00    -0.128 C  
HETATM   16  O   UNL     1      -9.727   2.055  65.389  1.00  0.00    -0.341 OA 
HETATM   17  H   UNL     1      -9.556   1.216  65.801  1.00  0.00     0.000 HD 
BRANCH  15  18
HETATM   18  C   UNL     1      -8.458   3.078  67.193  1.00  0.00    -0.102 A  
HETATM   19  C   UNL     1      -7.255   3.599  67.698  1.00  0.00    -0.059 A  
HETATM   20  C   UNL     1      -9.250   2.791  69.475  1.00  0.00    -0.204 A  
HETATM   21  H   UNL     1      -8.555   3.061  71.902  1.00  0.00     0.000 HD 
HETATM   22  C   UNL     1      -7.046   3.699  69.077  1.00  0.00    -0.050 A  
HETATM   23  C   UNL     1      -8.043   3.284  69.953  1.00  0.00    -0.045 A  
HETATM   24  C   UNL     1      -9.458   2.690  68.101  1.00  0.00    -0.217 A  
HETATM   25  O   UNL     1      -7.875   3.345  71.304  1.00  0.00    -0.056 OA 
ENDBRANCH  15  18
ENDBRANCH   2  15
TORSDOF 6
ENDMDL
MODEL      251
REMARK 921   NORMALIZED FREE ENERGY PREDICTED BY IDOCK:   -3.03 KCAL/MOL
REMARK 922        TOTAL FREE ENERGY PREDICTED BY IDOCK:   -5.13 KCAL/MOL
REMARK 923 INTER-LIGAND FREE ENERGY PREDICTED BY IDOCK:   -4.34 KCAL/MOL
REMARK 924 INTRA-LIGAND FREE ENERGY PREDICTED BY IDOCK:   -0.79 KCAL/MOL
REMARK 927      BINDING AFFINITY PREDICTED BY RF-SCORE:    0.00 PKD
ROOT
HETATM    1  C   UNL     1      -7.568   7.385  66.805  1.00  0.00    -0.101 C  
HETATM    2  C   UNL     1      -8.226   6.166  67.471  1.00  0.00    -0.109 C  
ENDROOT
BRANCH   2   3
HETATM    3  N   UNL     1      -8.039   6.182  68.940  1.00  0.00    -0.107 NA 
HETATM    4  H   UNL     1      -8.647   6.885  69.361  1.00  0.00     0.000 HD 
BRANCH   3   5
HETATM    5  C   UNL     1      -8.220   4.897  69.616  1.00  0.00    -0.080 C  
BRANCH   5   6
HETATM    6  C   UNL     1      -9.694   4.494  69.767  1.00  0.00    -0.285 C  
BRANCH   6   7
HETATM    7  C   UNL     1     -10.445   5.444  70.662  1.00  0.00    -0.329 A  
HETATM    8  C   UNL     1     -11.453   6.265  70.134  1.00  0.00    -0.452 A  
HETATM    9  C   UNL     1     -11.790   7.256  72.298  1.00  0.00    -0.248 A  
HETATM   10  C   UNL     1     -12.129   7.169  70.953  1.00  0.00    -0.368 A  
HETATM   11  O   UNL     1     -12.415   8.135  73.131  1.00  0.00    -0.605 OA 
HETATM   12  C   UNL     1     -10.798   6.444  72.839  1.00  0.00    -0.286 A  
HETATM   13  H   UNL     1     -12.184   8.194  74.050  1.00  0.00     0.000 HD 
HETATM   14  C   UNL     1     -10.122   5.540  72.021  1.00  0.00    -0.233 A  
ENDBRANCH   6   7
ENDBRANCH   5   6
ENDBRANCH   3   5
ENDBRANCH   2   3
BRANCH   2  15
HETATM   15  C   UNL     1      -7.667   4.817  66.919  1.00  0.00    -0.091 C  
HETATM   16  O   UNL     1      -6.286   4.961  66.556  1.00  0.00    -0.037 OA 
HETATM   17  H   UNL     1      -5.946   4.139  66.220  1.00  0.00     0.000 HD 
BRANCH  15  18
HETATM   18  C   UNL     1      -8.473   4.257  65.759  1.00  0.00    -0.113 A  
HETATM   19  C   UNL     1      -7.874   3.370  64.850  1.00  0.00    -0.082 A  
HETATM   20  C   UNL     1     -10.561   4.053  64.528  1.00  0.00    -0.201 A  
HETATM   21  H   UNL     1     -11.601   2.967  62.483  1.00  0.00     0.000 HD 
HETATM   22  C   UNL     1      -8.607   2.842  63.783  1.00  0.00    -0.086 A  
HETATM   23  C   UNL     1      -9.942   3.198  63.627  1.00  0.00    -0.157 A  
HETATM   24  C   UNL     1      -9.831   4.580  65.592  1.00  0.00    -0.227 A  
HETATM   25  O   UNL     1     -10.689   2.724  62.590  1.00  0.00    -0.147 OA 
ENDBRANCH  15  18
ENDBRANCH   2  15
TORSDOF 6
ENDMDL
MODEL      252
REMARK 921   NORMALIZED FREE ENERGY PREDICTED BY IDOCK:   -3.03 KCAL/MOL
REMARK 922        TOTAL FREE ENERGY PREDICTED BY IDOCK:   -5.13 KCAL/MOL
REMARK 923 INTER-LIGAND FREE ENERGY PREDICTED BY IDOCK:   -3.95 KCAL/MOL
REMARK 924 INTRA-LIGAND FREE ENERGY PREDICTED BY IDOCK:   -1.18 KCAL/MOL
REMARK 927      BINDING AFFINITY PREDICTED BY RF-SCORE:    0.00 PKD
ROOT
HETATM    1  C   UNL     1      -6.920  10.289  67.096  1.00  0.00    -0.088 C  
HETATM    2  C   UNL     1      -7.929   9.629  68.048  1.00  0.00    -0.097 C  
ENDROOT
BRANCH   2   3
HETATM    3  N   UNL     1      -8.080  10.403  69.302  1.00  0.00    -0.149 NA 
HETATM    4  H   UNL     1      -8.538  11.293  69.109  1.00  0.00     0.000 HD 
BRANCH   3   5
HETATM    5  C   UNL     1      -8.768   9.712  70.393  1.00  0.00    -0.166 C  
BRANCH   5   6
HETATM    6  C   UNL     1     -10.289   9.921  70.379  1.00  0.00    -0.322 C  
BRANCH   6   7
HETATM    7  C   UNL     1     -11.020   8.755  70.992  1.00  0.00    -0.328 A  
HETATM    8  C   UNL     1     -12.369   8.879  71.356  1.00  0.00    -0.368 A  
HETATM    9  C   UNL     1     -12.359   6.626  72.193  1.00  0.00    -0.200 A  
HETATM   10  C   UNL     1     -13.040   7.813  71.953  1.00  0.00    -0.300 A  
HETATM   11  O   UNL     1     -12.972   5.564  72.787  1.00  0.00    -0.326 OA 
HETATM   12  C   UNL     1     -11.023   6.484  71.831  1.00  0.00    -0.288 A  
HETATM   13  H   UNL     1     -12.506   4.753  72.951  1.00  0.00     0.000 HD 
HETATM   14  C   UNL     1     -10.350   7.550  71.234  1.00  0.00    -0.203 A  
ENDBRANCH   6   7
ENDBRANCH   5   6
ENDBRANCH   3   5
ENDBRANCH   2   3
BRANCH   2  15
HETATM   15  C   UNL     1      -7.525   8.167  68.417  1.00  0.00    -0.100 C  
HETATM   16  O   UNL     1      -6.144   7.937  68.104  1.00  0.00    -0.039 OA 
HETATM   17  H   UNL     1      -5.898   7.047  68.330  1.00  0.00     0.000 HD 
BRANCH  15  18
HETATM   18  C   UNL     1      -8.407   7.114  67.769  1.00  0.00    -0.118 A  
HETATM   19  C   UNL     1      -9.801   7.165  67.935  1.00  0.00    -0.170 A  
HETATM   20  C   UNL     1      -8.682   5.143  66.370  1.00  0.00    -0.113 A  
HETATM   21  H   UNL     1     -10.428   3.540  65.460  1.00  0.00     0.000 HD 
HETATM   22  C   UNL     1     -10.624   6.205  67.338  1.00  0.00    -0.352 A  
HETATM   23  C   UNL     1     -10.054   5.197  66.569  1.00  0.00    -0.239 A  
HETATM   24  C   UNL     1      -7.861   6.098  66.966  1.00  0.00    -0.101 A  
HETATM   25  O   UNL     1     -10.817   4.229  65.985  1.00  0.00     0.112 OA 
ENDBRANCH  15  18
ENDBRANCH   2  15
TORSDOF 6
ENDMDL
MODEL      253
REMARK 921   NORMALIZED FREE ENERGY PREDICTED BY IDOCK:   -3.02 KCAL/MOL
REMARK 922        TOTAL FREE ENERGY PREDICTED BY IDOCK:   -5.12 KCAL/MOL
REMARK 923 INTER-LIGAND FREE ENERGY PREDICTED BY IDOCK:   -5.66 KCAL/MOL
REMARK 924 INTRA-LIGAND FREE ENERGY PREDICTED BY IDOCK:    0.54 KCAL/MOL
REMARK 927      BINDING AFFINITY PREDICTED BY RF-SCORE:    0.00 PKD
ROOT
HETATM    1  C   UNL     1      -9.678  14.362  67.548  1.00  0.00    -0.215 C  
HETATM    2  C   UNL     1     -11.085  14.677  68.078  1.00  0.00    -0.281 C  
ENDROOT
BRANCH   2   3
HETATM    3  N   UNL     1     -11.154  16.036  68.664  1.00  0.00    -0.329 NA 
HETATM    4  H   UNL     1     -11.688  16.013  69.534  1.00  0.00     0.000 HD 
BRANCH   3   5
HETATM    5  C   UNL     1      -9.868  16.697  68.884  1.00  0.00    -0.261 C  
BRANCH   5   6
HETATM    6  C   UNL     1      -9.923  18.216  68.672  1.00  0.00    -0.409 C  
BRANCH   6   7
HETATM    7  C   UNL     1      -8.898  18.679  67.668  1.00  0.00    -0.292 A  
HETATM    8  C   UNL     1      -8.579  20.040  67.561  1.00  0.00    -0.401 A  
HETATM    9  C   UNL     1      -7.058  19.550  65.765  1.00  0.00    -0.298 A  
HETATM   10  C   UNL     1      -7.655  20.476  66.612  1.00  0.00    -0.251 A  
HETATM   11  O   UNL     1      -6.161  19.934  64.814  1.00  0.00    -0.251 OA 
HETATM   12  C   UNL     1      -7.359  18.195  65.863  1.00  0.00    -0.240 A  
HETATM   13  H   UNL     1      -5.753  19.301  64.235  1.00  0.00     0.000 HD 
HETATM   14  C   UNL     1      -8.282  17.758  66.812  1.00  0.00    -0.275 A  
ENDBRANCH   6   7
ENDBRANCH   5   6
ENDBRANCH   3   5
ENDBRANCH   2   3
BRANCH   2  15
HETATM   15  C   UNL     1     -11.554  13.651  69.158  1.00  0.00    -0.309 C  
HETATM   16  O   UNL     1     -11.194  14.109  70.470  1.00  0.00    -0.496 OA 
HETATM   17  H   UNL     1     -11.480  13.485  71.127  1.00  0.00     0.000 HD 
BRANCH  15  18
HETATM   18  C   UNL     1     -11.037  12.243  68.919  1.00  0.00    -0.291 A  
HETATM   19  C   UNL     1      -9.669  12.025  68.690  1.00  0.00    -0.104 A  
HETATM   20  C   UNL     1     -11.411   9.845  68.745  1.00  0.00    -0.049 A  
HETATM   21  H   UNL     1     -10.230   7.646  68.284  1.00  0.00     0.000 HD 
HETATM   22  C   UNL     1      -9.180  10.733  68.475  1.00  0.00    -0.174 A  
HETATM   23  C   UNL     1     -10.059   9.656  68.495  1.00  0.00    -0.175 A  
HETATM   24  C   UNL     1     -11.899  11.133  68.959  1.00  0.00    -0.418 A  
HETATM   25  O   UNL     1      -9.629   8.382  68.270  1.00  0.00    -0.141 OA 
ENDBRANCH  15  18
ENDBRANCH   2  15
TORSDOF 6
ENDMDL
MODEL      254
REMARK 921   NORMALIZED FREE ENERGY PREDICTED BY IDOCK:   -2.90 KCAL/MOL
REMARK 922        TOTAL FREE ENERGY PREDICTED BY IDOCK:   -4.96 KCAL/MOL
REMARK 923 INTER-LIGAND FREE ENERGY PREDICTED BY IDOCK:   -3.86 KCAL/MOL
REMARK 924 INTRA-LIGAND FREE ENERGY PREDICTED BY IDOCK:   -1.10 KCAL/MOL
REMARK 927      BINDING AFFINITY PREDICTED BY RF-SCORE:    0.00 PKD
ROOT
HETATM    1  C   UNL     1      -5.689   9.260  68.910  1.00  0.00    -0.040 C  
HETATM    2  C   UNL     1      -7.195   9.044  68.702  1.00  0.00    -0.072 C  
ENDROOT
BRANCH   2   3
HETATM    3  N   UNL     1      -7.660   9.646  67.430  1.00  0.00    -0.094 NA 
HETATM    4  H   UNL     1      -6.890  10.136  66.975  1.00  0.00     0.000 HD 
BRANCH   3   5
HETATM    5  C   UNL     1      -8.293   8.723  66.487  1.00  0.00    -0.112 C  
BRANCH   5   6
HETATM    6  C   UNL     1      -7.331   7.658  65.943  1.00  0.00    -0.074 C  
BRANCH   6   7
HETATM    7  C   UNL     1      -7.963   6.291  65.922  1.00  0.00    -0.116 A  
HETATM    8  C   UNL     1      -8.267   5.634  67.123  1.00  0.00    -0.101 A  
HETATM    9  C   UNL     1      -9.066   3.732  65.891  1.00  0.00    -0.150 A  
HETATM   10  C   UNL     1      -8.822   4.356  67.108  1.00  0.00    -0.119 A  
HETATM   11  O   UNL     1      -9.594   2.477  65.830  1.00  0.00    -0.365 OA 
HETATM   12  C   UNL     1      -8.777   4.372  64.690  1.00  0.00    -0.142 A  
HETATM   13  H   UNL     1      -9.761   2.051  64.998  1.00  0.00     0.000 HD 
HETATM   14  C   UNL     1      -8.221   5.651  64.703  1.00  0.00    -0.129 A  
ENDBRANCH   6   7
ENDBRANCH   5   6
ENDBRANCH   3   5
ENDBRANCH   2   3
BRANCH   2  15
HETATM   15  C   UNL     1      -8.045   9.639  69.868  1.00  0.00    -0.171 C  
HETATM   16  O   UNL     1      -7.238   9.794  71.044  1.00  0.00    -0.332 OA 
HETATM   17  H   UNL     1      -7.756  10.156  71.754  1.00  0.00     0.000 HD 
BRANCH  15  18
HETATM   18  C   UNL     1      -9.297   8.836  70.175  1.00  0.00    -0.181 A  
HETATM   19  C   UNL     1     -10.425   9.473  70.720  1.00  0.00    -0.384 A  
HETATM   20  C   UNL     1     -10.529   6.738  70.170  1.00  0.00    -0.240 A  
HETATM   21  H   UNL     1     -12.750   5.700  70.826  1.00  0.00     0.000 HD 
HETATM   22  C   UNL     1     -11.586   8.746  71.001  1.00  0.00    -0.337 A  
HETATM   23  C   UNL     1     -11.622   7.382  70.732  1.00  0.00    -0.290 A  
HETATM   24  C   UNL     1      -9.371   7.462  69.890  1.00  0.00    -0.154 A  
HETATM   25  O   UNL     1     -12.725   6.631  71.009  1.00  0.00    -0.259 OA 
ENDBRANCH  15  18
ENDBRANCH   2  15
TORSDOF 6
ENDMDL
MODEL      255
REMARK 921   NORMALIZED FREE ENERGY PREDICTED BY IDOCK:   -2.84 KCAL/MOL
REMARK 922        TOTAL FREE ENERGY PREDICTED BY IDOCK:   -4.88 KCAL/MOL
REMARK 923 INTER-LIGAND FREE ENERGY PREDICTED BY IDOCK:   -4.83 KCAL/MOL
REMARK 924 INTRA-LIGAND FREE ENERGY PREDICTED BY IDOCK:   -0.05 KCAL/MOL
REMARK 927      BINDING AFFINITY PREDICTED BY RF-SCORE:    0.00 PKD
ROOT
HETATM    1  C   UNL     1      -6.928  10.368  69.604  1.00  0.00    -0.127 C  
HETATM    2  C   UNL     1      -7.750  11.361  68.769  1.00  0.00    -0.135 C  
ENDROOT
BRANCH   2   3
HETATM    3  N   UNL     1      -7.745  12.714  69.372  1.00  0.00    -0.112 NA 
HETATM    4  H   UNL     1      -6.787  13.003  69.569  1.00  0.00     0.000 HD 
BRANCH   3   5
HETATM    5  C   UNL     1      -8.434  13.752  68.604  1.00  0.00    -0.056 C  
BRANCH   5   6
HETATM    6  C   UNL     1      -7.479  14.635  67.788  1.00  0.00    -0.180 C  
BRANCH   6   7
HETATM    7  C   UNL     1      -8.070  15.994  67.514  1.00  0.00    -0.167 A  
HETATM    8  C   UNL     1      -8.213  16.924  68.553  1.00  0.00    -0.249 A  
HETATM    9  C   UNL     1      -9.228  18.481  67.029  1.00  0.00    -0.284 A  
HETATM   10  C   UNL     1      -8.789  18.170  68.311  1.00  0.00    -0.293 A  
HETATM   11  O   UNL     1      -9.810  19.682  66.751  1.00  0.00    -0.337 OA 
HETATM   12  C   UNL     1      -9.087  17.572  65.985  1.00  0.00    -0.060 A  
HETATM   13  H   UNL     1     -10.110  19.895  65.875  1.00  0.00     0.000 HD 
HETATM   14  C   UNL     1      -8.512  16.325  66.227  1.00  0.00    -0.369 A  
ENDBRANCH   6   7
ENDBRANCH   5   6
ENDBRANCH   3   5
ENDBRANCH   2   3
BRANCH   2  15
HETATM   15  C   UNL     1      -9.234  10.903  68.599  1.00  0.00    -0.187 C  
HETATM   16  O   UNL     1      -9.343   9.486  68.791  1.00  0.00    -0.143 OA 
HETATM   17  H   UNL     1     -10.246   9.208  68.688  1.00  0.00     0.000 HD 
BRANCH  15  18
HETATM   18  C   UNL     1      -9.846  11.316  67.271  1.00  0.00    -0.203 A  
HETATM   19  C   UNL     1      -9.504  10.628  66.095  1.00  0.00    -0.218 A  
HETATM   20  C   UNL     1     -11.345  12.722  65.970  1.00  0.00    -0.363 A  
HETATM   21  H   UNL     1     -12.150  13.167  63.604  1.00  0.00     0.000 HD 
HETATM   22  C   UNL     1     -10.065  10.993  64.868  1.00  0.00    -0.359 A  
HETATM   23  C   UNL     1     -10.973  12.045  64.817  1.00  0.00    -0.311 A  
HETATM   24  C   UNL     1     -10.785  12.358  67.193  1.00  0.00    -0.264 A  
HETATM   25  O   UNL     1     -11.530  12.448  63.639  1.00  0.00    -0.414 OA 
ENDBRANCH  15  18
ENDBRANCH   2  15
TORSDOF 6
ENDMDL
MODEL      256
REMARK 921   NORMALIZED FREE ENERGY PREDICTED BY IDOCK:   -2.75 KCAL/MOL
REMARK 922        TOTAL FREE ENERGY PREDICTED BY IDOCK:   -4.76 KCAL/MOL
REMARK 923 INTER-LIGAND FREE ENERGY PREDICTED BY IDOCK:   -4.84 KCAL/MOL
REMARK 924 INTRA-LIGAND FREE ENERGY PREDICTED BY IDOCK:    0.07 KCAL/MOL
REMARK 927      BINDING AFFINITY PREDICTED BY RF-SCORE:    0.00 PKD
ROOT
HETATM    1  C   UNL     1      -7.250   8.688  68.543  1.00  0.00    -0.081 C  
HETATM    2  C   UNL     1      -8.718   8.510  68.957  1.00  0.00    -0.134 C  
ENDROOT
BRANCH   2   3
HETATM    3  N   UNL     1      -9.615   8.467  67.778  1.00  0.00    -0.152 NA 
HETATM    4  H   UNL     1     -10.569   8.261  68.074  1.00  0.00     0.000 HD 
BRANCH   3   5
HETATM    5  C   UNL     1      -9.601   9.658  66.928  1.00  0.00    -0.167 C  
BRANCH   5   6
HETATM    6  C   UNL     1     -10.263  10.878  67.585  1.00  0.00    -0.214 C  
BRANCH   6   7
HETATM    7  C   UNL     1      -9.574  12.162  67.201  1.00  0.00    -0.195 A  
HETATM    8  C   UNL     1      -8.282  12.438  67.670  1.00  0.00    -0.169 A  
HETATM    9  C   UNL     1      -8.323  14.567  66.554  1.00  0.00     0.288 A  
HETATM   10  C   UNL     1      -7.654  13.639  67.343  1.00  0.00    -0.144 A  
HETATM   11  O   UNL     1      -7.753  15.759  66.223  1.00  0.00    -0.175 OA 
HETATM   12  C   UNL     1      -9.603  14.306  66.074  1.00  0.00    -0.271 A  
HETATM   13  H   UNL     1      -8.210  16.393  65.683  1.00  0.00     0.000 HD 
HETATM   14  C   UNL     1     -10.232  13.105  66.400  1.00  0.00    -0.286 A  
ENDBRANCH   6   7
ENDBRANCH   5   6
ENDBRANCH   3   5
ENDBRANCH   2   3
BRANCH   2  15
HETATM   15  C   UNL     1      -9.208   9.650  69.906  1.00  0.00    -0.229 C  
HETATM   16  O   UNL     1      -8.195   9.964  70.872  1.00  0.00    -0.363 OA 
HETATM   17  H   UNL     1      -8.493  10.658  71.449  1.00  0.00     0.000 HD 
BRANCH  15  18
HETATM   18  C   UNL     1     -10.528   9.341  70.591  1.00  0.00    -0.325 A  
HETATM   19  C   UNL     1     -10.627   8.248  71.467  1.00  0.00    -0.296 A  
HETATM   20  C   UNL     1     -12.861   9.864  71.038  1.00  0.00    -0.417 A  
HETATM   21  H   UNL     1     -14.903   9.055  72.311  1.00  0.00     0.000 HD 
HETATM   22  C   UNL     1     -11.834   7.957  72.109  1.00  0.00    -0.384 A  
HETATM   23  C   UNL     1     -12.943   8.763  71.879  1.00  0.00    -0.376 A  
HETATM   24  C   UNL     1     -11.658  10.154  70.397  1.00  0.00    -0.396 A  
HETATM   25  O   UNL     1     -14.145   8.505  72.468  1.00  0.00    -0.349 OA 
ENDBRANCH  15  18
ENDBRANCH   2  15
TORSDOF 6
ENDMDL
MODEL      257
REMARK 921   NORMALIZED FREE ENERGY PREDICTED BY IDOCK:   -2.74 KCAL/MOL
REMARK 922        TOTAL FREE ENERGY PREDICTED BY IDOCK:   -4.75 KCAL/MOL
REMARK 923 INTER-LIGAND FREE ENERGY PREDICTED BY IDOCK:   -4.20 KCAL/MOL
REMARK 924 INTRA-LIGAND FREE ENERGY PREDICTED BY IDOCK:   -0.55 KCAL/MOL
REMARK 927      BINDING AFFINITY PREDICTED BY RF-SCORE:    0.00 PKD
ROOT
HETATM    1  C   UNL     1      -6.960   8.479  69.193  1.00  0.00    -0.063 C  
HETATM    2  C   UNL     1      -8.084   7.434  69.240  1.00  0.00    -0.123 C  
ENDROOT
BRANCH   2   3
HETATM    3  N   UNL     1      -9.212   7.807  68.355  1.00  0.00    -0.137 NA 
HETATM    4  H   UNL     1     -10.068   7.898  68.902  1.00  0.00     0.000 HD 
BRANCH   3   5
HETATM    5  C   UNL     1      -9.009   9.007  67.543  1.00  0.00    -0.122 C  
BRANCH   5   6
HETATM    6  C   UNL     1     -10.208   9.341  66.644  1.00  0.00    -0.323 C  
BRANCH   6   7
HETATM    7  C   UNL     1     -10.778  10.701  66.954  1.00  0.00    -0.297 A  
HETATM    8  C   UNL     1     -11.335  10.963  68.215  1.00  0.00    -0.374 A  
HETATM    9  C   UNL     1     -11.899  13.191  67.511  1.00  0.00    -0.360 A  
HETATM   10  C   UNL     1     -11.892  12.210  68.495  1.00  0.00    -0.365 A  
HETATM   11  O   UNL     1     -12.446  14.418  67.737  1.00  0.00    -0.588 OA 
HETATM   12  C   UNL     1     -11.345  12.950  66.258  1.00  0.00    -0.364 A  
HETATM   13  H   UNL     1     -12.451  15.089  67.064  1.00  0.00     0.000 HD 
HETATM   14  C   UNL     1     -10.787  11.703  65.976  1.00  0.00    -0.339 A  
ENDBRANCH   6   7
ENDBRANCH   5   6
ENDBRANCH   3   5
ENDBRANCH   2   3
BRANCH   2  15
HETATM   15  C   UNL     1      -8.640   7.227  70.684  1.00  0.00    -0.142 C  
HETATM   16  O   UNL     1      -8.442   8.412  71.469  1.00  0.00    -0.128 OA 
HETATM   17  H   UNL     1      -8.781   8.286  72.348  1.00  0.00     0.000 HD 
BRANCH  15  18
HETATM   18  C   UNL     1      -8.060   6.012  71.388  1.00  0.00    -0.115 A  
HETATM   19  C   UNL     1      -8.151   4.744  70.791  1.00  0.00    -0.085 A  
HETATM   20  C   UNL     1      -6.857   5.009  73.249  1.00  0.00    -0.074 A  
HETATM   21  H   UNL     1      -6.031   2.787  74.157  1.00  0.00     0.000 HD 
HETATM   22  C   UNL     1      -7.615   3.619  71.425  1.00  0.00    -0.055 A  
HETATM   23  C   UNL     1      -6.982   3.762  72.654  1.00  0.00    -0.044 A  
HETATM   24  C   UNL     1      -7.392   6.131  72.619  1.00  0.00    -0.089 A  
HETATM   25  O   UNL     1      -6.463   2.690  73.317  1.00  0.00    -0.016 OA 
ENDBRANCH  15  18
ENDBRANCH   2  15
TORSDOF 6
ENDMDL
MODEL      258
REMARK 921   NORMALIZED FREE ENERGY PREDICTED BY IDOCK:   -2.68 KCAL/MOL
REMARK 922        TOTAL FREE ENERGY PREDICTED BY IDOCK:   -4.66 KCAL/MOL
REMARK 923 INTER-LIGAND FREE ENERGY PREDICTED BY IDOCK:   -4.09 KCAL/MOL
REMARK 924 INTRA-LIGAND FREE ENERGY PREDICTED BY IDOCK:   -0.57 KCAL/MOL
REMARK 927      BINDING AFFINITY PREDICTED BY RF-SCORE:    0.00 PKD
ROOT
HETATM    1  C   UNL     1      -6.796   8.896  69.473  1.00  0.00    -0.048 C  
HETATM    2  C   UNL     1      -7.479   8.455  68.169  1.00  0.00    -0.097 C  
ENDROOT
BRANCH   2   3
HETATM    3  N   UNL     1      -7.782   9.612  67.296  1.00  0.00    -0.092 NA 
HETATM    4  H   UNL     1      -8.789   9.779  67.276  1.00  0.00     0.000 HD 
BRANCH   3   5
HETATM    5  C   UNL     1      -7.077  10.852  67.619  1.00  0.00    -0.087 C  
BRANCH   5   6
HETATM    6  C   UNL     1      -7.989  11.928  68.226  1.00  0.00    -0.148 C  
BRANCH   6   7
HETATM    7  C   UNL     1      -9.239  12.127  67.409  1.00  0.00    -0.182 A  
HETATM    8  C   UNL     1     -10.486  11.738  67.919  1.00  0.00    -0.219 A  
HETATM    9  C   UNL     1     -11.547  12.426  65.875  1.00  0.00    -0.396 A  
HETATM   10  C   UNL     1     -11.641  11.890  67.154  1.00  0.00    -0.363 A  
HETATM   11  O   UNL     1     -12.648  12.580  65.088  1.00  0.00    -0.631 OA 
HETATM   12  C   UNL     1     -10.319  12.825  65.356  1.00  0.00    -0.310 A  
HETATM   13  H   UNL     1     -12.584  12.946  64.213  1.00  0.00     0.000 HD 
HETATM   14  C   UNL     1      -9.162  12.672  66.121  1.00  0.00    -0.052 A  
ENDBRANCH   6   7
ENDBRANCH   5   6
ENDBRANCH   3   5
ENDBRANCH   2   3
BRANCH   2  15
HETATM   15  C   UNL     1      -8.806   7.675  68.432  1.00  0.00    -0.130 C  
HETATM   16  O   UNL     1      -8.939   7.373  69.828  1.00  0.00    -0.141 OA 
HETATM   17  H   UNL     1      -9.747   6.898  69.987  1.00  0.00     0.000 HD 
BRANCH  15  18
HETATM   18  C   UNL     1      -8.944   6.417  67.592  1.00  0.00    -0.113 A  
HETATM   19  C   UNL     1     -10.210   6.008  67.141  1.00  0.00    -0.248 A  
HETATM   20  C   UNL     1      -7.959   4.513  66.442  1.00  0.00    -0.103 A  
HETATM   21  H   UNL     1      -8.544   2.465  65.061  1.00  0.00     0.000 HD 
HETATM   22  C   UNL     1     -10.350   4.855  66.363  1.00  0.00    -0.328 A  
HETATM   23  C   UNL     1      -9.222   4.113  66.029  1.00  0.00    -0.149 A  
HETATM   24  C   UNL     1      -7.819   5.661  67.219  1.00  0.00    -0.101 A  
HETATM   25  O   UNL     1      -9.314   2.972  65.289  1.00  0.00    -0.149 OA 
ENDBRANCH  15  18
ENDBRANCH   2  15
TORSDOF 6
ENDMDL
MODEL      259
REMARK 921   NORMALIZED FREE ENERGY PREDICTED BY IDOCK:   -2.58 KCAL/MOL
REMARK 922        TOTAL FREE ENERGY PREDICTED BY IDOCK:   -4.52 KCAL/MOL
REMARK 923 INTER-LIGAND FREE ENERGY PREDICTED BY IDOCK:   -4.51 KCAL/MOL
REMARK 924 INTRA-LIGAND FREE ENERGY PREDICTED BY IDOCK:   -0.01 KCAL/MOL
REMARK 927      BINDING AFFINITY PREDICTED BY RF-SCORE:    0.00 PKD
ROOT
HETATM    1  C   UNL     1      -7.804  10.706  68.786  1.00  0.00    -0.125 C  
HETATM    2  C   UNL     1      -8.574  10.715  67.457  1.00  0.00    -0.122 C  
ENDROOT
BRANCH   2   3
HETATM    3  N   UNL     1      -9.220  12.026  67.211  1.00  0.00    -0.177 NA 
HETATM    4  H   UNL     1     -10.007  12.150  67.847  1.00  0.00     0.000 HD 
BRANCH   3   5
HETATM    5  C   UNL     1      -8.336  13.190  67.276  1.00  0.00    -0.179 C  
BRANCH   5   6
HETATM    6  C   UNL     1      -8.245  13.804  68.681  1.00  0.00    -0.077 C  
BRANCH   6   7
HETATM    7  C   UNL     1      -8.063  15.299  68.628  1.00  0.00    -0.156 A  
HETATM    8  C   UNL     1      -9.111  16.123  68.192  1.00  0.00    -0.189 A  
HETATM    9  C   UNL     1      -7.710  18.057  68.458  1.00  0.00    -0.302 A  
HETATM   10  C   UNL     1      -8.936  17.503  68.110  1.00  0.00    -0.266 A  
HETATM   11  O   UNL     1      -7.491  19.400  68.380  1.00  0.00    -0.294 OA 
HETATM   12  C   UNL     1      -6.662  17.255  68.899  1.00  0.00    -0.218 A  
HETATM   13  H   UNL     1      -6.653  19.779  68.618  1.00  0.00     0.000 HD 
HETATM   14  C   UNL     1      -6.836  15.874  68.981  1.00  0.00    -0.153 A  
ENDBRANCH   6   7
ENDBRANCH   5   6
ENDBRANCH   3   5
ENDBRANCH   2   3
BRANCH   2  15
HETATM   15  C   UNL     1      -9.673   9.607  67.402  1.00  0.00    -0.156 C  
HETATM   16  O   UNL     1     -10.693   9.963  66.458  1.00  0.00    -0.130 OA 
HETATM   17  H   UNL     1     -11.361   9.289  66.425  1.00  0.00     0.000 HD 
BRANCH  15  18
HETATM   18  C   UNL     1     -10.280   9.291  68.758  1.00  0.00    -0.223 A  
HETATM   19  C   UNL     1      -9.927   8.108  69.428  1.00  0.00    -0.188 A  
HETATM   20  C   UNL     1     -11.714   9.881  70.632  1.00  0.00    -0.404 A  
HETATM   21  H   UNL     1     -12.557   9.038  72.873  1.00  0.00     0.000 HD 
HETATM   22  C   UNL     1     -10.474   7.808  70.679  1.00  0.00    -0.213 A  
HETATM   23  C   UNL     1     -11.371   8.694  71.264  1.00  0.00    -0.281 A  
HETATM   24  C   UNL     1     -11.170  10.180  69.385  1.00  0.00    -0.265 A  
HETATM   25  O   UNL     1     -11.944   8.433  72.473  1.00  0.00    -0.393 OA 
ENDBRANCH  15  18
ENDBRANCH   2  15
TORSDOF 6
ENDMDL
MODEL      260
REMARK 921   NORMALIZED FREE ENERGY PREDICTED BY IDOCK:   -2.51 KCAL/MOL
REMARK 922        TOTAL FREE ENERGY PREDICTED BY IDOCK:   -4.43 KCAL/MOL
REMARK 923 INTER-LIGAND FREE ENERGY PREDICTED BY IDOCK:   -4.00 KCAL/MOL
REMARK 924 INTRA-LIGAND FREE ENERGY PREDICTED BY IDOCK:   -0.43 KCAL/MOL
REMARK 927      BINDING AFFINITY PREDICTED BY RF-SCORE:    0.00 PKD
ROOT
HETATM    1  C   UNL     1      -7.069   9.884  67.048  1.00  0.00    -0.089 C  
HETATM    2  C   UNL     1      -8.558  10.183  66.820  1.00  0.00    -0.126 C  
ENDROOT
BRANCH   2   3
HETATM    3  N   UNL     1      -9.376   8.949  66.877  1.00  0.00    -0.158 NA 
HETATM    4  H   UNL     1      -8.770   8.129  66.851  1.00  0.00     0.000 HD 
BRANCH   3   5
HETATM    5  C   UNL     1     -10.300   8.853  68.007  1.00  0.00    -0.219 C  
BRANCH   5   6
HETATM    6  C   UNL     1      -9.874   7.811  69.051  1.00  0.00    -0.169 C  
BRANCH   6   7
HETATM    7  C   UNL     1      -8.871   6.836  68.491  1.00  0.00    -0.123 A  
HETATM    8  C   UNL     1      -9.304   5.697  67.797  1.00  0.00    -0.113 A  
HETATM    9  C   UNL     1      -7.024   4.991  67.516  1.00  0.00    -0.061 A  
HETATM   10  C   UNL     1      -8.381   4.775  67.306  1.00  0.00    -0.105 A  
HETATM   11  O   UNL     1      -6.088   4.109  67.066  1.00  0.00    -0.026 OA 
HETATM   12  C   UNL     1      -6.577   6.120  68.196  1.00  0.00    -0.058 A  
HETATM   13  H   UNL     1      -5.160   4.257  67.209  1.00  0.00     0.000 HD 
HETATM   14  C   UNL     1      -7.500   7.042  68.688  1.00  0.00    -0.102 A  
ENDBRANCH   6   7
ENDBRANCH   5   6
ENDBRANCH   3   5
ENDBRANCH   2   3
BRANCH   2  15
HETATM   15  C   UNL     1      -8.817  10.883  65.448  1.00  0.00    -0.180 C  
HETATM   16  O   UNL     1      -7.694  11.698  65.084  1.00  0.00     0.324 OA 
HETATM   17  H   UNL     1      -7.852  12.123  64.249  1.00  0.00     0.000 HD 
BRANCH  15  18
HETATM   18  C   UNL     1     -10.103  11.691  65.415  1.00  0.00    -0.299 A  
HETATM   19  C   UNL     1     -11.041  11.477  64.391  1.00  0.00    -0.359 A  
HETATM   20  C   UNL     1     -11.586  13.362  66.376  1.00  0.00    -0.381 A  
HETATM   21  H   UNL     1     -13.799  14.549  66.007  1.00  0.00     0.000 HD 
HETATM   22  C   UNL     1     -12.231  12.210  64.353  1.00  0.00    -0.435 A  
HETATM   23  C   UNL     1     -12.487  13.154  65.342  1.00  0.00    -0.481 A  
HETATM   24  C   UNL     1     -10.399  12.633  66.415  1.00  0.00    -0.264 A  
HETATM   25  O   UNL     1     -13.625  13.905  65.333  1.00  0.00    -0.571 OA 
ENDBRANCH  15  18
ENDBRANCH   2  15
TORSDOF 6
ENDMDL
MODEL      261
REMARK 921   NORMALIZED FREE ENERGY PREDICTED BY IDOCK:   -1.79 KCAL/MOL
REMARK 922        TOTAL FREE ENERGY PREDICTED BY IDOCK:   -3.46 KCAL/MOL
REMARK 923 INTER-LIGAND FREE ENERGY PREDICTED BY IDOCK:   -4.62 KCAL/MOL
REMARK 924 INTRA-LIGAND FREE ENERGY PREDICTED BY IDOCK:    1.16 KCAL/MOL
REMARK 927      BINDING AFFINITY PREDICTED BY RF-SCORE:    0.00 PKD
ROOT
HETATM    1  C   UNL     1      -8.277  15.544  66.142  1.00  0.00     0.364 C  
HETATM    2  C   UNL     1      -7.959  14.674  67.368  1.00  0.00    -0.201 C  
ENDROOT
BRANCH   2   3
HETATM    3  N   UNL     1      -6.543  14.812  67.780  1.00  0.00    -0.160 NA 
HETATM    4  H   UNL     1      -5.989  15.180  67.006  1.00  0.00     0.000 HD 
BRANCH   3   5
HETATM    5  C   UNL     1      -6.309  15.609  68.985  1.00  0.00    -0.123 C  
BRANCH   5   6
HETATM    6  C   UNL     1      -7.100  16.925  69.004  1.00  0.00    -0.232 C  
BRANCH   6   7
HETATM    7  C   UNL     1      -8.583  16.685  69.127  1.00  0.00    -0.110 A  
HETATM    8  C   UNL     1      -9.493  17.563  68.521  1.00  0.00    -0.296 A  
HETATM    9  C   UNL     1     -11.326  16.289  69.411  1.00  0.00    -0.284 A  
HETATM   10  C   UNL     1     -10.866  17.363  68.659  1.00  0.00    -0.146 A  
HETATM   11  O   UNL     1     -12.659  16.064  69.584  1.00  0.00    -0.479 OA 
HETATM   12  C   UNL     1     -10.437  15.404  70.012  1.00  0.00    -0.301 A  
HETATM   13  H   UNL     1     -12.974  15.330  70.097  1.00  0.00     0.000 HD 
HETATM   14  C   UNL     1      -9.063  15.603  69.875  1.00  0.00     0.123 A  
ENDBRANCH   6   7
ENDBRANCH   5   6
ENDBRANCH   3   5
ENDBRANCH   2   3
BRANCH   2  15
HETATM   15  C   UNL     1      -8.251  13.161  67.112  1.00  0.00    -0.120 C  
HETATM   16  O   UNL     1      -7.137  12.543  66.453  1.00  0.00    -0.071 OA 
HETATM   17  H   UNL     1      -7.315  11.623  66.297  1.00  0.00     0.000 HD 
BRANCH  15  18
HETATM   18  C   UNL     1      -9.537  12.916  66.340  1.00  0.00    -0.252 A  
HETATM   19  C   UNL     1     -10.720  13.570  66.720  1.00  0.00    -0.278 A  
HETATM   20  C   UNL     1     -10.750  11.858  64.517  1.00  0.00    -0.361 A  
HETATM   21  H   UNL     1     -13.056  11.654  63.477  1.00  0.00     0.000 HD 
HETATM   22  C   UNL     1     -11.908  13.358  66.015  1.00  0.00    -0.423 A  
HETATM   23  C   UNL     1     -11.913  12.495  64.925  1.00  0.00    -0.412 A  
HETATM   24  C   UNL     1      -9.565  12.068  65.220  1.00  0.00    -0.117 A  
HETATM   25  O   UNL     1     -13.053  12.243  64.221  1.00  0.00    -0.746 OA 
ENDBRANCH  15  18
ENDBRANCH   2  15
TORSDOF 6
ENDMDL
MODEL      262
REMARK 921   NORMALIZED FREE ENERGY PREDICTED BY IDOCK:   -1.66 KCAL/MOL
REMARK 922        TOTAL FREE ENERGY PREDICTED BY IDOCK:   -3.28 KCAL/MOL
REMARK 923 INTER-LIGAND FREE ENERGY PREDICTED BY IDOCK:   -3.07 KCAL/MOL
REMARK 924 INTRA-LIGAND FREE ENERGY PREDICTED BY IDOCK:   -0.22 KCAL/MOL
REMARK 927      BINDING AFFINITY PREDICTED BY RF-SCORE:    0.00 PKD
ROOT
HETATM    1  C   UNL     1      -8.475   7.839  65.439  1.00  0.00    -0.124 C  
HETATM    2  C   UNL     1      -8.966   8.259  66.832  1.00  0.00    -0.146 C  
ENDROOT
BRANCH   2   3
HETATM    3  N   UNL     1      -8.874   7.143  67.801  1.00  0.00    -0.124 NA 
HETATM    4  H   UNL     1      -9.667   6.512  67.683  1.00  0.00     0.000 HD 
BRANCH   3   5
HETATM    5  C   UNL     1      -7.624   6.384  67.776  1.00  0.00    -0.102 C  
BRANCH   5   6
HETATM    6  C   UNL     1      -7.712   5.045  68.522  1.00  0.00    -0.079 C  
BRANCH   6   7
HETATM    7  C   UNL     1      -8.430   5.185  69.839  1.00  0.00    -0.097 A  
HETATM    8  C   UNL     1      -9.762   4.764  69.966  1.00  0.00    -0.280 A  
HETATM    9  C   UNL     1      -9.786   5.506  72.252  1.00  0.00    -0.161 A  
HETATM   10  C   UNL     1     -10.440   4.921  71.174  1.00  0.00    -0.161 A  
HETATM   11  O   UNL     1     -10.415   5.692  73.447  1.00  0.00    -0.208 OA 
HETATM   12  C   UNL     1      -8.463   5.922  72.145  1.00  0.00    -0.125 A  
HETATM   13  H   UNL     1      -9.969   6.092  74.184  1.00  0.00     0.000 HD 
HETATM   14  C   UNL     1      -7.784   5.766  70.938  1.00  0.00    -0.097 A  
ENDBRANCH   6   7
ENDBRANCH   5   6
ENDBRANCH   3   5
ENDBRANCH   2   3
BRANCH   2  15
HETATM   15  C   UNL     1     -10.442   8.770  66.809  1.00  0.00    -0.213 C  
HETATM   16  O   UNL     1     -10.617   9.740  65.767  1.00  0.00    -0.026 OA 
HETATM   17  H   UNL     1     -11.516  10.051  65.753  1.00  0.00     0.000 HD 
BRANCH  15  18
HETATM   18  C   UNL     1     -10.911   9.323  68.144  1.00  0.00    -0.060 A  
HETATM   19  C   UNL     1     -10.373   8.821  69.341  1.00  0.00    -0.217 A  
HETATM   20  C   UNL     1     -12.271  10.865  69.444  1.00  0.00    -0.293 A  
HETATM   21  H   UNL     1     -12.848  11.535  71.824  1.00  0.00     0.000 HD 
HETATM   22  C   UNL     1     -10.792   9.325  70.576  1.00  0.00    -0.318 A  
HETATM   23  C   UNL     1     -11.745  10.337  70.615  1.00  0.00    -0.348 A  
HETATM   24  C   UNL     1     -11.855  10.362  68.213  1.00  0.00     0.258 A  
HETATM   25  O   UNL     1     -12.197  10.844  71.797  1.00  0.00    -0.146 OA 
ENDBRANCH  15  18
ENDBRANCH   2  15
TORSDOF 6
ENDMDL
MODEL      263
REMARK 921   NORMALIZED FREE ENERGY PREDICTED BY IDOCK:   -1.05 KCAL/MOL
REMARK 922        TOTAL FREE ENERGY PREDICTED BY IDOCK:   -2.47 KCAL/MOL
REMARK 923 INTER-LIGAND FREE ENERGY PREDICTED BY IDOCK:   -2.38 KCAL/MOL
REMARK 924 INTRA-LIGAND FREE ENERGY PREDICTED BY IDOCK:   -0.09 KCAL/MOL
REMARK 927      BINDING AFFINITY PREDICTED BY RF-SCORE:    0.00 PKD
ROOT
HETATM    1  C   UNL     1      -7.243  11.909  67.576  1.00  0.00    -0.125 C  
HETATM    2  C   UNL     1      -8.396  12.638  66.869  1.00  0.00    -0.075 C  
ENDROOT
BRANCH   2   3
HETATM    3  N   UNL     1      -8.962  11.822  65.770  1.00  0.00    -0.399 NA 
HETATM    4  H   UNL     1      -9.088  10.859  66.081  1.00  0.00     0.000 HD 
BRANCH   3   5
HETATM    5  C   UNL     1     -10.205  12.325  65.184  1.00  0.00    -0.279 C  
BRANCH   5   6
HETATM    6  C   UNL     1     -11.452  11.961  66.003  1.00  0.00    -0.344 C  
BRANCH   6   7
HETATM    7  C   UNL     1     -11.093  11.247  67.280  1.00  0.00    -0.367 A  
HETATM    8  C   UNL     1     -10.860   9.864  67.275  1.00  0.00    -0.268 A  
HETATM    9  C   UNL     1     -10.501   9.907  69.651  1.00  0.00    -0.249 A  
HETATM   10  C   UNL     1     -10.560   9.194  68.460  1.00  0.00    -0.209 A  
HETATM   11  O   UNL     1     -10.226   9.290  70.834  1.00  0.00    -0.254 OA 
HETATM   12  C   UNL     1     -10.724  11.281  69.673  1.00  0.00    -0.085 A  
HETATM   13  H   UNL     1     -10.186   9.778  71.649  1.00  0.00     0.000 HD 
HETATM   14  C   UNL     1     -11.024  11.952  68.488  1.00  0.00    -0.277 A  
ENDBRANCH   6   7
ENDBRANCH   5   6
ENDBRANCH   3   5
ENDBRANCH   2   3
BRANCH   2  15
HETATM   15  C   UNL     1      -7.953  14.016  66.281  1.00  0.00     1.577 C  
HETATM   16  O   UNL     1      -6.559  14.241  66.537  1.00  0.00     0.784 OA 
HETATM   17  H   UNL     1      -6.290  15.079  66.179  1.00  0.00     0.000 HD 
BRANCH  15  18
HETATM   18  C   UNL     1      -8.788  15.182  66.780  1.00  0.00    -0.302 A  
HETATM   19  C   UNL     1      -9.969  14.944  67.502  1.00  0.00    -0.219 A  
HETATM   20  C   UNL     1      -9.156  17.573  67.037  1.00  0.00    -0.255 A  
HETATM   21  H   UNL     1     -10.788  19.274  67.979  1.00  0.00     0.000 HD 
HETATM   22  C   UNL     1     -10.743  16.009  67.972  1.00  0.00    -0.309 A  
HETATM   23  C   UNL     1     -10.333  17.314  67.726  1.00  0.00    -0.356 A  
HETATM   24  C   UNL     1      -8.385  16.512  66.567  1.00  0.00    -0.327 A  
HETATM   25  O   UNL     1     -11.067  18.383  68.148  1.00  0.00    -0.038 OA 
ENDBRANCH  15  18
ENDBRANCH   2  15
TORSDOF 6
ENDMDL
MODEL      264
REMARK 921   NORMALIZED FREE ENERGY PREDICTED BY IDOCK:   -0.59 KCAL/MOL
REMARK 922        TOTAL FREE ENERGY PREDICTED BY IDOCK:   -1.84 KCAL/MOL
REMARK 923 INTER-LIGAND FREE ENERGY PREDICTED BY IDOCK:   -3.00 KCAL/MOL
REMARK 924 INTRA-LIGAND FREE ENERGY PREDICTED BY IDOCK:    1.16 KCAL/MOL
REMARK 927      BINDING AFFINITY PREDICTED BY RF-SCORE:    0.00 PKD
ROOT
HETATM    1  C   UNL     1      -6.529   8.714  69.017  1.00  0.00    -0.048 C  
HETATM    2  C   UNL     1      -7.192   7.341  69.205  1.00  0.00    -0.081 C  
ENDROOT
BRANCH   2   3
HETATM    3  N   UNL     1      -8.058   6.993  68.055  1.00  0.00    -0.118 NA 
HETATM    4  H   UNL     1      -7.500   6.941  67.202  1.00  0.00     0.000 HD 
BRANCH   3   5
HETATM    5  C   UNL     1      -8.853   5.774  68.207  1.00  0.00    -0.109 C  
BRANCH   5   6
HETATM    6  C   UNL     1      -9.505   5.309  66.897  1.00  0.00    -0.138 C  
BRANCH   6   7
HETATM    7  C   UNL     1      -8.622   4.349  66.142  1.00  0.00    -0.113 A  
HETATM    8  C   UNL     1      -7.439   4.803  65.541  1.00  0.00    -0.081 A  
HETATM    9  C   UNL     1      -7.022   2.596  64.683  1.00  0.00    -0.048 A  
HETATM   10  C   UNL     1      -6.636   3.925  64.814  1.00  0.00    -0.043 A  
HETATM   11  O   UNL     1      -6.274   1.708  63.969  1.00  0.00    -0.013 OA 
HETATM   12  C   UNL     1      -8.189   2.129  65.279  1.00  0.00    -0.082 A  
HETATM   13  H   UNL     1      -6.538   0.800  63.880  1.00  0.00     0.000 HD 
HETATM   14  C   UNL     1      -8.993   3.006  66.006  1.00  0.00    -0.147 A  
ENDBRANCH   6   7
ENDBRANCH   5   6
ENDBRANCH   3   5
ENDBRANCH   2   3
BRANCH   2  15
HETATM   15  C   UNL     1      -8.052   7.273  70.507  1.00  0.00    -0.109 C  
HETATM   16  O   UNL     1      -8.452   5.920  70.769  1.00  0.00    -0.126 OA 
HETATM   17  H   UNL     1      -8.975   5.879  71.562  1.00  0.00     0.000 HD 
BRANCH  15  18
HETATM   18  C   UNL     1      -9.257   8.197  70.485  1.00  0.00    -0.157 A  
HETATM   19  C   UNL     1     -10.488   7.759  71.002  1.00  0.00    -0.216 A  
HETATM   20  C   UNL     1     -10.274  10.348  69.982  1.00  0.00    -0.134 A  
HETATM   21  H   UNL     1     -12.474  11.612  70.072  1.00  0.00     0.000 HD 
HETATM   22  C   UNL     1     -11.603   8.602  70.994  1.00  0.00    -0.325 A  
HETATM   23  C   UNL     1     -11.487   9.887  70.474  1.00  0.00    -0.318 A  
HETATM   24  C   UNL     1      -9.162   9.508  69.989  1.00  0.00    -0.264 A  
HETATM   25  O   UNL     1     -12.553  10.735  70.427  1.00  0.00    -0.331 OA 
ENDBRANCH  15  18
ENDBRANCH   2  15
TORSDOF 6
ENDMDL
MODEL      265
REMARK 921   NORMALIZED FREE ENERGY PREDICTED BY IDOCK:   -0.16 KCAL/MOL
REMARK 922        TOTAL FREE ENERGY PREDICTED BY IDOCK:   -1.25 KCAL/MOL
REMARK 923 INTER-LIGAND FREE ENERGY PREDICTED BY IDOCK:   -4.37 KCAL/MOL
REMARK 924 INTRA-LIGAND FREE ENERGY PREDICTED BY IDOCK:    3.11 KCAL/MOL
REMARK 927      BINDING AFFINITY PREDICTED BY RF-SCORE:    0.00 PKD
ROOT
HETATM    1  C   UNL     1      -7.825  15.878  69.328  1.00  0.00    -0.226 C  
HETATM    2  C   UNL     1      -7.237  14.472  69.517  1.00  0.00    -0.095 C  
ENDROOT
BRANCH   2   3
HETATM    3  N   UNL     1      -5.763  14.513  69.656  1.00  0.00    -0.095 NA 
HETATM    4  H   UNL     1      -5.323  14.253  68.773  1.00  0.00     0.000 HD 
BRANCH   3   5
HETATM    5  C   UNL     1      -5.207  15.777  70.139  1.00  0.00    -0.137 C  
BRANCH   5   6
HETATM    6  C   UNL     1      -6.261  16.883  70.291  1.00  0.00     0.210 C  
BRANCH   6   7
HETATM    7  C   UNL     1      -5.953  18.074  69.420  1.00  0.00    -0.240 A  
HETATM    8  C   UNL     1      -6.022  19.372  69.947  1.00  0.00    -0.301 A  
HETATM    9  C   UNL     1      -5.455  20.283  67.796  1.00  0.00    -0.186 A  
HETATM   10  C   UNL     1      -5.769  20.477  69.136  1.00  0.00    -0.382 A  
HETATM   11  O   UNL     1      -5.214  21.335  66.964  1.00  0.00    -0.207 OA 
HETATM   12  C   UNL     1      -5.375  19.002  67.259  1.00  0.00    -0.154 A  
HETATM   13  H   UNL     1      -4.999  21.203  66.049  1.00  0.00     0.000 HD 
HETATM   14  C   UNL     1      -5.628  17.895  68.069  1.00  0.00    -0.150 A  
ENDBRANCH   6   7
ENDBRANCH   5   6
ENDBRANCH   3   5
ENDBRANCH   2   3
BRANCH   2  15
HETATM   15  C   UNL     1      -7.593  13.517  68.334  1.00  0.00    -0.133 C  
HETATM   16  O   UNL     1      -6.625  13.644  67.283  1.00  0.00    -0.411 OA 
HETATM   17  H   UNL     1      -6.842  13.063  66.563  1.00  0.00     0.000 HD 
BRANCH  15  18
HETATM   18  C   UNL     1      -9.000  13.718  67.797  1.00  0.00    -0.194 A  
HETATM   19  C   UNL     1     -10.033  14.114  68.663  1.00  0.00    -0.222 A  
HETATM   20  C   UNL     1     -10.585  13.747  65.952  1.00  0.00    -0.289 A  
HETATM   21  H   UNL     1     -13.031  14.137  65.397  1.00  0.00     0.000 HD 
HETATM   22  C   UNL     1     -11.331  14.308  68.181  1.00  0.00    -0.313 A  
HETATM   23  C   UNL     1     -11.596  14.112  66.830  1.00  0.00    -0.391 A  
HETATM   24  C   UNL     1      -9.291  13.552  66.432  1.00  0.00    -0.191 A  
HETATM   25  O   UNL     1     -12.850  14.271  66.320  1.00  0.00    -0.261 OA 
ENDBRANCH  15  18
ENDBRANCH   2  15
TORSDOF 6
ENDMDL
MODEL      266
REMARK 921   NORMALIZED FREE ENERGY PREDICTED BY IDOCK:    2.09 KCAL/MOL
REMARK 922        TOTAL FREE ENERGY PREDICTED BY IDOCK:    1.78 KCAL/MOL
REMARK 923 INTER-LIGAND FREE ENERGY PREDICTED BY IDOCK:   -1.24 KCAL/MOL
REMARK 924 INTRA-LIGAND FREE ENERGY PREDICTED BY IDOCK:    3.02 KCAL/MOL
REMARK 927      BINDING AFFINITY PREDICTED BY RF-SCORE:    0.00 PKD
ROOT
HETATM    1  C   UNL     1      -9.081  16.814  65.359  1.00  0.00     0.912 C  
HETATM    2  C   UNL     1      -8.429  16.402  66.688  1.00  0.00    -0.271 C  
ENDROOT
BRANCH   2   3
HETATM    3  N   UNL     1      -7.031  15.952  66.492  1.00  0.00    -0.123 NA 
HETATM    4  H   UNL     1      -6.914  15.581  65.548  1.00  0.00     0.000 HD 
BRANCH   3   5
HETATM    5  C   UNL     1      -6.000  16.953  66.767  1.00  0.00    -0.166 C  
BRANCH   5   6
HETATM    6  C   UNL     1      -6.175  18.244  65.953  1.00  0.00    -0.272 C  
BRANCH   6   7
HETATM    7  C   UNL     1      -7.337  19.065  66.451  1.00  0.00    -0.263 A  
HETATM    8  C   UNL     1      -7.424  19.418  67.806  1.00  0.00    -0.296 A  
HETATM    9  C   UNL     1      -9.517  20.523  67.391  1.00  0.00    -0.411 A  
HETATM   10  C   UNL     1      -8.512  20.150  68.276  1.00  0.00    -0.080 A  
HETATM   11  O   UNL     1     -10.606  21.227  67.810  1.00  0.00     0.978 OA 
HETATM   12  C   UNL     1      -9.443  20.188  66.043  1.00  0.00    -0.345 A  
HETATM   13  H   UNL     1     -11.293  21.482  67.206  1.00  0.00     0.000 HD 
HETATM   14  C   UNL     1      -8.354  19.455  65.571  1.00  0.00     0.536 A  
ENDBRANCH   6   7
ENDBRANCH   5   6
ENDBRANCH   3   5
ENDBRANCH   2   3
BRANCH   2  15
HETATM   15  C   UNL     1      -9.217  15.259  67.404  1.00  0.00    -0.195 C  
HETATM   16  O   UNL     1      -9.560  15.653  68.740  1.00  0.00    -0.196 OA 
HETATM   17  H   UNL     1     -10.040  14.957  69.176  1.00  0.00     0.000 HD 
BRANCH  15  18
HETATM   18  C   UNL     1      -8.485  13.928  67.405  1.00  0.00    -0.208 A  
HETATM   19  C   UNL     1      -7.164  13.853  67.877  1.00  0.00    -0.162 A  
HETATM   20  C   UNL     1      -8.435  11.532  66.988  1.00  0.00    -0.164 A  
HETATM   21  H   UNL     1      -6.925   9.495  67.099  1.00  0.00     0.000 HD 
HETATM   22  C   UNL     1      -6.482  12.633  67.890  1.00  0.00    -0.113 A  
HETATM   23  C   UNL     1      -7.122  11.485  67.435  1.00  0.00    -0.119 A  
HETATM   24  C   UNL     1      -9.116  12.748  66.975  1.00  0.00    -0.220 A  
HETATM   25  O   UNL     1      -6.488  10.279  67.410  1.00  0.00    -0.065 OA 
ENDBRANCH  15  18
ENDBRANCH   2  15
TORSDOF 6
ENDMDL
MODEL      267
REMARK 921   NORMALIZED FREE ENERGY PREDICTED BY IDOCK:    4.04 KCAL/MOL
REMARK 922        TOTAL FREE ENERGY PREDICTED BY IDOCK:    4.42 KCAL/MOL
REMARK 923 INTER-LIGAND FREE ENERGY PREDICTED BY IDOCK:   -0.30 KCAL/MOL
REMARK 924 INTRA-LIGAND FREE ENERGY PREDICTED BY IDOCK:    4.71 KCAL/MOL
REMARK 927      BINDING AFFINITY PREDICTED BY RF-SCORE:    0.00 PKD
ROOT
HETATM    1  C   UNL     1      -5.903   8.055  68.195  1.00  0.00    -0.041 C  
HETATM    2  C   UNL     1      -6.624   7.057  67.277  1.00  0.00    -0.051 C  
ENDROOT
BRANCH   2   3
HETATM    3  N   UNL     1      -7.774   7.685  66.586  1.00  0.00    -0.096 NA 
HETATM    4  H   UNL     1      -7.581   7.763  65.587  1.00  0.00     0.000 HD 
BRANCH   3   5
HETATM    5  C   UNL     1      -9.070   7.038  66.796  1.00  0.00    -0.143 C  
BRANCH   5   6
HETATM    6  C   UNL     1      -9.840   6.789  65.491  1.00  0.00     1.028 C  
BRANCH   6   7
HETATM    7  C   UNL     1      -9.635   5.387  64.978  1.00  0.00     0.338 A  
HETATM    8  C   UNL     1      -8.338   4.899  64.759  1.00  0.00    -0.136 A  
HETATM    9  C   UNL     1      -9.248   2.822  63.961  1.00  0.00    -0.111 A  
HETATM   10  C   UNL     1      -8.144   3.614  64.254  1.00  0.00    -0.086 A  
HETATM   11  O   UNL     1      -9.105   1.566  63.453  1.00  0.00    -0.085 OA 
HETATM   12  C   UNL     1     -10.541   3.289  64.180  1.00  0.00    -0.109 A  
HETATM   13  H   UNL     1      -9.859   1.024  63.253  1.00  0.00     0.000 HD 
HETATM   14  C   UNL     1     -10.736   4.574  64.684  1.00  0.00     0.071 A  
ENDBRANCH   6   7
ENDBRANCH   5   6
ENDBRANCH   3   5
ENDBRANCH   2   3
BRANCH   2  15
HETATM   15  C   UNL     1      -7.142   5.805  68.054  1.00  0.00    -0.071 C  
HETATM   16  O   UNL     1      -8.236   5.199  67.350  1.00  0.00    -0.106 OA 
HETATM   17  H   UNL     1      -8.550   4.437  67.823  1.00  0.00     0.000 HD 
BRANCH  15  18
HETATM   18  C   UNL     1      -7.525   6.102  69.493  1.00  0.00    -0.092 A  
HETATM   19  C   UNL     1      -8.485   5.308  70.143  1.00  0.00    -0.109 A  
HETATM   20  C   UNL     1      -7.265   7.397  71.535  1.00  0.00    -0.071 A  
HETATM   21  H   UNL     1      -8.152   7.635  73.902  1.00  0.00     0.000 HD 
HETATM   22  C   UNL     1      -8.841   5.567  71.470  1.00  0.00    -0.142 A  
HETATM   23  C   UNL     1      -8.234   6.617  72.150  1.00  0.00    -0.105 A  
HETATM   24  C   UNL     1      -6.909   7.141  70.213  1.00  0.00    -0.056 A  
HETATM   25  O   UNL     1      -8.566   6.918  73.437  1.00  0.00    -0.122 OA 
ENDBRANCH  15  18
ENDBRANCH   2  15
TORSDOF 6
ENDMDL
