MODEL        1
REMARK 921   NORMALIZED FREE ENERGY PREDICTED BY IDOCK:   -5.66 KCAL/MOL
REMARK 922        TOTAL FREE ENERGY PREDICTED BY IDOCK:   -7.92 KCAL/MOL
REMARK 923 INTER-LIGAND FREE ENERGY PREDICTED BY IDOCK:   -7.32 KCAL/MOL
REMARK 924 INTRA-LIGAND FREE ENERGY PREDICTED BY IDOCK:   -0.61 KCAL/MOL
REMARK 927      BINDING AFFINITY PREDICTED BY RF-SCORE:    0.00 PKD
ROOT
HETATM    1  C   UNL     1     -12.249  15.388  74.180  1.00  0.00    -0.759 C  
HETATM    2  C   UNL     1     -12.390  16.292  72.962  1.00  0.00    -0.485 C  
ENDROOT
BRANCH   2   3
HETATM    3  N   UNL     1     -12.908  15.592  71.792  1.00  0.00    -0.435 N  
HETATM    4  C   UNL     1     -14.291  15.150  71.799  1.00  0.00    -0.597 C  
HETATM    5  C   UNL     1     -12.014  15.126  70.826  1.00  0.00    -0.327 C  
HETATM    6  O   UNL     1     -10.810  15.357  70.861  1.00  0.00    -0.323 OA 
BRANCH   5   7
HETATM    7  O   UNL     1     -12.649  14.350  69.858  1.00  0.00    -0.303 OA 
BRANCH   7   8
HETATM    8  C   UNL     1     -12.134  13.070  69.604  1.00  0.00    -0.241 A  
HETATM    9  C   UNL     1     -11.757  12.766  68.298  1.00  0.00    -0.388 A  
HETATM   10  C   UNL     1     -11.343  11.469  67.994  1.00  0.00    -0.368 A  
HETATM   11  C   UNL     1     -11.322  10.481  68.986  1.00  0.00    -0.319 A  
HETATM   12  C   UNL     1     -11.731  10.773  70.296  1.00  0.00    -0.442 A  
HETATM   13  C   UNL     1     -12.137  12.085  70.591  1.00  0.00    -0.369 A  
BRANCH  12  14
HETATM   14  C   UNL     1     -11.799   9.727  71.406  1.00  0.00    -0.408 C  
HETATM   15  C   UNL     1     -10.451   9.010  71.589  1.00  0.00    -0.426 C  
BRANCH  14  16
HETATM   16  N   UNL     1     -12.962   8.813  71.355  1.00  0.00    -0.301 NA 
HETATM   17  C   UNL     1     -12.578   7.400  71.370  1.00  0.00    -0.370 C  
HETATM   18  C   UNL     1     -14.024   9.069  72.317  1.00  0.00    -0.455 C  
ENDBRANCH  14  16
ENDBRANCH  12  14
ENDBRANCH   7   8
ENDBRANCH   5   7
ENDBRANCH   2   3
TORSDOF 5
ENDMDL
MODEL        2
REMARK 921   NORMALIZED FREE ENERGY PREDICTED BY IDOCK:   -5.39 KCAL/MOL
REMARK 922        TOTAL FREE ENERGY PREDICTED BY IDOCK:   -7.57 KCAL/MOL
REMARK 923 INTER-LIGAND FREE ENERGY PREDICTED BY IDOCK:   -7.05 KCAL/MOL
REMARK 924 INTRA-LIGAND FREE ENERGY PREDICTED BY IDOCK:   -0.52 KCAL/MOL
REMARK 927      BINDING AFFINITY PREDICTED BY RF-SCORE:    0.00 PKD
ROOT
HETATM    1  C   UNL     1     -12.334  15.322  74.183  1.00  0.00    -0.762 C  
HETATM    2  C   UNL     1     -12.083  16.253  73.003  1.00  0.00    -0.530 C  
ENDROOT
BRANCH   2   3
HETATM    3  N   UNL     1     -12.711  15.790  71.772  1.00  0.00    -0.450 N  
HETATM    4  C   UNL     1     -14.047  15.224  71.839  1.00  0.00    -0.557 C  
HETATM    5  C   UNL     1     -11.933  15.646  70.622  1.00  0.00    -0.402 C  
HETATM    6  O   UNL     1     -10.754  15.981  70.566  1.00  0.00    -0.271 OA 
BRANCH   5   7
HETATM    7  O   UNL     1     -12.643  15.053  69.580  1.00  0.00    -0.192 OA 
BRANCH   7   8
HETATM    8  C   UNL     1     -12.082  13.924  68.964  1.00  0.00    -0.329 A  
HETATM    9  C   UNL     1     -11.864  12.793  69.748  1.00  0.00    -0.380 A  
HETATM   10  C   UNL     1     -11.212  11.694  69.190  1.00  0.00    -0.325 A  
HETATM   11  C   UNL     1     -10.764  11.734  67.863  1.00  0.00    -0.241 A  
HETATM   12  C   UNL     1     -10.952  12.882  67.078  1.00  0.00    -0.290 A  
HETATM   13  C   UNL     1     -11.620  13.978  67.649  1.00  0.00    -0.385 A  
BRANCH  12  14
HETATM   14  C   UNL     1     -10.429  13.016  65.651  1.00  0.00    -0.279 C  
HETATM   15  C   UNL     1     -10.413  14.483  65.191  1.00  0.00    -0.439 C  
BRANCH  14  16
HETATM   16  N   UNL     1     -11.017  12.085  64.662  1.00  0.00    -0.305 NA 
HETATM   17  C   UNL     1     -12.364  12.475  64.241  1.00  0.00    -0.456 C  
HETATM   18  C   UNL     1     -10.190  11.764  63.508  1.00  0.00    -0.450 C  
ENDBRANCH  14  16
ENDBRANCH  12  14
ENDBRANCH   7   8
ENDBRANCH   5   7
ENDBRANCH   2   3
TORSDOF 5
ENDMDL
MODEL        3
REMARK 921   NORMALIZED FREE ENERGY PREDICTED BY IDOCK:   -5.33 KCAL/MOL
REMARK 922        TOTAL FREE ENERGY PREDICTED BY IDOCK:   -7.50 KCAL/MOL
REMARK 923 INTER-LIGAND FREE ENERGY PREDICTED BY IDOCK:   -7.07 KCAL/MOL
REMARK 924 INTRA-LIGAND FREE ENERGY PREDICTED BY IDOCK:   -0.43 KCAL/MOL
REMARK 927      BINDING AFFINITY PREDICTED BY RF-SCORE:    0.00 PKD
ROOT
HETATM    1  C   UNL     1     -12.423  15.449  74.139  1.00  0.00    -0.785 C  
HETATM    2  C   UNL     1     -12.109  16.214  72.859  1.00  0.00    -0.541 C  
ENDROOT
BRANCH   2   3
HETATM    3  N   UNL     1     -12.715  15.616  71.676  1.00  0.00    -0.430 N  
HETATM    4  C   UNL     1     -14.117  15.238  71.725  1.00  0.00    -0.555 C  
HETATM    5  C   UNL     1     -11.893  15.170  70.639  1.00  0.00    -0.325 C  
HETATM    6  O   UNL     1     -10.678  15.342  70.629  1.00  0.00    -0.312 OA 
BRANCH   5   7
HETATM    7  O   UNL     1     -12.610  14.489  69.659  1.00  0.00    -0.242 OA 
BRANCH   7   8
HETATM    8  C   UNL     1     -12.136  13.230  69.257  1.00  0.00    -0.242 A  
HETATM    9  C   UNL     1     -11.781  13.063  67.921  1.00  0.00    -0.402 A  
HETATM   10  C   UNL     1     -11.408  11.797  67.470  1.00  0.00    -0.377 A  
HETATM   11  C   UNL     1     -11.410  10.703  68.345  1.00  0.00    -0.348 A  
HETATM   12  C   UNL     1     -11.798  10.859  69.684  1.00  0.00    -0.416 A  
HETATM   13  C   UNL     1     -12.161  12.141  70.128  1.00  0.00    -0.368 A  
BRANCH  12  14
HETATM   14  C   UNL     1     -11.888   9.698  70.671  1.00  0.00    -0.256 C  
HETATM   15  C   UNL     1     -13.156   9.788  71.535  1.00  0.00    -0.506 C  
BRANCH  14  16
HETATM   16  N   UNL     1     -10.657   9.415  71.443  1.00  0.00    -0.340 NA 
HETATM   17  C   UNL     1     -10.817   8.308  72.386  1.00  0.00    -0.351 C  
HETATM   18  C   UNL     1      -9.433   9.262  70.670  1.00  0.00    -0.272 C  
ENDBRANCH  14  16
ENDBRANCH  12  14
ENDBRANCH   7   8
ENDBRANCH   5   7
ENDBRANCH   2   3
TORSDOF 5
ENDMDL
MODEL        4
REMARK 921   NORMALIZED FREE ENERGY PREDICTED BY IDOCK:   -5.31 KCAL/MOL
REMARK 922        TOTAL FREE ENERGY PREDICTED BY IDOCK:   -7.47 KCAL/MOL
REMARK 923 INTER-LIGAND FREE ENERGY PREDICTED BY IDOCK:   -7.21 KCAL/MOL
REMARK 924 INTRA-LIGAND FREE ENERGY PREDICTED BY IDOCK:   -0.25 KCAL/MOL
REMARK 927      BINDING AFFINITY PREDICTED BY RF-SCORE:    0.00 PKD
ROOT
HETATM    1  C   UNL     1      -9.651  11.064  63.040  1.00  0.00    -0.386 C  
HETATM    2  C   UNL     1     -10.756  11.972  63.565  1.00  0.00    -0.455 C  
ENDROOT
BRANCH   2   3
HETATM    3  N   UNL     1     -10.790  12.042  65.021  1.00  0.00    -0.294 N  
HETATM    4  C   UNL     1      -9.697  11.452  65.774  1.00  0.00    -0.233 C  
HETATM    5  C   UNL     1     -11.975  12.417  65.658  1.00  0.00    -0.386 C  
HETATM    6  O   UNL     1     -12.974  12.785  65.049  1.00  0.00    -0.811 OA 
BRANCH   5   7
HETATM    7  O   UNL     1     -11.888  12.285  67.042  1.00  0.00    -0.519 OA 
BRANCH   7   8
HETATM    8  C   UNL     1     -11.852  13.459  67.810  1.00  0.00    -0.358 A  
HETATM    9  C   UNL     1     -11.445  14.636  67.187  1.00  0.00    -0.380 A  
HETATM   10  C   UNL     1     -11.298  15.794  67.949  1.00  0.00    -0.277 A  
HETATM   11  C   UNL     1     -11.539  15.770  69.329  1.00  0.00    -0.380 A  
HETATM   12  C   UNL     1     -11.919  14.581  69.968  1.00  0.00    -0.388 A  
HETATM   13  C   UNL     1     -12.073  13.423  69.187  1.00  0.00    -0.306 A  
BRANCH  12  14
HETATM   14  C   UNL     1     -12.130  14.470  71.476  1.00  0.00    -0.331 C  
HETATM   15  C   UNL     1     -12.673  13.088  71.871  1.00  0.00    -0.212 C  
BRANCH  14  16
HETATM   16  N   UNL     1     -12.850  15.600  72.107  1.00  0.00    -0.410 NA 
HETATM   17  C   UNL     1     -14.305  15.456  72.041  1.00  0.00    -0.550 C  
HETATM   18  C   UNL     1     -12.427  15.961  73.453  1.00  0.00    -0.541 C  
ENDBRANCH  14  16
ENDBRANCH  12  14
ENDBRANCH   7   8
ENDBRANCH   5   7
ENDBRANCH   2   3
TORSDOF 5
ENDMDL
MODEL        5
REMARK 921   NORMALIZED FREE ENERGY PREDICTED BY IDOCK:   -5.28 KCAL/MOL
REMARK 922        TOTAL FREE ENERGY PREDICTED BY IDOCK:   -7.44 KCAL/MOL
REMARK 923 INTER-LIGAND FREE ENERGY PREDICTED BY IDOCK:   -7.23 KCAL/MOL
REMARK 924 INTRA-LIGAND FREE ENERGY PREDICTED BY IDOCK:   -0.20 KCAL/MOL
REMARK 927      BINDING AFFINITY PREDICTED BY RF-SCORE:    0.00 PKD
ROOT
HETATM    1  C   UNL     1      -9.621  20.716  67.255  1.00  0.00    -0.558 C  
HETATM    2  C   UNL     1     -10.747  19.694  67.151  1.00  0.00    -0.464 C  
ENDROOT
BRANCH   2   3
HETATM    3  N   UNL     1     -10.269  18.318  67.192  1.00  0.00    -0.355 N  
HETATM    4  C   UNL     1      -9.447  17.898  68.313  1.00  0.00    -0.300 C  
HETATM    5  C   UNL     1     -10.374  17.525  66.048  1.00  0.00    -0.306 C  
HETATM    6  O   UNL     1     -10.938  17.899  65.025  1.00  0.00    -0.776 OA 
BRANCH   5   7
HETATM    7  O   UNL     1      -9.737  16.296  66.203  1.00  0.00    -0.288 OA 
BRANCH   7   8
HETATM    8  C   UNL     1     -10.532  15.139  66.183  1.00  0.00    -0.312 A  
HETATM    9  C   UNL     1     -11.188  14.778  67.357  1.00  0.00    -0.346 A  
HETATM   10  C   UNL     1     -11.899  13.579  67.398  1.00  0.00    -0.423 A  
HETATM   11  C   UNL     1     -11.936  12.738  66.278  1.00  0.00    -0.460 A  
HETATM   12  C   UNL     1     -11.250  13.081  65.103  1.00  0.00    -0.321 A  
HETATM   13  C   UNL     1     -10.547  14.296  65.072  1.00  0.00    -0.444 A  
BRANCH  12  14
HETATM   14  C   UNL     1     -11.192  12.179  63.873  1.00  0.00    -0.415 C  
HETATM   15  C   UNL     1     -12.599  11.843  63.352  1.00  0.00    -0.555 C  
BRANCH  14  16
HETATM   16  N   UNL     1     -10.298  11.004  63.981  1.00  0.00    -0.354 NA 
HETATM   17  C   UNL     1      -9.536  10.753  62.756  1.00  0.00    -0.331 C  
HETATM   18  C   UNL     1      -9.427  10.962  65.147  1.00  0.00    -0.227 C  
ENDBRANCH  14  16
ENDBRANCH  12  14
ENDBRANCH   7   8
ENDBRANCH   5   7
ENDBRANCH   2   3
TORSDOF 5
ENDMDL
MODEL        6
REMARK 921   NORMALIZED FREE ENERGY PREDICTED BY IDOCK:   -5.23 KCAL/MOL
REMARK 922        TOTAL FREE ENERGY PREDICTED BY IDOCK:   -7.37 KCAL/MOL
REMARK 923 INTER-LIGAND FREE ENERGY PREDICTED BY IDOCK:   -6.92 KCAL/MOL
REMARK 924 INTRA-LIGAND FREE ENERGY PREDICTED BY IDOCK:   -0.45 KCAL/MOL
REMARK 927      BINDING AFFINITY PREDICTED BY RF-SCORE:    0.00 PKD
ROOT
HETATM    1  C   UNL     1     -11.203  14.637  64.659  1.00  0.00    -0.353 C  
HETATM    2  C   UNL     1     -12.337  14.334  65.631  1.00  0.00    -0.405 C  
ENDROOT
BRANCH   2   3
HETATM    3  N   UNL     1     -11.870  14.083  66.989  1.00  0.00    -0.406 N  
HETATM    4  C   UNL     1     -11.329  15.191  67.756  1.00  0.00    -0.328 C  
HETATM    5  C   UNL     1     -11.697  12.766  67.418  1.00  0.00    -0.366 C  
HETATM    6  O   UNL     1     -12.010  11.794  66.737  1.00  0.00    -0.584 OA 
BRANCH   5   7
HETATM    7  O   UNL     1     -11.104  12.699  68.676  1.00  0.00    -0.239 OA 
BRANCH   7   8
HETATM    8  C   UNL     1     -11.889  12.248  69.748  1.00  0.00    -0.318 A  
HETATM    9  C   UNL     1     -12.353  13.192  70.660  1.00  0.00    -0.405 A  
HETATM   10  C   UNL     1     -13.045  12.762  71.792  1.00  0.00    -0.455 A  
HETATM   11  C   UNL     1     -13.255  11.396  72.018  1.00  0.00    -0.432 A  
HETATM   12  C   UNL     1     -12.762  10.438  71.119  1.00  0.00    -0.514 A  
HETATM   13  C   UNL     1     -12.076  10.885  69.978  1.00  0.00    -0.433 A  
BRANCH  12  14
HETATM   14  C   UNL     1     -12.896   8.933  71.341  1.00  0.00    -0.289 C  
HETATM   15  C   UNL     1     -13.844   8.617  72.508  1.00  0.00    -0.368 C  
BRANCH  14  16
HETATM   16  N   UNL     1     -11.625   8.175  71.379  1.00  0.00    -0.270 NA 
HETATM   17  C   UNL     1     -11.153   7.921  72.741  1.00  0.00    -0.400 C  
HETATM   18  C   UNL     1     -11.577   6.958  70.581  1.00  0.00    -0.353 C  
ENDBRANCH  14  16
ENDBRANCH  12  14
ENDBRANCH   7   8
ENDBRANCH   5   7
ENDBRANCH   2   3
TORSDOF 5
ENDMDL
MODEL        7
REMARK 921   NORMALIZED FREE ENERGY PREDICTED BY IDOCK:   -5.18 KCAL/MOL
REMARK 922        TOTAL FREE ENERGY PREDICTED BY IDOCK:   -7.31 KCAL/MOL
REMARK 923 INTER-LIGAND FREE ENERGY PREDICTED BY IDOCK:   -6.78 KCAL/MOL
REMARK 924 INTRA-LIGAND FREE ENERGY PREDICTED BY IDOCK:   -0.53 KCAL/MOL
REMARK 927      BINDING AFFINITY PREDICTED BY RF-SCORE:    0.00 PKD
ROOT
HETATM    1  C   UNL     1     -11.642   7.876  72.465  1.00  0.00    -0.443 C  
HETATM    2  C   UNL     1     -10.917   9.083  71.882  1.00  0.00    -0.353 C  
ENDROOT
BRANCH   2   3
HETATM    3  N   UNL     1     -11.764   9.885  71.007  1.00  0.00    -0.351 N  
HETATM    4  C   UNL     1     -13.196   9.905  71.248  1.00  0.00    -0.383 C  
HETATM    5  C   UNL     1     -11.234  10.385  69.816  1.00  0.00    -0.293 C  
HETATM    6  O   UNL     1     -10.054  10.262  69.506  1.00  0.00    -0.221 OA 
BRANCH   5   7
HETATM    7  O   UNL     1     -12.206  10.994  69.026  1.00  0.00    -0.483 OA 
BRANCH   7   8
HETATM    8  C   UNL     1     -11.886  12.220  68.423  1.00  0.00    -0.304 A  
HETATM    9  C   UNL     1     -11.948  13.370  69.207  1.00  0.00    -0.367 A  
HETATM   10  C   UNL     1     -11.739  14.612  68.610  1.00  0.00    -0.362 A  
HETATM   11  C   UNL     1     -11.487  14.705  67.234  1.00  0.00    -0.386 A  
HETATM   12  C   UNL     1     -11.455  13.553  66.434  1.00  0.00    -0.356 A  
HETATM   13  C   UNL     1     -11.657  12.307  67.049  1.00  0.00    -0.418 A  
BRANCH  12  14
HETATM   14  C   UNL     1     -11.255  13.590  64.921  1.00  0.00    -0.342 C  
HETATM   15  C   UNL     1     -12.147  14.653  64.260  1.00  0.00    -0.437 C  
BRANCH  14  16
HETATM   16  N   UNL     1     -11.282  12.277  64.238  1.00  0.00    -0.327 NA 
HETATM   17  C   UNL     1     -12.445  12.112  63.364  1.00  0.00    -0.512 C  
HETATM   18  C   UNL     1     -10.061  11.883  63.551  1.00  0.00    -0.441 C  
ENDBRANCH  14  16
ENDBRANCH  12  14
ENDBRANCH   7   8
ENDBRANCH   5   7
ENDBRANCH   2   3
TORSDOF 5
ENDMDL
MODEL        8
REMARK 921   NORMALIZED FREE ENERGY PREDICTED BY IDOCK:   -5.15 KCAL/MOL
REMARK 922        TOTAL FREE ENERGY PREDICTED BY IDOCK:   -7.27 KCAL/MOL
REMARK 923 INTER-LIGAND FREE ENERGY PREDICTED BY IDOCK:   -6.90 KCAL/MOL
REMARK 924 INTRA-LIGAND FREE ENERGY PREDICTED BY IDOCK:   -0.37 KCAL/MOL
REMARK 927      BINDING AFFINITY PREDICTED BY RF-SCORE:    0.00 PKD
ROOT
HETATM    1  C   UNL     1     -11.570  12.533  63.814  1.00  0.00    -0.552 C  
HETATM    2  C   UNL     1     -12.239  13.022  65.092  1.00  0.00    -0.459 C  
ENDROOT
BRANCH   2   3
HETATM    3  N   UNL     1     -11.512  12.638  66.296  1.00  0.00    -0.342 N  
HETATM    4  C   UNL     1     -10.905  11.320  66.354  1.00  0.00    -0.251 C  
HETATM    5  C   UNL     1     -11.645  13.413  67.449  1.00  0.00    -0.354 C  
HETATM    6  O   UNL     1     -12.275  14.466  67.479  1.00  0.00    -0.342 OA 
BRANCH   5   7
HETATM    7  O   UNL     1     -11.015  12.832  68.547  1.00  0.00    -0.237 OA 
BRANCH   7   8
HETATM    8  C   UNL     1     -11.818  12.414  69.618  1.00  0.00    -0.311 A  
HETATM    9  C   UNL     1     -12.244  13.377  70.530  1.00  0.00    -0.425 A  
HETATM   10  C   UNL     1     -12.954  12.976  71.661  1.00  0.00    -0.417 A  
HETATM   11  C   UNL     1     -13.220  11.619  71.888  1.00  0.00    -0.475 A  
HETATM   12  C   UNL     1     -12.766  10.642  70.990  1.00  0.00    -0.512 A  
HETATM   13  C   UNL     1     -12.061  11.059  69.849  1.00  0.00    -0.435 A  
BRANCH  12  14
HETATM   14  C   UNL     1     -12.962   9.144  71.212  1.00  0.00    -0.251 C  
HETATM   15  C   UNL     1     -13.823   8.866  72.455  1.00  0.00    -0.518 C  
BRANCH  14  16
HETATM   16  N   UNL     1     -11.735   8.319  71.136  1.00  0.00    -0.279 NA 
HETATM   17  C   UNL     1     -10.958   8.338  72.376  1.00  0.00    -0.368 C  
HETATM   18  C   UNL     1     -11.905   6.956  70.655  1.00  0.00    -0.368 C  
ENDBRANCH  14  16
ENDBRANCH  12  14
ENDBRANCH   7   8
ENDBRANCH   5   7
ENDBRANCH   2   3
TORSDOF 5
ENDMDL
MODEL        9
REMARK 921   NORMALIZED FREE ENERGY PREDICTED BY IDOCK:   -5.14 KCAL/MOL
REMARK 922        TOTAL FREE ENERGY PREDICTED BY IDOCK:   -7.25 KCAL/MOL
REMARK 923 INTER-LIGAND FREE ENERGY PREDICTED BY IDOCK:   -6.74 KCAL/MOL
REMARK 924 INTRA-LIGAND FREE ENERGY PREDICTED BY IDOCK:   -0.51 KCAL/MOL
REMARK 927      BINDING AFFINITY PREDICTED BY RF-SCORE:    0.00 PKD
ROOT
HETATM    1  C   UNL     1     -11.873   6.621  71.992  1.00  0.00    -0.365 C  
HETATM    2  C   UNL     1     -11.477   8.007  72.483  1.00  0.00    -0.409 C  
ENDROOT
BRANCH   2   3
HETATM    3  N   UNL     1     -12.362   9.058  71.995  1.00  0.00    -0.373 N  
HETATM    4  C   UNL     1     -13.792   8.919  72.208  1.00  0.00    -0.474 C  
HETATM    5  C   UNL     1     -11.862  10.015  71.111  1.00  0.00    -0.393 C  
HETATM    6  O   UNL     1     -10.679  10.077  70.791  1.00  0.00    -0.303 OA 
BRANCH   5   7
HETATM    7  O   UNL     1     -12.864  10.850  70.622  1.00  0.00    -0.317 OA 
BRANCH   7   8
HETATM    8  C   UNL     1     -12.774  12.220  70.910  1.00  0.00    -0.187 A  
HETATM    9  C   UNL     1     -13.352  12.678  72.091  1.00  0.00    -0.570 A  
HETATM   10  C   UNL     1     -13.371  14.048  72.353  1.00  0.00    -0.617 A  
HETATM   11  C   UNL     1     -12.832  14.953  71.430  1.00  0.00    -0.416 A  
HETATM   12  C   UNL     1     -12.276  14.501  70.224  1.00  0.00    -0.391 A  
HETATM   13  C   UNL     1     -12.254  13.118  69.978  1.00  0.00    -0.323 A  
BRANCH  12  14
HETATM   14  C   UNL     1     -11.736  15.437  69.147  1.00  0.00    -0.345 C  
HETATM   15  C   UNL     1     -11.646  14.736  67.782  1.00  0.00    -0.378 C  
BRANCH  14  16
HETATM   16  N   UNL     1     -10.519  16.198  69.511  1.00  0.00    -0.274 NA 
HETATM   17  C   UNL     1      -9.300  15.390  69.444  1.00  0.00    -0.266 C  
HETATM   18  C   UNL     1     -10.330  17.473  68.833  1.00  0.00    -0.338 C  
ENDBRANCH  14  16
ENDBRANCH  12  14
ENDBRANCH   7   8
ENDBRANCH   5   7
ENDBRANCH   2   3
TORSDOF 5
ENDMDL
MODEL       10
REMARK 921   NORMALIZED FREE ENERGY PREDICTED BY IDOCK:   -5.08 KCAL/MOL
REMARK 922        TOTAL FREE ENERGY PREDICTED BY IDOCK:   -7.17 KCAL/MOL
REMARK 923 INTER-LIGAND FREE ENERGY PREDICTED BY IDOCK:   -6.85 KCAL/MOL
REMARK 924 INTRA-LIGAND FREE ENERGY PREDICTED BY IDOCK:   -0.33 KCAL/MOL
REMARK 927      BINDING AFFINITY PREDICTED BY RF-SCORE:    0.00 PKD
ROOT
HETATM    1  C   UNL     1     -10.093  11.717  63.111  1.00  0.00    -0.409 C  
HETATM    2  C   UNL     1     -11.360  12.335  63.689  1.00  0.00    -0.470 C  
ENDROOT
BRANCH   2   3
HETATM    3  N   UNL     1     -11.348  12.397  65.145  1.00  0.00    -0.313 N  
HETATM    4  C   UNL     1     -10.575  11.412  65.880  1.00  0.00    -0.263 C  
HETATM    5  C   UNL     1     -12.278  13.207  65.801  1.00  0.00    -0.456 C  
HETATM    6  O   UNL     1     -13.052  13.951  65.208  1.00  0.00    -0.777 OA 
BRANCH   5   7
HETATM    7  O   UNL     1     -12.236  13.038  67.183  1.00  0.00    -0.323 OA 
BRANCH   7   8
HETATM    8  C   UNL     1     -11.775  14.111  67.961  1.00  0.00    -0.359 A  
HETATM    9  C   UNL     1     -12.207  14.192  69.282  1.00  0.00    -0.308 A  
HETATM   10  C   UNL     1     -11.851  15.302  70.047  1.00  0.00    -0.365 A  
HETATM   11  C   UNL     1     -11.084  16.332  69.488  1.00  0.00    -0.330 A  
HETATM   12  C   UNL     1     -10.672  16.271  68.148  1.00  0.00    -0.322 A  
HETATM   13  C   UNL     1     -11.029  15.143  67.392  1.00  0.00    -0.314 A  
BRANCH  12  14
HETATM   14  C   UNL     1      -9.895  17.390  67.459  1.00  0.00    -0.277 C  
HETATM   15  C   UNL     1      -8.506  17.583  68.089  1.00  0.00    -0.254 C  
BRANCH  14  16
HETATM   16  N   UNL     1     -10.638  18.652  67.248  1.00  0.00    -0.427 NA 
HETATM   17  C   UNL     1     -10.267  19.698  68.202  1.00  0.00    -0.461 C  
HETATM   18  C   UNL     1     -10.650  19.174  65.889  1.00  0.00    -0.415 C  
ENDBRANCH  14  16
ENDBRANCH  12  14
ENDBRANCH   7   8
ENDBRANCH   5   7
ENDBRANCH   2   3
TORSDOF 5
ENDMDL
MODEL       11
REMARK 921   NORMALIZED FREE ENERGY PREDICTED BY IDOCK:   -5.07 KCAL/MOL
REMARK 922        TOTAL FREE ENERGY PREDICTED BY IDOCK:   -7.16 KCAL/MOL
REMARK 923 INTER-LIGAND FREE ENERGY PREDICTED BY IDOCK:   -6.77 KCAL/MOL
REMARK 924 INTRA-LIGAND FREE ENERGY PREDICTED BY IDOCK:   -0.40 KCAL/MOL
REMARK 927      BINDING AFFINITY PREDICTED BY RF-SCORE:    0.00 PKD
ROOT
HETATM    1  C   UNL     1     -10.086  19.941  67.910  1.00  0.00    -0.571 C  
HETATM    2  C   UNL     1     -10.643  19.113  66.759  1.00  0.00    -0.439 C  
ENDROOT
BRANCH   2   3
HETATM    3  N   UNL     1     -10.076  17.771  66.698  1.00  0.00    -0.334 N  
HETATM    4  C   UNL     1      -9.073  17.393  67.679  1.00  0.00    -0.234 C  
HETATM    5  C   UNL     1     -10.294  16.989  65.563  1.00  0.00    -0.143 C  
HETATM    6  O   UNL     1     -11.024  17.338  64.641  1.00  0.00    -1.013 OA 
BRANCH   5   7
HETATM    7  O   UNL     1      -9.563  15.804  65.595  1.00  0.00    -0.329 OA 
BRANCH   7   8
HETATM    8  C   UNL     1     -10.267  14.604  65.779  1.00  0.00    -0.340 A  
HETATM    9  C   UNL     1     -10.637  13.885  64.646  1.00  0.00    -0.432 A  
HETATM   10  C   UNL     1     -11.428  12.745  64.792  1.00  0.00    -0.356 A  
HETATM   11  C   UNL     1     -11.860  12.340  66.062  1.00  0.00    -0.409 A  
HETATM   12  C   UNL     1     -11.517  13.079  67.204  1.00  0.00    -0.379 A  
HETATM   13  C   UNL     1     -10.711  14.219  67.044  1.00  0.00    -0.290 A  
BRANCH  12  14
HETATM   14  C   UNL     1     -12.011  12.733  68.606  1.00  0.00    -0.233 C  
HETATM   15  C   UNL     1     -11.664  13.838  69.616  1.00  0.00    -0.379 C  
BRANCH  14  16
HETATM   16  N   UNL     1     -11.691  11.367  69.079  1.00  0.00    -0.314 NA 
HETATM   17  C   UNL     1     -10.268  11.044  68.968  1.00  0.00    -0.200 C  
HETATM   18  C   UNL     1     -12.201  11.005  70.394  1.00  0.00    -0.373 C  
ENDBRANCH  14  16
ENDBRANCH  12  14
ENDBRANCH   7   8
ENDBRANCH   5   7
ENDBRANCH   2   3
TORSDOF 5
ENDMDL
MODEL       12
REMARK 921   NORMALIZED FREE ENERGY PREDICTED BY IDOCK:   -5.06 KCAL/MOL
REMARK 922        TOTAL FREE ENERGY PREDICTED BY IDOCK:   -7.15 KCAL/MOL
REMARK 923 INTER-LIGAND FREE ENERGY PREDICTED BY IDOCK:   -6.65 KCAL/MOL
REMARK 924 INTRA-LIGAND FREE ENERGY PREDICTED BY IDOCK:   -0.50 KCAL/MOL
REMARK 927      BINDING AFFINITY PREDICTED BY RF-SCORE:    0.00 PKD
ROOT
HETATM    1  C   UNL     1     -12.442  12.777  64.661  1.00  0.00    -0.525 C  
HETATM    2  C   UNL     1     -12.728  14.112  65.337  1.00  0.00    -0.431 C  
ENDROOT
BRANCH   2   3
HETATM    3  N   UNL     1     -11.658  14.536  66.231  1.00  0.00    -0.363 N  
HETATM    4  C   UNL     1     -11.709  14.128  67.624  1.00  0.00    -0.387 C  
HETATM    5  C   UNL     1     -10.773  15.531  65.812  1.00  0.00    -0.353 C  
HETATM    6  O   UNL     1     -10.790  16.008  64.682  1.00  0.00    -0.608 OA 
BRANCH   5   7
HETATM    7  O   UNL     1      -9.911  15.929  66.831  1.00  0.00    -0.238 OA 
BRANCH   7   8
HETATM    8  C   UNL     1      -9.644  17.300  66.966  1.00  0.00    -0.261 A  
HETATM    9  C   UNL     1     -10.704  18.142  67.296  1.00  0.00    -0.336 A  
HETATM   10  C   UNL     1     -10.492  19.520  67.333  1.00  0.00    -0.593 A  
HETATM   11  C   UNL     1      -9.233  20.052  67.025  1.00  0.00    -0.491 A  
HETATM   12  C   UNL     1      -8.170  19.211  66.661  1.00  0.00    -0.303 A  
HETATM   13  C   UNL     1      -8.394  17.825  66.638  1.00  0.00    -0.285 A  
BRANCH  12  14
HETATM   14  C   UNL     1      -6.795  19.730  66.247  1.00  0.00    -0.225 C  
HETATM   15  C   UNL     1      -6.535  21.141  66.797  1.00  0.00    -0.376 C  
BRANCH  14  16
HETATM   16  N   UNL     1      -6.455  19.572  64.815  1.00  0.00    -0.411 NA 
HETATM   17  C   UNL     1      -6.324  20.851  64.116  1.00  0.00    -0.290 C  
HETATM   18  C   UNL     1      -5.328  18.702  64.513  1.00  0.00    -0.173 C  
ENDBRANCH  14  16
ENDBRANCH  12  14
ENDBRANCH   7   8
ENDBRANCH   5   7
ENDBRANCH   2   3
TORSDOF 5
ENDMDL
MODEL       13
REMARK 921   NORMALIZED FREE ENERGY PREDICTED BY IDOCK:   -5.05 KCAL/MOL
REMARK 922        TOTAL FREE ENERGY PREDICTED BY IDOCK:   -7.13 KCAL/MOL
REMARK 923 INTER-LIGAND FREE ENERGY PREDICTED BY IDOCK:   -6.71 KCAL/MOL
REMARK 924 INTRA-LIGAND FREE ENERGY PREDICTED BY IDOCK:   -0.43 KCAL/MOL
REMARK 927      BINDING AFFINITY PREDICTED BY RF-SCORE:    0.00 PKD
ROOT
HETATM    1  C   UNL     1     -12.319  12.193  63.504  1.00  0.00    -0.682 C  
HETATM    2  C   UNL     1     -12.260  13.652  63.940  1.00  0.00    -0.374 C  
ENDROOT
BRANCH   2   3
HETATM    3  N   UNL     1     -11.031  13.983  64.651  1.00  0.00    -0.397 N  
HETATM    4  C   UNL     1     -10.389  12.955  65.451  1.00  0.00    -0.296 C  
HETATM    5  C   UNL     1     -10.653  15.321  64.773  1.00  0.00    -0.254 C  
HETATM    6  O   UNL     1     -11.257  16.239  64.227  1.00  0.00    -0.770 OA 
BRANCH   5   7
HETATM    7  O   UNL     1      -9.548  15.479  65.605  1.00  0.00    -0.336 OA 
BRANCH   7   8
HETATM    8  C   UNL     1      -9.721  16.204  66.794  1.00  0.00    -0.242 A  
HETATM    9  C   UNL     1     -10.579  15.682  67.758  1.00  0.00    -0.281 A  
HETATM   10  C   UNL     1     -10.852  16.430  68.903  1.00  0.00    -0.334 A  
HETATM   11  C   UNL     1     -10.286  17.700  69.072  1.00  0.00    -0.314 A  
HETATM   12  C   UNL     1      -9.446  18.245  68.089  1.00  0.00    -0.313 A  
HETATM   13  C   UNL     1      -9.170  17.477  66.946  1.00  0.00    -0.273 A  
BRANCH  12  14
HETATM   14  C   UNL     1      -8.852  19.649  68.179  1.00  0.00    -0.320 C  
HETATM   15  C   UNL     1      -9.622  20.645  67.296  1.00  0.00    -0.558 C  
BRANCH  14  16
HETATM   16  N   UNL     1      -7.381  19.733  68.035  1.00  0.00    -0.282 NA 
HETATM   17  C   UNL     1      -6.941  20.977  67.401  1.00  0.00    -0.354 C  
HETATM   18  C   UNL     1      -6.601  19.461  69.233  1.00  0.00    -0.326 C  
ENDBRANCH  14  16
ENDBRANCH  12  14
ENDBRANCH   7   8
ENDBRANCH   5   7
ENDBRANCH   2   3
TORSDOF 5
ENDMDL
MODEL       14
REMARK 921   NORMALIZED FREE ENERGY PREDICTED BY IDOCK:   -5.05 KCAL/MOL
REMARK 922        TOTAL FREE ENERGY PREDICTED BY IDOCK:   -7.13 KCAL/MOL
REMARK 923 INTER-LIGAND FREE ENERGY PREDICTED BY IDOCK:   -6.83 KCAL/MOL
REMARK 924 INTRA-LIGAND FREE ENERGY PREDICTED BY IDOCK:   -0.30 KCAL/MOL
REMARK 927      BINDING AFFINITY PREDICTED BY RF-SCORE:    0.00 PKD
ROOT
HETATM    1  C   UNL     1      -9.675  10.877  63.205  1.00  0.00    -0.398 C  
HETATM    2  C   UNL     1     -10.935  11.611  63.647  1.00  0.00    -0.431 C  
ENDROOT
BRANCH   2   3
HETATM    3  N   UNL     1     -10.989  11.830  65.087  1.00  0.00    -0.302 N  
HETATM    4  C   UNL     1     -10.141  11.024  65.948  1.00  0.00    -0.249 C  
HETATM    5  C   UNL     1     -12.029  12.593  65.622  1.00  0.00    -0.452 C  
HETATM    6  O   UNL     1     -12.857  13.174  64.929  1.00  0.00    -0.703 OA 
BRANCH   5   7
HETATM    7  O   UNL     1     -12.025  12.578  67.015  1.00  0.00    -0.498 OA 
BRANCH   7   8
HETATM    8  C   UNL     1     -11.674  13.762  67.682  1.00  0.00    -0.367 A  
HETATM    9  C   UNL     1     -12.089  13.914  69.002  1.00  0.00    -0.365 A  
HETATM   10  C   UNL     1     -11.848  15.122  69.656  1.00  0.00    -0.362 A  
HETATM   11  C   UNL     1     -11.212  16.176  68.987  1.00  0.00    -0.347 A  
HETATM   12  C   UNL     1     -10.820  16.039  67.647  1.00  0.00    -0.311 A  
HETATM   13  C   UNL     1     -11.060  14.814  67.003  1.00  0.00    -0.333 A  
BRANCH  12  14
HETATM   14  C   UNL     1     -10.186  17.170  66.840  1.00  0.00    -0.315 C  
HETATM   15  C   UNL     1      -8.824  16.755  66.260  1.00  0.00    -0.334 C  
BRANCH  14  16
HETATM   16  N   UNL     1     -10.180  18.498  67.493  1.00  0.00    -0.365 NA 
HETATM   17  C   UNL     1      -8.854  18.891  67.972  1.00  0.00    -0.306 C  
HETATM   18  C   UNL     1     -10.801  19.584  66.749  1.00  0.00    -0.390 C  
ENDBRANCH  14  16
ENDBRANCH  12  14
ENDBRANCH   7   8
ENDBRANCH   5   7
ENDBRANCH   2   3
TORSDOF 5
ENDMDL
MODEL       15
REMARK 921   NORMALIZED FREE ENERGY PREDICTED BY IDOCK:   -5.03 KCAL/MOL
REMARK 922        TOTAL FREE ENERGY PREDICTED BY IDOCK:   -7.10 KCAL/MOL
REMARK 923 INTER-LIGAND FREE ENERGY PREDICTED BY IDOCK:   -6.78 KCAL/MOL
REMARK 924 INTRA-LIGAND FREE ENERGY PREDICTED BY IDOCK:   -0.32 KCAL/MOL
REMARK 927      BINDING AFFINITY PREDICTED BY RF-SCORE:    0.00 PKD
ROOT
HETATM    1  C   UNL     1      -9.958  20.187  66.710  1.00  0.00    -0.604 C  
HETATM    2  C   UNL     1     -10.680  19.121  65.895  1.00  0.00    -0.351 C  
ENDROOT
BRANCH   2   3
HETATM    3  N   UNL     1     -10.148  17.782  66.114  1.00  0.00    -0.328 N  
HETATM    4  C   UNL     1      -9.043  17.613  67.042  1.00  0.00    -0.250 C  
HETATM    5  C   UNL     1     -10.512  16.752  65.245  1.00  0.00    -0.131 C  
HETATM    6  O   UNL     1     -11.340  16.893  64.351  1.00  0.00    -1.133 OA 
BRANCH   5   7
HETATM    7  O   UNL     1      -9.804  15.580  65.496  1.00  0.00    -0.337 OA 
BRANCH   7   8
HETATM    8  C   UNL     1     -10.480  14.529  66.135  1.00  0.00    -0.298 A  
HETATM    9  C   UNL     1     -11.103  13.573  65.338  1.00  0.00    -0.302 A  
HETATM   10  C   UNL     1     -11.870  12.578  65.942  1.00  0.00    -0.489 A  
HETATM   11  C   UNL     1     -12.028  12.552  67.334  1.00  0.00    -0.283 A  
HETATM   12  C   UNL     1     -11.429  13.531  68.141  1.00  0.00    -0.338 A  
HETATM   13  C   UNL     1     -10.651  14.522  67.520  1.00  0.00    -0.262 A  
BRANCH  12  14
HETATM   14  C   UNL     1     -11.618  13.601  69.654  1.00  0.00    -0.278 C  
HETATM   15  C   UNL     1     -12.047  12.243  70.232  1.00  0.00    -0.376 C  
BRANCH  14  16
HETATM   16  N   UNL     1     -12.420  14.742  70.148  1.00  0.00    -0.326 NA 
HETATM   17  C   UNL     1     -13.450  14.342  71.109  1.00  0.00    -0.306 C  
HETATM   18  C   UNL     1     -11.672  15.889  70.642  1.00  0.00    -0.384 C  
ENDBRANCH  14  16
ENDBRANCH  12  14
ENDBRANCH   7   8
ENDBRANCH   5   7
ENDBRANCH   2   3
TORSDOF 5
ENDMDL
MODEL       16
REMARK 921   NORMALIZED FREE ENERGY PREDICTED BY IDOCK:   -5.02 KCAL/MOL
REMARK 922        TOTAL FREE ENERGY PREDICTED BY IDOCK:   -7.10 KCAL/MOL
REMARK 923 INTER-LIGAND FREE ENERGY PREDICTED BY IDOCK:   -6.62 KCAL/MOL
REMARK 924 INTRA-LIGAND FREE ENERGY PREDICTED BY IDOCK:   -0.48 KCAL/MOL
REMARK 927      BINDING AFFINITY PREDICTED BY RF-SCORE:    0.00 PKD
ROOT
HETATM    1  C   UNL     1     -11.339  14.786  65.044  1.00  0.00    -0.391 C  
HETATM    2  C   UNL     1     -12.355  13.992  65.856  1.00  0.00    -0.486 C  
ENDROOT
BRANCH   2   3
HETATM    3  N   UNL     1     -11.932  13.766  67.232  1.00  0.00    -0.401 N  
HETATM    4  C   UNL     1     -11.633  14.915  68.068  1.00  0.00    -0.341 C  
HETATM    5  C   UNL     1     -11.562  12.479  67.629  1.00  0.00    -0.355 C  
HETATM    6  O   UNL     1     -11.664  11.499  66.900  1.00  0.00    -0.533 OA 
BRANCH   5   7
HETATM    7  O   UNL     1     -11.039  12.461  68.920  1.00  0.00    -0.241 OA 
BRANCH   7   8
HETATM    8  C   UNL     1     -11.707  11.693  69.886  1.00  0.00    -0.337 A  
HETATM    9  C   UNL     1     -12.576  12.350  70.755  1.00  0.00    -0.298 A  
HETATM   10  C   UNL     1     -13.172  11.632  71.792  1.00  0.00    -0.438 A  
HETATM   11  C   UNL     1     -12.886  10.272  71.969  1.00  0.00    -0.457 A  
HETATM   12  C   UNL     1     -11.988   9.613  71.117  1.00  0.00    -0.452 A  
HETATM   13  C   UNL     1     -11.402  10.345  70.070  1.00  0.00    -0.384 A  
BRANCH  12  14
HETATM   14  C   UNL     1     -11.580   8.153  71.296  1.00  0.00    -0.273 C  
HETATM   15  C   UNL     1     -11.006   7.896  72.698  1.00  0.00    -0.440 C  
BRANCH  14  16
HETATM   16  N   UNL     1     -10.770   7.574  70.201  1.00  0.00    -0.236 NA 
HETATM   17  C   UNL     1      -9.396   7.272  70.606  1.00  0.00    -0.157 C  
HETATM   18  C   UNL     1     -11.358   6.447  69.491  1.00  0.00    -0.393 C  
ENDBRANCH  14  16
ENDBRANCH  12  14
ENDBRANCH   7   8
ENDBRANCH   5   7
ENDBRANCH   2   3
TORSDOF 5
ENDMDL
MODEL       17
REMARK 921   NORMALIZED FREE ENERGY PREDICTED BY IDOCK:   -5.00 KCAL/MOL
REMARK 922        TOTAL FREE ENERGY PREDICTED BY IDOCK:   -7.07 KCAL/MOL
REMARK 923 INTER-LIGAND FREE ENERGY PREDICTED BY IDOCK:   -6.57 KCAL/MOL
REMARK 924 INTRA-LIGAND FREE ENERGY PREDICTED BY IDOCK:   -0.50 KCAL/MOL
REMARK 927      BINDING AFFINITY PREDICTED BY RF-SCORE:    0.00 PKD
ROOT
HETATM    1  C   UNL     1     -12.749  16.012  73.955  1.00  0.00    -0.682 C  
HETATM    2  C   UNL     1     -11.817  15.252  73.020  1.00  0.00    -0.392 C  
ENDROOT
BRANCH   2   3
HETATM    3  N   UNL     1     -12.509  14.679  71.872  1.00  0.00    -0.334 N  
HETATM    4  C   UNL     1     -13.636  13.793  72.106  1.00  0.00    -0.519 C  
HETATM    5  C   UNL     1     -11.921  14.765  70.608  1.00  0.00    -0.309 C  
HETATM    6  O   UNL     1     -10.885  15.387  70.394  1.00  0.00    -0.297 OA 
BRANCH   5   7
HETATM    7  O   UNL     1     -12.627  14.041  69.652  1.00  0.00    -0.253 OA 
BRANCH   7   8
HETATM    8  C   UNL     1     -11.903  13.172  68.821  1.00  0.00    -0.324 A  
HETATM    9  C   UNL     1     -11.341  12.036  69.396  1.00  0.00    -0.317 A  
HETATM   10  C   UNL     1     -10.529  11.210  68.619  1.00  0.00    -0.220 A  
HETATM   11  C   UNL     1     -10.266  11.531  67.281  1.00  0.00    -0.229 A  
HETATM   12  C   UNL     1     -10.803  12.692  66.704  1.00  0.00    -0.286 A  
HETATM   13  C   UNL     1     -11.628  13.509  67.495  1.00  0.00    -0.385 A  
BRANCH  12  14
HETATM   14  C   UNL     1     -10.501  13.135  65.275  1.00  0.00    -0.307 C  
HETATM   15  C   UNL     1     -10.747  14.641  65.087  1.00  0.00    -0.430 C  
BRANCH  14  16
HETATM   16  N   UNL     1     -11.085  12.294  64.206  1.00  0.00    -0.323 NA 
HETATM   17  C   UNL     1     -12.148  12.973  63.463  1.00  0.00    -0.542 C  
HETATM   18  C   UNL     1     -10.141  11.664  63.295  1.00  0.00    -0.423 C  
ENDBRANCH  14  16
ENDBRANCH  12  14
ENDBRANCH   7   8
ENDBRANCH   5   7
ENDBRANCH   2   3
TORSDOF 5
ENDMDL
MODEL       18
REMARK 921   NORMALIZED FREE ENERGY PREDICTED BY IDOCK:   -4.99 KCAL/MOL
REMARK 922        TOTAL FREE ENERGY PREDICTED BY IDOCK:   -7.06 KCAL/MOL
REMARK 923 INTER-LIGAND FREE ENERGY PREDICTED BY IDOCK:   -6.98 KCAL/MOL
REMARK 924 INTRA-LIGAND FREE ENERGY PREDICTED BY IDOCK:   -0.08 KCAL/MOL
REMARK 927      BINDING AFFINITY PREDICTED BY RF-SCORE:    0.00 PKD
ROOT
HETATM    1  C   UNL     1     -11.649   6.011  72.440  1.00  0.00    -0.349 C  
HETATM    2  C   UNL     1     -12.145   6.798  71.232  1.00  0.00    -0.370 C  
ENDROOT
BRANCH   2   3
HETATM    3  N   UNL     1     -12.956   7.951  71.600  1.00  0.00    -0.331 N  
HETATM    4  C   UNL     1     -14.403   7.832  71.550  1.00  0.00    -0.447 C  
HETATM    5  C   UNL     1     -12.348   9.202  71.723  1.00  0.00    -0.372 C  
HETATM    6  O   UNL     1     -11.136   9.368  71.628  1.00  0.00    -0.369 OA 
BRANCH   5   7
HETATM    7  O   UNL     1     -13.278  10.219  71.926  1.00  0.00    -0.437 OA 
BRANCH   7   8
HETATM    8  C   UNL     1     -12.951  11.506  71.473  1.00  0.00    -0.380 A  
HETATM    9  C   UNL     1     -13.469  12.594  72.170  1.00  0.00    -0.561 A  
HETATM   10  C   UNL     1     -13.250  13.882  71.682  1.00  0.00    -0.446 A  
HETATM   11  C   UNL     1     -12.532  14.077  70.495  1.00  0.00    -0.429 A  
HETATM   12  C   UNL     1     -12.034  12.983  69.771  1.00  0.00    -0.377 A  
HETATM   13  C   UNL     1     -12.254  11.692  70.279  1.00  0.00    -0.401 A  
BRANCH  12  14
HETATM   14  C   UNL     1     -11.305  13.123  68.437  1.00  0.00    -0.289 C  
HETATM   15  C   UNL     1     -11.202  14.593  68.001  1.00  0.00    -0.307 C  
BRANCH  14  16
HETATM   16  N   UNL     1     -11.755  12.209  67.362  1.00  0.00    -0.509 NA 
HETATM   17  C   UNL     1     -12.259  12.918  66.185  1.00  0.00    -0.317 C  
HETATM   18  C   UNL     1     -10.819  11.163  66.973  1.00  0.00    -0.284 C  
ENDBRANCH  14  16
ENDBRANCH  12  14
ENDBRANCH   7   8
ENDBRANCH   5   7
ENDBRANCH   2   3
TORSDOF 5
ENDMDL
MODEL       19
REMARK 921   NORMALIZED FREE ENERGY PREDICTED BY IDOCK:   -4.98 KCAL/MOL
REMARK 922        TOTAL FREE ENERGY PREDICTED BY IDOCK:   -7.05 KCAL/MOL
REMARK 923 INTER-LIGAND FREE ENERGY PREDICTED BY IDOCK:   -6.75 KCAL/MOL
REMARK 924 INTRA-LIGAND FREE ENERGY PREDICTED BY IDOCK:   -0.30 KCAL/MOL
REMARK 927      BINDING AFFINITY PREDICTED BY RF-SCORE:    0.00 PKD
ROOT
HETATM    1  C   UNL     1     -10.967   5.996  72.719  1.00  0.00    -0.299 C  
HETATM    2  C   UNL     1     -11.056   7.486  73.028  1.00  0.00    -0.362 C  
ENDROOT
BRANCH   2   3
HETATM    3  N   UNL     1     -11.806   8.230  72.024  1.00  0.00    -0.323 N  
HETATM    4  C   UNL     1     -13.139   7.775  71.669  1.00  0.00    -0.345 C  
HETATM    5  C   UNL     1     -11.144   9.177  71.240  1.00  0.00    -0.335 C  
HETATM    6  O   UNL     1      -9.970   9.487  71.416  1.00  0.00    -0.225 OA 
BRANCH   5   7
HETATM    7  O   UNL     1     -11.960   9.685  70.233  1.00  0.00    -0.177 OA 
BRANCH   7   8
HETATM    8  C   UNL     1     -12.031  11.079  70.088  1.00  0.00    -0.360 A  
HETATM    9  C   UNL     1     -11.409  11.653  68.983  1.00  0.00    -0.337 A  
HETATM   10  C   UNL     1     -11.372  13.043  68.868  1.00  0.00    -0.333 A  
HETATM   11  C   UNL     1     -11.938  13.851  69.862  1.00  0.00    -0.405 A  
HETATM   12  C   UNL     1     -12.538  13.280  70.994  1.00  0.00    -0.408 A  
HETATM   13  C   UNL     1     -12.577  11.879  71.092  1.00  0.00    -0.390 A  
BRANCH  12  14
HETATM   14  C   UNL     1     -13.111  14.103  72.144  1.00  0.00    -0.401 C  
HETATM   15  C   UNL     1     -14.410  14.817  71.736  1.00  0.00    -0.656 C  
BRANCH  14  16
HETATM   16  N   UNL     1     -12.146  14.974  72.852  1.00  0.00    -0.339 NA 
HETATM   17  C   UNL     1     -11.879  16.225  72.141  1.00  0.00    -0.499 C  
HETATM   18  C   UNL     1     -12.420  15.229  74.259  1.00  0.00    -0.557 C  
ENDBRANCH  14  16
ENDBRANCH  12  14
ENDBRANCH   7   8
ENDBRANCH   5   7
ENDBRANCH   2   3
TORSDOF 5
ENDMDL
MODEL       20
REMARK 921   NORMALIZED FREE ENERGY PREDICTED BY IDOCK:   -4.92 KCAL/MOL
REMARK 922        TOTAL FREE ENERGY PREDICTED BY IDOCK:   -6.96 KCAL/MOL
REMARK 923 INTER-LIGAND FREE ENERGY PREDICTED BY IDOCK:   -6.46 KCAL/MOL
REMARK 924 INTRA-LIGAND FREE ENERGY PREDICTED BY IDOCK:   -0.50 KCAL/MOL
REMARK 927      BINDING AFFINITY PREDICTED BY RF-SCORE:    0.00 PKD
ROOT
HETATM    1  C   UNL     1     -11.723   6.611  71.996  1.00  0.00    -0.354 C  
HETATM    2  C   UNL     1     -11.510   7.985  72.618  1.00  0.00    -0.402 C  
ENDROOT
BRANCH   2   3
HETATM    3  N   UNL     1     -12.308   9.027  71.982  1.00  0.00    -0.373 N  
HETATM    4  C   UNL     1     -13.752   8.988  72.130  1.00  0.00    -0.480 C  
HETATM    5  C   UNL     1     -11.710   9.862  71.036  1.00  0.00    -0.382 C  
HETATM    6  O   UNL     1     -10.512   9.827  70.776  1.00  0.00    -0.303 OA 
BRANCH   5   7
HETATM    7  O   UNL     1     -12.637  10.695  70.414  1.00  0.00    -0.335 OA 
BRANCH   7   8
HETATM    8  C   UNL     1     -12.256  12.021  70.157  1.00  0.00    -0.231 A  
HETATM    9  C   UNL     1     -12.560  12.985  71.116  1.00  0.00    -0.388 A  
HETATM   10  C   UNL     1     -12.290  14.325  70.842  1.00  0.00    -0.429 A  
HETATM   11  C   UNL     1     -11.737  14.700  69.610  1.00  0.00    -0.358 A  
HETATM   12  C   UNL     1     -11.459  13.737  68.629  1.00  0.00    -0.336 A  
HETATM   13  C   UNL     1     -11.726  12.390  68.921  1.00  0.00    -0.372 A  
BRANCH  12  14
HETATM   14  C   UNL     1     -10.922  14.085  67.243  1.00  0.00    -0.295 C  
HETATM   15  C   UNL     1     -10.891  15.605  67.014  1.00  0.00    -0.294 C  
BRANCH  14  16
HETATM   16  N   UNL     1     -11.508  13.322  66.118  1.00  0.00    -0.317 NA 
HETATM   17  C   UNL     1     -12.719  13.941  65.577  1.00  0.00    -0.499 C  
HETATM   18  C   UNL     1     -10.595  12.952  65.045  1.00  0.00    -0.315 C  
ENDBRANCH  14  16
ENDBRANCH  12  14
ENDBRANCH   7   8
ENDBRANCH   5   7
ENDBRANCH   2   3
TORSDOF 5
ENDMDL
MODEL       21
REMARK 921   NORMALIZED FREE ENERGY PREDICTED BY IDOCK:   -4.89 KCAL/MOL
REMARK 922        TOTAL FREE ENERGY PREDICTED BY IDOCK:   -6.93 KCAL/MOL
REMARK 923 INTER-LIGAND FREE ENERGY PREDICTED BY IDOCK:   -6.43 KCAL/MOL
REMARK 924 INTRA-LIGAND FREE ENERGY PREDICTED BY IDOCK:   -0.50 KCAL/MOL
REMARK 927      BINDING AFFINITY PREDICTED BY RF-SCORE:    0.00 PKD
ROOT
HETATM    1  C   UNL     1     -12.649  11.718  63.500  1.00  0.00    -0.485 C  
HETATM    2  C   UNL     1     -12.237  13.174  63.323  1.00  0.00    -0.360 C  
ENDROOT
BRANCH   2   3
HETATM    3  N   UNL     1     -11.551  13.716  64.489  1.00  0.00    -0.374 N  
HETATM    4  C   UNL     1     -10.109  13.565  64.582  1.00  0.00    -0.217 C  
HETATM    5  C   UNL     1     -12.300  14.112  65.599  1.00  0.00    -0.456 C  
HETATM    6  O   UNL     1     -13.526  14.116  65.611  1.00  0.00    -0.576 OA 
BRANCH   5   7
HETATM    7  O   UNL     1     -11.491  14.459  66.679  1.00  0.00    -0.339 OA 
BRANCH   7   8
HETATM    8  C   UNL     1     -11.833  13.954  67.942  1.00  0.00    -0.378 A  
HETATM    9  C   UNL     1     -12.149  14.866  68.946  1.00  0.00    -0.229 A  
HETATM   10  C   UNL     1     -12.390  14.400  70.238  1.00  0.00    -0.410 A  
HETATM   11  C   UNL     1     -12.296  13.032  70.527  1.00  0.00    -0.365 A  
HETATM   12  C   UNL     1     -11.947  12.112  69.527  1.00  0.00    -0.338 A  
HETATM   13  C   UNL     1     -11.718  12.593  68.228  1.00  0.00    -0.389 A  
BRANCH  12  14
HETATM   14  C   UNL     1     -11.761  10.619  69.790  1.00  0.00    -0.310 C  
HETATM   15  C   UNL     1     -12.239  10.230  71.198  1.00  0.00    -0.500 C  
BRANCH  14  16
HETATM   16  N   UNL     1     -10.435  10.066  69.433  1.00  0.00    -0.216 NA 
HETATM   17  C   UNL     1      -9.769   9.410  70.559  1.00  0.00    -0.271 C  
HETATM   18  C   UNL     1     -10.387   9.226  68.245  1.00  0.00    -0.217 C  
ENDBRANCH  14  16
ENDBRANCH  12  14
ENDBRANCH   7   8
ENDBRANCH   5   7
ENDBRANCH   2   3
TORSDOF 5
ENDMDL
MODEL       22
REMARK 921   NORMALIZED FREE ENERGY PREDICTED BY IDOCK:   -4.88 KCAL/MOL
REMARK 922        TOTAL FREE ENERGY PREDICTED BY IDOCK:   -6.92 KCAL/MOL
REMARK 923 INTER-LIGAND FREE ENERGY PREDICTED BY IDOCK:   -6.83 KCAL/MOL
REMARK 924 INTRA-LIGAND FREE ENERGY PREDICTED BY IDOCK:   -0.09 KCAL/MOL
REMARK 927      BINDING AFFINITY PREDICTED BY RF-SCORE:    0.00 PKD
ROOT
HETATM    1  C   UNL     1     -12.592  15.677  74.279  1.00  0.00    -0.732 C  
HETATM    2  C   UNL     1     -12.216  16.409  72.996  1.00  0.00    -0.461 C  
ENDROOT
BRANCH   2   3
HETATM    3  N   UNL     1     -12.723  15.751  71.799  1.00  0.00    -0.450 N  
HETATM    4  C   UNL     1     -14.116  15.341  71.764  1.00  0.00    -0.555 C  
HETATM    5  C   UNL     1     -11.819  15.286  70.841  1.00  0.00    -0.341 C  
HETATM    6  O   UNL     1     -10.611  15.488  70.909  1.00  0.00    -0.241 OA 
BRANCH   5   7
HETATM    7  O   UNL     1     -12.449  14.551  69.840  1.00  0.00    -0.316 OA 
BRANCH   7   8
HETATM    8  C   UNL     1     -11.865  14.545  68.565  1.00  0.00    -0.320 A  
HETATM    9  C   UNL     1     -11.371  15.748  68.067  1.00  0.00    -0.310 A  
HETATM   10  C   UNL     1     -10.881  15.795  66.762  1.00  0.00    -0.254 A  
HETATM   11  C   UNL     1     -10.903  14.650  65.955  1.00  0.00    -0.318 A  
HETATM   12  C   UNL     1     -11.428  13.443  66.440  1.00  0.00    -0.359 A  
HETATM   13  C   UNL     1     -11.909  13.407  67.759  1.00  0.00    -0.395 A  
BRANCH  12  14
HETATM   14  C   UNL     1     -11.544  12.179  65.592  1.00  0.00    -0.351 C  
HETATM   15  C   UNL     1     -10.544  11.102  66.043  1.00  0.00    -0.298 C  
BRANCH  14  16
HETATM   16  N   UNL     1     -11.575  12.391  64.127  1.00  0.00    -0.356 NA 
HETATM   17  C   UNL     1     -10.441  11.775  63.437  1.00  0.00    -0.434 C  
HETATM   18  C   UNL     1     -12.826  12.065  63.456  1.00  0.00    -0.341 C  
ENDBRANCH  14  16
ENDBRANCH  12  14
ENDBRANCH   7   8
ENDBRANCH   5   7
ENDBRANCH   2   3
TORSDOF 5
ENDMDL
MODEL       23
REMARK 921   NORMALIZED FREE ENERGY PREDICTED BY IDOCK:   -4.88 KCAL/MOL
REMARK 922        TOTAL FREE ENERGY PREDICTED BY IDOCK:   -6.91 KCAL/MOL
REMARK 923 INTER-LIGAND FREE ENERGY PREDICTED BY IDOCK:   -6.41 KCAL/MOL
REMARK 924 INTRA-LIGAND FREE ENERGY PREDICTED BY IDOCK:   -0.50 KCAL/MOL
REMARK 927      BINDING AFFINITY PREDICTED BY RF-SCORE:    0.00 PKD
ROOT
HETATM    1  C   UNL     1     -10.809   9.237  71.195  1.00  0.00    -0.407 C  
HETATM    2  C   UNL     1     -10.269   9.832  69.900  1.00  0.00    -0.254 C  
ENDROOT
BRANCH   2   3
HETATM    3  N   UNL     1     -11.177  10.799  69.297  1.00  0.00    -0.250 N  
HETATM    4  C   UNL     1     -12.200  11.410  70.129  1.00  0.00    -0.321 C  
HETATM    5  C   UNL     1     -11.229  10.911  67.906  1.00  0.00    -0.321 C  
HETATM    6  O   UNL     1     -10.474  10.299  67.158  1.00  0.00    -0.227 OA 
BRANCH   5   7
HETATM    7  O   UNL     1     -12.249  11.761  67.487  1.00  0.00    -0.526 OA 
BRANCH   7   8
HETATM    8  C   UNL     1     -11.900  12.857  66.682  1.00  0.00    -0.395 A  
HETATM    9  C   UNL     1     -12.128  12.759  65.312  1.00  0.00    -0.505 A  
HETATM   10  C   UNL     1     -11.695  13.787  64.475  1.00  0.00    -0.432 A  
HETATM   11  C   UNL     1     -11.022  14.896  65.005  1.00  0.00    -0.432 A  
HETATM   12  C   UNL     1     -10.762  14.986  66.380  1.00  0.00    -0.322 A  
HETATM   13  C   UNL     1     -11.212  13.948  67.213  1.00  0.00    -0.329 A  
BRANCH  12  14
HETATM   14  C   UNL     1      -9.975  16.131  67.011  1.00  0.00    -0.258 C  
HETATM   15  C   UNL     1     -10.675  16.672  68.268  1.00  0.00    -0.351 C  
BRANCH  14  16
HETATM   16  N   UNL     1      -9.519  17.187  66.078  1.00  0.00    -0.495 NA 
HETATM   17  C   UNL     1     -10.391  18.362  66.077  1.00  0.00    -0.375 C  
HETATM   18  C   UNL     1      -8.122  17.581  66.186  1.00  0.00    -0.209 C  
ENDBRANCH  14  16
ENDBRANCH  12  14
ENDBRANCH   7   8
ENDBRANCH   5   7
ENDBRANCH   2   3
TORSDOF 5
ENDMDL
MODEL       24
REMARK 921   NORMALIZED FREE ENERGY PREDICTED BY IDOCK:   -4.87 KCAL/MOL
REMARK 922        TOTAL FREE ENERGY PREDICTED BY IDOCK:   -6.90 KCAL/MOL
REMARK 923 INTER-LIGAND FREE ENERGY PREDICTED BY IDOCK:   -6.49 KCAL/MOL
REMARK 924 INTRA-LIGAND FREE ENERGY PREDICTED BY IDOCK:   -0.42 KCAL/MOL
REMARK 927      BINDING AFFINITY PREDICTED BY RF-SCORE:    0.00 PKD
ROOT
HETATM    1  C   UNL     1      -9.467  11.195  62.865  1.00  0.00    -0.382 C  
HETATM    2  C   UNL     1     -10.432  10.981  64.025  1.00  0.00    -0.366 C  
ENDROOT
BRANCH   2   3
HETATM    3  N   UNL     1     -11.148  12.195  64.399  1.00  0.00    -0.315 N  
HETATM    4  C   UNL     1     -12.241  12.649  63.556  1.00  0.00    -0.547 C  
HETATM    5  C   UNL     1     -10.608  13.031  65.379  1.00  0.00    -0.292 C  
HETATM    6  O   UNL     1      -9.599  12.749  66.016  1.00  0.00    -0.246 OA 
BRANCH   5   7
HETATM    7  O   UNL     1     -11.328  14.216  65.509  1.00  0.00    -0.308 OA 
BRANCH   7   8
HETATM    8  C   UNL     1     -11.138  14.973  66.676  1.00  0.00    -0.326 A  
HETATM    9  C   UNL     1     -11.824  14.585  67.824  1.00  0.00    -0.390 A  
HETATM   10  C   UNL     1     -11.738  15.378  68.968  1.00  0.00    -0.380 A  
HETATM   11  C   UNL     1     -10.986  16.560  68.957  1.00  0.00    -0.306 A  
HETATM   12  C   UNL     1     -10.319  16.972  67.793  1.00  0.00    -0.335 A  
HETATM   13  C   UNL     1     -10.405  16.159  66.651  1.00  0.00    -0.297 A  
BRANCH  12  14
HETATM   14  C   UNL     1      -9.541  18.282  67.693  1.00  0.00    -0.282 C  
HETATM   15  C   UNL     1     -10.062  19.326  68.693  1.00  0.00    -0.499 C  
BRANCH  14  16
HETATM   16  N   UNL     1      -9.346  18.809  66.324  1.00  0.00    -0.430 NA 
HETATM   17  C   UNL     1     -10.476  19.613  65.856  1.00  0.00    -0.493 C  
HETATM   18  C   UNL     1      -8.086  19.493  66.070  1.00  0.00    -0.291 C  
ENDBRANCH  14  16
ENDBRANCH  12  14
ENDBRANCH   7   8
ENDBRANCH   5   7
ENDBRANCH   2   3
TORSDOF 5
ENDMDL
MODEL       25
REMARK 921   NORMALIZED FREE ENERGY PREDICTED BY IDOCK:   -4.86 KCAL/MOL
REMARK 922        TOTAL FREE ENERGY PREDICTED BY IDOCK:   -6.89 KCAL/MOL
REMARK 923 INTER-LIGAND FREE ENERGY PREDICTED BY IDOCK:   -6.36 KCAL/MOL
REMARK 924 INTRA-LIGAND FREE ENERGY PREDICTED BY IDOCK:   -0.53 KCAL/MOL
REMARK 927      BINDING AFFINITY PREDICTED BY RF-SCORE:    0.00 PKD
ROOT
HETATM    1  C   UNL     1      -7.642  19.412  68.518  1.00  0.00    -0.369 C  
HETATM    2  C   UNL     1      -7.555  19.386  66.996  1.00  0.00    -0.243 C  
ENDROOT
BRANCH   2   3
HETATM    3  N   UNL     1      -8.728  18.788  66.371  1.00  0.00    -0.303 N  
HETATM    4  C   UNL     1      -9.946  19.574  66.279  1.00  0.00    -0.450 C  
HETATM    5  C   UNL     1      -8.746  17.413  66.128  1.00  0.00    -0.147 C  
HETATM    6  O   UNL     1      -7.779  16.686  66.330  1.00  0.00    -0.303 OA 
BRANCH   5   7
HETATM    7  O   UNL     1      -9.988  16.979  65.672  1.00  0.00    -0.554 OA 
BRANCH   7   8
HETATM    8  C   UNL     1     -10.654  15.997  66.421  1.00  0.00    -0.284 A  
HETATM    9  C   UNL     1     -10.936  16.274  67.756  1.00  0.00    -0.281 A  
HETATM   10  C   UNL     1     -11.502  15.279  68.553  1.00  0.00    -0.355 A  
HETATM   11  C   UNL     1     -11.766  14.010  68.021  1.00  0.00    -0.394 A  
HETATM   12  C   UNL     1     -11.454  13.715  66.686  1.00  0.00    -0.365 A  
HETATM   13  C   UNL     1     -10.894  14.729  65.892  1.00  0.00    -0.331 A  
BRANCH  12  14
HETATM   14  C   UNL     1     -11.652  12.334  66.065  1.00  0.00    -0.393 C  
HETATM   15  C   UNL     1     -11.109  11.222  66.977  1.00  0.00    -0.356 C  
BRANCH  14  16
HETATM   16  N   UNL     1     -11.240  12.203  64.649  1.00  0.00    -0.313 NA 
HETATM   17  C   UNL     1     -10.352  11.062  64.417  1.00  0.00    -0.358 C  
HETATM   18  C   UNL     1     -12.309  12.233  63.662  1.00  0.00    -0.562 C  
ENDBRANCH  14  16
ENDBRANCH  12  14
ENDBRANCH   7   8
ENDBRANCH   5   7
ENDBRANCH   2   3
TORSDOF 5
ENDMDL
MODEL       26
REMARK 921   NORMALIZED FREE ENERGY PREDICTED BY IDOCK:   -4.86 KCAL/MOL
REMARK 922        TOTAL FREE ENERGY PREDICTED BY IDOCK:   -6.89 KCAL/MOL
REMARK 923 INTER-LIGAND FREE ENERGY PREDICTED BY IDOCK:   -6.57 KCAL/MOL
REMARK 924 INTRA-LIGAND FREE ENERGY PREDICTED BY IDOCK:   -0.32 KCAL/MOL
REMARK 927      BINDING AFFINITY PREDICTED BY RF-SCORE:    0.00 PKD
ROOT
HETATM    1  C   UNL     1     -11.880  11.984  63.608  1.00  0.00    -0.602 C  
HETATM    2  C   UNL     1     -12.366  13.337  64.114  1.00  0.00    -0.341 C  
ENDROOT
BRANCH   2   3
HETATM    3  N   UNL     1     -11.276  14.261  64.400  1.00  0.00    -0.304 N  
HETATM    4  C   UNL     1     -10.069  13.745  65.022  1.00  0.00    -0.283 C  
HETATM    5  C   UNL     1     -11.511  15.636  64.332  1.00  0.00    -0.262 C  
HETATM    6  O   UNL     1     -12.573  16.114  63.947  1.00  0.00    -0.703 OA 
BRANCH   5   7
HETATM    7  O   UNL     1     -10.420  16.376  64.780  1.00  0.00    -0.620 OA 
BRANCH   7   8
HETATM    8  C   UNL     1     -10.555  17.075  65.989  1.00  0.00    -0.206 A  
HETATM    9  C   UNL     1     -10.449  18.463  65.956  1.00  0.00    -0.400 A  
HETATM   10  C   UNL     1     -10.473  19.176  67.155  1.00  0.00    -0.539 A  
HETATM   11  C   UNL     1     -10.584  18.503  68.378  1.00  0.00    -0.146 A  
HETATM   12  C   UNL     1     -10.660  17.102  68.420  1.00  0.00    -0.371 A  
HETATM   13  C   UNL     1     -10.645  16.397  67.205  1.00  0.00    -0.293 A  
BRANCH  12  14
HETATM   14  C   UNL     1     -10.713  16.305  69.720  1.00  0.00    -0.345 C  
HETATM   15  C   UNL     1      -9.602  15.244  69.777  1.00  0.00    -0.140 C  
BRANCH  14  16
HETATM   16  N   UNL     1     -12.048  15.795  70.106  1.00  0.00    -0.359 NA 
HETATM   17  C   UNL     1     -12.247  14.390  69.750  1.00  0.00    -0.321 C  
HETATM   18  C   UNL     1     -12.458  16.042  71.481  1.00  0.00    -0.330 C  
ENDBRANCH  14  16
ENDBRANCH  12  14
ENDBRANCH   7   8
ENDBRANCH   5   7
ENDBRANCH   2   3
TORSDOF 5
ENDMDL
MODEL       27
REMARK 921   NORMALIZED FREE ENERGY PREDICTED BY IDOCK:   -4.85 KCAL/MOL
REMARK 922        TOTAL FREE ENERGY PREDICTED BY IDOCK:   -6.88 KCAL/MOL
REMARK 923 INTER-LIGAND FREE ENERGY PREDICTED BY IDOCK:   -6.51 KCAL/MOL
REMARK 924 INTRA-LIGAND FREE ENERGY PREDICTED BY IDOCK:   -0.37 KCAL/MOL
REMARK 927      BINDING AFFINITY PREDICTED BY RF-SCORE:    0.00 PKD
ROOT
HETATM    1  C   UNL     1     -12.766  13.797  65.662  1.00  0.00    -0.523 C  
HETATM    2  C   UNL     1     -11.797  12.803  66.292  1.00  0.00    -0.423 C  
ENDROOT
BRANCH   2   3
HETATM    3  N   UNL     1     -11.885  12.770  67.747  1.00  0.00    -0.351 N  
HETATM    4  C   UNL     1     -11.854  14.026  68.477  1.00  0.00    -0.364 C  
HETATM    5  C   UNL     1     -11.719  11.554  68.413  1.00  0.00    -0.303 C  
HETATM    6  O   UNL     1     -11.595  10.483  67.828  1.00  0.00    -0.462 OA 
BRANCH   5   7
HETATM    7  O   UNL     1     -11.677  11.716  69.795  1.00  0.00    -0.306 OA 
BRANCH   7   8
HETATM    8  C   UNL     1     -11.944  10.595  70.595  1.00  0.00    -0.367 A  
HETATM    9  C   UNL     1     -13.232  10.448  71.104  1.00  0.00    -0.399 A  
HETATM   10  C   UNL     1     -13.500   9.402  71.987  1.00  0.00    -0.522 A  
HETATM   11  C   UNL     1     -12.481   8.521  72.372  1.00  0.00    -0.416 A  
HETATM   12  C   UNL     1     -11.174   8.682  71.887  1.00  0.00    -0.413 A  
HETATM   13  C   UNL     1     -10.921   9.734  70.991  1.00  0.00    -0.402 A  
BRANCH  12  14
HETATM   14  C   UNL     1     -10.005   7.801  72.320  1.00  0.00    -0.203 C  
HETATM   15  C   UNL     1     -10.449   6.730  73.330  1.00  0.00    -0.321 C  
BRANCH  14  16
HETATM   16  N   UNL     1      -8.771   8.519  72.711  1.00  0.00    -0.375 NA 
HETATM   17  C   UNL     1      -8.344   8.216  74.078  1.00  0.00    -0.247 C  
HETATM   18  C   UNL     1      -7.650   8.422  71.787  1.00  0.00    -0.112 C  
ENDBRANCH  14  16
ENDBRANCH  12  14
ENDBRANCH   7   8
ENDBRANCH   5   7
ENDBRANCH   2   3
TORSDOF 5
ENDMDL
MODEL       28
REMARK 921   NORMALIZED FREE ENERGY PREDICTED BY IDOCK:   -4.81 KCAL/MOL
REMARK 922        TOTAL FREE ENERGY PREDICTED BY IDOCK:   -6.83 KCAL/MOL
REMARK 923 INTER-LIGAND FREE ENERGY PREDICTED BY IDOCK:   -6.51 KCAL/MOL
REMARK 924 INTRA-LIGAND FREE ENERGY PREDICTED BY IDOCK:   -0.31 KCAL/MOL
REMARK 927      BINDING AFFINITY PREDICTED BY RF-SCORE:    0.00 PKD
ROOT
HETATM    1  C   UNL     1     -14.361   7.576  71.813  1.00  0.00    -0.588 C  
HETATM    2  C   UNL     1     -13.784   8.928  72.216  1.00  0.00    -0.471 C  
ENDROOT
BRANCH   2   3
HETATM    3  N   UNL     1     -12.640   9.323  71.404  1.00  0.00    -0.325 N  
HETATM    4  C   UNL     1     -11.603   8.342  71.136  1.00  0.00    -0.279 C  
HETATM    5  C   UNL     1     -12.426  10.677  71.139  1.00  0.00    -0.418 C  
HETATM    6  O   UNL     1     -13.211  11.556  71.478  1.00  0.00    -0.372 OA 
BRANCH   5   7
HETATM    7  O   UNL     1     -11.216  10.897  70.486  1.00  0.00    -0.240 OA 
BRANCH   7   8
HETATM    8  C   UNL     1     -11.254  11.181  69.113  1.00  0.00    -0.264 A  
HETATM    9  C   UNL     1     -10.812  10.198  68.231  1.00  0.00    -0.297 A  
HETATM   10  C   UNL     1     -10.739  10.488  66.869  1.00  0.00    -0.281 A  
HETATM   11  C   UNL     1     -11.089  11.760  66.396  1.00  0.00    -0.360 A  
HETATM   12  C   UNL     1     -11.505  12.764  67.282  1.00  0.00    -0.393 A  
HETATM   13  C   UNL     1     -11.583  12.455  68.650  1.00  0.00    -0.365 A  
BRANCH  12  14
HETATM   14  C   UNL     1     -11.833  14.188  66.841  1.00  0.00    -0.431 C  
HETATM   15  C   UNL     1     -12.822  14.201  65.665  1.00  0.00    -0.402 C  
BRANCH  14  16
HETATM   16  N   UNL     1     -10.671  15.086  66.657  1.00  0.00    -0.306 NA 
HETATM   17  C   UNL     1     -10.648  15.727  65.341  1.00  0.00    -0.421 C  
HETATM   18  C   UNL     1     -10.439  16.064  67.710  1.00  0.00    -0.298 C  
ENDBRANCH  14  16
ENDBRANCH  12  14
ENDBRANCH   7   8
ENDBRANCH   5   7
ENDBRANCH   2   3
TORSDOF 5
ENDMDL
MODEL       29
REMARK 921   NORMALIZED FREE ENERGY PREDICTED BY IDOCK:   -4.80 KCAL/MOL
REMARK 922        TOTAL FREE ENERGY PREDICTED BY IDOCK:   -6.81 KCAL/MOL
REMARK 923 INTER-LIGAND FREE ENERGY PREDICTED BY IDOCK:   -6.40 KCAL/MOL
REMARK 924 INTRA-LIGAND FREE ENERGY PREDICTED BY IDOCK:   -0.40 KCAL/MOL
REMARK 927      BINDING AFFINITY PREDICTED BY RF-SCORE:    0.00 PKD
ROOT
HETATM    1  C   UNL     1     -13.246   9.848  71.919  1.00  0.00    -0.558 C  
HETATM    2  C   UNL     1     -12.981  11.309  71.575  1.00  0.00    -0.415 C  
ENDROOT
BRANCH   2   3
HETATM    3  N   UNL     1     -12.101  11.471  70.425  1.00  0.00    -0.372 N  
HETATM    4  C   UNL     1     -11.182  10.396  70.092  1.00  0.00    -0.321 C  
HETATM    5  C   UNL     1     -11.961  12.734  69.846  1.00  0.00    -0.298 C  
HETATM    6  O   UNL     1     -12.619  13.707  70.198  1.00  0.00    -0.262 OA 
BRANCH   5   7
HETATM    7  O   UNL     1     -10.975  12.752  68.863  1.00  0.00    -0.245 OA 
BRANCH   7   8
HETATM    8  C   UNL     1     -11.212  13.517  67.710  1.00  0.00    -0.282 A  
HETATM    9  C   UNL     1     -12.020  12.969  66.718  1.00  0.00    -0.434 A  
HETATM   10  C   UNL     1     -12.188  13.659  65.518  1.00  0.00    -0.476 A  
HETATM   11  C   UNL     1     -11.535  14.881  65.306  1.00  0.00    -0.336 A  
HETATM   12  C   UNL     1     -10.694  15.423  66.290  1.00  0.00    -0.312 A  
HETATM   13  C   UNL     1     -10.542  14.722  67.497  1.00  0.00    -0.259 A  
BRANCH  12  14
HETATM   14  C   UNL     1      -9.901  16.713  66.096  1.00  0.00    -0.318 C  
HETATM   15  C   UNL     1      -8.397  16.489  66.320  1.00  0.00    -0.364 C  
BRANCH  14  16
HETATM   16  N   UNL     1     -10.439  17.906  66.787  1.00  0.00    -0.337 NA 
HETATM   17  C   UNL     1      -9.809  18.145  68.087  1.00  0.00    -0.343 C  
HETATM   18  C   UNL     1     -10.490  19.134  66.006  1.00  0.00    -0.467 C  
ENDBRANCH  14  16
ENDBRANCH  12  14
ENDBRANCH   7   8
ENDBRANCH   5   7
ENDBRANCH   2   3
TORSDOF 5
ENDMDL
MODEL       30
REMARK 921   NORMALIZED FREE ENERGY PREDICTED BY IDOCK:   -4.79 KCAL/MOL
REMARK 922        TOTAL FREE ENERGY PREDICTED BY IDOCK:   -6.80 KCAL/MOL
REMARK 923 INTER-LIGAND FREE ENERGY PREDICTED BY IDOCK:   -6.31 KCAL/MOL
REMARK 924 INTRA-LIGAND FREE ENERGY PREDICTED BY IDOCK:   -0.49 KCAL/MOL
REMARK 927      BINDING AFFINITY PREDICTED BY RF-SCORE:    0.00 PKD
ROOT
HETATM    1  C   UNL     1     -10.820  15.412  64.897  1.00  0.00    -0.445 C  
HETATM    2  C   UNL     1     -12.130  14.635  64.856  1.00  0.00    -0.382 C  
ENDROOT
BRANCH   2   3
HETATM    3  N   UNL     1     -11.990  13.262  65.323  1.00  0.00    -0.364 N  
HETATM    4  C   UNL     1     -12.107  12.182  64.359  1.00  0.00    -0.357 C  
HETATM    5  C   UNL     1     -12.024  13.001  66.695  1.00  0.00    -0.387 C  
HETATM    6  O   UNL     1     -12.072  13.886  67.543  1.00  0.00    -0.389 OA 
BRANCH   5   7
HETATM    7  O   UNL     1     -12.033  11.635  66.967  1.00  0.00    -0.593 OA 
BRANCH   7   8
HETATM    8  C   UNL     1     -11.135  11.153  67.931  1.00  0.00    -0.273 A  
HETATM    9  C   UNL     1      -9.789  11.068  67.585  1.00  0.00    -0.192 A  
HETATM   10  C   UNL     1      -8.890  10.495  68.484  1.00  0.00    -0.144 A  
HETATM   11  C   UNL     1      -9.338   9.994  69.713  1.00  0.00    -0.233 A  
HETATM   12  C   UNL     1     -10.698  10.048  70.055  1.00  0.00    -0.348 A  
HETATM   13  C   UNL     1     -11.591  10.637  69.144  1.00  0.00    -0.342 A  
BRANCH  12  14
HETATM   14  C   UNL     1     -11.262   9.460  71.345  1.00  0.00    -0.381 C  
HETATM   15  C   UNL     1     -10.248   8.530  72.032  1.00  0.00    -0.391 C  
BRANCH  14  16
HETATM   16  N   UNL     1     -12.626   8.892  71.249  1.00  0.00    -0.295 NA 
HETATM   17  C   UNL     1     -12.639   7.429  71.300  1.00  0.00    -0.340 C  
HETATM   18  C   UNL     1     -13.621   9.449  72.154  1.00  0.00    -0.457 C  
ENDBRANCH  14  16
ENDBRANCH  12  14
ENDBRANCH   7   8
ENDBRANCH   5   7
ENDBRANCH   2   3
TORSDOF 5
ENDMDL
MODEL       31
REMARK 921   NORMALIZED FREE ENERGY PREDICTED BY IDOCK:   -4.71 KCAL/MOL
REMARK 922        TOTAL FREE ENERGY PREDICTED BY IDOCK:   -6.70 KCAL/MOL
REMARK 923 INTER-LIGAND FREE ENERGY PREDICTED BY IDOCK:   -6.27 KCAL/MOL
REMARK 924 INTRA-LIGAND FREE ENERGY PREDICTED BY IDOCK:   -0.43 KCAL/MOL
REMARK 927      BINDING AFFINITY PREDICTED BY RF-SCORE:    0.00 PKD
ROOT
HETATM    1  C   UNL     1     -10.314  19.697  66.433  1.00  0.00    -0.609 C  
HETATM    2  C   UNL     1      -9.518  18.420  66.192  1.00  0.00    -0.156 C  
ENDROOT
BRANCH   2   3
HETATM    3  N   UNL     1     -10.264  17.214  66.527  1.00  0.00    -0.316 N  
HETATM    4  C   UNL     1     -10.042  16.592  67.821  1.00  0.00    -0.264 C  
HETATM    5  C   UNL     1     -10.954  16.537  65.519  1.00  0.00    -0.092 C  
HETATM    6  O   UNL     1     -11.045  16.959  64.371  1.00  0.00    -1.128 OA 
BRANCH   5   7
HETATM    7  O   UNL     1     -11.484  15.330  65.968  1.00  0.00    -0.239 OA 
BRANCH   7   8
HETATM    8  C   UNL     1     -11.302  14.195  65.164  1.00  0.00    -0.336 A  
HETATM    9  C   UNL     1     -12.216  13.968  64.138  1.00  0.00    -0.433 A  
HETATM   10  C   UNL     1     -12.123  12.795  63.390  1.00  0.00    -0.619 A  
HETATM   11  C   UNL     1     -11.133  11.846  63.680  1.00  0.00    -0.517 A  
HETATM   12  C   UNL     1     -10.229  12.054  64.733  1.00  0.00    -0.311 A  
HETATM   13  C   UNL     1     -10.328  13.245  65.471  1.00  0.00    -0.298 A  
BRANCH  12  14
HETATM   14  C   UNL     1      -9.173  11.032  65.145  1.00  0.00    -0.205 C  
HETATM   15  C   UNL     1      -8.921  10.001  64.033  1.00  0.00    -0.270 C  
BRANCH  14  16
HETATM   16  N   UNL     1      -9.349  10.434  66.488  1.00  0.00    -0.160 NA 
HETATM   17  C   UNL     1     -10.315   9.334  66.500  1.00  0.00    -0.200 C  
HETATM   18  C   UNL     1      -8.130  10.058  67.189  1.00  0.00    -0.117 C  
ENDBRANCH  14  16
ENDBRANCH  12  14
ENDBRANCH   7   8
ENDBRANCH   5   7
ENDBRANCH   2   3
TORSDOF 5
ENDMDL
MODEL       32
REMARK 921   NORMALIZED FREE ENERGY PREDICTED BY IDOCK:   -4.71 KCAL/MOL
REMARK 922        TOTAL FREE ENERGY PREDICTED BY IDOCK:   -6.69 KCAL/MOL
REMARK 923 INTER-LIGAND FREE ENERGY PREDICTED BY IDOCK:   -6.22 KCAL/MOL
REMARK 924 INTRA-LIGAND FREE ENERGY PREDICTED BY IDOCK:   -0.47 KCAL/MOL
REMARK 927      BINDING AFFINITY PREDICTED BY RF-SCORE:    0.00 PKD
ROOT
HETATM    1  C   UNL     1     -10.455  19.846  65.798  1.00  0.00    -0.518 C  
HETATM    2  C   UNL     1      -9.152  19.905  66.586  1.00  0.00    -0.376 C  
ENDROOT
BRANCH   2   3
HETATM    3  N   UNL     1      -8.802  18.631  67.201  1.00  0.00    -0.270 N  
HETATM    4  C   UNL     1      -8.040  17.668  66.426  1.00  0.00    -0.267 C  
HETATM    5  C   UNL     1      -9.425  18.254  68.392  1.00  0.00    -0.323 C  
HETATM    6  O   UNL     1     -10.193  18.987  69.006  1.00  0.00    -0.353 OA 
BRANCH   5   7
HETATM    7  O   UNL     1      -9.098  16.952  68.765  1.00  0.00    -0.256 OA 
BRANCH   7   8
HETATM    8  C   UNL     1     -10.133  16.006  68.814  1.00  0.00    -0.225 A  
HETATM    9  C   UNL     1     -10.699  15.722  70.055  1.00  0.00    -0.347 A  
HETATM   10  C   UNL     1     -11.655  14.711  70.152  1.00  0.00    -0.336 A  
HETATM   11  C   UNL     1     -12.027  13.976  69.018  1.00  0.00    -0.392 A  
HETATM   12  C   UNL     1     -11.436  14.235  67.772  1.00  0.00    -0.354 A  
HETATM   13  C   UNL     1     -10.483  15.263  67.687  1.00  0.00    -0.263 A  
BRANCH  12  14
HETATM   14  C   UNL     1     -11.745  13.427  66.514  1.00  0.00    -0.373 C  
HETATM   15  C   UNL     1     -11.402  11.940  66.700  1.00  0.00    -0.400 C  
BRANCH  14  16
HETATM   16  N   UNL     1     -11.248  14.002  65.244  1.00  0.00    -0.309 NA 
HETATM   17  C   UNL     1     -10.500  13.038  64.436  1.00  0.00    -0.404 C  
HETATM   18  C   UNL     1     -12.227  14.708  64.430  1.00  0.00    -0.452 C  
ENDBRANCH  14  16
ENDBRANCH  12  14
ENDBRANCH   7   8
ENDBRANCH   5   7
ENDBRANCH   2   3
TORSDOF 5
ENDMDL
MODEL       33
REMARK 921   NORMALIZED FREE ENERGY PREDICTED BY IDOCK:   -4.67 KCAL/MOL
REMARK 922        TOTAL FREE ENERGY PREDICTED BY IDOCK:   -6.64 KCAL/MOL
REMARK 923 INTER-LIGAND FREE ENERGY PREDICTED BY IDOCK:   -6.71 KCAL/MOL
REMARK 924 INTRA-LIGAND FREE ENERGY PREDICTED BY IDOCK:    0.06 KCAL/MOL
REMARK 927      BINDING AFFINITY PREDICTED BY RF-SCORE:    0.00 PKD
ROOT
HETATM    1  C   UNL     1      -7.245  20.138  66.621  1.00  0.00    -0.296 C  
HETATM    2  C   UNL     1      -7.989  18.845  66.311  1.00  0.00    -0.273 C  
ENDROOT
BRANCH   2   3
HETATM    3  N   UNL     1      -9.128  18.620  67.192  1.00  0.00    -0.283 N  
HETATM    4  C   UNL     1      -9.062  19.109  68.558  1.00  0.00    -0.371 C  
HETATM    5  C   UNL     1     -10.123  17.720  66.804  1.00  0.00    -0.349 C  
HETATM    6  O   UNL     1     -10.138  17.172  65.707  1.00  0.00    -0.529 OA 
BRANCH   5   7
HETATM    7  O   UNL     1     -11.056  17.504  67.816  1.00  0.00    -0.235 OA 
BRANCH   7   8
HETATM    8  C   UNL     1     -11.266  16.183  68.241  1.00  0.00    -0.343 A  
HETATM    9  C   UNL     1     -11.320  15.186  67.271  1.00  0.00    -0.305 A  
HETATM   10  C   UNL     1     -11.633  13.881  67.652  1.00  0.00    -0.381 A  
HETATM   11  C   UNL     1     -11.908  13.582  68.993  1.00  0.00    -0.385 A  
HETATM   12  C   UNL     1     -11.887  14.588  69.970  1.00  0.00    -0.372 A  
HETATM   13  C   UNL     1     -11.560  15.896  69.574  1.00  0.00    -0.337 A  
BRANCH  12  14
HETATM   14  C   UNL     1     -12.244  14.343  71.434  1.00  0.00    -0.352 C  
HETATM   15  C   UNL     1     -12.956  12.994  71.623  1.00  0.00    -0.417 C  
BRANCH  14  16
HETATM   16  N   UNL     1     -12.903  15.470  72.131  1.00  0.00    -0.377 NA 
HETATM   17  C   UNL     1     -14.363  15.421  72.041  1.00  0.00    -0.550 C  
HETATM   18  C   UNL     1     -12.479  15.716  73.502  1.00  0.00    -0.551 C  
ENDBRANCH  14  16
ENDBRANCH  12  14
ENDBRANCH   7   8
ENDBRANCH   5   7
ENDBRANCH   2   3
TORSDOF 5
ENDMDL
MODEL       34
REMARK 921   NORMALIZED FREE ENERGY PREDICTED BY IDOCK:   -4.64 KCAL/MOL
REMARK 922        TOTAL FREE ENERGY PREDICTED BY IDOCK:   -6.60 KCAL/MOL
REMARK 923 INTER-LIGAND FREE ENERGY PREDICTED BY IDOCK:   -6.14 KCAL/MOL
REMARK 924 INTRA-LIGAND FREE ENERGY PREDICTED BY IDOCK:   -0.46 KCAL/MOL
REMARK 927      BINDING AFFINITY PREDICTED BY RF-SCORE:    0.00 PKD
ROOT
HETATM    1  C   UNL     1      -7.730  20.560  67.319  1.00  0.00    -0.375 C  
HETATM    2  C   UNL     1      -7.790  19.038  67.292  1.00  0.00    -0.245 C  
ENDROOT
BRANCH   2   3
HETATM    3  N   UNL     1      -9.117  18.516  67.594  1.00  0.00    -0.279 N  
HETATM    4  C   UNL     1     -10.274  19.346  67.309  1.00  0.00    -0.415 C  
HETATM    5  C   UNL     1      -9.236  17.374  68.388  1.00  0.00    -0.277 C  
HETATM    6  O   UNL     1      -8.270  16.724  68.773  1.00  0.00    -0.238 OA 
BRANCH   5   7
HETATM    7  O   UNL     1     -10.562  17.096  68.709  1.00  0.00    -0.343 OA 
BRANCH   7   8
HETATM    8  C   UNL     1     -11.088  15.858  68.310  1.00  0.00    -0.345 A  
HETATM    9  C   UNL     1     -11.539  14.990  69.301  1.00  0.00    -0.338 A  
HETATM   10  C   UNL     1     -11.968  13.712  68.943  1.00  0.00    -0.392 A  
HETATM   11  C   UNL     1     -11.929  13.301  67.604  1.00  0.00    -0.366 A  
HETATM   12  C   UNL     1     -11.446  14.160  66.605  1.00  0.00    -0.378 A  
HETATM   13  C   UNL     1     -11.026  15.447  66.978  1.00  0.00    -0.306 A  
BRANCH  12  14
HETATM   14  C   UNL     1     -11.312  13.750  65.141  1.00  0.00    -0.311 C  
HETATM   15  C   UNL     1     -12.239  14.577  64.236  1.00  0.00    -0.441 C  
BRANCH  14  16
HETATM   16  N   UNL     1     -11.358  12.294  64.875  1.00  0.00    -0.317 NA 
HETATM   17  C   UNL     1     -11.924  11.971  63.565  1.00  0.00    -0.507 C  
HETATM   18  C   UNL     1     -10.120  11.560  65.098  1.00  0.00    -0.268 C  
ENDBRANCH  14  16
ENDBRANCH  12  14
ENDBRANCH   7   8
ENDBRANCH   5   7
ENDBRANCH   2   3
TORSDOF 5
ENDMDL
MODEL       35
REMARK 921   NORMALIZED FREE ENERGY PREDICTED BY IDOCK:   -4.63 KCAL/MOL
REMARK 922        TOTAL FREE ENERGY PREDICTED BY IDOCK:   -6.59 KCAL/MOL
REMARK 923 INTER-LIGAND FREE ENERGY PREDICTED BY IDOCK:   -6.10 KCAL/MOL
REMARK 924 INTRA-LIGAND FREE ENERGY PREDICTED BY IDOCK:   -0.49 KCAL/MOL
REMARK 927      BINDING AFFINITY PREDICTED BY RF-SCORE:    0.00 PKD
ROOT
HETATM    1  C   UNL     1     -12.723  15.297  73.714  1.00  0.00    -0.697 C  
HETATM    2  C   UNL     1     -13.050  14.113  72.812  1.00  0.00    -0.478 C  
ENDROOT
BRANCH   2   3
HETATM    3  N   UNL     1     -12.748  14.368  71.409  1.00  0.00    -0.322 N  
HETATM    4  C   UNL     1     -12.962  15.704  70.881  1.00  0.00    -0.414 C  
HETATM    5  C   UNL     1     -12.530  13.288  70.551  1.00  0.00    -0.260 C  
HETATM    6  O   UNL     1     -12.486  12.125  70.938  1.00  0.00    -0.368 OA 
BRANCH   5   7
HETATM    7  O   UNL     1     -12.408  13.691  69.223  1.00  0.00    -0.288 OA 
BRANCH   7   8
HETATM    8  C   UNL     1     -11.298  13.231  68.498  1.00  0.00    -0.284 A  
HETATM    9  C   UNL     1     -10.045  13.741  68.829  1.00  0.00    -0.141 A  
HETATM   10  C   UNL     1      -8.940  13.384  68.058  1.00  0.00    -0.190 A  
HETATM   11  C   UNL     1      -9.091  12.537  66.952  1.00  0.00    -0.213 A  
HETATM   12  C   UNL     1     -10.356  12.046  66.595  1.00  0.00    -0.237 A  
HETATM   13  C   UNL     1     -11.459  12.405  67.386  1.00  0.00    -0.418 A  
BRANCH  12  14
HETATM   14  C   UNL     1     -10.599  11.177  65.363  1.00  0.00    -0.227 C  
HETATM   15  C   UNL     1      -9.839   9.844  65.453  1.00  0.00    -0.384 C  
BRANCH  14  16
HETATM   16  N   UNL     1     -10.458  11.860  64.058  1.00  0.00    -0.335 NA 
HETATM   17  C   UNL     1      -9.841  11.015  63.035  1.00  0.00    -0.337 C  
HETATM   18  C   UNL     1     -11.653  12.509  63.538  1.00  0.00    -0.508 C  
ENDBRANCH  14  16
ENDBRANCH  12  14
ENDBRANCH   7   8
ENDBRANCH   5   7
ENDBRANCH   2   3
TORSDOF 5
ENDMDL
MODEL       36
REMARK 921   NORMALIZED FREE ENERGY PREDICTED BY IDOCK:   -4.58 KCAL/MOL
REMARK 922        TOTAL FREE ENERGY PREDICTED BY IDOCK:   -6.52 KCAL/MOL
REMARK 923 INTER-LIGAND FREE ENERGY PREDICTED BY IDOCK:   -6.23 KCAL/MOL
REMARK 924 INTRA-LIGAND FREE ENERGY PREDICTED BY IDOCK:   -0.29 KCAL/MOL
REMARK 927      BINDING AFFINITY PREDICTED BY RF-SCORE:    0.00 PKD
ROOT
HETATM    1  C   UNL     1     -10.444   6.754  73.761  1.00  0.00    -0.383 C  
HETATM    2  C   UNL     1     -10.861   6.643  72.300  1.00  0.00    -0.229 C  
ENDROOT
BRANCH   2   3
HETATM    3  N   UNL     1     -11.900   7.597  71.932  1.00  0.00    -0.283 N  
HETATM    4  C   UNL     1     -13.248   7.107  71.702  1.00  0.00    -0.346 C  
HETATM    5  C   UNL     1     -11.535   8.887  71.543  1.00  0.00    -0.321 C  
HETATM    6  O   UNL     1     -10.379   9.296  71.585  1.00  0.00    -0.340 OA 
BRANCH   5   7
HETATM    7  O   UNL     1     -12.623   9.622  71.079  1.00  0.00    -0.312 OA 
BRANCH   7   8
HETATM    8  C   UNL     1     -12.422  10.980  70.790  1.00  0.00    -0.396 A  
HETATM    9  C   UNL     1     -12.936  11.920  71.680  1.00  0.00    -0.447 A  
HETATM   10  C   UNL     1     -12.845  13.275  71.366  1.00  0.00    -0.411 A  
HETATM   11  C   UNL     1     -12.259  13.686  70.161  1.00  0.00    -0.413 A  
HETATM   12  C   UNL     1     -11.768  12.743  69.246  1.00  0.00    -0.376 A  
HETATM   13  C   UNL     1     -11.857  11.381  69.579  1.00  0.00    -0.426 A  
BRANCH  12  14
HETATM   14  C   UNL     1     -11.182  13.120  67.888  1.00  0.00    -0.270 C  
HETATM   15  C   UNL     1      -9.678  13.423  67.986  1.00  0.00    -0.222 C  
BRANCH  14  16
HETATM   16  N   UNL     1     -11.947  14.126  67.116  1.00  0.00    -0.421 NA 
HETATM   17  C   UNL     1     -11.189  15.354  66.872  1.00  0.00    -0.214 C  
HETATM   18  C   UNL     1     -12.575  13.655  65.890  1.00  0.00    -0.425 C  
ENDBRANCH  14  16
ENDBRANCH  12  14
ENDBRANCH   7   8
ENDBRANCH   5   7
ENDBRANCH   2   3
TORSDOF 5
ENDMDL
MODEL       37
REMARK 921   NORMALIZED FREE ENERGY PREDICTED BY IDOCK:   -4.55 KCAL/MOL
REMARK 922        TOTAL FREE ENERGY PREDICTED BY IDOCK:   -6.49 KCAL/MOL
REMARK 923 INTER-LIGAND FREE ENERGY PREDICTED BY IDOCK:   -6.26 KCAL/MOL
REMARK 924 INTRA-LIGAND FREE ENERGY PREDICTED BY IDOCK:   -0.23 KCAL/MOL
REMARK 927      BINDING AFFINITY PREDICTED BY RF-SCORE:    0.00 PKD
ROOT
HETATM    1  C   UNL     1      -7.365  19.771  67.710  1.00  0.00    -0.314 C  
HETATM    2  C   UNL     1      -8.303  18.674  68.199  1.00  0.00    -0.307 C  
ENDROOT
BRANCH   2   3
HETATM    3  N   UNL     1      -9.335  18.335  67.228  1.00  0.00    -0.254 N  
HETATM    4  C   UNL     1     -10.661  18.906  67.389  1.00  0.00    -0.460 C  
HETATM    5  C   UNL     1      -9.118  17.277  66.343  1.00  0.00    -0.253 C  
HETATM    6  O   UNL     1      -8.055  16.669  66.275  1.00  0.00    -0.303 OA 
BRANCH   5   7
HETATM    7  O   UNL     1     -10.252  16.984  65.589  1.00  0.00    -0.556 OA 
BRANCH   7   8
HETATM    8  C   UNL     1     -10.830  15.714  65.742  1.00  0.00    -0.306 A  
HETATM    9  C   UNL     1     -11.368  15.102  64.613  1.00  0.00    -0.362 A  
HETATM   10  C   UNL     1     -12.043  13.889  64.753  1.00  0.00    -0.443 A  
HETATM   11  C   UNL     1     -12.193  13.303  66.016  1.00  0.00    -0.483 A  
HETATM   12  C   UNL     1     -11.681  13.931  67.162  1.00  0.00    -0.419 A  
HETATM   13  C   UNL     1     -10.995  15.147  67.006  1.00  0.00    -0.322 A  
BRANCH  12  14
HETATM   14  C   UNL     1     -11.870  13.382  68.574  1.00  0.00    -0.366 C  
HETATM   15  C   UNL     1     -11.878  14.508  69.620  1.00  0.00    -0.367 C  
BRANCH  14  16
HETATM   16  N   UNL     1     -11.009  12.233  68.936  1.00  0.00    -0.227 NA 
HETATM   17  C   UNL     1     -11.774  11.027  69.257  1.00  0.00    -0.326 C  
HETATM   18  C   UNL     1      -9.925  11.927  68.014  1.00  0.00    -0.190 C  
ENDBRANCH  14  16
ENDBRANCH  12  14
ENDBRANCH   7   8
ENDBRANCH   5   7
ENDBRANCH   2   3
TORSDOF 5
ENDMDL
MODEL       38
REMARK 921   NORMALIZED FREE ENERGY PREDICTED BY IDOCK:   -4.53 KCAL/MOL
REMARK 922        TOTAL FREE ENERGY PREDICTED BY IDOCK:   -6.47 KCAL/MOL
REMARK 923 INTER-LIGAND FREE ENERGY PREDICTED BY IDOCK:   -6.28 KCAL/MOL
REMARK 924 INTRA-LIGAND FREE ENERGY PREDICTED BY IDOCK:   -0.18 KCAL/MOL
REMARK 927      BINDING AFFINITY PREDICTED BY RF-SCORE:    0.00 PKD
ROOT
HETATM    1  C   UNL     1     -12.397  15.451  74.321  1.00  0.00    -0.807 C  
HETATM    2  C   UNL     1     -12.352  16.306  73.061  1.00  0.00    -0.485 C  
ENDROOT
BRANCH   2   3
HETATM    3  N   UNL     1     -12.928  15.637  71.901  1.00  0.00    -0.445 N  
HETATM    4  C   UNL     1     -14.293  15.149  71.983  1.00  0.00    -0.586 C  
HETATM    5  C   UNL     1     -12.090  15.240  70.856  1.00  0.00    -0.344 C  
HETATM    6  O   UNL     1     -10.894  15.510  70.819  1.00  0.00    -0.329 OA 
BRANCH   5   7
HETATM    7  O   UNL     1     -12.767  14.484  69.902  1.00  0.00    -0.255 OA 
BRANCH   7   8
HETATM    8  C   UNL     1     -12.240  13.227  69.568  1.00  0.00    -0.178 A  
HETATM    9  C   UNL     1     -12.282  12.224  70.534  1.00  0.00    -0.387 A  
HETATM   10  C   UNL     1     -11.672  10.999  70.269  1.00  0.00    -0.445 A  
HETATM   11  C   UNL     1     -11.009  10.785  69.053  1.00  0.00    -0.289 A  
HETATM   12  C   UNL     1     -10.935  11.802  68.090  1.00  0.00    -0.275 A  
HETATM   13  C   UNL     1     -11.563  13.028  68.365  1.00  0.00    -0.370 A  
BRANCH  12  14
HETATM   14  C   UNL     1     -10.170  11.658  66.776  1.00  0.00    -0.217 C  
HETATM   15  C   UNL     1     -10.153  10.201  66.290  1.00  0.00    -0.303 C  
BRANCH  14  16
HETATM   16  N   UNL     1      -8.848  12.322  66.729  1.00  0.00    -0.206 NA 
HETATM   17  C   UNL     1      -8.936  13.778  66.841  1.00  0.00    -0.221 C  
HETATM   18  C   UNL     1      -7.831  11.796  67.629  1.00  0.00    -0.138 C  
ENDBRANCH  14  16
ENDBRANCH  12  14
ENDBRANCH   7   8
ENDBRANCH   5   7
ENDBRANCH   2   3
TORSDOF 5
ENDMDL
MODEL       39
REMARK 921   NORMALIZED FREE ENERGY PREDICTED BY IDOCK:   -4.53 KCAL/MOL
REMARK 922        TOTAL FREE ENERGY PREDICTED BY IDOCK:   -6.46 KCAL/MOL
REMARK 923 INTER-LIGAND FREE ENERGY PREDICTED BY IDOCK:   -5.98 KCAL/MOL
REMARK 924 INTRA-LIGAND FREE ENERGY PREDICTED BY IDOCK:   -0.47 KCAL/MOL
REMARK 927      BINDING AFFINITY PREDICTED BY RF-SCORE:    0.00 PKD
ROOT
HETATM    1  C   UNL     1     -13.270   7.280  71.793  1.00  0.00    -0.368 C  
HETATM    2  C   UNL     1     -12.654   8.573  72.313  1.00  0.00    -0.381 C  
ENDROOT
BRANCH   2   3
HETATM    3  N   UNL     1     -11.585   9.076  71.459  1.00  0.00    -0.316 N  
HETATM    4  C   UNL     1     -10.219   8.668  71.736  1.00  0.00    -0.308 C  
HETATM    5  C   UNL     1     -11.850  10.134  70.586  1.00  0.00    -0.342 C  
HETATM    6  O   UNL     1     -12.971  10.606  70.429  1.00  0.00    -0.304 OA 
BRANCH   5   7
HETATM    7  O   UNL     1     -10.696  10.595  69.958  1.00  0.00    -0.251 OA 
BRANCH   7   8
HETATM    8  C   UNL     1     -10.570  10.379  68.577  1.00  0.00    -0.209 A  
HETATM    9  C   UNL     1     -10.056   9.157  68.152  1.00  0.00    -0.225 A  
HETATM   10  C   UNL     1      -9.820   8.954  66.793  1.00  0.00    -0.308 A  
HETATM   11  C   UNL     1     -10.080   9.974  65.868  1.00  0.00    -0.319 A  
HETATM   12  C   UNL     1     -10.568  11.218  66.294  1.00  0.00    -0.315 A  
HETATM   13  C   UNL     1     -10.811  11.406  67.664  1.00  0.00    -0.286 A  
BRANCH  12  14
HETATM   14  C   UNL     1     -10.807  12.393  65.348  1.00  0.00    -0.285 C  
HETATM   15  C   UNL     1     -10.180  13.688  65.888  1.00  0.00    -0.318 C  
BRANCH  14  16
HETATM   16  N   UNL     1     -12.197  12.555  64.866  1.00  0.00    -0.465 NA 
HETATM   17  C   UNL     1     -12.770  13.859  65.206  1.00  0.00    -0.449 C  
HETATM   18  C   UNL     1     -12.434  12.238  63.465  1.00  0.00    -0.534 C  
ENDBRANCH  14  16
ENDBRANCH  12  14
ENDBRANCH   7   8
ENDBRANCH   5   7
ENDBRANCH   2   3
TORSDOF 5
ENDMDL
MODEL       40
REMARK 921   NORMALIZED FREE ENERGY PREDICTED BY IDOCK:   -4.53 KCAL/MOL
REMARK 922        TOTAL FREE ENERGY PREDICTED BY IDOCK:   -6.46 KCAL/MOL
REMARK 923 INTER-LIGAND FREE ENERGY PREDICTED BY IDOCK:   -6.13 KCAL/MOL
REMARK 924 INTRA-LIGAND FREE ENERGY PREDICTED BY IDOCK:   -0.32 KCAL/MOL
REMARK 927      BINDING AFFINITY PREDICTED BY RF-SCORE:    0.00 PKD
ROOT
HETATM    1  C   UNL     1      -7.446  17.576  67.408  1.00  0.00    -0.212 C  
HETATM    2  C   UNL     1      -8.397  18.040  68.505  1.00  0.00    -0.304 C  
ENDROOT
BRANCH   2   3
HETATM    3  N   UNL     1      -9.741  17.494  68.358  1.00  0.00    -0.301 N  
HETATM    4  C   UNL     1     -10.776  18.333  67.780  1.00  0.00    -0.333 C  
HETATM    5  C   UNL     1     -10.069  16.306  69.013  1.00  0.00    -0.259 C  
HETATM    6  O   UNL     1      -9.252  15.638  69.638  1.00  0.00    -0.277 OA 
BRANCH   5   7
HETATM    7  O   UNL     1     -11.424  16.003  68.899  1.00  0.00    -0.348 OA 
BRANCH   7   8
HETATM    8  C   UNL     1     -11.991  15.162  69.869  1.00  0.00    -0.337 A  
HETATM    9  C   UNL     1     -12.411  15.736  71.066  1.00  0.00    -0.465 A  
HETATM   10  C   UNL     1     -12.880  14.912  72.088  1.00  0.00    -0.402 A  
HETATM   11  C   UNL     1     -12.913  13.521  71.919  1.00  0.00    -0.431 A  
HETATM   12  C   UNL     1     -12.462  12.935  70.727  1.00  0.00    -0.370 A  
HETATM   13  C   UNL     1     -12.001  13.777  69.702  1.00  0.00    -0.399 A  
BRANCH  12  14
HETATM   14  C   UNL     1     -12.406  11.425  70.505  1.00  0.00    -0.349 C  
HETATM   15  C   UNL     1     -13.104  10.661  71.642  1.00  0.00    -0.555 C  
BRANCH  14  16
HETATM   16  N   UNL     1     -11.078  10.880  70.144  1.00  0.00    -0.227 NA 
HETATM   17  C   UNL     1     -10.701   9.716  70.949  1.00  0.00    -0.332 C  
HETATM   18  C   UNL     1     -10.850  10.624  68.729  1.00  0.00    -0.229 C  
ENDBRANCH  14  16
ENDBRANCH  12  14
ENDBRANCH   7   8
ENDBRANCH   5   7
ENDBRANCH   2   3
TORSDOF 5
ENDMDL
MODEL       41
REMARK 921   NORMALIZED FREE ENERGY PREDICTED BY IDOCK:   -4.50 KCAL/MOL
REMARK 922        TOTAL FREE ENERGY PREDICTED BY IDOCK:   -6.42 KCAL/MOL
REMARK 923 INTER-LIGAND FREE ENERGY PREDICTED BY IDOCK:   -6.14 KCAL/MOL
REMARK 924 INTRA-LIGAND FREE ENERGY PREDICTED BY IDOCK:   -0.28 KCAL/MOL
REMARK 927      BINDING AFFINITY PREDICTED BY RF-SCORE:    0.00 PKD
ROOT
HETATM    1  C   UNL     1     -12.451  15.502  74.222  1.00  0.00    -0.792 C  
HETATM    2  C   UNL     1     -12.601  15.911  72.761  1.00  0.00    -0.470 C  
ENDROOT
BRANCH   2   3
HETATM    3  N   UNL     1     -12.824  14.776  71.874  1.00  0.00    -0.310 N  
HETATM    4  C   UNL     1     -13.855  13.813  72.218  1.00  0.00    -0.580 C  
HETATM    5  C   UNL     1     -11.883  14.490  70.884  1.00  0.00    -0.302 C  
HETATM    6  O   UNL     1     -10.913  15.206  70.656  1.00  0.00    -0.279 OA 
BRANCH   5   7
HETATM    7  O   UNL     1     -12.161  13.294  70.227  1.00  0.00    -0.340 OA 
BRANCH   7   8
HETATM    8  C   UNL     1     -11.836  13.203  68.865  1.00  0.00    -0.320 A  
HETATM    9  C   UNL     1     -12.281  14.216  68.018  1.00  0.00    -0.181 A  
HETATM   10  C   UNL     1     -12.065  14.099  66.646  1.00  0.00    -0.480 A  
HETATM   11  C   UNL     1     -11.424  12.968  66.122  1.00  0.00    -0.381 A  
HETATM   12  C   UNL     1     -11.002  11.930  66.967  1.00  0.00    -0.326 A  
HETATM   13  C   UNL     1     -11.217  12.065  68.348  1.00  0.00    -0.313 A  
BRANCH  12  14
HETATM   14  C   UNL     1     -10.362  10.642  66.455  1.00  0.00    -0.241 C  
HETATM   15  C   UNL     1     -10.393   9.534  67.521  1.00  0.00    -0.306 C  
BRANCH  14  16
HETATM   16  N   UNL     1      -9.047  10.799  65.793  1.00  0.00    -0.181 NA 
HETATM   17  C   UNL     1      -7.941  10.260  66.586  1.00  0.00    -0.116 C  
HETATM   18  C   UNL     1      -8.963  10.341  64.413  1.00  0.00    -0.227 C  
ENDBRANCH  14  16
ENDBRANCH  12  14
ENDBRANCH   7   8
ENDBRANCH   5   7
ENDBRANCH   2   3
TORSDOF 5
ENDMDL
MODEL       42
REMARK 921   NORMALIZED FREE ENERGY PREDICTED BY IDOCK:   -4.48 KCAL/MOL
REMARK 922        TOTAL FREE ENERGY PREDICTED BY IDOCK:   -6.40 KCAL/MOL
REMARK 923 INTER-LIGAND FREE ENERGY PREDICTED BY IDOCK:   -6.11 KCAL/MOL
REMARK 924 INTRA-LIGAND FREE ENERGY PREDICTED BY IDOCK:   -0.29 KCAL/MOL
REMARK 927      BINDING AFFINITY PREDICTED BY RF-SCORE:    0.00 PKD
ROOT
HETATM    1  C   UNL     1     -12.664  15.691  73.924  1.00  0.00    -0.737 C  
HETATM    2  C   UNL     1     -12.936  15.812  72.430  1.00  0.00    -0.465 C  
ENDROOT
BRANCH   2   3
HETATM    3  N   UNL     1     -12.976  14.521  71.754  1.00  0.00    -0.324 N  
HETATM    4  C   UNL     1     -13.903  13.510  72.232  1.00  0.00    -0.581 C  
HETATM    5  C   UNL     1     -11.956  14.187  70.861  1.00  0.00    -0.297 C  
HETATM    6  O   UNL     1     -11.066  14.968  70.539  1.00  0.00    -0.257 OA 
BRANCH   5   7
HETATM    7  O   UNL     1     -12.056  12.870  70.420  1.00  0.00    -0.361 OA 
BRANCH   7   8
HETATM    8  C   UNL     1     -11.656  12.586  69.105  1.00  0.00    -0.320 A  
HETATM    9  C   UNL     1     -12.150  13.394  68.084  1.00  0.00    -0.267 A  
HETATM   10  C   UNL     1     -11.856  13.073  66.760  1.00  0.00    -0.451 A  
HETATM   11  C   UNL     1     -11.088  11.940  66.459  1.00  0.00    -0.357 A  
HETATM   12  C   UNL     1     -10.615  11.104  67.481  1.00  0.00    -0.258 A  
HETATM   13  C   UNL     1     -10.910  11.445  68.812  1.00  0.00    -0.251 A  
BRANCH  12  14
HETATM   14  C   UNL     1      -9.834   9.819  67.219  1.00  0.00    -0.181 C  
HETATM   15  C   UNL     1      -9.755   9.503  65.717  1.00  0.00    -0.357 C  
BRANCH  14  16
HETATM   16  N   UNL     1     -10.210   8.657  68.056  1.00  0.00    -0.201 NA 
HETATM   17  C   UNL     1     -10.779   7.555  67.280  1.00  0.00    -0.295 C  
HETATM   18  C   UNL     1      -9.192   8.170  68.975  1.00  0.00    -0.148 C  
ENDBRANCH  14  16
ENDBRANCH  12  14
ENDBRANCH   7   8
ENDBRANCH   5   7
ENDBRANCH   2   3
TORSDOF 5
ENDMDL
MODEL       43
REMARK 921   NORMALIZED FREE ENERGY PREDICTED BY IDOCK:   -4.46 KCAL/MOL
REMARK 922        TOTAL FREE ENERGY PREDICTED BY IDOCK:   -6.36 KCAL/MOL
REMARK 923 INTER-LIGAND FREE ENERGY PREDICTED BY IDOCK:   -6.10 KCAL/MOL
REMARK 924 INTRA-LIGAND FREE ENERGY PREDICTED BY IDOCK:   -0.27 KCAL/MOL
REMARK 927      BINDING AFFINITY PREDICTED BY RF-SCORE:    0.00 PKD
ROOT
HETATM    1  C   UNL     1     -10.808   6.008  66.920  1.00  0.00    -0.396 C  
HETATM    2  C   UNL     1     -10.165   5.628  68.249  1.00  0.00    -0.186 C  
ENDROOT
BRANCH   2   3
HETATM    3  N   UNL     1      -9.926   6.777  69.113  1.00  0.00    -0.157 N  
HETATM    4  C   UNL     1      -8.618   7.407  69.090  1.00  0.00    -0.136 C  
HETATM    5  C   UNL     1     -10.841   7.071  70.125  1.00  0.00    -0.256 C  
HETATM    6  O   UNL     1     -11.897   6.464  70.269  1.00  0.00    -0.396 OA 
BRANCH   5   7
HETATM    7  O   UNL     1     -10.393   8.097  70.954  1.00  0.00    -0.189 OA 
BRANCH   7   8
HETATM    8  C   UNL     1     -11.090   9.314  70.925  1.00  0.00    -0.306 A  
HETATM    9  C   UNL     1     -12.136   9.490  71.827  1.00  0.00    -0.459 A  
HETATM   10  C   UNL     1     -12.914  10.645  71.751  1.00  0.00    -0.577 A  
HETATM   11  C   UNL     1     -12.657  11.609  70.767  1.00  0.00    -0.365 A  
HETATM   12  C   UNL     1     -11.625  11.423  69.835  1.00  0.00    -0.402 A  
HETATM   13  C   UNL     1     -10.843  10.260  69.929  1.00  0.00    -0.355 A  
BRANCH  12  14
HETATM   14  C   UNL     1     -11.338  12.399  68.698  1.00  0.00    -0.288 C  
HETATM   15  C   UNL     1     -11.864  13.808  69.016  1.00  0.00    -0.397 C  
BRANCH  14  16
HETATM   16  N   UNL     1     -11.686  11.922  67.340  1.00  0.00    -0.566 NA 
HETATM   17  C   UNL     1     -11.992  13.013  66.414  1.00  0.00    -0.402 C  
HETATM   18  C   UNL     1     -10.761  10.975  66.734  1.00  0.00    -0.266 C  
ENDBRANCH  14  16
ENDBRANCH  12  14
ENDBRANCH   7   8
ENDBRANCH   5   7
ENDBRANCH   2   3
TORSDOF 5
ENDMDL
MODEL       44
REMARK 921   NORMALIZED FREE ENERGY PREDICTED BY IDOCK:   -4.42 KCAL/MOL
REMARK 922        TOTAL FREE ENERGY PREDICTED BY IDOCK:   -6.32 KCAL/MOL
REMARK 923 INTER-LIGAND FREE ENERGY PREDICTED BY IDOCK:   -6.02 KCAL/MOL
REMARK 924 INTRA-LIGAND FREE ENERGY PREDICTED BY IDOCK:   -0.30 KCAL/MOL
REMARK 927      BINDING AFFINITY PREDICTED BY RF-SCORE:    0.00 PKD
ROOT
HETATM    1  C   UNL     1     -11.796  12.474  69.407  1.00  0.00    -0.368 C  
HETATM    2  C   UNL     1     -12.054  13.960  69.628  1.00  0.00    -0.349 C  
ENDROOT
BRANCH   2   3
HETATM    3  N   UNL     1     -11.797  14.764  68.440  1.00  0.00    -0.309 N  
HETATM    4  C   UNL     1     -11.916  14.137  67.134  1.00  0.00    -0.426 C  
HETATM    5  C   UNL     1     -11.188  16.012  68.579  1.00  0.00    -0.374 C  
HETATM    6  O   UNL     1     -10.937  16.516  69.669  1.00  0.00    -0.325 OA 
BRANCH   5   7
HETATM    7  O   UNL     1     -10.875  16.582  67.347  1.00  0.00    -0.294 OA 
BRANCH   7   8
HETATM    8  C   UNL     1     -10.144  17.780  67.346  1.00  0.00    -0.338 A  
HETATM    9  C   UNL     1     -10.854  18.977  67.288  1.00  0.00    -0.494 A  
HETATM   10  C   UNL     1     -10.155  20.178  67.179  1.00  0.00    -0.590 A  
HETATM   11  C   UNL     1      -8.755  20.180  67.109  1.00  0.00    -0.427 A  
HETATM   12  C   UNL     1      -8.036  18.975  67.135  1.00  0.00    -0.271 A  
HETATM   13  C   UNL     1      -8.753  17.773  67.255  1.00  0.00    -0.241 A  
BRANCH  12  14
HETATM   14  C   UNL     1      -6.518  18.903  66.993  1.00  0.00    -0.191 C  
HETATM   15  C   UNL     1      -6.071  17.563  66.386  1.00  0.00    -0.259 C  
BRANCH  14  16
HETATM   16  N   UNL     1      -5.742  19.307  68.187  1.00  0.00    -0.199 NA 
HETATM   17  C   UNL     1      -5.502  20.750  68.249  1.00  0.00    -0.298 C  
HETATM   18  C   UNL     1      -6.225  18.810  69.467  1.00  0.00    -0.268 C  
ENDBRANCH  14  16
ENDBRANCH  12  14
ENDBRANCH   7   8
ENDBRANCH   5   7
ENDBRANCH   2   3
TORSDOF 5
ENDMDL
MODEL       45
REMARK 921   NORMALIZED FREE ENERGY PREDICTED BY IDOCK:   -4.41 KCAL/MOL
REMARK 922        TOTAL FREE ENERGY PREDICTED BY IDOCK:   -6.30 KCAL/MOL
REMARK 923 INTER-LIGAND FREE ENERGY PREDICTED BY IDOCK:   -6.07 KCAL/MOL
REMARK 924 INTRA-LIGAND FREE ENERGY PREDICTED BY IDOCK:   -0.23 KCAL/MOL
REMARK 927      BINDING AFFINITY PREDICTED BY RF-SCORE:    0.00 PKD
ROOT
HETATM    1  C   UNL     1     -11.726  12.623  66.506  1.00  0.00    -0.463 C  
HETATM    2  C   UNL     1     -10.431  13.244  65.995  1.00  0.00    -0.286 C  
ENDROOT
BRANCH   2   3
HETATM    3  N   UNL     1     -10.578  14.649  65.637  1.00  0.00    -0.312 N  
HETATM    4  C   UNL     1     -11.605  15.022  64.679  1.00  0.00    -0.386 C  
HETATM    5  C   UNL     1      -9.577  15.553  65.998  1.00  0.00    -0.345 C  
HETATM    6  O   UNL     1      -8.613  15.242  66.689  1.00  0.00    -0.262 OA 
BRANCH   5   7
HETATM    7  O   UNL     1      -9.792  16.817  65.452  1.00  0.00    -0.547 OA 
BRANCH   7   8
HETATM    8  C   UNL     1      -9.630  17.929  66.292  1.00  0.00    -0.241 A  
HETATM    9  C   UNL     1     -10.754  18.415  66.956  1.00  0.00    -0.330 A  
HETATM   10  C   UNL     1     -10.646  19.581  67.713  1.00  0.00    -0.542 A  
HETATM   11  C   UNL     1      -9.426  20.266  67.790  1.00  0.00    -0.453 A  
HETATM   12  C   UNL     1      -8.299  19.799  67.097  1.00  0.00    -0.355 A  
HETATM   13  C   UNL     1      -8.419  18.618  66.347  1.00  0.00    -0.286 A  
BRANCH  12  14
HETATM   14  C   UNL     1      -6.961  20.534  67.082  1.00  0.00    -0.291 C  
HETATM   15  C   UNL     1      -6.441  20.731  65.649  1.00  0.00    -0.233 C  
BRANCH  14  16
HETATM   16  N   UNL     1      -5.939  20.026  68.026  1.00  0.00    -0.219 NA 
HETATM   17  C   UNL     1      -6.426  19.947  69.404  1.00  0.00    -0.347 C  
HETATM   18  C   UNL     1      -5.268  18.792  67.644  1.00  0.00    -0.168 C  
ENDBRANCH  14  16
ENDBRANCH  12  14
ENDBRANCH   7   8
ENDBRANCH   5   7
ENDBRANCH   2   3
TORSDOF 5
ENDMDL
MODEL       46
REMARK 921   NORMALIZED FREE ENERGY PREDICTED BY IDOCK:   -4.41 KCAL/MOL
REMARK 922        TOTAL FREE ENERGY PREDICTED BY IDOCK:   -6.30 KCAL/MOL
REMARK 923 INTER-LIGAND FREE ENERGY PREDICTED BY IDOCK:   -5.98 KCAL/MOL
REMARK 924 INTRA-LIGAND FREE ENERGY PREDICTED BY IDOCK:   -0.32 KCAL/MOL
REMARK 927      BINDING AFFINITY PREDICTED BY RF-SCORE:    0.00 PKD
ROOT
HETATM    1  C   UNL     1      -7.355  18.737  67.376  1.00  0.00    -0.231 C  
HETATM    2  C   UNL     1      -8.499  18.715  68.383  1.00  0.00    -0.338 C  
ENDROOT
BRANCH   2   3
HETATM    3  N   UNL     1      -9.686  18.035  67.880  1.00  0.00    -0.287 N  
HETATM    4  C   UNL     1     -10.772  18.834  67.339  1.00  0.00    -0.424 C  
HETATM    5  C   UNL     1      -9.873  16.683  68.173  1.00  0.00    -0.250 C  
HETATM    6  O   UNL     1      -9.037  16.004  68.759  1.00  0.00    -0.198 OA 
BRANCH   5   7
HETATM    7  O   UNL     1     -11.120  16.225  67.754  1.00  0.00    -0.310 OA 
BRANCH   7   8
HETATM    8  C   UNL     1     -11.404  14.860  67.915  1.00  0.00    -0.327 A  
HETATM    9  C   UNL     1     -11.679  14.397  69.199  1.00  0.00    -0.354 A  
HETATM   10  C   UNL     1     -11.861  13.030  69.406  1.00  0.00    -0.380 A  
HETATM   11  C   UNL     1     -11.750  12.131  68.337  1.00  0.00    -0.388 A  
HETATM   12  C   UNL     1     -11.442  12.588  67.047  1.00  0.00    -0.419 A  
HETATM   13  C   UNL     1     -11.271  13.968  66.851  1.00  0.00    -0.323 A  
BRANCH  12  14
HETATM   14  C   UNL     1     -11.239  11.656  65.854  1.00  0.00    -0.238 C  
HETATM   15  C   UNL     1     -10.026  10.734  66.059  1.00  0.00    -0.295 C  
BRANCH  14  16
HETATM   16  N   UNL     1     -11.284  12.300  64.522  1.00  0.00    -0.312 NA 
HETATM   17  C   UNL     1     -10.195  11.870  63.644  1.00  0.00    -0.438 C  
HETATM   18  C   UNL     1     -12.561  12.248  63.825  1.00  0.00    -0.470 C  
ENDBRANCH  14  16
ENDBRANCH  12  14
ENDBRANCH   7   8
ENDBRANCH   5   7
ENDBRANCH   2   3
TORSDOF 5
ENDMDL
MODEL       47
REMARK 921   NORMALIZED FREE ENERGY PREDICTED BY IDOCK:   -4.39 KCAL/MOL
REMARK 922        TOTAL FREE ENERGY PREDICTED BY IDOCK:   -6.29 KCAL/MOL
REMARK 923 INTER-LIGAND FREE ENERGY PREDICTED BY IDOCK:   -5.94 KCAL/MOL
REMARK 924 INTRA-LIGAND FREE ENERGY PREDICTED BY IDOCK:   -0.35 KCAL/MOL
REMARK 927      BINDING AFFINITY PREDICTED BY RF-SCORE:    0.00 PKD
ROOT
HETATM    1  C   UNL     1     -11.205  11.637  63.977  1.00  0.00    -0.448 C  
HETATM    2  C   UNL     1     -12.268  12.526  64.612  1.00  0.00    -0.453 C  
ENDROOT
BRANCH   2   3
HETATM    3  N   UNL     1     -11.789  13.225  65.798  1.00  0.00    -0.366 N  
HETATM    4  C   UNL     1     -11.862  12.552  67.083  1.00  0.00    -0.316 C  
HETATM    5  C   UNL     1     -11.534  14.596  65.725  1.00  0.00    -0.338 C  
HETATM    6  O   UNL     1     -11.602  15.234  64.679  1.00  0.00    -0.404 OA 
BRANCH   5   7
HETATM    7  O   UNL     1     -11.233  15.140  66.971  1.00  0.00    -0.335 OA 
BRANCH   7   8
HETATM    8  C   UNL     1     -10.003  15.798  67.120  1.00  0.00    -0.242 A  
HETATM    9  C   UNL     1      -8.840  15.043  67.000  1.00  0.00    -0.257 A  
HETATM   10  C   UNL     1      -7.607  15.647  67.247  1.00  0.00    -0.247 A  
HETATM   11  C   UNL     1      -7.542  16.994  67.629  1.00  0.00    -0.180 A  
HETATM   12  C   UNL     1      -8.713  17.752  67.782  1.00  0.00    -0.241 A  
HETATM   13  C   UNL     1      -9.946  17.133  67.520  1.00  0.00    -0.279 A  
BRANCH  12  14
HETATM   14  C   UNL     1      -8.716  19.201  68.261  1.00  0.00    -0.338 C  
HETATM   15  C   UNL     1     -10.115  19.640  68.721  1.00  0.00    -0.532 C  
BRANCH  14  16
HETATM   16  N   UNL     1      -8.046  20.173  67.368  1.00  0.00    -0.324 NA 
HETATM   17  C   UNL     1      -6.723  20.573  67.850  1.00  0.00    -0.308 C  
HETATM   18  C   UNL     1      -7.996  19.822  65.956  1.00  0.00    -0.330 C  
ENDBRANCH  14  16
ENDBRANCH  12  14
ENDBRANCH   7   8
ENDBRANCH   5   7
ENDBRANCH   2   3
TORSDOF 5
ENDMDL
MODEL       48
REMARK 921   NORMALIZED FREE ENERGY PREDICTED BY IDOCK:   -4.39 KCAL/MOL
REMARK 922        TOTAL FREE ENERGY PREDICTED BY IDOCK:   -6.29 KCAL/MOL
REMARK 923 INTER-LIGAND FREE ENERGY PREDICTED BY IDOCK:   -5.86 KCAL/MOL
REMARK 924 INTRA-LIGAND FREE ENERGY PREDICTED BY IDOCK:   -0.43 KCAL/MOL
REMARK 927      BINDING AFFINITY PREDICTED BY RF-SCORE:    0.00 PKD
ROOT
HETATM    1  C   UNL     1      -7.063  19.101  67.309  1.00  0.00    -0.225 C  
HETATM    2  C   UNL     1      -8.077  19.275  68.434  1.00  0.00    -0.343 C  
ENDROOT
BRANCH   2   3
HETATM    3  N   UNL     1      -9.377  18.693  68.122  1.00  0.00    -0.307 N  
HETATM    4  C   UNL     1     -10.451  19.573  67.695  1.00  0.00    -0.467 C  
HETATM    5  C   UNL     1      -9.641  17.374  68.496  1.00  0.00    -0.298 C  
HETATM    6  O   UNL     1      -8.797  16.639  68.995  1.00  0.00    -0.256 OA 
BRANCH   5   7
HETATM    7  O   UNL     1     -10.969  17.022  68.266  1.00  0.00    -0.365 OA 
BRANCH   7   8
HETATM    8  C   UNL     1     -11.467  15.883  68.916  1.00  0.00    -0.386 A  
HETATM    9  C   UNL     1     -11.869  16.012  70.243  1.00  0.00    -0.268 A  
HETATM   10  C   UNL     1     -12.268  14.876  70.947  1.00  0.00    -0.389 A  
HETATM   11  C   UNL     1     -12.246  13.617  70.332  1.00  0.00    -0.434 A  
HETATM   12  C   UNL     1     -11.811  13.476  69.006  1.00  0.00    -0.385 A  
HETATM   13  C   UNL     1     -11.422  14.629  68.305  1.00  0.00    -0.337 A  
BRANCH  12  14
HETATM   14  C   UNL     1     -11.697  12.127  68.300  1.00  0.00    -0.342 C  
HETATM   15  C   UNL     1     -11.897  10.959  69.280  1.00  0.00    -0.395 C  
BRANCH  14  16
HETATM   16  N   UNL     1     -10.527  11.967  67.407  1.00  0.00    -0.213 NA 
HETATM   17  C   UNL     1      -9.452  11.180  68.013  1.00  0.00    -0.174 C  
HETATM   18  C   UNL     1     -10.808  11.504  66.056  1.00  0.00    -0.276 C  
ENDBRANCH  14  16
ENDBRANCH  12  14
ENDBRANCH   7   8
ENDBRANCH   5   7
ENDBRANCH   2   3
TORSDOF 5
ENDMDL
MODEL       49
REMARK 921   NORMALIZED FREE ENERGY PREDICTED BY IDOCK:   -4.38 KCAL/MOL
REMARK 922        TOTAL FREE ENERGY PREDICTED BY IDOCK:   -6.27 KCAL/MOL
REMARK 923 INTER-LIGAND FREE ENERGY PREDICTED BY IDOCK:   -5.77 KCAL/MOL
REMARK 924 INTRA-LIGAND FREE ENERGY PREDICTED BY IDOCK:   -0.50 KCAL/MOL
REMARK 927      BINDING AFFINITY PREDICTED BY RF-SCORE:    0.00 PKD
ROOT
HETATM    1  C   UNL     1     -13.783  12.694  72.425  1.00  0.00    -0.377 C  
HETATM    2  C   UNL     1     -13.481  13.970  71.648  1.00  0.00    -0.361 C  
ENDROOT
BRANCH   2   3
HETATM    3  N   UNL     1     -12.476  13.778  70.610  1.00  0.00    -0.357 N  
HETATM    4  C   UNL     1     -12.096  12.424  70.248  1.00  0.00    -0.297 C  
HETATM    5  C   UNL     1     -11.712  14.869  70.191  1.00  0.00    -0.294 C  
HETATM    6  O   UNL     1     -11.908  16.014  70.585  1.00  0.00    -0.370 OA 
BRANCH   5   7
HETATM    7  O   UNL     1     -10.699  14.492  69.313  1.00  0.00    -0.243 OA 
BRANCH   7   8
HETATM    8  C   UNL     1     -10.699  15.059  68.029  1.00  0.00    -0.262 A  
HETATM    9  C   UNL     1     -11.432  14.419  67.032  1.00  0.00    -0.376 A  
HETATM   10  C   UNL     1     -11.366  14.899  65.725  1.00  0.00    -0.314 A  
HETATM   11  C   UNL     1     -10.557  16.000  65.414  1.00  0.00    -0.428 A  
HETATM   12  C   UNL     1      -9.793  16.630  66.408  1.00  0.00    -0.308 A  
HETATM   13  C   UNL     1      -9.876  16.143  67.722  1.00  0.00    -0.232 A  
BRANCH  12  14
HETATM   14  C   UNL     1      -8.840  17.789  66.123  1.00  0.00    -0.091 C  
HETATM   15  C   UNL     1      -7.373  17.374  66.317  1.00  0.00    -0.347 C  
BRANCH  14  16
HETATM   16  N   UNL     1      -9.188  19.077  66.765  1.00  0.00    -0.307 NA 
HETATM   17  C   UNL     1      -8.013  19.883  67.100  1.00  0.00    -0.302 C  
HETATM   18  C   UNL     1     -10.191  19.884  66.086  1.00  0.00    -0.503 C  
ENDBRANCH  14  16
ENDBRANCH  12  14
ENDBRANCH   7   8
ENDBRANCH   5   7
ENDBRANCH   2   3
TORSDOF 5
ENDMDL
MODEL       50
REMARK 921   NORMALIZED FREE ENERGY PREDICTED BY IDOCK:   -4.38 KCAL/MOL
REMARK 922        TOTAL FREE ENERGY PREDICTED BY IDOCK:   -6.27 KCAL/MOL
REMARK 923 INTER-LIGAND FREE ENERGY PREDICTED BY IDOCK:   -5.98 KCAL/MOL
REMARK 924 INTRA-LIGAND FREE ENERGY PREDICTED BY IDOCK:   -0.29 KCAL/MOL
REMARK 927      BINDING AFFINITY PREDICTED BY RF-SCORE:    0.00 PKD
ROOT
HETATM    1  C   UNL     1      -7.450  19.624  65.770  1.00  0.00    -0.304 C  
HETATM    2  C   UNL     1      -8.805  20.081  66.296  1.00  0.00    -0.292 C  
ENDROOT
BRANCH   2   3
HETATM    3  N   UNL     1      -9.439  19.096  67.164  1.00  0.00    -0.308 N  
HETATM    4  C   UNL     1      -9.037  19.032  68.558  1.00  0.00    -0.358 C  
HETATM    5  C   UNL     1     -10.197  18.072  66.593  1.00  0.00    -0.373 C  
HETATM    6  O   UNL     1     -10.440  18.009  65.393  1.00  0.00    -0.621 OA 
BRANCH   5   7
HETATM    7  O   UNL     1     -10.603  17.132  67.538  1.00  0.00    -0.347 OA 
BRANCH   7   8
HETATM    8  C   UNL     1     -10.097  15.828  67.425  1.00  0.00    -0.246 A  
HETATM    9  C   UNL     1      -8.725  15.644  67.577  1.00  0.00    -0.189 A  
HETATM   10  C   UNL     1      -8.181  14.378  67.365  1.00  0.00    -0.215 A  
HETATM   11  C   UNL     1      -9.001  13.308  66.985  1.00  0.00    -0.230 A  
HETATM   12  C   UNL     1     -10.380  13.494  66.799  1.00  0.00    -0.264 A  
HETATM   13  C   UNL     1     -10.917  14.772  67.026  1.00  0.00    -0.324 A  
BRANCH  12  14
HETATM   14  C   UNL     1     -11.317  12.389  66.320  1.00  0.00    -0.340 C  
HETATM   15  C   UNL     1     -12.475  12.954  65.483  1.00  0.00    -0.462 C  
BRANCH  14  16
HETATM   16  N   UNL     1     -11.743  11.416  67.353  1.00  0.00    -0.598 NA 
HETATM   17  C   UNL     1     -10.891  10.227  67.402  1.00  0.00    -0.277 C  
HETATM   18  C   UNL     1     -11.960  11.951  68.689  1.00  0.00    -0.233 C  
ENDBRANCH  14  16
ENDBRANCH  12  14
ENDBRANCH   7   8
ENDBRANCH   5   7
ENDBRANCH   2   3
TORSDOF 5
ENDMDL
MODEL       51
REMARK 921   NORMALIZED FREE ENERGY PREDICTED BY IDOCK:   -4.38 KCAL/MOL
REMARK 922        TOTAL FREE ENERGY PREDICTED BY IDOCK:   -6.27 KCAL/MOL
REMARK 923 INTER-LIGAND FREE ENERGY PREDICTED BY IDOCK:   -5.78 KCAL/MOL
REMARK 924 INTRA-LIGAND FREE ENERGY PREDICTED BY IDOCK:   -0.48 KCAL/MOL
REMARK 927      BINDING AFFINITY PREDICTED BY RF-SCORE:    0.00 PKD
ROOT
HETATM    1  C   UNL     1     -11.835  12.848  63.936  1.00  0.00    -0.541 C  
HETATM    2  C   UNL     1     -12.022  12.522  65.413  1.00  0.00    -0.437 C  
ENDROOT
BRANCH   2   3
HETATM    3  N   UNL     1     -10.920  11.745  65.967  1.00  0.00    -0.301 N  
HETATM    4  C   UNL     1      -9.837  11.343  65.086  1.00  0.00    -0.260 C  
HETATM    5  C   UNL     1     -11.055  11.178  67.235  1.00  0.00    -0.302 C  
HETATM    6  O   UNL     1     -12.026  11.378  67.957  1.00  0.00    -0.613 OA 
BRANCH   5   7
HETATM    7  O   UNL     1      -9.985  10.345  67.553  1.00  0.00    -0.171 OA 
BRANCH   7   8
HETATM    8  C   UNL     1     -10.265   9.003  67.851  1.00  0.00    -0.221 A  
HETATM    9  C   UNL     1     -10.525   8.139  66.791  1.00  0.00    -0.316 A  
HETATM   10  C   UNL     1     -10.910   6.826  67.061  1.00  0.00    -0.453 A  
HETATM   11  C   UNL     1     -11.052   6.387  68.384  1.00  0.00    -0.374 A  
HETATM   12  C   UNL     1     -10.822   7.262  69.457  1.00  0.00    -0.224 A  
HETATM   13  C   UNL     1     -10.425   8.578  69.170  1.00  0.00    -0.217 A  
BRANCH  12  14
HETATM   14  C   UNL     1     -11.025   6.868  70.918  1.00  0.00    -0.253 C  
HETATM   15  C   UNL     1     -12.469   7.128  71.377  1.00  0.00    -0.427 C  
BRANCH  14  16
HETATM   16  N   UNL     1      -9.998   7.360  71.863  1.00  0.00    -0.170 NA 
HETATM   17  C   UNL     1     -10.530   7.611  73.203  1.00  0.00    -0.374 C  
HETATM   18  C   UNL     1      -8.766   6.587  71.934  1.00  0.00    -0.130 C  
ENDBRANCH  14  16
ENDBRANCH  12  14
ENDBRANCH   7   8
ENDBRANCH   5   7
ENDBRANCH   2   3
TORSDOF 5
ENDMDL
MODEL       52
REMARK 921   NORMALIZED FREE ENERGY PREDICTED BY IDOCK:   -4.36 KCAL/MOL
REMARK 922        TOTAL FREE ENERGY PREDICTED BY IDOCK:   -6.24 KCAL/MOL
REMARK 923 INTER-LIGAND FREE ENERGY PREDICTED BY IDOCK:   -6.20 KCAL/MOL
REMARK 924 INTRA-LIGAND FREE ENERGY PREDICTED BY IDOCK:   -0.04 KCAL/MOL
REMARK 927      BINDING AFFINITY PREDICTED BY RF-SCORE:    0.00 PKD
ROOT
HETATM    1  C   UNL     1     -13.476  13.229  72.160  1.00  0.00    -0.655 C  
HETATM    2  C   UNL     1     -13.136  14.362  71.199  1.00  0.00    -0.352 C  
ENDROOT
BRANCH   2   3
HETATM    3  N   UNL     1     -12.167  13.972  70.182  1.00  0.00    -0.341 N  
HETATM    4  C   UNL     1     -11.978  12.559  69.903  1.00  0.00    -0.301 C  
HETATM    5  C   UNL     1     -11.261  14.921  69.704  1.00  0.00    -0.275 C  
HETATM    6  O   UNL     1     -11.297  16.103  70.029  1.00  0.00    -0.334 OA 
BRANCH   5   7
HETATM    7  O   UNL     1     -10.310  14.356  68.857  1.00  0.00    -0.236 OA 
BRANCH   7   8
HETATM    8  C   UNL     1     -10.393  14.652  67.488  1.00  0.00    -0.234 A  
HETATM    9  C   UNL     1     -10.442  15.992  67.112  1.00  0.00    -0.308 A  
HETATM   10  C   UNL     1     -10.631  16.316  65.769  1.00  0.00    -0.336 A  
HETATM   11  C   UNL     1     -10.789  15.304  64.812  1.00  0.00    -0.379 A  
HETATM   12  C   UNL     1     -10.772  13.953  65.189  1.00  0.00    -0.371 A  
HETATM   13  C   UNL     1     -10.571  13.641  66.544  1.00  0.00    -0.282 A  
BRANCH  12  14
HETATM   14  C   UNL     1     -11.006  12.807  64.209  1.00  0.00    -0.379 C  
HETATM   15  C   UNL     1     -12.439  12.262  64.309  1.00  0.00    -0.508 C  
BRANCH  14  16
HETATM   16  N   UNL     1      -9.965  11.754  64.192  1.00  0.00    -0.275 NA 
HETATM   17  C   UNL     1     -10.307  10.600  65.024  1.00  0.00    -0.271 C  
HETATM   18  C   UNL     1      -9.503  11.325  62.880  1.00  0.00    -0.361 C  
ENDBRANCH  14  16
ENDBRANCH  12  14
ENDBRANCH   7   8
ENDBRANCH   5   7
ENDBRANCH   2   3
TORSDOF 5
ENDMDL
MODEL       53
REMARK 921   NORMALIZED FREE ENERGY PREDICTED BY IDOCK:   -4.35 KCAL/MOL
REMARK 922        TOTAL FREE ENERGY PREDICTED BY IDOCK:   -6.22 KCAL/MOL
REMARK 923 INTER-LIGAND FREE ENERGY PREDICTED BY IDOCK:   -6.01 KCAL/MOL
REMARK 924 INTRA-LIGAND FREE ENERGY PREDICTED BY IDOCK:   -0.22 KCAL/MOL
REMARK 927      BINDING AFFINITY PREDICTED BY RF-SCORE:    0.00 PKD
ROOT
HETATM    1  C   UNL     1     -12.325  12.456  63.336  1.00  0.00    -0.603 C  
HETATM    2  C   UNL     1     -12.260  12.534  64.856  1.00  0.00    -0.470 C  
ENDROOT
BRANCH   2   3
HETATM    3  N   UNL     1     -11.096  11.854  65.410  1.00  0.00    -0.313 N  
HETATM    4  C   UNL     1     -10.305  11.002  64.539  1.00  0.00    -0.354 C  
HETATM    5  C   UNL     1     -10.927  11.810  66.795  1.00  0.00    -0.288 C  
HETATM    6  O   UNL     1     -11.663  12.401  67.578  1.00  0.00    -0.352 OA 
BRANCH   5   7
HETATM    7  O   UNL     1      -9.858  10.997  67.167  1.00  0.00    -0.179 OA 
BRANCH   7   8
HETATM    8  C   UNL     1     -10.124   9.916  68.020  1.00  0.00    -0.171 A  
HETATM    9  C   UNL     1     -10.005   8.629  67.500  1.00  0.00    -0.256 A  
HETATM   10  C   UNL     1     -10.364   7.539  68.292  1.00  0.00    -0.233 A  
HETATM   11  C   UNL     1     -10.856   7.737  69.589  1.00  0.00    -0.185 A  
HETATM   12  C   UNL     1     -11.008   9.032  70.107  1.00  0.00    -0.256 A  
HETATM   13  C   UNL     1     -10.633  10.120  69.303  1.00  0.00    -0.254 A  
BRANCH  12  14
HETATM   14  C   UNL     1     -11.601   9.319  71.484  1.00  0.00    -0.382 C  
HETATM   15  C   UNL     1     -11.341   8.163  72.463  1.00  0.00    -0.469 C  
BRANCH  14  16
HETATM   16  N   UNL     1     -12.999   9.806  71.491  1.00  0.00    -0.377 NA 
HETATM   17  C   UNL     1     -13.891   8.969  72.293  1.00  0.00    -0.484 C  
HETATM   18  C   UNL     1     -13.189  11.214  71.809  1.00  0.00    -0.381 C  
ENDBRANCH  14  16
ENDBRANCH  12  14
ENDBRANCH   7   8
ENDBRANCH   5   7
ENDBRANCH   2   3
TORSDOF 5
ENDMDL
MODEL       54
REMARK 921   NORMALIZED FREE ENERGY PREDICTED BY IDOCK:   -4.35 KCAL/MOL
REMARK 922        TOTAL FREE ENERGY PREDICTED BY IDOCK:   -6.22 KCAL/MOL
REMARK 923 INTER-LIGAND FREE ENERGY PREDICTED BY IDOCK:   -5.69 KCAL/MOL
REMARK 924 INTRA-LIGAND FREE ENERGY PREDICTED BY IDOCK:   -0.53 KCAL/MOL
REMARK 927      BINDING AFFINITY PREDICTED BY RF-SCORE:    0.00 PKD
ROOT
HETATM    1  C   UNL     1     -10.239  15.998  65.857  1.00  0.00    -0.386 C  
HETATM    2  C   UNL     1     -11.240  15.528  66.906  1.00  0.00    -0.159 C  
ENDROOT
BRANCH   2   3
HETATM    3  N   UNL     1     -11.667  14.149  66.705  1.00  0.00    -0.391 N  
HETATM    4  C   UNL     1     -12.641  13.865  65.666  1.00  0.00    -0.517 C  
HETATM    5  C   UNL     1     -11.354  13.190  67.671  1.00  0.00    -0.298 C  
HETATM    6  O   UNL     1     -10.650  13.429  68.646  1.00  0.00    -0.245 OA 
BRANCH   5   7
HETATM    7  O   UNL     1     -11.962  11.965  67.408  1.00  0.00    -0.603 OA 
BRANCH   7   8
HETATM    8  C   UNL     1     -11.136  10.838  67.283  1.00  0.00    -0.270 A  
HETATM    9  C   UNL     1     -10.418  10.682  66.100  1.00  0.00    -0.260 A  
HETATM   10  C   UNL     1      -9.673   9.519  65.905  1.00  0.00    -0.352 A  
HETATM   11  C   UNL     1      -9.661   8.512  66.879  1.00  0.00    -0.286 A  
HETATM   12  C   UNL     1     -10.408   8.650  68.059  1.00  0.00    -0.277 A  
HETATM   13  C   UNL     1     -11.147   9.829  68.247  1.00  0.00    -0.158 A  
BRANCH  12  14
HETATM   14  C   UNL     1     -10.494   7.562  69.127  1.00  0.00    -0.215 C  
HETATM   15  C   UNL     1     -11.017   6.239  68.545  1.00  0.00    -0.421 C  
BRANCH  14  16
HETATM   16  N   UNL     1     -11.148   7.959  70.395  1.00  0.00    -0.254 NA 
HETATM   17  C   UNL     1     -12.098   6.959  70.884  1.00  0.00    -0.373 C  
HETATM   18  C   UNL     1     -10.264   8.398  71.465  1.00  0.00    -0.228 C  
ENDBRANCH  14  16
ENDBRANCH  12  14
ENDBRANCH   7   8
ENDBRANCH   5   7
ENDBRANCH   2   3
TORSDOF 5
ENDMDL
MODEL       55
REMARK 921   NORMALIZED FREE ENERGY PREDICTED BY IDOCK:   -4.34 KCAL/MOL
REMARK 922        TOTAL FREE ENERGY PREDICTED BY IDOCK:   -6.22 KCAL/MOL
REMARK 923 INTER-LIGAND FREE ENERGY PREDICTED BY IDOCK:   -5.76 KCAL/MOL
REMARK 924 INTRA-LIGAND FREE ENERGY PREDICTED BY IDOCK:   -0.46 KCAL/MOL
REMARK 927      BINDING AFFINITY PREDICTED BY RF-SCORE:    0.00 PKD
ROOT
HETATM    1  C   UNL     1     -14.401   8.458  71.483  1.00  0.00    -0.499 C  
HETATM    2  C   UNL     1     -13.177   9.114  72.111  1.00  0.00    -0.458 C  
ENDROOT
BRANCH   2   3
HETATM    3  N   UNL     1     -12.160   9.474  71.130  1.00  0.00    -0.327 N  
HETATM    4  C   UNL     1     -11.077   8.541  70.872  1.00  0.00    -0.255 C  
HETATM    5  C   UNL     1     -12.091  10.791  70.673  1.00  0.00    -0.370 C  
HETATM    6  O   UNL     1     -12.909  11.651  70.984  1.00  0.00    -0.328 OA 
BRANCH   5   7
HETATM    7  O   UNL     1     -10.978  11.006  69.863  1.00  0.00    -0.239 OA 
BRANCH   7   8
HETATM    8  C   UNL     1     -11.127  11.856  68.757  1.00  0.00    -0.245 A  
HETATM    9  C   UNL     1     -11.507  11.287  67.544  1.00  0.00    -0.324 A  
HETATM   10  C   UNL     1     -11.559  12.088  66.403  1.00  0.00    -0.381 A  
HETATM   11  C   UNL     1     -11.216  13.445  66.474  1.00  0.00    -0.327 A  
HETATM   12  C   UNL     1     -10.802  14.016  67.686  1.00  0.00    -0.270 A  
HETATM   13  C   UNL     1     -10.763  13.200  68.829  1.00  0.00    -0.253 A  
BRANCH  12  14
HETATM   14  C   UNL     1     -10.349  15.468  67.817  1.00  0.00    -0.263 C  
HETATM   15  C   UNL     1     -11.374  16.312  68.593  1.00  0.00    -0.333 C  
BRANCH  14  16
HETATM   16  N   UNL     1      -9.870  16.105  66.569  1.00  0.00    -0.252 NA 
HETATM   17  C   UNL     1     -10.359  17.475  66.405  1.00  0.00    -0.334 C  
HETATM   18  C   UNL     1      -8.438  16.035  66.319  1.00  0.00    -0.302 C  
ENDBRANCH  14  16
ENDBRANCH  12  14
ENDBRANCH   7   8
ENDBRANCH   5   7
ENDBRANCH   2   3
TORSDOF 5
ENDMDL
MODEL       56
REMARK 921   NORMALIZED FREE ENERGY PREDICTED BY IDOCK:   -4.33 KCAL/MOL
REMARK 922        TOTAL FREE ENERGY PREDICTED BY IDOCK:   -6.21 KCAL/MOL
REMARK 923 INTER-LIGAND FREE ENERGY PREDICTED BY IDOCK:   -5.69 KCAL/MOL
REMARK 924 INTRA-LIGAND FREE ENERGY PREDICTED BY IDOCK:   -0.52 KCAL/MOL
REMARK 927      BINDING AFFINITY PREDICTED BY RF-SCORE:    0.00 PKD
ROOT
HETATM    1  C   UNL     1      -8.995   9.577  70.338  1.00  0.00    -0.291 C  
HETATM    2  C   UNL     1      -9.503   9.388  68.913  1.00  0.00    -0.154 C  
ENDROOT
BRANCH   2   3
HETATM    3  N   UNL     1     -10.610  10.276  68.583  1.00  0.00    -0.196 N  
HETATM    4  C   UNL     1     -11.657  10.484  69.570  1.00  0.00    -0.260 C  
HETATM    5  C   UNL     1     -10.788  10.682  67.259  1.00  0.00    -0.287 C  
HETATM    6  O   UNL     1      -9.998  10.404  66.363  1.00  0.00    -0.204 OA 
BRANCH   5   7
HETATM    7  O   UNL     1     -11.970  11.397  67.085  1.00  0.00    -0.532 OA 
BRANCH   7   8
HETATM    8  C   UNL     1     -11.894  12.644  66.447  1.00  0.00    -0.402 A  
HETATM    9  C   UNL     1     -12.112  12.688  65.072  1.00  0.00    -0.497 A  
HETATM   10  C   UNL     1     -11.939  13.894  64.393  1.00  0.00    -0.480 A  
HETATM   11  C   UNL     1     -11.532  15.043  65.083  1.00  0.00    -0.339 A  
HETATM   12  C   UNL     1     -11.279  14.998  66.462  1.00  0.00    -0.312 A  
HETATM   13  C   UNL     1     -11.467  13.780  67.135  1.00  0.00    -0.365 A  
BRANCH  12  14
HETATM   14  C   UNL     1     -10.767  16.195  67.260  1.00  0.00    -0.277 C  
HETATM   15  C   UNL     1      -9.941  17.147  66.381  1.00  0.00    -0.315 C  
BRANCH  14  16
HETATM   16  N   UNL     1     -10.133  15.876  68.559  1.00  0.00    -0.213 NA 
HETATM   17  C   UNL     1      -8.764  16.384  68.665  1.00  0.00    -0.234 C  
HETATM   18  C   UNL     1     -10.901  16.210  69.750  1.00  0.00    -0.333 C  
ENDBRANCH  14  16
ENDBRANCH  12  14
ENDBRANCH   7   8
ENDBRANCH   5   7
ENDBRANCH   2   3
TORSDOF 5
ENDMDL
MODEL       57
REMARK 921   NORMALIZED FREE ENERGY PREDICTED BY IDOCK:   -4.33 KCAL/MOL
REMARK 922        TOTAL FREE ENERGY PREDICTED BY IDOCK:   -6.21 KCAL/MOL
REMARK 923 INTER-LIGAND FREE ENERGY PREDICTED BY IDOCK:   -5.78 KCAL/MOL
REMARK 924 INTRA-LIGAND FREE ENERGY PREDICTED BY IDOCK:   -0.42 KCAL/MOL
REMARK 927      BINDING AFFINITY PREDICTED BY RF-SCORE:    0.00 PKD
ROOT
HETATM    1  C   UNL     1     -11.790   6.688  70.704  1.00  0.00    -0.443 C  
HETATM    2  C   UNL     1     -10.955   6.356  69.472  1.00  0.00    -0.359 C  
ENDROOT
BRANCH   2   3
HETATM    3  N   UNL     1     -10.162   7.486  69.003  1.00  0.00    -0.200 N  
HETATM    4  C   UNL     1      -9.472   8.308  69.982  1.00  0.00    -0.167 C  
HETATM    5  C   UNL     1     -10.300   7.914  67.682  1.00  0.00    -0.241 C  
HETATM    6  O   UNL     1     -10.992   7.327  66.857  1.00  0.00    -0.343 OA 
BRANCH   5   7
HETATM    7  O   UNL     1      -9.595   9.090  67.437  1.00  0.00    -0.143 OA 
BRANCH   7   8
HETATM    8  C   UNL     1     -10.152  10.013  66.539  1.00  0.00    -0.232 A  
HETATM    9  C   UNL     1      -9.844   9.877  65.187  1.00  0.00    -0.348 A  
HETATM   10  C   UNL     1     -10.296  10.840  64.286  1.00  0.00    -0.401 A  
HETATM   11  C   UNL     1     -11.035  11.942  64.737  1.00  0.00    -0.366 A  
HETATM   12  C   UNL     1     -11.322  12.101  66.101  1.00  0.00    -0.414 A  
HETATM   13  C   UNL     1     -10.869  11.118  66.997  1.00  0.00    -0.338 A  
BRANCH  12  14
HETATM   14  C   UNL     1     -12.062  13.311  66.666  1.00  0.00    -0.361 C  
HETATM   15  C   UNL     1     -12.750  14.121  65.555  1.00  0.00    -0.468 C  
BRANCH  14  16
HETATM   16  N   UNL     1     -11.298  14.139  67.626  1.00  0.00    -0.303 NA 
HETATM   17  C   UNL     1     -10.940  15.452  67.088  1.00  0.00    -0.317 C  
HETATM   18  C   UNL     1     -11.864  14.266  68.961  1.00  0.00    -0.335 C  
ENDBRANCH  14  16
ENDBRANCH  12  14
ENDBRANCH   7   8
ENDBRANCH   5   7
ENDBRANCH   2   3
TORSDOF 5
ENDMDL
MODEL       58
REMARK 921   NORMALIZED FREE ENERGY PREDICTED BY IDOCK:   -4.32 KCAL/MOL
REMARK 922        TOTAL FREE ENERGY PREDICTED BY IDOCK:   -6.19 KCAL/MOL
REMARK 923 INTER-LIGAND FREE ENERGY PREDICTED BY IDOCK:   -5.66 KCAL/MOL
REMARK 924 INTRA-LIGAND FREE ENERGY PREDICTED BY IDOCK:   -0.53 KCAL/MOL
REMARK 927      BINDING AFFINITY PREDICTED BY RF-SCORE:    0.00 PKD
ROOT
HETATM    1  C   UNL     1     -11.909  10.563  70.814  1.00  0.00    -0.465 C  
HETATM    2  C   UNL     1     -12.066  10.911  69.338  1.00  0.00    -0.290 C  
ENDROOT
BRANCH   2   3
HETATM    3  N   UNL     1     -11.074  11.872  68.873  1.00  0.00    -0.233 N  
HETATM    4  C   UNL     1      -9.712  11.419  68.653  1.00  0.00    -0.176 C  
HETATM    5  C   UNL     1     -11.374  13.235  68.913  1.00  0.00    -0.288 C  
HETATM    6  O   UNL     1     -12.476  13.668  69.235  1.00  0.00    -0.214 OA 
BRANCH   5   7
HETATM    7  O   UNL     1     -10.274  14.023  68.582  1.00  0.00    -0.236 OA 
BRANCH   7   8
HETATM    8  C   UNL     1     -10.433  14.975  67.564  1.00  0.00    -0.256 A  
HETATM    9  C   UNL     1     -10.715  14.517  66.280  1.00  0.00    -0.309 A  
HETATM   10  C   UNL     1     -10.773  15.432  65.229  1.00  0.00    -0.439 A  
HETATM   11  C   UNL     1     -10.532  16.793  65.459  1.00  0.00    -0.254 A  
HETATM   12  C   UNL     1     -10.216  17.256  66.745  1.00  0.00    -0.318 A  
HETATM   13  C   UNL     1     -10.170  16.326  67.796  1.00  0.00    -0.270 A  
BRANCH  12  14
HETATM   14  C   UNL     1      -9.874  18.712  67.050  1.00  0.00    -0.327 C  
HETATM   15  C   UNL     1     -10.508  19.667  66.027  1.00  0.00    -0.622 C  
BRANCH  14  16
HETATM   16  N   UNL     1      -8.447  18.992  67.327  1.00  0.00    -0.274 NA 
HETATM   17  C   UNL     1      -7.850  19.917  66.362  1.00  0.00    -0.316 C  
HETATM   18  C   UNL     1      -8.120  19.386  68.689  1.00  0.00    -0.366 C  
ENDBRANCH  14  16
ENDBRANCH  12  14
ENDBRANCH   7   8
ENDBRANCH   5   7
ENDBRANCH   2   3
TORSDOF 5
ENDMDL
MODEL       59
REMARK 921   NORMALIZED FREE ENERGY PREDICTED BY IDOCK:   -4.30 KCAL/MOL
REMARK 922        TOTAL FREE ENERGY PREDICTED BY IDOCK:   -6.16 KCAL/MOL
REMARK 923 INTER-LIGAND FREE ENERGY PREDICTED BY IDOCK:   -5.58 KCAL/MOL
REMARK 924 INTRA-LIGAND FREE ENERGY PREDICTED BY IDOCK:   -0.58 KCAL/MOL
REMARK 927      BINDING AFFINITY PREDICTED BY RF-SCORE:    0.00 PKD
ROOT
HETATM    1  C   UNL     1     -14.033   7.781  71.600  1.00  0.00    -0.495 C  
HETATM    2  C   UNL     1     -12.773   6.936  71.744  1.00  0.00    -0.327 C  
ENDROOT
BRANCH   2   3
HETATM    3  N   UNL     1     -11.581   7.601  71.234  1.00  0.00    -0.273 N  
HETATM    4  C   UNL     1     -11.130   8.820  71.883  1.00  0.00    -0.364 C  
HETATM    5  C   UNL     1     -11.066   7.222  69.993  1.00  0.00    -0.240 C  
HETATM    6  O   UNL     1     -11.514   6.284  69.342  1.00  0.00    -0.427 OA 
BRANCH   5   7
HETATM    7  O   UNL     1     -10.026   8.052  69.582  1.00  0.00    -0.182 OA 
BRANCH   7   8
HETATM    8  C   UNL     1     -10.209   8.801  68.410  1.00  0.00    -0.196 A  
HETATM    9  C   UNL     1      -9.558   8.374  67.255  1.00  0.00    -0.215 A  
HETATM   10  C   UNL     1      -9.635   9.155  66.102  1.00  0.00    -0.333 A  
HETATM   11  C   UNL     1     -10.344  10.364  66.111  1.00  0.00    -0.269 A  
HETATM   12  C   UNL     1     -10.975  10.815  67.280  1.00  0.00    -0.359 A  
HETATM   13  C   UNL     1     -10.898  10.014  68.431  1.00  0.00    -0.277 A  
BRANCH  12  14
HETATM   14  C   UNL     1     -11.703  12.153  67.376  1.00  0.00    -0.304 C  
HETATM   15  C   UNL     1     -11.942  12.767  65.987  1.00  0.00    -0.491 C  
BRANCH  14  16
HETATM   16  N   UNL     1     -11.159  13.109  68.368  1.00  0.00    -0.254 NA 
HETATM   17  C   UNL     1      -9.830  13.606  68.011  1.00  0.00    -0.244 C  
HETATM   18  C   UNL     1     -12.035  14.207  68.750  1.00  0.00    -0.332 C  
ENDBRANCH  14  16
ENDBRANCH  12  14
ENDBRANCH   7   8
ENDBRANCH   5   7
ENDBRANCH   2   3
TORSDOF 5
ENDMDL
MODEL       60
REMARK 921   NORMALIZED FREE ENERGY PREDICTED BY IDOCK:   -4.29 KCAL/MOL
REMARK 922        TOTAL FREE ENERGY PREDICTED BY IDOCK:   -6.15 KCAL/MOL
REMARK 923 INTER-LIGAND FREE ENERGY PREDICTED BY IDOCK:   -5.66 KCAL/MOL
REMARK 924 INTRA-LIGAND FREE ENERGY PREDICTED BY IDOCK:   -0.49 KCAL/MOL
REMARK 927      BINDING AFFINITY PREDICTED BY RF-SCORE:    0.00 PKD
ROOT
HETATM    1  C   UNL     1     -11.342   5.388  72.711  1.00  0.00    -0.358 C  
HETATM    2  C   UNL     1     -12.165   6.459  72.004  1.00  0.00    -0.269 C  
ENDROOT
BRANCH   2   3
HETATM    3  N   UNL     1     -11.353   7.565  71.511  1.00  0.00    -0.250 N  
HETATM    4  C   UNL     1      -9.932   7.349  71.301  1.00  0.00    -0.187 C  
HETATM    5  C   UNL     1     -11.885   8.856  71.513  1.00  0.00    -0.332 C  
HETATM    6  O   UNL     1     -13.046   9.099  71.824  1.00  0.00    -0.342 OA 
BRANCH   5   7
HETATM    7  O   UNL     1     -10.938   9.813  71.159  1.00  0.00    -0.348 OA 
BRANCH   7   8
HETATM    8  C   UNL     1     -11.147  10.536  69.975  1.00  0.00    -0.308 A  
HETATM    9  C   UNL     1     -10.798   9.931  68.770  1.00  0.00    -0.240 A  
HETATM   10  C   UNL     1     -10.896  10.664  67.588  1.00  0.00    -0.346 A  
HETATM   11  C   UNL     1     -11.322  11.998  67.614  1.00  0.00    -0.375 A  
HETATM   12  C   UNL     1     -11.645  12.623  68.828  1.00  0.00    -0.355 A  
HETATM   13  C   UNL     1     -11.552  11.871  70.010  1.00  0.00    -0.301 A  
BRANCH  12  14
HETATM   14  C   UNL     1     -12.049  14.091  68.933  1.00  0.00    -0.316 C  
HETATM   15  C   UNL     1     -11.683  14.870  67.660  1.00  0.00    -0.329 C  
BRANCH  14  16
HETATM   16  N   UNL     1     -11.659  14.775  70.187  1.00  0.00    -0.276 NA 
HETATM   17  C   UNL     1     -10.742  15.894  69.964  1.00  0.00    -0.339 C  
HETATM   18  C   UNL     1     -12.747  15.168  71.072  1.00  0.00    -0.392 C  
ENDBRANCH  14  16
ENDBRANCH  12  14
ENDBRANCH   7   8
ENDBRANCH   5   7
ENDBRANCH   2   3
TORSDOF 5
ENDMDL
MODEL       61
REMARK 921   NORMALIZED FREE ENERGY PREDICTED BY IDOCK:   -4.29 KCAL/MOL
REMARK 922        TOTAL FREE ENERGY PREDICTED BY IDOCK:   -6.14 KCAL/MOL
REMARK 923 INTER-LIGAND FREE ENERGY PREDICTED BY IDOCK:   -5.62 KCAL/MOL
REMARK 924 INTRA-LIGAND FREE ENERGY PREDICTED BY IDOCK:   -0.52 KCAL/MOL
REMARK 927      BINDING AFFINITY PREDICTED BY RF-SCORE:    0.00 PKD
ROOT
HETATM    1  C   UNL     1      -8.196   6.333  69.131  1.00  0.00    -0.114 C  
HETATM    2  C   UNL     1      -8.225   7.562  68.231  1.00  0.00    -0.125 C  
ENDROOT
BRANCH   2   3
HETATM    3  N   UNL     1      -9.520   8.230  68.224  1.00  0.00    -0.138 N  
HETATM    4  C   UNL     1     -10.562   7.725  67.347  1.00  0.00    -0.275 C  
HETATM    5  C   UNL     1      -9.647   9.479  68.835  1.00  0.00    -0.156 C  
HETATM    6  O   UNL     1      -8.739  10.009  69.467  1.00  0.00    -0.170 OA 
BRANCH   5   7
HETATM    7  O   UNL     1     -10.898  10.048  68.609  1.00  0.00    -0.223 OA 
BRANCH   7   8
HETATM    8  C   UNL     1     -11.554  10.643  69.698  1.00  0.00    -0.296 A  
HETATM    9  C   UNL     1     -12.135   9.806  70.646  1.00  0.00    -0.311 A  
HETATM   10  C   UNL     1     -12.884  10.366  71.681  1.00  0.00    -0.579 A  
HETATM   11  C   UNL     1     -13.064  11.754  71.755  1.00  0.00    -0.480 A  
HETATM   12  C   UNL     1     -12.507  12.600  70.784  1.00  0.00    -0.357 A  
HETATM   13  C   UNL     1     -11.747  12.024  69.753  1.00  0.00    -0.390 A  
BRANCH  12  14
HETATM   14  C   UNL     1     -12.722  14.111  70.767  1.00  0.00    -0.344 C  
HETATM   15  C   UNL     1     -11.667  14.822  69.904  1.00  0.00    -0.352 C  
BRANCH  14  16
HETATM   16  N   UNL     1     -12.940  14.743  72.088  1.00  0.00    -0.319 NA 
HETATM   17  C   UNL     1     -11.793  15.531  72.540  1.00  0.00    -0.470 C  
HETATM   18  C   UNL     1     -14.177  15.495  72.246  1.00  0.00    -0.524 C  
ENDBRANCH  14  16
ENDBRANCH  12  14
ENDBRANCH   7   8
ENDBRANCH   5   7
ENDBRANCH   2   3
TORSDOF 5
ENDMDL
MODEL       62
REMARK 921   NORMALIZED FREE ENERGY PREDICTED BY IDOCK:   -4.28 KCAL/MOL
REMARK 922        TOTAL FREE ENERGY PREDICTED BY IDOCK:   -6.14 KCAL/MOL
REMARK 923 INTER-LIGAND FREE ENERGY PREDICTED BY IDOCK:   -6.04 KCAL/MOL
REMARK 924 INTRA-LIGAND FREE ENERGY PREDICTED BY IDOCK:   -0.10 KCAL/MOL
REMARK 927      BINDING AFFINITY PREDICTED BY RF-SCORE:    0.00 PKD
ROOT
HETATM    1  C   UNL     1     -11.192  11.770  63.373  1.00  0.00    -0.440 C  
HETATM    2  C   UNL     1     -12.506  12.100  64.070  1.00  0.00    -0.440 C  
ENDROOT
BRANCH   2   3
HETATM    3  N   UNL     1     -12.417  13.279  64.922  1.00  0.00    -0.417 N  
HETATM    4  C   UNL     1     -12.281  14.583  64.297  1.00  0.00    -0.415 C  
HETATM    5  C   UNL     1     -12.187  13.116  66.290  1.00  0.00    -0.355 C  
HETATM    6  O   UNL     1     -12.150  12.018  66.835  1.00  0.00    -0.608 OA 
BRANCH   5   7
HETATM    7  O   UNL     1     -11.976  14.333  66.933  1.00  0.00    -0.416 OA 
BRANCH   7   8
HETATM    8  C   UNL     1     -10.651  14.710  67.203  1.00  0.00    -0.282 A  
HETATM    9  C   UNL     1      -9.808  13.764  67.782  1.00  0.00    -0.234 A  
HETATM   10  C   UNL     1      -8.519  14.141  68.158  1.00  0.00    -0.173 A  
HETATM   11  C   UNL     1      -8.084  15.460  67.973  1.00  0.00    -0.143 A  
HETATM   12  C   UNL     1      -8.939  16.425  67.419  1.00  0.00    -0.200 A  
HETATM   13  C   UNL     1     -10.231  16.029  67.035  1.00  0.00    -0.282 A  
BRANCH  12  14
HETATM   14  C   UNL     1      -8.552  17.892  67.254  1.00  0.00    -0.237 C  
HETATM   15  C   UNL     1      -7.208  18.042  66.524  1.00  0.00    -0.270 C  
BRANCH  14  16
HETATM   16  N   UNL     1      -8.669  18.727  68.471  1.00  0.00    -0.340 NA 
HETATM   17  C   UNL     1      -7.431  19.438  68.796  1.00  0.00    -0.358 C  
HETATM   18  C   UNL     1      -9.811  19.628  68.526  1.00  0.00    -0.424 C  
ENDBRANCH  14  16
ENDBRANCH  12  14
ENDBRANCH   7   8
ENDBRANCH   5   7
ENDBRANCH   2   3
TORSDOF 5
ENDMDL
MODEL       63
REMARK 921   NORMALIZED FREE ENERGY PREDICTED BY IDOCK:   -4.27 KCAL/MOL
REMARK 922        TOTAL FREE ENERGY PREDICTED BY IDOCK:   -6.12 KCAL/MOL
REMARK 923 INTER-LIGAND FREE ENERGY PREDICTED BY IDOCK:   -5.61 KCAL/MOL
REMARK 924 INTRA-LIGAND FREE ENERGY PREDICTED BY IDOCK:   -0.51 KCAL/MOL
REMARK 927      BINDING AFFINITY PREDICTED BY RF-SCORE:    0.00 PKD
ROOT
HETATM    1  C   UNL     1      -8.515  10.207  66.049  1.00  0.00    -0.136 C  
HETATM    2  C   UNL     1      -9.709  11.096  66.375  1.00  0.00    -0.204 C  
ENDROOT
BRANCH   2   3
HETATM    3  N   UNL     1      -9.823  11.395  67.797  1.00  0.00    -0.172 N  
HETATM    4  C   UNL     1      -8.626  11.348  68.618  1.00  0.00    -0.126 C  
HETATM    5  C   UNL     1     -11.089  11.446  68.384  1.00  0.00    -0.242 C  
HETATM    6  O   UNL     1     -12.129  11.345  67.741  1.00  0.00    -0.637 OA 
BRANCH   5   7
HETATM    7  O   UNL     1     -11.019  11.588  69.768  1.00  0.00    -0.141 OA 
BRANCH   7   8
HETATM    8  C   UNL     1     -11.602  10.587  70.559  1.00  0.00    -0.350 A  
HETATM    9  C   UNL     1     -12.849  10.845  71.123  1.00  0.00    -0.508 A  
HETATM   10  C   UNL     1     -13.405   9.913  71.999  1.00  0.00    -0.532 A  
HETATM   11  C   UNL     1     -12.709   8.741  72.323  1.00  0.00    -0.466 A  
HETATM   12  C   UNL     1     -11.438   8.491  71.783  1.00  0.00    -0.378 A  
HETATM   13  C   UNL     1     -10.895   9.433  70.894  1.00  0.00    -0.392 A  
BRANCH  12  14
HETATM   14  C   UNL     1     -10.599   7.269  72.148  1.00  0.00    -0.211 C  
HETATM   15  C   UNL     1     -11.301   5.962  71.747  1.00  0.00    -0.289 C  
BRANCH  14  16
HETATM   16  N   UNL     1     -10.048   7.256  73.522  1.00  0.00    -0.312 NA 
HETATM   17  C   UNL     1     -10.036   5.920  74.119  1.00  0.00    -0.243 C  
HETATM   18  C   UNL     1      -8.763   7.915  73.706  1.00  0.00    -0.271 C  
ENDBRANCH  14  16
ENDBRANCH  12  14
ENDBRANCH   7   8
ENDBRANCH   5   7
ENDBRANCH   2   3
TORSDOF 5
ENDMDL
MODEL       64
REMARK 921   NORMALIZED FREE ENERGY PREDICTED BY IDOCK:   -4.26 KCAL/MOL
REMARK 922        TOTAL FREE ENERGY PREDICTED BY IDOCK:   -6.11 KCAL/MOL
REMARK 923 INTER-LIGAND FREE ENERGY PREDICTED BY IDOCK:   -5.73 KCAL/MOL
REMARK 924 INTRA-LIGAND FREE ENERGY PREDICTED BY IDOCK:   -0.38 KCAL/MOL
REMARK 927      BINDING AFFINITY PREDICTED BY RF-SCORE:    0.00 PKD
ROOT
HETATM    1  C   UNL     1     -13.170  15.722  73.049  1.00  0.00    -0.671 C  
HETATM    2  C   UNL     1     -12.210  15.165  72.004  1.00  0.00    -0.364 C  
ENDROOT
BRANCH   2   3
HETATM    3  N   UNL     1     -12.712  13.958  71.358  1.00  0.00    -0.351 N  
HETATM    4  C   UNL     1     -13.623  13.100  72.095  1.00  0.00    -0.544 C  
HETATM    5  C   UNL     1     -12.108  13.514  70.181  1.00  0.00    -0.354 C  
HETATM    6  O   UNL     1     -11.228  14.142  69.602  1.00  0.00    -0.247 OA 
BRANCH   5   7
HETATM    7  O   UNL     1     -12.598  12.274  69.777  1.00  0.00     0.063 OA 
BRANCH   7   8
HETATM    8  C   UNL     1     -11.692  11.205  69.699  1.00  0.00    -0.339 A  
HETATM    9  C   UNL     1     -11.137  10.909  68.456  1.00  0.00    -0.311 A  
HETATM   10  C   UNL     1     -10.317   9.789  68.326  1.00  0.00    -0.231 A  
HETATM   11  C   UNL     1     -10.068   8.961  69.429  1.00  0.00    -0.202 A  
HETATM   12  C   UNL     1     -10.649   9.236  70.676  1.00  0.00    -0.324 A  
HETATM   13  C   UNL     1     -11.465  10.373  70.795  1.00  0.00    -0.422 A  
BRANCH  12  14
HETATM   14  C   UNL     1     -10.475   8.337  71.898  1.00  0.00    -0.274 C  
HETATM   15  C   UNL     1      -9.031   8.372  72.422  1.00  0.00    -0.309 C  
BRANCH  14  16
HETATM   16  N   UNL     1     -11.036   6.973  71.775  1.00  0.00    -0.235 NA 
HETATM   17  C   UNL     1     -10.989   6.222  73.031  1.00  0.00    -0.242 C  
HETATM   18  C   UNL     1     -12.353   6.871  71.163  1.00  0.00    -0.370 C  
ENDBRANCH  14  16
ENDBRANCH  12  14
ENDBRANCH   7   8
ENDBRANCH   5   7
ENDBRANCH   2   3
TORSDOF 5
ENDMDL
MODEL       65
REMARK 921   NORMALIZED FREE ENERGY PREDICTED BY IDOCK:   -4.26 KCAL/MOL
REMARK 922        TOTAL FREE ENERGY PREDICTED BY IDOCK:   -6.11 KCAL/MOL
REMARK 923 INTER-LIGAND FREE ENERGY PREDICTED BY IDOCK:   -5.71 KCAL/MOL
REMARK 924 INTRA-LIGAND FREE ENERGY PREDICTED BY IDOCK:   -0.40 KCAL/MOL
REMARK 927      BINDING AFFINITY PREDICTED BY RF-SCORE:    0.00 PKD
ROOT
HETATM    1  C   UNL     1     -12.592  15.910  73.793  1.00  0.00    -0.728 C  
HETATM    2  C   UNL     1     -12.261  15.868  72.306  1.00  0.00    -0.496 C  
ENDROOT
BRANCH   2   3
HETATM    3  N   UNL     1     -12.952  14.796  71.601  1.00  0.00    -0.314 N  
HETATM    4  C   UNL     1     -14.272  14.398  72.057  1.00  0.00    -0.552 C  
HETATM    5  C   UNL     1     -12.240  14.003  70.699  1.00  0.00    -0.372 C  
HETATM    6  O   UNL     1     -11.072  14.221  70.395  1.00  0.00    -0.039 OA 
BRANCH   5   7
HETATM    7  O   UNL     1     -12.999  12.935  70.229  1.00  0.00     0.186 OA 
BRANCH   7   8
HETATM    8  C   UNL     1     -12.513  11.637  70.449  1.00  0.00    -0.221 A  
HETATM    9  C   UNL     1     -12.865  11.001  71.637  1.00  0.00    -0.540 A  
HETATM   10  C   UNL     1     -12.312   9.755  71.931  1.00  0.00    -0.417 A  
HETATM   11  C   UNL     1     -11.398   9.160  71.052  1.00  0.00    -0.377 A  
HETATM   12  C   UNL     1     -11.014   9.810  69.870  1.00  0.00    -0.299 A  
HETATM   13  C   UNL     1     -11.587  11.060  69.580  1.00  0.00    -0.390 A  
BRANCH  12  14
HETATM   14  C   UNL     1      -9.973   9.250  68.905  1.00  0.00    -0.181 C  
HETATM   15  C   UNL     1      -8.700  10.111  68.886  1.00  0.00    -0.149 C  
BRANCH  14  16
HETATM   16  N   UNL     1     -10.473   8.890  67.559  1.00  0.00    -0.268 NA 
HETATM   17  C   UNL     1      -9.966   9.774  66.508  1.00  0.00    -0.239 C  
HETATM   18  C   UNL     1     -10.333   7.494  67.171  1.00  0.00    -0.313 C  
ENDBRANCH  14  16
ENDBRANCH  12  14
ENDBRANCH   7   8
ENDBRANCH   5   7
ENDBRANCH   2   3
TORSDOF 5
ENDMDL
MODEL       66
REMARK 921   NORMALIZED FREE ENERGY PREDICTED BY IDOCK:   -4.24 KCAL/MOL
REMARK 922        TOTAL FREE ENERGY PREDICTED BY IDOCK:   -6.08 KCAL/MOL
REMARK 923 INTER-LIGAND FREE ENERGY PREDICTED BY IDOCK:   -5.96 KCAL/MOL
REMARK 924 INTRA-LIGAND FREE ENERGY PREDICTED BY IDOCK:   -0.12 KCAL/MOL
REMARK 927      BINDING AFFINITY PREDICTED BY RF-SCORE:    0.00 PKD
ROOT
HETATM    1  C   UNL     1     -10.190  19.848  68.912  1.00  0.00    -0.399 C  
HETATM    2  C   UNL     1      -9.687  20.373  67.573  1.00  0.00    -0.431 C  
ENDROOT
BRANCH   2   3
HETATM    3  N   UNL     1      -9.486  19.316  66.589  1.00  0.00    -0.327 N  
HETATM    4  C   UNL     1     -10.618  18.885  65.786  1.00  0.00    -0.296 C  
HETATM    5  C   UNL     1      -8.310  18.564  66.626  1.00  0.00    -0.272 C  
HETATM    6  O   UNL     1      -7.385  18.808  67.393  1.00  0.00    -0.220 OA 
BRANCH   5   7
HETATM    7  O   UNL     1      -8.340  17.502  65.725  1.00  0.00    -0.538 OA 
BRANCH   7   8
HETATM    8  C   UNL     1      -8.530  16.211  66.240  1.00  0.00    -0.322 A  
HETATM    9  C   UNL     1      -7.555  15.696  67.089  1.00  0.00    -0.258 A  
HETATM   10  C   UNL     1      -7.663  14.378  67.532  1.00  0.00    -0.210 A  
HETATM   11  C   UNL     1      -8.732  13.576  67.111  1.00  0.00    -0.222 A  
HETATM   12  C   UNL     1      -9.701  14.078  66.230  1.00  0.00    -0.311 A  
HETATM   13  C   UNL     1      -9.585  15.411  65.800  1.00  0.00    -0.368 A  
BRANCH  12  14
HETATM   14  C   UNL     1     -10.850  13.237  65.679  1.00  0.00    -0.279 C  
HETATM   15  C   UNL     1     -11.570  12.465  66.796  1.00  0.00    -0.444 C  
BRANCH  14  16
HETATM   16  N   UNL     1     -10.530  12.413  64.492  1.00  0.00    -0.308 NA 
HETATM   17  C   UNL     1     -10.165  11.038  64.834  1.00  0.00    -0.311 C  
HETATM   18  C   UNL     1     -11.506  12.435  63.411  1.00  0.00    -0.448 C  
ENDBRANCH  14  16
ENDBRANCH  12  14
ENDBRANCH   7   8
ENDBRANCH   5   7
ENDBRANCH   2   3
TORSDOF 5
ENDMDL
MODEL       67
REMARK 921   NORMALIZED FREE ENERGY PREDICTED BY IDOCK:   -4.23 KCAL/MOL
REMARK 922        TOTAL FREE ENERGY PREDICTED BY IDOCK:   -6.07 KCAL/MOL
REMARK 923 INTER-LIGAND FREE ENERGY PREDICTED BY IDOCK:   -5.59 KCAL/MOL
REMARK 924 INTRA-LIGAND FREE ENERGY PREDICTED BY IDOCK:   -0.49 KCAL/MOL
REMARK 927      BINDING AFFINITY PREDICTED BY RF-SCORE:    0.00 PKD
ROOT
HETATM    1  C   UNL     1      -9.986   8.857  71.629  1.00  0.00    -0.397 C  
HETATM    2  C   UNL     1     -10.866   8.844  70.384  1.00  0.00    -0.236 C  
ENDROOT
BRANCH   2   3
HETATM    3  N   UNL     1     -11.698  10.035  70.264  1.00  0.00    -0.262 N  
HETATM    4  C   UNL     1     -13.063   9.985  70.757  1.00  0.00    -0.249 C  
HETATM    5  C   UNL     1     -11.272  11.085  69.449  1.00  0.00    -0.268 C  
HETATM    6  O   UNL     1     -10.178  11.100  68.895  1.00  0.00    -0.198 OA 
BRANCH   5   7
HETATM    7  O   UNL     1     -12.244  12.075  69.321  1.00  0.00    -0.215 OA 
BRANCH   7   8
HETATM    8  C   UNL     1     -11.932  13.363  69.781  1.00  0.00    -0.330 A  
HETATM    9  C   UNL     1     -12.338  13.714  71.066  1.00  0.00    -0.436 A  
HETATM   10  C   UNL     1     -12.137  15.020  71.511  1.00  0.00    -0.403 A  
HETATM   11  C   UNL     1     -11.548  15.973  70.669  1.00  0.00    -0.409 A  
HETATM   12  C   UNL     1     -11.165  15.634  69.363  1.00  0.00    -0.313 A  
HETATM   13  C   UNL     1     -11.365  14.313  68.931  1.00  0.00    -0.302 A  
BRANCH  12  14
HETATM   14  C   UNL     1     -10.584  16.640  68.373  1.00  0.00    -0.343 C  
HETATM   15  C   UNL     1     -10.189  15.966  67.049  1.00  0.00    -0.283 C  
BRANCH  14  16
HETATM   16  N   UNL     1      -9.548  17.548  68.915  1.00  0.00    -0.259 NA 
HETATM   17  C   UNL     1      -8.206  17.247  68.413  1.00  0.00    -0.260 C  
HETATM   18  C   UNL     1      -9.826  18.974  68.818  1.00  0.00    -0.425 C  
ENDBRANCH  14  16
ENDBRANCH  12  14
ENDBRANCH   7   8
ENDBRANCH   5   7
ENDBRANCH   2   3
TORSDOF 5
ENDMDL
MODEL       68
REMARK 921   NORMALIZED FREE ENERGY PREDICTED BY IDOCK:   -4.22 KCAL/MOL
REMARK 922        TOTAL FREE ENERGY PREDICTED BY IDOCK:   -6.07 KCAL/MOL
REMARK 923 INTER-LIGAND FREE ENERGY PREDICTED BY IDOCK:   -5.58 KCAL/MOL
REMARK 924 INTRA-LIGAND FREE ENERGY PREDICTED BY IDOCK:   -0.49 KCAL/MOL
REMARK 927      BINDING AFFINITY PREDICTED BY RF-SCORE:    0.00 PKD
ROOT
HETATM    1  C   UNL     1     -11.352   4.178  73.490  1.00  0.00    -0.297 C  
HETATM    2  C   UNL     1     -10.634   5.061  72.477  1.00  0.00    -0.219 C  
ENDROOT
BRANCH   2   3
HETATM    3  N   UNL     1     -10.784   6.484  72.757  1.00  0.00    -0.229 N  
HETATM    4  C   UNL     1     -10.033   7.061  73.858  1.00  0.00    -0.332 C  
HETATM    5  C   UNL     1     -11.828   7.190  72.157  1.00  0.00    -0.277 C  
HETATM    6  O   UNL     1     -12.580   6.694  71.325  1.00  0.00    -0.317 OA 
BRANCH   5   7
HETATM    7  O   UNL     1     -11.926   8.492  72.643  1.00  0.00    -0.373 OA 
BRANCH   7   8
HETATM    8  C   UNL     1     -11.832   9.545  71.721  1.00  0.00    -0.360 A  
HETATM    9  C   UNL     1     -12.759  10.579  71.814  1.00  0.00    -0.508 A  
HETATM   10  C   UNL     1     -12.757  11.584  70.847  1.00  0.00    -0.372 A  
HETATM   11  C   UNL     1     -11.844  11.544  69.785  1.00  0.00    -0.429 A  
HETATM   12  C   UNL     1     -10.928  10.488  69.668  1.00  0.00    -0.333 A  
HETATM   13  C   UNL     1     -10.935   9.487  70.654  1.00  0.00    -0.370 A  
BRANCH  12  14
HETATM   14  C   UNL     1      -9.956  10.348  68.500  1.00  0.00    -0.167 C  
HETATM   15  C   UNL     1      -9.168  11.646  68.262  1.00  0.00    -0.187 C  
BRANCH  14  16
HETATM   16  N   UNL     1     -10.517   9.753  67.266  1.00  0.00    -0.255 NA 
HETATM   17  C   UNL     1     -10.201  10.527  66.065  1.00  0.00    -0.245 C  
HETATM   18  C   UNL     1     -10.247   8.338  67.053  1.00  0.00    -0.310 C  
ENDBRANCH  14  16
ENDBRANCH  12  14
ENDBRANCH   7   8
ENDBRANCH   5   7
ENDBRANCH   2   3
TORSDOF 5
ENDMDL
MODEL       69
REMARK 921   NORMALIZED FREE ENERGY PREDICTED BY IDOCK:   -4.21 KCAL/MOL
REMARK 922        TOTAL FREE ENERGY PREDICTED BY IDOCK:   -6.05 KCAL/MOL
REMARK 923 INTER-LIGAND FREE ENERGY PREDICTED BY IDOCK:   -5.74 KCAL/MOL
REMARK 924 INTRA-LIGAND FREE ENERGY PREDICTED BY IDOCK:   -0.31 KCAL/MOL
REMARK 927      BINDING AFFINITY PREDICTED BY RF-SCORE:    0.00 PKD
ROOT
HETATM    1  C   UNL     1      -8.269  20.024  67.484  1.00  0.00    -0.369 C  
HETATM    2  C   UNL     1      -8.165  18.528  67.210  1.00  0.00    -0.249 C  
ENDROOT
BRANCH   2   3
HETATM    3  N   UNL     1      -9.436  17.833  67.367  1.00  0.00    -0.251 N  
HETATM    4  C   UNL     1     -10.322  18.233  68.446  1.00  0.00    -0.343 C  
HETATM    5  C   UNL     1      -9.652  16.641  66.672  1.00  0.00    -0.263 C  
HETATM    6  O   UNL     1      -8.857  16.191  65.854  1.00  0.00    -0.343 OA 
BRANCH   5   7
HETATM    7  O   UNL     1     -10.844  16.026  67.046  1.00  0.00    -0.309 OA 
BRANCH   7   8
HETATM    8  C   UNL     1     -11.139  14.774  66.486  1.00  0.00    -0.334 A  
HETATM    9  C   UNL     1     -11.666  14.742  65.197  1.00  0.00    -0.337 A  
HETATM   10  C   UNL     1     -12.068  13.522  64.656  1.00  0.00    -0.450 A  
HETATM   11  C   UNL     1     -11.959  12.343  65.406  1.00  0.00    -0.457 A  
HETATM   12  C   UNL     1     -11.459  12.373  66.716  1.00  0.00    -0.423 A  
HETATM   13  C   UNL     1     -11.049  13.607  67.246  1.00  0.00    -0.309 A  
BRANCH  12  14
HETATM   14  C   UNL     1     -11.379  11.138  67.610  1.00  0.00    -0.284 C  
HETATM   15  C   UNL     1     -11.817  11.454  69.049  1.00  0.00    -0.415 C  
BRANCH  14  16
HETATM   16  N   UNL     1     -10.120  10.364  67.524  1.00  0.00    -0.183 NA 
HETATM   17  C   UNL     1      -9.698   9.816  68.814  1.00  0.00    -0.161 C  
HETATM   18  C   UNL     1     -10.061   9.344  66.487  1.00  0.00    -0.262 C  
ENDBRANCH  14  16
ENDBRANCH  12  14
ENDBRANCH   7   8
ENDBRANCH   5   7
ENDBRANCH   2   3
TORSDOF 5
ENDMDL
MODEL       70
REMARK 921   NORMALIZED FREE ENERGY PREDICTED BY IDOCK:   -4.21 KCAL/MOL
REMARK 922        TOTAL FREE ENERGY PREDICTED BY IDOCK:   -6.05 KCAL/MOL
REMARK 923 INTER-LIGAND FREE ENERGY PREDICTED BY IDOCK:   -5.65 KCAL/MOL
REMARK 924 INTRA-LIGAND FREE ENERGY PREDICTED BY IDOCK:   -0.40 KCAL/MOL
REMARK 927      BINDING AFFINITY PREDICTED BY RF-SCORE:    0.00 PKD
ROOT
HETATM    1  C   UNL     1     -10.224   8.739  66.571  1.00  0.00    -0.314 C  
HETATM    2  C   UNL     1      -9.691  10.035  67.171  1.00  0.00    -0.174 C  
ENDROOT
BRANCH   2   3
HETATM    3  N   UNL     1     -10.621  11.148  67.036  1.00  0.00    -0.239 N  
HETATM    4  C   UNL     1     -10.635  11.900  65.793  1.00  0.00    -0.267 C  
HETATM    5  C   UNL     1     -11.270  11.636  68.172  1.00  0.00    -0.263 C  
HETATM    6  O   UNL     1     -11.170  11.113  69.276  1.00  0.00    -0.225 OA 
BRANCH   5   7
HETATM    7  O   UNL     1     -12.001  12.791  67.901  1.00  0.00    -0.346 OA 
BRANCH   7   8
HETATM    8  C   UNL     1     -11.644  13.966  68.578  1.00  0.00    -0.332 A  
HETATM    9  C   UNL     1     -12.193  14.187  69.839  1.00  0.00    -0.416 A  
HETATM   10  C   UNL     1     -11.940  15.394  70.490  1.00  0.00    -0.394 A  
HETATM   11  C   UNL     1     -11.158  16.381  69.875  1.00  0.00    -0.313 A  
HETATM   12  C   UNL     1     -10.629  16.178  68.592  1.00  0.00    -0.283 A  
HETATM   13  C   UNL     1     -10.883  14.953  67.951  1.00  0.00    -0.276 A  
BRANCH  12  14
HETATM   14  C   UNL     1      -9.828  17.237  67.838  1.00  0.00    -0.283 C  
HETATM   15  C   UNL     1      -8.515  17.573  68.563  1.00  0.00    -0.280 C  
BRANCH  14  16
HETATM   16  N   UNL     1     -10.592  18.427  67.400  1.00  0.00    -0.420 NA 
HETATM   17  C   UNL     1     -10.249  19.634  68.153  1.00  0.00    -0.461 C  
HETATM   18  C   UNL     1     -10.600  18.696  65.969  1.00  0.00    -0.365 C  
ENDBRANCH  14  16
ENDBRANCH  12  14
ENDBRANCH   7   8
ENDBRANCH   5   7
ENDBRANCH   2   3
TORSDOF 5
ENDMDL
MODEL       71
REMARK 921   NORMALIZED FREE ENERGY PREDICTED BY IDOCK:   -4.19 KCAL/MOL
REMARK 922        TOTAL FREE ENERGY PREDICTED BY IDOCK:   -6.02 KCAL/MOL
REMARK 923 INTER-LIGAND FREE ENERGY PREDICTED BY IDOCK:   -5.69 KCAL/MOL
REMARK 924 INTRA-LIGAND FREE ENERGY PREDICTED BY IDOCK:   -0.33 KCAL/MOL
REMARK 927      BINDING AFFINITY PREDICTED BY RF-SCORE:    0.00 PKD
ROOT
HETATM    1  C   UNL     1     -10.251   8.751  71.866  1.00  0.00    -0.415 C  
HETATM    2  C   UNL     1     -10.827   8.976  70.473  1.00  0.00    -0.251 C  
ENDROOT
BRANCH   2   3
HETATM    3  N   UNL     1     -11.654  10.173  70.388  1.00  0.00    -0.294 N  
HETATM    4  C   UNL     1     -12.961  10.165  71.022  1.00  0.00    -0.385 C  
HETATM    5  C   UNL     1     -11.305  11.180  69.486  1.00  0.00    -0.290 C  
HETATM    6  O   UNL     1     -10.275  11.155  68.821  1.00  0.00    -0.195 OA 
BRANCH   5   7
HETATM    7  O   UNL     1     -12.274  12.178  69.416  1.00  0.00    -0.207 OA 
BRANCH   7   8
HETATM    8  C   UNL     1     -11.925  13.463  69.858  1.00  0.00    -0.338 A  
HETATM    9  C   UNL     1     -12.535  13.944  71.014  1.00  0.00    -0.452 A  
HETATM   10  C   UNL     1     -12.288  15.256  71.419  1.00  0.00    -0.424 A  
HETATM   11  C   UNL     1     -11.452  16.086  70.660  1.00  0.00    -0.427 A  
HETATM   12  C   UNL     1     -10.860  15.618  69.477  1.00  0.00    -0.271 A  
HETATM   13  C   UNL     1     -11.109  14.291  69.087  1.00  0.00    -0.291 A  
BRANCH  12  14
HETATM   14  C   UNL     1      -9.997  16.490  68.570  1.00  0.00    -0.251 C  
HETATM   15  C   UNL     1     -10.107  17.977  68.945  1.00  0.00    -0.352 C  
BRANCH  14  16
HETATM   16  N   UNL     1     -10.122  16.227  67.119  1.00  0.00    -0.262 NA 
HETATM   17  C   UNL     1     -10.453  17.427  66.348  1.00  0.00    -0.267 C  
HETATM   18  C   UNL     1      -9.023  15.502  66.498  1.00  0.00    -0.312 C  
ENDBRANCH  14  16
ENDBRANCH  12  14
ENDBRANCH   7   8
ENDBRANCH   5   7
ENDBRANCH   2   3
TORSDOF 5
ENDMDL
MODEL       72
REMARK 921   NORMALIZED FREE ENERGY PREDICTED BY IDOCK:   -4.18 KCAL/MOL
REMARK 922        TOTAL FREE ENERGY PREDICTED BY IDOCK:   -6.01 KCAL/MOL
REMARK 923 INTER-LIGAND FREE ENERGY PREDICTED BY IDOCK:   -5.59 KCAL/MOL
REMARK 924 INTRA-LIGAND FREE ENERGY PREDICTED BY IDOCK:   -0.42 KCAL/MOL
REMARK 927      BINDING AFFINITY PREDICTED BY RF-SCORE:    0.00 PKD
ROOT
HETATM    1  C   UNL     1     -11.923   6.465  71.955  1.00  0.00    -0.381 C  
HETATM    2  C   UNL     1     -11.555   6.879  70.535  1.00  0.00    -0.346 C  
ENDROOT
BRANCH   2   3
HETATM    3  N   UNL     1     -10.739   8.086  70.489  1.00  0.00    -0.225 N  
HETATM    4  C   UNL     1     -10.604   8.883  71.695  1.00  0.00    -0.352 C  
HETATM    5  C   UNL     1     -10.340   8.592  69.250  1.00  0.00    -0.221 C  
HETATM    6  O   UNL     1     -10.563   8.018  68.190  1.00  0.00    -0.193 OA 
BRANCH   5   7
HETATM    7  O   UNL     1      -9.703   9.825  69.370  1.00  0.00    -0.179 OA 
BRANCH   7   8
HETATM    8  C   UNL     1     -10.296  10.933  68.746  1.00  0.00    -0.198 A  
HETATM    9  C   UNL     1     -11.312  11.598  69.426  1.00  0.00    -0.342 A  
HETATM   10  C   UNL     1     -11.992  12.636  68.788  1.00  0.00    -0.279 A  
HETATM   11  C   UNL     1     -11.668  12.992  67.472  1.00  0.00    -0.421 A  
HETATM   12  C   UNL     1     -10.666  12.304  66.771  1.00  0.00    -0.272 A  
HETATM   13  C   UNL     1      -9.983  11.268  67.428  1.00  0.00    -0.206 A  
BRANCH  12  14
HETATM   14  C   UNL     1     -10.313  12.596  65.315  1.00  0.00    -0.289 C  
HETATM   15  C   UNL     1     -10.302  14.106  65.028  1.00  0.00    -0.443 C  
BRANCH  14  16
HETATM   16  N   UNL     1     -11.045  11.799  64.305  1.00  0.00    -0.342 NA 
HETATM   17  C   UNL     1     -12.123  12.549  63.659  1.00  0.00    -0.554 C  
HETATM   18  C   UNL     1     -10.231  11.110  63.314  1.00  0.00    -0.350 C  
ENDBRANCH  14  16
ENDBRANCH  12  14
ENDBRANCH   7   8
ENDBRANCH   5   7
ENDBRANCH   2   3
TORSDOF 5
ENDMDL
MODEL       73
REMARK 921   NORMALIZED FREE ENERGY PREDICTED BY IDOCK:   -4.18 KCAL/MOL
REMARK 922        TOTAL FREE ENERGY PREDICTED BY IDOCK:   -6.01 KCAL/MOL
REMARK 923 INTER-LIGAND FREE ENERGY PREDICTED BY IDOCK:   -5.64 KCAL/MOL
REMARK 924 INTRA-LIGAND FREE ENERGY PREDICTED BY IDOCK:   -0.37 KCAL/MOL
REMARK 927      BINDING AFFINITY PREDICTED BY RF-SCORE:    0.00 PKD
ROOT
HETATM    1  C   UNL     1      -7.517  18.268  67.223  1.00  0.00    -0.222 C  
HETATM    2  C   UNL     1      -8.467  18.306  68.414  1.00  0.00    -0.303 C  
ENDROOT
BRANCH   2   3
HETATM    3  N   UNL     1      -9.710  17.584  68.173  1.00  0.00    -0.289 N  
HETATM    4  C   UNL     1     -10.784  18.259  67.466  1.00  0.00    -0.355 C  
HETATM    5  C   UNL     1      -9.945  16.386  68.851  1.00  0.00    -0.257 C  
HETATM    6  O   UNL     1      -9.112  15.854  69.576  1.00  0.00    -0.256 OA 
BRANCH   5   7
HETATM    7  O   UNL     1     -11.233  15.903  68.629  1.00  0.00    -0.318 OA 
BRANCH   7   8
HETATM    8  C   UNL     1     -11.365  14.623  68.070  1.00  0.00    -0.311 A  
HETATM    9  C   UNL     1     -11.698  14.531  66.721  1.00  0.00    -0.393 A  
HETATM   10  C   UNL     1     -11.940  13.276  66.163  1.00  0.00    -0.470 A  
HETATM   11  C   UNL     1     -11.869  12.123  66.956  1.00  0.00    -0.288 A  
HETATM   12  C   UNL     1     -11.566  12.212  68.323  1.00  0.00    -0.382 A  
HETATM   13  C   UNL     1     -11.314  13.481  68.869  1.00  0.00    -0.332 A  
BRANCH  12  14
HETATM   14  C   UNL     1     -11.540  11.004  69.256  1.00  0.00    -0.314 C  
HETATM   15  C   UNL     1     -12.259  11.299  70.582  1.00  0.00    -0.489 C  
BRANCH  14  16
HETATM   16  N   UNL     1     -10.223  10.349  69.421  1.00  0.00    -0.227 NA 
HETATM   17  C   UNL     1     -10.160   9.483  70.600  1.00  0.00    -0.286 C  
HETATM   18  C   UNL     1      -9.692   9.665  68.250  1.00  0.00    -0.146 C  
ENDBRANCH  14  16
ENDBRANCH  12  14
ENDBRANCH   7   8
ENDBRANCH   5   7
ENDBRANCH   2   3
TORSDOF 5
ENDMDL
MODEL       74
REMARK 921   NORMALIZED FREE ENERGY PREDICTED BY IDOCK:   -4.16 KCAL/MOL
REMARK 922        TOTAL FREE ENERGY PREDICTED BY IDOCK:   -5.98 KCAL/MOL
REMARK 923 INTER-LIGAND FREE ENERGY PREDICTED BY IDOCK:   -5.64 KCAL/MOL
REMARK 924 INTRA-LIGAND FREE ENERGY PREDICTED BY IDOCK:   -0.34 KCAL/MOL
REMARK 927      BINDING AFFINITY PREDICTED BY RF-SCORE:    0.00 PKD
ROOT
HETATM    1  C   UNL     1     -11.415   6.373  69.763  1.00  0.00    -0.468 C  
HETATM    2  C   UNL     1     -10.366   7.414  69.390  1.00  0.00    -0.210 C  
ENDROOT
BRANCH   2   3
HETATM    3  N   UNL     1     -10.313   7.678  67.958  1.00  0.00    -0.201 N  
HETATM    4  C   UNL     1     -10.911   6.717  67.048  1.00  0.00    -0.393 C  
HETATM    5  C   UNL     1      -9.468   8.682  67.480  1.00  0.00    -0.149 C  
HETATM    6  O   UNL     1      -8.829   9.425  68.217  1.00  0.00    -0.128 OA 
BRANCH   5   7
HETATM    7  O   UNL     1      -9.417   8.704  66.088  1.00  0.00    -0.223 OA 
BRANCH   7   8
HETATM    8  C   UNL     1      -9.875   9.859  65.435  1.00  0.00    -0.313 A  
HETATM    9  C   UNL     1      -9.352  10.147  64.176  1.00  0.00    -0.340 A  
HETATM   10  C   UNL     1      -9.707  11.340  63.549  1.00  0.00    -0.364 A  
HETATM   11  C   UNL     1     -10.565  12.248  64.185  1.00  0.00    -0.408 A  
HETATM   12  C   UNL     1     -11.069  11.978  65.466  1.00  0.00    -0.361 A  
HETATM   13  C   UNL     1     -10.711  10.768  66.082  1.00  0.00    -0.187 A  
BRANCH  12  14
HETATM   14  C   UNL     1     -11.951  12.953  66.242  1.00  0.00    -0.408 C  
HETATM   15  C   UNL     1     -12.730  13.883  65.298  1.00  0.00    -0.485 C  
BRANCH  14  16
HETATM   16  N   UNL     1     -11.293  13.656  67.367  1.00  0.00    -0.302 NA 
HETATM   17  C   UNL     1     -11.048  15.072  67.089  1.00  0.00    -0.332 C  
HETATM   18  C   UNL     1     -11.904  13.486  68.677  1.00  0.00    -0.369 C  
ENDBRANCH  14  16
ENDBRANCH  12  14
ENDBRANCH   7   8
ENDBRANCH   5   7
ENDBRANCH   2   3
TORSDOF 5
ENDMDL
MODEL       75
REMARK 921   NORMALIZED FREE ENERGY PREDICTED BY IDOCK:   -4.15 KCAL/MOL
REMARK 922        TOTAL FREE ENERGY PREDICTED BY IDOCK:   -5.97 KCAL/MOL
REMARK 923 INTER-LIGAND FREE ENERGY PREDICTED BY IDOCK:   -5.70 KCAL/MOL
REMARK 924 INTRA-LIGAND FREE ENERGY PREDICTED BY IDOCK:   -0.27 KCAL/MOL
REMARK 927      BINDING AFFINITY PREDICTED BY RF-SCORE:    0.00 PKD
ROOT
HETATM    1  C   UNL     1     -10.052  20.294  66.381  1.00  0.00    -0.491 C  
HETATM    2  C   UNL     1     -10.647  18.999  65.839  1.00  0.00    -0.393 C  
ENDROOT
BRANCH   2   3
HETATM    3  N   UNL     1     -10.316  17.837  66.654  1.00  0.00    -0.352 N  
HETATM    4  C   UNL     1      -9.793  18.050  67.992  1.00  0.00    -0.323 C  
HETATM    5  C   UNL     1     -10.244  16.580  66.052  1.00  0.00    -0.356 C  
HETATM    6  O   UNL     1     -10.540  16.383  64.878  1.00  0.00    -0.677 OA 
BRANCH   5   7
HETATM    7  O   UNL     1      -9.769  15.607  66.928  1.00  0.00    -0.222 OA 
BRANCH   7   8
HETATM    8  C   UNL     1     -10.258  14.299  66.783  1.00  0.00    -0.272 A  
HETATM    9  C   UNL     1     -11.542  14.027  67.248  1.00  0.00    -0.396 A  
HETATM   10  C   UNL     1     -12.014  12.715  67.214  1.00  0.00    -0.321 A  
HETATM   11  C   UNL     1     -11.200  11.681  66.734  1.00  0.00    -0.371 A  
HETATM   12  C   UNL     1      -9.894  11.944  66.294  1.00  0.00    -0.246 A  
HETATM   13  C   UNL     1      -9.434  13.271  66.324  1.00  0.00    -0.196 A  
BRANCH  12  14
HETATM   14  C   UNL     1      -8.932  10.855  65.825  1.00  0.00    -0.193 C  
HETATM   15  C   UNL     1      -7.555  10.992  66.494  1.00  0.00    -0.146 C  
BRANCH  14  16
HETATM   16  N   UNL     1      -8.869  10.642  64.361  1.00  0.00    -0.189 NA 
HETATM   17  C   UNL     1      -8.497   9.273  64.000  1.00  0.00    -0.193 C  
HETATM   18  C   UNL     1     -10.028  11.080  63.597  1.00  0.00    -0.361 C  
ENDBRANCH  14  16
ENDBRANCH  12  14
ENDBRANCH   7   8
ENDBRANCH   5   7
ENDBRANCH   2   3
TORSDOF 5
ENDMDL
MODEL       76
REMARK 921   NORMALIZED FREE ENERGY PREDICTED BY IDOCK:   -4.14 KCAL/MOL
REMARK 922        TOTAL FREE ENERGY PREDICTED BY IDOCK:   -5.96 KCAL/MOL
REMARK 923 INTER-LIGAND FREE ENERGY PREDICTED BY IDOCK:   -5.51 KCAL/MOL
REMARK 924 INTRA-LIGAND FREE ENERGY PREDICTED BY IDOCK:   -0.44 KCAL/MOL
REMARK 927      BINDING AFFINITY PREDICTED BY RF-SCORE:    0.00 PKD
ROOT
HETATM    1  C   UNL     1     -11.564  15.236  68.348  1.00  0.00    -0.365 C  
HETATM    2  C   UNL     1     -11.982  13.774  68.236  1.00  0.00    -0.357 C  
ENDROOT
BRANCH   2   3
HETATM    3  N   UNL     1     -12.250  13.159  69.530  1.00  0.00    -0.217 N  
HETATM    4  C   UNL     1     -12.462  14.019  70.681  1.00  0.00    -0.365 C  
HETATM    5  C   UNL     1     -12.029  11.791  69.694  1.00  0.00    -0.312 C  
HETATM    6  O   UNL     1     -11.706  11.050  68.770  1.00  0.00    -0.295 OA 
BRANCH   5   7
HETATM    7  O   UNL     1     -12.183  11.390  71.019  1.00  0.00    -0.346 OA 
BRANCH   7   8
HETATM    8  C   UNL     1     -12.565  10.062  71.262  1.00  0.00    -0.393 A  
HETATM    9  C   UNL     1     -13.906   9.728  71.096  1.00  0.00    -0.038 A  
HETATM   10  C   UNL     1     -14.334   8.443  71.432  1.00  0.00    -0.425 A  
HETATM   11  C   UNL     1     -13.428   7.507  71.947  1.00  0.00    -0.308 A  
HETATM   12  C   UNL     1     -12.082   7.848  72.146  1.00  0.00    -0.371 A  
HETATM   13  C   UNL     1     -11.662   9.141  71.794  1.00  0.00    -0.456 A  
BRANCH  12  14
HETATM   14  C   UNL     1     -11.060   6.898  72.767  1.00  0.00    -0.269 C  
HETATM   15  C   UNL     1      -9.639   7.482  72.708  1.00  0.00    -0.229 C  
BRANCH  14  16
HETATM   16  N   UNL     1     -11.147   5.487  72.328  1.00  0.00    -0.252 NA 
HETATM   17  C   UNL     1     -10.105   5.124  71.367  1.00  0.00    -0.200 C  
HETATM   18  C   UNL     1     -11.244   4.490  73.385  1.00  0.00    -0.315 C  
ENDBRANCH  14  16
ENDBRANCH  12  14
ENDBRANCH   7   8
ENDBRANCH   5   7
ENDBRANCH   2   3
TORSDOF 5
ENDMDL
MODEL       77
REMARK 921   NORMALIZED FREE ENERGY PREDICTED BY IDOCK:   -4.14 KCAL/MOL
REMARK 922        TOTAL FREE ENERGY PREDICTED BY IDOCK:   -5.95 KCAL/MOL
REMARK 923 INTER-LIGAND FREE ENERGY PREDICTED BY IDOCK:   -5.55 KCAL/MOL
REMARK 924 INTRA-LIGAND FREE ENERGY PREDICTED BY IDOCK:   -0.41 KCAL/MOL
REMARK 927      BINDING AFFINITY PREDICTED BY RF-SCORE:    0.00 PKD
ROOT
HETATM    1  C   UNL     1      -9.605  15.492  66.570  1.00  0.00    -0.295 C  
HETATM    2  C   UNL     1     -11.058  15.267  66.968  1.00  0.00    -0.305 C  
ENDROOT
BRANCH   2   3
HETATM    3  N   UNL     1     -11.445  13.861  66.936  1.00  0.00    -0.334 N  
HETATM    4  C   UNL     1     -12.049  13.331  65.726  1.00  0.00    -0.441 C  
HETATM    5  C   UNL     1     -11.483  13.137  68.129  1.00  0.00    -0.314 C  
HETATM    6  O   UNL     1     -11.115  13.600  69.204  1.00  0.00    -0.253 OA 
BRANCH   5   7
HETATM    7  O   UNL     1     -12.016  11.863  67.950  1.00  0.00    -0.556 OA 
BRANCH   7   8
HETATM    8  C   UNL     1     -11.250  10.767  68.378  1.00  0.00    -0.284 A  
HETATM    9  C   UNL     1     -10.629   9.986  67.407  1.00  0.00    -0.330 A  
HETATM   10  C   UNL     1      -9.951   8.831  67.794  1.00  0.00    -0.243 A  
HETATM   11  C   UNL     1      -9.910   8.451  69.142  1.00  0.00    -0.183 A  
HETATM   12  C   UNL     1     -10.561   9.216  70.121  1.00  0.00    -0.258 A  
HETATM   13  C   UNL     1     -11.232  10.383  69.719  1.00  0.00    -0.353 A  
BRANCH  12  14
HETATM   14  C   UNL     1     -10.614   8.822  71.595  1.00  0.00    -0.331 C  
HETATM   15  C   UNL     1      -9.249   8.323  72.095  1.00  0.00    -0.289 C  
BRANCH  14  16
HETATM   16  N   UNL     1     -11.749   7.956  71.987  1.00  0.00    -0.294 NA 
HETATM   17  C   UNL     1     -11.339   6.818  72.811  1.00  0.00    -0.190 C  
HETATM   18  C   UNL     1     -12.900   8.628  72.571  1.00  0.00    -0.292 C  
ENDBRANCH  14  16
ENDBRANCH  12  14
ENDBRANCH   7   8
ENDBRANCH   5   7
ENDBRANCH   2   3
TORSDOF 5
ENDMDL
MODEL       78
REMARK 921   NORMALIZED FREE ENERGY PREDICTED BY IDOCK:   -4.12 KCAL/MOL
REMARK 922        TOTAL FREE ENERGY PREDICTED BY IDOCK:   -5.93 KCAL/MOL
REMARK 923 INTER-LIGAND FREE ENERGY PREDICTED BY IDOCK:   -5.44 KCAL/MOL
REMARK 924 INTRA-LIGAND FREE ENERGY PREDICTED BY IDOCK:   -0.49 KCAL/MOL
REMARK 927      BINDING AFFINITY PREDICTED BY RF-SCORE:    0.00 PKD
ROOT
HETATM    1  C   UNL     1     -11.923  12.121  63.795  1.00  0.00    -0.607 C  
HETATM    2  C   UNL     1     -11.898  12.135  65.319  1.00  0.00    -0.295 C  
ENDROOT
BRANCH   2   3
HETATM    3  N   UNL     1     -10.781  11.383  65.875  1.00  0.00    -0.267 N  
HETATM    4  C   UNL     1      -9.701  10.979  64.991  1.00  0.00    -0.254 C  
HETATM    5  C   UNL     1     -10.896  10.837  67.155  1.00  0.00    -0.277 C  
HETATM    6  O   UNL     1     -11.863  11.037  67.883  1.00  0.00    -0.600 OA 
BRANCH   5   7
HETATM    7  O   UNL     1      -9.811  10.024  67.477  1.00  0.00    -0.164 OA 
BRANCH   7   8
HETATM    8  C   UNL     1     -10.076   8.704  67.871  1.00  0.00    -0.203 A  
HETATM    9  C   UNL     1     -10.748   7.877  66.975  1.00  0.00    -0.289 A  
HETATM   10  C   UNL     1     -11.119   6.594  67.378  1.00  0.00    -0.398 A  
HETATM   11  C   UNL     1     -10.834   6.150  68.676  1.00  0.00    -0.403 A  
HETATM   12  C   UNL     1     -10.186   6.989  69.594  1.00  0.00    -0.212 A  
HETATM   13  C   UNL     1      -9.810   8.275  69.172  1.00  0.00    -0.179 A  
BRANCH  12  14
HETATM   14  C   UNL     1      -9.909   6.592  71.042  1.00  0.00    -0.182 C  
HETATM   15  C   UNL     1      -9.197   5.233  71.128  1.00  0.00    -0.179 C  
BRANCH  14  16
HETATM   16  N   UNL     1     -11.050   6.731  71.974  1.00  0.00    -0.241 NA 
HETATM   17  C   UNL     1     -11.142   5.628  72.932  1.00  0.00    -0.292 C  
HETATM   18  C   UNL     1     -11.176   8.014  72.652  1.00  0.00    -0.397 C  
ENDBRANCH  14  16
ENDBRANCH  12  14
ENDBRANCH   7   8
ENDBRANCH   5   7
ENDBRANCH   2   3
TORSDOF 5
ENDMDL
MODEL       79
REMARK 921   NORMALIZED FREE ENERGY PREDICTED BY IDOCK:   -4.12 KCAL/MOL
REMARK 922        TOTAL FREE ENERGY PREDICTED BY IDOCK:   -5.93 KCAL/MOL
REMARK 923 INTER-LIGAND FREE ENERGY PREDICTED BY IDOCK:   -5.54 KCAL/MOL
REMARK 924 INTRA-LIGAND FREE ENERGY PREDICTED BY IDOCK:   -0.38 KCAL/MOL
REMARK 927      BINDING AFFINITY PREDICTED BY RF-SCORE:    0.00 PKD
ROOT
HETATM    1  C   UNL     1      -8.059  15.523  66.884  1.00  0.00    -0.284 C  
HETATM    2  C   UNL     1      -8.809  15.470  68.210  1.00  0.00    -0.179 C  
ENDROOT
BRANCH   2   3
HETATM    3  N   UNL     1     -10.133  14.872  68.089  1.00  0.00    -0.220 N  
HETATM    4  C   UNL     1     -11.279  15.745  67.907  1.00  0.00    -0.313 C  
HETATM    5  C   UNL     1     -10.307  13.527  68.422  1.00  0.00    -0.248 C  
HETATM    6  O   UNL     1      -9.376  12.787  68.724  1.00  0.00    -0.030 OA 
BRANCH   5   7
HETATM    7  O   UNL     1     -11.648  13.152  68.401  1.00  0.00    -0.292 OA 
BRANCH   7   8
HETATM    8  C   UNL     1     -12.209  12.660  69.589  1.00  0.00    -0.114 A  
HETATM    9  C   UNL     1     -12.613  13.581  70.552  1.00  0.00    -0.311 A  
HETATM   10  C   UNL     1     -13.076  13.120  71.784  1.00  0.00    -0.478 A  
HETATM   11  C   UNL     1     -13.116  11.747  72.057  1.00  0.00    -0.436 A  
HETATM   12  C   UNL     1     -12.680  10.814  71.103  1.00  0.00    -0.532 A  
HETATM   13  C   UNL     1     -12.226  11.292  69.863  1.00  0.00    -0.358 A  
BRANCH  12  14
HETATM   14  C   UNL     1     -12.633   9.311  71.362  1.00  0.00    -0.336 C  
HETATM   15  C   UNL     1     -13.940   8.805  71.993  1.00  0.00    -0.511 C  
BRANCH  14  16
HETATM   16  N   UNL     1     -11.412   8.814  72.036  1.00  0.00    -0.361 NA 
HETATM   17  C   UNL     1     -11.611   7.525  72.699  1.00  0.00    -0.282 C  
HETATM   18  C   UNL     1     -10.196   8.800  71.236  1.00  0.00    -0.262 C  
ENDBRANCH  14  16
ENDBRANCH  12  14
ENDBRANCH   7   8
ENDBRANCH   5   7
ENDBRANCH   2   3
TORSDOF 5
ENDMDL
MODEL       80
REMARK 921   NORMALIZED FREE ENERGY PREDICTED BY IDOCK:   -4.11 KCAL/MOL
REMARK 922        TOTAL FREE ENERGY PREDICTED BY IDOCK:   -5.92 KCAL/MOL
REMARK 923 INTER-LIGAND FREE ENERGY PREDICTED BY IDOCK:   -6.12 KCAL/MOL
REMARK 924 INTRA-LIGAND FREE ENERGY PREDICTED BY IDOCK:    0.20 KCAL/MOL
REMARK 927      BINDING AFFINITY PREDICTED BY RF-SCORE:    0.00 PKD
ROOT
HETATM    1  C   UNL     1     -12.388  16.059  73.090  1.00  0.00    -0.637 C  
HETATM    2  C   UNL     1     -13.311  15.509  72.009  1.00  0.00    -0.472 C  
ENDROOT
BRANCH   2   3
HETATM    3  N   UNL     1     -12.701  14.436  71.234  1.00  0.00    -0.323 N  
HETATM    4  C   UNL     1     -12.058  14.764  69.973  1.00  0.00    -0.329 C  
HETATM    5  C   UNL     1     -12.980  13.109  71.568  1.00  0.00    -0.321 C  
HETATM    6  O   UNL     1     -13.644  12.792  72.549  1.00  0.00    -0.538 OA 
BRANCH   5   7
HETATM    7  O   UNL     1     -12.448  12.214  70.643  1.00  0.00    -0.316 OA 
BRANCH   7   8
HETATM    8  C   UNL     1     -12.356  10.864  71.015  1.00  0.00    -0.393 A  
HETATM    9  C   UNL     1     -13.476  10.267  71.588  1.00  0.00    -0.360 A  
HETATM   10  C   UNL     1     -13.382   8.960  72.065  1.00  0.00    -0.471 A  
HETATM   11  C   UNL     1     -12.169   8.262  71.985  1.00  0.00    -0.398 A  
HETATM   12  C   UNL     1     -11.029   8.870  71.438  1.00  0.00    -0.380 A  
HETATM   13  C   UNL     1     -11.140  10.183  70.953  1.00  0.00    -0.326 A  
BRANCH  12  14
HETATM   14  C   UNL     1      -9.662   8.191  71.385  1.00  0.00    -0.171 C  
HETATM   15  C   UNL     1      -9.406   7.544  70.015  1.00  0.00    -0.154 C  
BRANCH  14  16
HETATM   16  N   UNL     1      -9.337   7.313  72.532  1.00  0.00    -0.141 NA 
HETATM   17  C   UNL     1      -8.730   6.045  72.126  1.00  0.00    -0.132 C  
HETATM   18  C   UNL     1      -8.580   7.924  73.616  1.00  0.00    -0.258 C  
ENDBRANCH  14  16
ENDBRANCH  12  14
ENDBRANCH   7   8
ENDBRANCH   5   7
ENDBRANCH   2   3
TORSDOF 5
ENDMDL
MODEL       81
REMARK 921   NORMALIZED FREE ENERGY PREDICTED BY IDOCK:   -4.11 KCAL/MOL
REMARK 922        TOTAL FREE ENERGY PREDICTED BY IDOCK:   -5.91 KCAL/MOL
REMARK 923 INTER-LIGAND FREE ENERGY PREDICTED BY IDOCK:   -6.00 KCAL/MOL
REMARK 924 INTRA-LIGAND FREE ENERGY PREDICTED BY IDOCK:    0.08 KCAL/MOL
REMARK 927      BINDING AFFINITY PREDICTED BY RF-SCORE:    0.00 PKD
ROOT
HETATM    1  C   UNL     1     -13.203   8.743  72.352  1.00  0.00    -0.441 C  
HETATM    2  C   UNL     1     -11.764   8.295  72.122  1.00  0.00    -0.365 C  
ENDROOT
BRANCH   2   3
HETATM    3  N   UNL     1     -11.471   8.026  70.720  1.00  0.00    -0.278 N  
HETATM    4  C   UNL     1     -11.586   6.663  70.232  1.00  0.00    -0.395 C  
HETATM    5  C   UNL     1     -10.831   9.006  69.957  1.00  0.00    -0.231 C  
HETATM    6  O   UNL     1     -10.585  10.129  70.383  1.00  0.00    -0.290 OA 
BRANCH   5   7
HETATM    7  O   UNL     1     -10.486   8.540  68.691  1.00  0.00    -0.208 OA 
BRANCH   7   8
HETATM    8  C   UNL     1     -10.579   9.436  67.615  1.00  0.00    -0.271 A  
HETATM    9  C   UNL     1      -9.901   9.119  66.441  1.00  0.00    -0.350 A  
HETATM   10  C   UNL     1      -9.888  10.039  65.393  1.00  0.00    -0.384 A  
HETATM   11  C   UNL     1     -10.535  11.275  65.527  1.00  0.00    -0.323 A  
HETATM   12  C   UNL     1     -11.193  11.613  66.719  1.00  0.00    -0.371 A  
HETATM   13  C   UNL     1     -11.206  10.673  67.763  1.00  0.00    -0.383 A  
BRANCH  12  14
HETATM   14  C   UNL     1     -11.856  12.967  66.955  1.00  0.00    -0.380 C  
HETATM   15  C   UNL     1     -12.372  13.579  65.642  1.00  0.00    -0.522 C  
BRANCH  14  16
HETATM   16  N   UNL     1     -11.095  13.916  67.799  1.00  0.00    -0.256 NA 
HETATM   17  C   UNL     1     -10.171  14.750  67.029  1.00  0.00    -0.253 C  
HETATM   18  C   UNL     1     -11.877  14.727  68.721  1.00  0.00    -0.296 C  
ENDBRANCH  14  16
ENDBRANCH  12  14
ENDBRANCH   7   8
ENDBRANCH   5   7
ENDBRANCH   2   3
TORSDOF 5
ENDMDL
MODEL       82
REMARK 921   NORMALIZED FREE ENERGY PREDICTED BY IDOCK:   -4.09 KCAL/MOL
REMARK 922        TOTAL FREE ENERGY PREDICTED BY IDOCK:   -5.89 KCAL/MOL
REMARK 923 INTER-LIGAND FREE ENERGY PREDICTED BY IDOCK:   -5.53 KCAL/MOL
REMARK 924 INTRA-LIGAND FREE ENERGY PREDICTED BY IDOCK:   -0.36 KCAL/MOL
REMARK 927      BINDING AFFINITY PREDICTED BY RF-SCORE:    0.00 PKD
ROOT
HETATM    1  C   UNL     1     -10.377   5.536  72.395  1.00  0.00    -0.251 C  
HETATM    2  C   UNL     1     -10.603   6.823  73.178  1.00  0.00    -0.287 C  
ENDROOT
BRANCH   2   3
HETATM    3  N   UNL     1     -11.327   7.833  72.416  1.00  0.00    -0.320 N  
HETATM    4  C   UNL     1     -12.714   7.581  72.065  1.00  0.00    -0.216 C  
HETATM    5  C   UNL     1     -10.616   8.871  71.811  1.00  0.00    -0.362 C  
HETATM    6  O   UNL     1      -9.410   9.034  71.966  1.00  0.00    -0.358 OA 
BRANCH   5   7
HETATM    7  O   UNL     1     -11.428   9.657  70.998  1.00  0.00    -0.309 OA 
BRANCH   7   8
HETATM    8  C   UNL     1     -11.138   9.698  69.626  1.00  0.00    -0.193 A  
HETATM    9  C   UNL     1     -10.652   8.539  69.026  1.00  0.00    -0.173 A  
HETATM   10  C   UNL     1     -10.255   8.579  67.690  1.00  0.00    -0.297 A  
HETATM   11  C   UNL     1     -10.329   9.776  66.964  1.00  0.00    -0.305 A  
HETATM   12  C   UNL     1     -10.788  10.954  67.571  1.00  0.00    -0.324 A  
HETATM   13  C   UNL     1     -11.194  10.897  68.915  1.00  0.00    -0.327 A  
BRANCH  12  14
HETATM   14  C   UNL     1     -10.828  12.303  66.859  1.00  0.00    -0.251 C  
HETATM   15  C   UNL     1     -10.444  13.452  67.804  1.00  0.00    -0.246 C  
BRANCH  14  16
HETATM   16  N   UNL     1     -12.043  12.569  66.056  1.00  0.00    -0.612 NA 
HETATM   17  C   UNL     1     -12.554  13.930  66.228  1.00  0.00    -0.330 C  
HETATM   18  C   UNL     1     -11.972  12.220  64.644  1.00  0.00    -0.366 C  
ENDBRANCH  14  16
ENDBRANCH  12  14
ENDBRANCH   7   8
ENDBRANCH   5   7
ENDBRANCH   2   3
TORSDOF 5
ENDMDL
MODEL       83
REMARK 921   NORMALIZED FREE ENERGY PREDICTED BY IDOCK:   -4.09 KCAL/MOL
REMARK 922        TOTAL FREE ENERGY PREDICTED BY IDOCK:   -5.89 KCAL/MOL
REMARK 923 INTER-LIGAND FREE ENERGY PREDICTED BY IDOCK:   -5.35 KCAL/MOL
REMARK 924 INTRA-LIGAND FREE ENERGY PREDICTED BY IDOCK:   -0.54 KCAL/MOL
REMARK 927      BINDING AFFINITY PREDICTED BY RF-SCORE:    0.00 PKD
ROOT
HETATM    1  C   UNL     1      -8.282   6.812  69.087  1.00  0.00    -0.121 C  
HETATM    2  C   UNL     1      -8.509   8.284  69.409  1.00  0.00    -0.123 C  
ENDROOT
BRANCH   2   3
HETATM    3  N   UNL     1      -9.913   8.669  69.341  1.00  0.00    -0.192 N  
HETATM    4  C   UNL     1     -10.533   8.821  68.037  1.00  0.00    -0.204 C  
HETATM    5  C   UNL     1     -10.546   9.145  70.491  1.00  0.00    -0.235 C  
HETATM    6  O   UNL     1     -10.004   9.168  71.591  1.00  0.00    -0.316 OA 
BRANCH   5   7
HETATM    7  O   UNL     1     -11.831   9.612  70.226  1.00  0.00    -0.212 OA 
BRANCH   7   8
HETATM    8  C   UNL     1     -12.116  10.952  70.530  1.00  0.00    -0.371 A  
HETATM    9  C   UNL     1     -12.904  11.215  71.648  1.00  0.00    -0.524 A  
HETATM   10  C   UNL     1     -13.292  12.527  71.914  1.00  0.00    -0.467 A  
HETATM   11  C   UNL     1     -12.909  13.567  71.057  1.00  0.00    -0.343 A  
HETATM   12  C   UNL     1     -12.141  13.305  69.912  1.00  0.00    -0.377 A  
HETATM   13  C   UNL     1     -11.749  11.980  69.661  1.00  0.00    -0.405 A  
BRANCH  12  14
HETATM   14  C   UNL     1     -11.749  14.380  68.902  1.00  0.00    -0.322 C  
HETATM   15  C   UNL     1     -11.673  13.814  67.475  1.00  0.00    -0.410 C  
BRANCH  14  16
HETATM   16  N   UNL     1     -10.588  15.219  69.276  1.00  0.00    -0.243 NA 
HETATM   17  C   UNL     1      -9.608  15.349  68.197  1.00  0.00    -0.203 C  
HETATM   18  C   UNL     1     -10.892  16.519  69.856  1.00  0.00    -0.283 C  
ENDBRANCH  14  16
ENDBRANCH  12  14
ENDBRANCH   7   8
ENDBRANCH   5   7
ENDBRANCH   2   3
TORSDOF 5
ENDMDL
MODEL       84
REMARK 921   NORMALIZED FREE ENERGY PREDICTED BY IDOCK:   -4.05 KCAL/MOL
REMARK 922        TOTAL FREE ENERGY PREDICTED BY IDOCK:   -5.84 KCAL/MOL
REMARK 923 INTER-LIGAND FREE ENERGY PREDICTED BY IDOCK:   -5.39 KCAL/MOL
REMARK 924 INTRA-LIGAND FREE ENERGY PREDICTED BY IDOCK:   -0.45 KCAL/MOL
REMARK 927      BINDING AFFINITY PREDICTED BY RF-SCORE:    0.00 PKD
ROOT
HETATM    1  C   UNL     1      -9.938   4.675  71.579  1.00  0.00    -0.265 C  
HETATM    2  C   UNL     1     -11.052   5.282  72.424  1.00  0.00    -0.197 C  
ENDROOT
BRANCH   2   3
HETATM    3  N   UNL     1     -11.039   6.739  72.418  1.00  0.00    -0.248 N  
HETATM    4  C   UNL     1     -10.318   7.436  73.469  1.00  0.00    -0.353 C  
HETATM    5  C   UNL     1     -11.926   7.426  71.587  1.00  0.00    -0.307 C  
HETATM    6  O   UNL     1     -12.661   6.862  70.782  1.00  0.00    -0.324 OA 
BRANCH   5   7
HETATM    7  O   UNL     1     -11.896   8.800  71.810  1.00  0.00    -0.298 OA 
BRANCH   7   8
HETATM    8  C   UNL     1     -11.390   9.619  70.789  1.00  0.00    -0.340 A  
HETATM    9  C   UNL     1     -10.168   9.271  70.219  1.00  0.00    -0.270 A  
HETATM   10  C   UNL     1      -9.589  10.122  69.278  1.00  0.00    -0.239 A  
HETATM   11  C   UNL     1     -10.220  11.322  68.924  1.00  0.00    -0.195 A  
HETATM   12  C   UNL     1     -11.436  11.693  69.519  1.00  0.00    -0.371 A  
HETATM   13  C   UNL     1     -12.012  10.822  70.458  1.00  0.00    -0.456 A  
BRANCH  12  14
HETATM   14  C   UNL     1     -12.140  13.017  69.230  1.00  0.00    -0.200 C  
HETATM   15  C   UNL     1     -11.983  13.430  67.758  1.00  0.00    -0.363 C  
BRANCH  14  16
HETATM   16  N   UNL     1     -11.870  14.110  70.191  1.00  0.00    -0.301 NA 
HETATM   17  C   UNL     1     -11.477  15.359  69.538  1.00  0.00    -0.319 C  
HETATM   18  C   UNL     1     -12.897  14.353  71.195  1.00  0.00    -0.347 C  
ENDBRANCH  14  16
ENDBRANCH  12  14
ENDBRANCH   7   8
ENDBRANCH   5   7
ENDBRANCH   2   3
TORSDOF 5
ENDMDL
MODEL       85
REMARK 921   NORMALIZED FREE ENERGY PREDICTED BY IDOCK:   -4.03 KCAL/MOL
REMARK 922        TOTAL FREE ENERGY PREDICTED BY IDOCK:   -5.81 KCAL/MOL
REMARK 923 INTER-LIGAND FREE ENERGY PREDICTED BY IDOCK:   -5.52 KCAL/MOL
REMARK 924 INTRA-LIGAND FREE ENERGY PREDICTED BY IDOCK:   -0.30 KCAL/MOL
REMARK 927      BINDING AFFINITY PREDICTED BY RF-SCORE:    0.00 PKD
ROOT
HETATM    1  C   UNL     1      -9.713  15.595  69.188  1.00  0.00    -0.249 C  
HETATM    2  C   UNL     1     -11.210  15.668  68.910  1.00  0.00    -0.311 C  
ENDROOT
BRANCH   2   3
HETATM    3  N   UNL     1     -11.778  14.386  68.512  1.00  0.00    -0.320 N  
HETATM    4  C   UNL     1     -12.033  13.388  69.536  1.00  0.00    -0.319 C  
HETATM    5  C   UNL     1     -11.807  14.043  67.159  1.00  0.00    -0.411 C  
HETATM    6  O   UNL     1     -11.461  14.811  66.268  1.00  0.00    -0.350 OA 
BRANCH   5   7
HETATM    7  O   UNL     1     -12.234  12.733  66.961  1.00  0.00    -0.431 OA 
BRANCH   7   8
HETATM    8  C   UNL     1     -11.328  11.828  66.388  1.00  0.00    -0.297 A  
HETATM    9  C   UNL     1     -10.981  12.009  65.051  1.00  0.00    -0.355 A  
HETATM   10  C   UNL     1     -10.167  11.065  64.426  1.00  0.00    -0.409 A  
HETATM   11  C   UNL     1      -9.718   9.939  65.128  1.00  0.00    -0.376 A  
HETATM   12  C   UNL     1     -10.091   9.734  66.465  1.00  0.00    -0.307 A  
HETATM   13  C   UNL     1     -10.903  10.697  67.086  1.00  0.00    -0.328 A  
BRANCH  12  14
HETATM   14  C   UNL     1      -9.695   8.496  67.265  1.00  0.00    -0.183 C  
HETATM   15  C   UNL     1     -10.677   7.337  67.034  1.00  0.00    -0.406 C  
BRANCH  14  16
HETATM   16  N   UNL     1      -9.369   8.730  68.690  1.00  0.00    -0.141 NA 
HETATM   17  C   UNL     1     -10.185   7.926  69.602  1.00  0.00    -0.207 C  
HETATM   18  C   UNL     1      -7.961   8.649  69.051  1.00  0.00    -0.115 C  
ENDBRANCH  14  16
ENDBRANCH  12  14
ENDBRANCH   7   8
ENDBRANCH   5   7
ENDBRANCH   2   3
TORSDOF 5
ENDMDL
MODEL       86
REMARK 921   NORMALIZED FREE ENERGY PREDICTED BY IDOCK:   -4.01 KCAL/MOL
REMARK 922        TOTAL FREE ENERGY PREDICTED BY IDOCK:   -5.78 KCAL/MOL
REMARK 923 INTER-LIGAND FREE ENERGY PREDICTED BY IDOCK:   -5.30 KCAL/MOL
REMARK 924 INTRA-LIGAND FREE ENERGY PREDICTED BY IDOCK:   -0.48 KCAL/MOL
REMARK 927      BINDING AFFINITY PREDICTED BY RF-SCORE:    0.00 PKD
ROOT
HETATM    1  C   UNL     1     -10.812   5.882  73.204  1.00  0.00    -0.296 C  
HETATM    2  C   UNL     1     -10.878   7.404  73.233  1.00  0.00    -0.368 C  
ENDROOT
BRANCH   2   3
HETATM    3  N   UNL     1     -11.329   7.977  71.971  1.00  0.00    -0.281 N  
HETATM    4  C   UNL     1     -12.494   7.404  71.320  1.00  0.00    -0.346 C  
HETATM    5  C   UNL     1     -10.493   8.861  71.286  1.00  0.00    -0.287 C  
HETATM    6  O   UNL     1      -9.425   9.259  71.740  1.00  0.00    -0.302 OA 
BRANCH   5   7
HETATM    7  O   UNL     1     -10.999   9.196  70.033  1.00  0.00    -0.231 OA 
BRANCH   7   8
HETATM    8  C   UNL     1     -10.990  10.549  69.662  1.00  0.00    -0.283 A  
HETATM    9  C   UNL     1     -11.782  11.431  70.393  1.00  0.00    -0.362 A  
HETATM   10  C   UNL     1     -11.876  12.761  69.983  1.00  0.00    -0.352 A  
HETATM   11  C   UNL     1     -11.195  13.200  68.839  1.00  0.00    -0.324 A  
HETATM   12  C   UNL     1     -10.421  12.308  68.081  1.00  0.00    -0.228 A  
HETATM   13  C   UNL     1     -10.328  10.974  68.510  1.00  0.00    -0.204 A  
BRANCH  12  14
HETATM   14  C   UNL     1      -9.712  12.705  66.788  1.00  0.00    -0.240 C  
HETATM   15  C   UNL     1      -8.756  13.887  67.009  1.00  0.00    -0.215 C  
BRANCH  14  16
HETATM   16  N   UNL     1     -10.582  12.851  65.599  1.00  0.00    -0.273 NA 
HETATM   17  C   UNL     1     -10.576  14.209  65.053  1.00  0.00    -0.419 C  
HETATM   18  C   UNL     1     -10.396  11.869  64.541  1.00  0.00    -0.292 C  
ENDBRANCH  14  16
ENDBRANCH  12  14
ENDBRANCH   7   8
ENDBRANCH   5   7
ENDBRANCH   2   3
TORSDOF 5
ENDMDL
MODEL       87
REMARK 921   NORMALIZED FREE ENERGY PREDICTED BY IDOCK:   -3.98 KCAL/MOL
REMARK 922        TOTAL FREE ENERGY PREDICTED BY IDOCK:   -5.75 KCAL/MOL
REMARK 923 INTER-LIGAND FREE ENERGY PREDICTED BY IDOCK:   -5.36 KCAL/MOL
REMARK 924 INTRA-LIGAND FREE ENERGY PREDICTED BY IDOCK:   -0.39 KCAL/MOL
REMARK 927      BINDING AFFINITY PREDICTED BY RF-SCORE:    0.00 PKD
ROOT
HETATM    1  C   UNL     1      -8.648   6.021  65.618  1.00  0.00    -0.154 C  
HETATM    2  C   UNL     1      -9.134   7.281  66.324  1.00  0.00    -0.149 C  
ENDROOT
BRANCH   2   3
HETATM    3  N   UNL     1      -8.989   8.481  65.510  1.00  0.00    -0.168 N  
HETATM    4  C   UNL     1      -7.926   8.529  64.521  1.00  0.00    -0.145 C  
HETATM    5  C   UNL     1      -9.677   9.640  65.874  1.00  0.00    -0.275 C  
HETATM    6  O   UNL     1     -10.480   9.677  66.800  1.00  0.00    -0.230 OA 
BRANCH   5   7
HETATM    7  O   UNL     1      -9.314  10.732  65.089  1.00  0.00    -0.195 OA 
BRANCH   7   8
HETATM    8  C   UNL     1     -10.273  11.735  64.879  1.00  0.00    -0.273 A  
HETATM    9  C   UNL     1     -11.102  11.622  63.766  1.00  0.00    -0.499 A  
HETATM   10  C   UNL     1     -11.991  12.656  63.473  1.00  0.00    -0.630 A  
HETATM   11  C   UNL     1     -12.036  13.802  64.278  1.00  0.00    -0.481 A  
HETATM   12  C   UNL     1     -11.180  13.935  65.382  1.00  0.00    -0.306 A  
HETATM   13  C   UNL     1     -10.297  12.883  65.671  1.00  0.00    -0.295 A  
BRANCH  12  14
HETATM   14  C   UNL     1     -11.130  15.185  66.257  1.00  0.00    -0.309 C  
HETATM   15  C   UNL     1     -10.316  16.307  65.592  1.00  0.00    -0.385 C  
BRANCH  14  16
HETATM   16  N   UNL     1     -10.787  14.959  67.679  1.00  0.00    -0.278 NA 
HETATM   17  C   UNL     1     -10.203  16.138  68.319  1.00  0.00    -0.248 C  
HETATM   18  C   UNL     1     -11.837  14.388  68.511  1.00  0.00    -0.334 C  
ENDBRANCH  14  16
ENDBRANCH  12  14
ENDBRANCH   7   8
ENDBRANCH   5   7
ENDBRANCH   2   3
TORSDOF 5
ENDMDL
MODEL       88
REMARK 921   NORMALIZED FREE ENERGY PREDICTED BY IDOCK:   -3.98 KCAL/MOL
REMARK 922        TOTAL FREE ENERGY PREDICTED BY IDOCK:   -5.75 KCAL/MOL
REMARK 923 INTER-LIGAND FREE ENERGY PREDICTED BY IDOCK:   -5.33 KCAL/MOL
REMARK 924 INTRA-LIGAND FREE ENERGY PREDICTED BY IDOCK:   -0.41 KCAL/MOL
REMARK 927      BINDING AFFINITY PREDICTED BY RF-SCORE:    0.00 PKD
ROOT
HETATM    1  C   UNL     1     -14.078   7.410  71.585  1.00  0.00    -0.552 C  
HETATM    2  C   UNL     1     -12.671   7.882  71.930  1.00  0.00    -0.316 C  
ENDROOT
BRANCH   2   3
HETATM    3  N   UNL     1     -11.761   7.832  70.793  1.00  0.00    -0.264 N  
HETATM    4  C   UNL     1     -11.419   6.538  70.229  1.00  0.00    -0.411 C  
HETATM    5  C   UNL     1     -11.034   8.973  70.450  1.00  0.00    -0.247 C  
HETATM    6  O   UNL     1     -11.191  10.057  71.003  1.00  0.00    -0.341 OA 
BRANCH   5   7
HETATM    7  O   UNL     1     -10.102   8.719  69.447  1.00  0.00    -0.192 OA 
BRANCH   7   8
HETATM    8  C   UNL     1      -9.714   9.789  68.627  1.00  0.00    -0.155 A  
HETATM    9  C   UNL     1      -8.499  10.414  68.901  1.00  0.00    -0.144 A  
HETATM   10  C   UNL     1      -8.137  11.546  68.172  1.00  0.00    -0.146 A  
HETATM   11  C   UNL     1      -8.992  12.059  67.187  1.00  0.00    -0.185 A  
HETATM   12  C   UNL     1     -10.230  11.453  66.928  1.00  0.00    -0.254 A  
HETATM   13  C   UNL     1     -10.579  10.308  67.663  1.00  0.00    -0.312 A  
BRANCH  12  14
HETATM   14  C   UNL     1     -11.237  12.001  65.920  1.00  0.00    -0.337 C  
HETATM   15  C   UNL     1     -10.874  11.595  64.483  1.00  0.00    -0.383 C  
BRANCH  14  16
HETATM   16  N   UNL     1     -11.579  13.433  66.070  1.00  0.00    -0.332 NA 
HETATM   17  C   UNL     1     -12.423  13.934  64.984  1.00  0.00    -0.419 C  
HETATM   18  C   UNL     1     -12.111  13.836  67.364  1.00  0.00    -0.343 C  
ENDBRANCH  14  16
ENDBRANCH  12  14
ENDBRANCH   7   8
ENDBRANCH   5   7
ENDBRANCH   2   3
TORSDOF 5
ENDMDL
MODEL       89
REMARK 921   NORMALIZED FREE ENERGY PREDICTED BY IDOCK:   -3.93 KCAL/MOL
REMARK 922        TOTAL FREE ENERGY PREDICTED BY IDOCK:   -5.69 KCAL/MOL
REMARK 923 INTER-LIGAND FREE ENERGY PREDICTED BY IDOCK:   -5.15 KCAL/MOL
REMARK 924 INTRA-LIGAND FREE ENERGY PREDICTED BY IDOCK:   -0.54 KCAL/MOL
REMARK 927      BINDING AFFINITY PREDICTED BY RF-SCORE:    0.00 PKD
ROOT
HETATM    1  C   UNL     1     -11.723   8.012  71.530  1.00  0.00    -0.321 C  
HETATM    2  C   UNL     1     -10.810   8.927  70.722  1.00  0.00    -0.241 C  
ENDROOT
BRANCH   2   3
HETATM    3  N   UNL     1     -11.528  10.021  70.080  1.00  0.00    -0.256 N  
HETATM    4  C   UNL     1     -12.729  10.537  70.715  1.00  0.00    -0.381 C  
HETATM    5  C   UNL     1     -11.217  10.360  68.761  1.00  0.00    -0.241 C  
HETATM    6  O   UNL     1     -10.297   9.841  68.137  1.00  0.00    -0.181 OA 
BRANCH   5   7
HETATM    7  O   UNL     1     -12.091  11.314  68.246  1.00  0.00    -0.619 OA 
BRANCH   7   8
HETATM    8  C   UNL     1     -11.557  12.311  67.415  1.00  0.00    -0.355 A  
HETATM    9  C   UNL     1     -11.835  12.243  66.052  1.00  0.00    -0.409 A  
HETATM   10  C   UNL     1     -11.233  13.156  65.188  1.00  0.00    -0.317 A  
HETATM   11  C   UNL     1     -10.344  14.120  65.683  1.00  0.00    -0.348 A  
HETATM   12  C   UNL     1     -10.035  14.173  67.050  1.00  0.00    -0.260 A  
HETATM   13  C   UNL     1     -10.656  13.253  67.911  1.00  0.00    -0.246 A  
BRANCH  12  14
HETATM   14  C   UNL     1      -9.024  15.151  67.643  1.00  0.00    -0.180 C  
HETATM   15  C   UNL     1      -8.511  16.143  66.587  1.00  0.00    -0.315 C  
BRANCH  14  16
HETATM   16  N   UNL     1      -7.952  14.545  68.466  1.00  0.00    -0.136 NA 
HETATM   17  C   UNL     1      -6.834  14.042  67.666  1.00  0.00    -0.179 C  
HETATM   18  C   UNL     1      -7.469  15.344  69.583  1.00  0.00    -0.170 C  
ENDBRANCH  14  16
ENDBRANCH  12  14
ENDBRANCH   7   8
ENDBRANCH   5   7
ENDBRANCH   2   3
TORSDOF 5
ENDMDL
MODEL       90
REMARK 921   NORMALIZED FREE ENERGY PREDICTED BY IDOCK:   -3.93 KCAL/MOL
REMARK 922        TOTAL FREE ENERGY PREDICTED BY IDOCK:   -5.69 KCAL/MOL
REMARK 923 INTER-LIGAND FREE ENERGY PREDICTED BY IDOCK:   -5.47 KCAL/MOL
REMARK 924 INTRA-LIGAND FREE ENERGY PREDICTED BY IDOCK:   -0.22 KCAL/MOL
REMARK 927      BINDING AFFINITY PREDICTED BY RF-SCORE:    0.00 PKD
ROOT
HETATM    1  C   UNL     1      -9.883  17.141  67.545  1.00  0.00    -0.266 C  
HETATM    2  C   UNL     1     -10.906  16.051  67.839  1.00  0.00    -0.333 C  
ENDROOT
BRANCH   2   3
HETATM    3  N   UNL     1     -11.160  15.187  66.693  1.00  0.00    -0.327 N  
HETATM    4  C   UNL     1     -10.923  15.710  65.358  1.00  0.00    -0.333 C  
HETATM    5  C   UNL     1     -11.872  14.000  66.877  1.00  0.00    -0.430 C  
HETATM    6  O   UNL     1     -12.219  13.594  67.981  1.00  0.00    -0.323 OA 
BRANCH   5   7
HETATM    7  O   UNL     1     -12.162  13.370  65.669  1.00  0.00    -0.409 OA 
BRANCH   7   8
HETATM    8  C   UNL     1     -11.255  12.408  65.198  1.00  0.00    -0.315 A  
HETATM    9  C   UNL     1     -11.184  12.197  63.823  1.00  0.00    -0.509 A  
HETATM   10  C   UNL     1     -10.371  11.175  63.333  1.00  0.00    -0.419 A  
HETATM   11  C   UNL     1      -9.650  10.359  64.214  1.00  0.00    -0.377 A  
HETATM   12  C   UNL     1      -9.743  10.546  65.602  1.00  0.00    -0.289 A  
HETATM   13  C   UNL     1     -10.557  11.585  66.081  1.00  0.00    -0.314 A  
BRANCH  12  14
HETATM   14  C   UNL     1      -9.039   9.650  66.617  1.00  0.00    -0.148 C  
HETATM   15  C   UNL     1      -7.519   9.880  66.615  1.00  0.00    -0.099 C  
BRANCH  14  16
HETATM   16  N   UNL     1      -9.428   8.222  66.590  1.00  0.00    -0.193 NA 
HETATM   17  C   UNL     1      -8.314   7.321  66.888  1.00  0.00    -0.118 C  
HETATM   18  C   UNL     1     -10.605   7.861  67.367  1.00  0.00    -0.272 C  
ENDBRANCH  14  16
ENDBRANCH  12  14
ENDBRANCH   7   8
ENDBRANCH   5   7
ENDBRANCH   2   3
TORSDOF 5
ENDMDL
MODEL       91
REMARK 921   NORMALIZED FREE ENERGY PREDICTED BY IDOCK:   -3.92 KCAL/MOL
REMARK 922        TOTAL FREE ENERGY PREDICTED BY IDOCK:   -5.67 KCAL/MOL
REMARK 923 INTER-LIGAND FREE ENERGY PREDICTED BY IDOCK:   -5.25 KCAL/MOL
REMARK 924 INTRA-LIGAND FREE ENERGY PREDICTED BY IDOCK:   -0.42 KCAL/MOL
REMARK 927      BINDING AFFINITY PREDICTED BY RF-SCORE:    0.00 PKD
ROOT
HETATM    1  C   UNL     1     -11.582   8.165  72.238  1.00  0.00    -0.436 C  
HETATM    2  C   UNL     1     -11.990   9.556  71.768  1.00  0.00    -0.371 C  
ENDROOT
BRANCH   2   3
HETATM    3  N   UNL     1     -11.359   9.939  70.511  1.00  0.00    -0.302 N  
HETATM    4  C   UNL     1     -10.337   9.072  69.952  1.00  0.00    -0.207 C  
HETATM    5  C   UNL     1     -11.543  11.233  70.023  1.00  0.00    -0.321 C  
HETATM    6  O   UNL     1     -12.291  12.048  70.552  1.00  0.00    -0.336 OA 
BRANCH   5   7
HETATM    7  O   UNL     1     -10.755  11.486  68.902  1.00  0.00    -0.199 OA 
BRANCH   7   8
HETATM    8  C   UNL     1     -11.088  12.590  68.102  1.00  0.00    -0.243 A  
HETATM    9  C   UNL     1     -11.890  12.368  66.985  1.00  0.00    -0.368 A  
HETATM   10  C   UNL     1     -12.150  13.425  66.114  1.00  0.00    -0.481 A  
HETATM   11  C   UNL     1     -11.596  14.691  66.349  1.00  0.00    -0.343 A  
HETATM   12  C   UNL     1     -10.762  14.912  67.455  1.00  0.00    -0.276 A  
HETATM   13  C   UNL     1     -10.516  13.841  68.330  1.00  0.00    -0.256 A  
BRANCH  12  14
HETATM   14  C   UNL     1     -10.072  16.246  67.731  1.00  0.00    -0.252 C  
HETATM   15  C   UNL     1     -10.684  17.381  66.895  1.00  0.00    -0.125 C  
BRANCH  14  16
HETATM   16  N   UNL     1      -8.592  16.219  67.712  1.00  0.00    -0.170 NA 
HETATM   17  C   UNL     1      -8.034  16.476  66.383  1.00  0.00    -0.317 C  
HETATM   18  C   UNL     1      -7.920  17.027  68.719  1.00  0.00    -0.248 C  
ENDBRANCH  14  16
ENDBRANCH  12  14
ENDBRANCH   7   8
ENDBRANCH   5   7
ENDBRANCH   2   3
TORSDOF 5
ENDMDL
MODEL       92
REMARK 921   NORMALIZED FREE ENERGY PREDICTED BY IDOCK:   -3.91 KCAL/MOL
REMARK 922        TOTAL FREE ENERGY PREDICTED BY IDOCK:   -5.66 KCAL/MOL
REMARK 923 INTER-LIGAND FREE ENERGY PREDICTED BY IDOCK:   -5.24 KCAL/MOL
REMARK 924 INTRA-LIGAND FREE ENERGY PREDICTED BY IDOCK:   -0.42 KCAL/MOL
REMARK 927      BINDING AFFINITY PREDICTED BY RF-SCORE:    0.00 PKD
ROOT
HETATM    1  C   UNL     1      -9.129   6.859  74.096  1.00  0.00    -0.238 C  
HETATM    2  C   UNL     1      -9.149   6.517  72.611  1.00  0.00    -0.131 C  
ENDROOT
BRANCH   2   3
HETATM    3  N   UNL     1     -10.246   7.157  71.896  1.00  0.00    -0.190 N  
HETATM    4  C   UNL     1     -11.467   6.402  71.673  1.00  0.00    -0.303 C  
HETATM    5  C   UNL     1     -10.011   8.351  71.212  1.00  0.00    -0.204 C  
HETATM    6  O   UNL     1      -8.941   8.948  71.258  1.00  0.00    -0.212 OA 
BRANCH   5   7
HETATM    7  O   UNL     1     -11.114   8.748  70.459  1.00  0.00    -0.241 OA 
BRANCH   7   8
HETATM    8  C   UNL     1     -11.756   9.943  70.818  1.00  0.00    -0.341 A  
HETATM    9  C   UNL     1     -12.796   9.873  71.741  1.00  0.00    -0.540 A  
HETATM   10  C   UNL     1     -13.522  11.027  72.037  1.00  0.00    -0.286 A  
HETATM   11  C   UNL     1     -13.221  12.237  71.399  1.00  0.00    -0.179 A  
HETATM   12  C   UNL     1     -12.195  12.307  70.444  1.00  0.00    -0.371 A  
HETATM   13  C   UNL     1     -11.465  11.140  70.163  1.00  0.00    -0.361 A  
BRANCH  12  14
HETATM   14  C   UNL     1     -11.862  13.575  69.663  1.00  0.00    -0.336 C  
HETATM   15  C   UNL     1     -10.809  13.308  68.575  1.00  0.00    -0.286 C  
BRANCH  14  16
HETATM   16  N   UNL     1     -11.587  14.778  70.480  1.00  0.00    -0.280 NA 
HETATM   17  C   UNL     1     -10.414  15.523  70.021  1.00  0.00    -0.309 C  
HETATM   18  C   UNL     1     -12.711  15.674  70.706  1.00  0.00    -0.431 C  
ENDBRANCH  14  16
ENDBRANCH  12  14
ENDBRANCH   7   8
ENDBRANCH   5   7
ENDBRANCH   2   3
TORSDOF 5
ENDMDL
MODEL       93
REMARK 921   NORMALIZED FREE ENERGY PREDICTED BY IDOCK:   -3.90 KCAL/MOL
REMARK 922        TOTAL FREE ENERGY PREDICTED BY IDOCK:   -5.64 KCAL/MOL
REMARK 923 INTER-LIGAND FREE ENERGY PREDICTED BY IDOCK:   -5.47 KCAL/MOL
REMARK 924 INTRA-LIGAND FREE ENERGY PREDICTED BY IDOCK:   -0.18 KCAL/MOL
REMARK 927      BINDING AFFINITY PREDICTED BY RF-SCORE:    0.00 PKD
ROOT
HETATM    1  C   UNL     1     -10.225  15.033  65.029  1.00  0.00    -0.349 C  
HETATM    2  C   UNL     1     -10.761  15.014  66.455  1.00  0.00    -0.312 C  
ENDROOT
BRANCH   2   3
HETATM    3  N   UNL     1     -11.541  13.820  66.753  1.00  0.00    -0.351 N  
HETATM    4  C   UNL     1     -12.621  13.449  65.855  1.00  0.00    -0.348 C  
HETATM    5  C   UNL     1     -11.424  13.225  68.011  1.00  0.00    -0.309 C  
HETATM    6  O   UNL     1     -10.620  13.602  68.857  1.00  0.00    -0.245 OA 
BRANCH   5   7
HETATM    7  O   UNL     1     -12.343  12.193  68.189  1.00  0.00    -0.265 OA 
BRANCH   7   8
HETATM    8  C   UNL     1     -11.976  11.127  69.024  1.00  0.00    -0.320 A  
HETATM    9  C   UNL     1     -12.406  11.157  70.348  1.00  0.00    -0.430 A  
HETATM   10  C   UNL     1     -11.970  10.166  71.228  1.00  0.00    -0.473 A  
HETATM   11  C   UNL     1     -11.096   9.163  70.789  1.00  0.00    -0.336 A  
HETATM   12  C   UNL     1     -10.634   9.146  69.464  1.00  0.00    -0.233 A  
HETATM   13  C   UNL     1     -11.089  10.144  68.586  1.00  0.00    -0.254 A  
BRANCH  12  14
HETATM   14  C   UNL     1      -9.628   8.124  68.941  1.00  0.00    -0.153 C  
HETATM   15  C   UNL     1      -8.601   8.773  68.000  1.00  0.00    -0.134 C  
BRANCH  14  16
HETATM   16  N   UNL     1     -10.206   6.864  68.420  1.00  0.00    -0.168 NA 
HETATM   17  C   UNL     1     -11.127   6.227  69.362  1.00  0.00    -0.410 C  
HETATM   18  C   UNL     1     -10.791   6.927  67.089  1.00  0.00    -0.377 C  
ENDBRANCH  14  16
ENDBRANCH  12  14
ENDBRANCH   7   8
ENDBRANCH   5   7
ENDBRANCH   2   3
TORSDOF 5
ENDMDL
MODEL       94
REMARK 921   NORMALIZED FREE ENERGY PREDICTED BY IDOCK:   -3.90 KCAL/MOL
REMARK 922        TOTAL FREE ENERGY PREDICTED BY IDOCK:   -5.64 KCAL/MOL
REMARK 923 INTER-LIGAND FREE ENERGY PREDICTED BY IDOCK:   -5.08 KCAL/MOL
REMARK 924 INTRA-LIGAND FREE ENERGY PREDICTED BY IDOCK:   -0.57 KCAL/MOL
REMARK 927      BINDING AFFINITY PREDICTED BY RF-SCORE:    0.00 PKD
ROOT
HETATM    1  C   UNL     1      -5.648  10.385  65.055  1.00  0.00    -0.141 C  
HETATM    2  C   UNL     1      -6.741   9.596  64.345  1.00  0.00    -0.111 C  
ENDROOT
BRANCH   2   3
HETATM    3  N   UNL     1      -8.077   9.905  64.840  1.00  0.00    -0.138 N  
HETATM    4  C   UNL     1      -8.453   9.445  66.166  1.00  0.00    -0.120 C  
HETATM    5  C   UNL     1      -9.041  10.381  63.950  1.00  0.00    -0.245 C  
HETATM    6  O   UNL     1      -8.797  10.646  62.778  1.00  0.00    -0.205 OA 
BRANCH   5   7
HETATM    7  O   UNL     1     -10.298  10.480  64.544  1.00  0.00    -0.348 OA 
BRANCH   7   8
HETATM    8  C   UNL     1     -10.901  11.746  64.594  1.00  0.00    -0.307 A  
HETATM    9  C   UNL     1     -11.731  12.116  63.539  1.00  0.00    -0.579 A  
HETATM   10  C   UNL     1     -12.259  13.406  63.509  1.00  0.00    -0.468 A  
HETATM   11  C   UNL     1     -11.944  14.325  64.519  1.00  0.00    -0.478 A  
HETATM   12  C   UNL     1     -11.083  13.968  65.568  1.00  0.00    -0.309 A  
HETATM   13  C   UNL     1     -10.566  12.662  65.591  1.00  0.00    -0.299 A  
BRANCH  12  14
HETATM   14  C   UNL     1     -10.645  14.940  66.660  1.00  0.00    -0.305 C  
HETATM   15  C   UNL     1      -9.757  16.060  66.095  1.00  0.00    -0.353 C  
BRANCH  14  16
HETATM   16  N   UNL     1     -10.115  14.320  67.896  1.00  0.00    -0.230 NA 
HETATM   17  C   UNL     1      -8.862  14.928  68.346  1.00  0.00    -0.178 C  
HETATM   18  C   UNL     1     -11.051  14.189  69.003  1.00  0.00    -0.263 C  
ENDBRANCH  14  16
ENDBRANCH  12  14
ENDBRANCH   7   8
ENDBRANCH   5   7
ENDBRANCH   2   3
TORSDOF 5
ENDMDL
MODEL       95
REMARK 921   NORMALIZED FREE ENERGY PREDICTED BY IDOCK:   -3.87 KCAL/MOL
REMARK 922        TOTAL FREE ENERGY PREDICTED BY IDOCK:   -5.60 KCAL/MOL
REMARK 923 INTER-LIGAND FREE ENERGY PREDICTED BY IDOCK:   -5.10 KCAL/MOL
REMARK 924 INTRA-LIGAND FREE ENERGY PREDICTED BY IDOCK:   -0.51 KCAL/MOL
REMARK 927      BINDING AFFINITY PREDICTED BY RF-SCORE:    0.00 PKD
ROOT
HETATM    1  C   UNL     1      -9.790   4.423  65.118  1.00  0.00    -0.193 C  
HETATM    2  C   UNL     1      -9.539   5.291  66.345  1.00  0.00    -0.160 C  
ENDROOT
BRANCH   2   3
HETATM    3  N   UNL     1      -9.005   6.606  66.011  1.00  0.00    -0.142 N  
HETATM    4  C   UNL     1      -7.619   6.709  65.589  1.00  0.00    -0.086 C  
HETATM    5  C   UNL     1      -9.731   7.746  66.360  1.00  0.00    -0.149 C  
HETATM    6  O   UNL     1     -10.852   7.699  66.856  1.00  0.00    -0.328 OA 
BRANCH   5   7
HETATM    7  O   UNL     1      -9.018   8.916  66.112  1.00  0.00    -0.154 OA 
BRANCH   7   8
HETATM    8  C   UNL     1      -9.581   9.852  65.230  1.00  0.00    -0.295 A  
HETATM    9  C   UNL     1      -9.191   9.804  63.894  1.00  0.00    -0.248 A  
HETATM   10  C   UNL     1      -9.651  10.785  63.016  1.00  0.00    -0.381 A  
HETATM   11  C   UNL     1     -10.480  11.817  63.477  1.00  0.00    -0.500 A  
HETATM   12  C   UNL     1     -10.849  11.888  64.828  1.00  0.00    -0.359 A  
HETATM   13  C   UNL     1     -10.387  10.888  65.700  1.00  0.00    -0.305 A  
BRANCH  12  14
HETATM   14  C   UNL     1     -11.691  13.022  65.408  1.00  0.00    -0.364 C  
HETATM   15  C   UNL     1     -12.140  14.007  64.317  1.00  0.00    -0.476 C  
BRANCH  14  16
HETATM   16  N   UNL     1     -11.140  13.677  66.616  1.00  0.00    -0.302 NA 
HETATM   17  C   UNL     1     -10.737  15.064  66.379  1.00  0.00    -0.322 C  
HETATM   18  C   UNL     1     -11.941  13.572  67.827  1.00  0.00    -0.334 C  
ENDBRANCH  14  16
ENDBRANCH  12  14
ENDBRANCH   7   8
ENDBRANCH   5   7
ENDBRANCH   2   3
TORSDOF 5
ENDMDL
MODEL       96
REMARK 921   NORMALIZED FREE ENERGY PREDICTED BY IDOCK:   -3.84 KCAL/MOL
REMARK 922        TOTAL FREE ENERGY PREDICTED BY IDOCK:   -5.56 KCAL/MOL
REMARK 923 INTER-LIGAND FREE ENERGY PREDICTED BY IDOCK:   -5.32 KCAL/MOL
REMARK 924 INTRA-LIGAND FREE ENERGY PREDICTED BY IDOCK:   -0.24 KCAL/MOL
REMARK 927      BINDING AFFINITY PREDICTED BY RF-SCORE:    0.00 PKD
ROOT
HETATM    1  C   UNL     1      -9.528  15.489  69.043  1.00  0.00    -0.242 C  
HETATM    2  C   UNL     1     -10.867  15.507  68.316  1.00  0.00    -0.292 C  
ENDROOT
BRANCH   2   3
HETATM    3  N   UNL     1     -11.662  14.309  68.559  1.00  0.00    -0.322 N  
HETATM    4  C   UNL     1     -12.202  14.087  69.889  1.00  0.00    -0.340 C  
HETATM    5  C   UNL     1     -11.657  13.284  67.611  1.00  0.00    -0.346 C  
HETATM    6  O   UNL     1     -11.087  13.377  66.529  1.00  0.00    -0.291 OA 
BRANCH   5   7
HETATM    7  O   UNL     1     -12.336  12.154  68.060  1.00  0.00    -0.292 OA 
BRANCH   7   8
HETATM    8  C   UNL     1     -11.583  11.002  68.335  1.00  0.00    -0.302 A  
HETATM    9  C   UNL     1     -10.960  10.359  67.268  1.00  0.00    -0.306 A  
HETATM   10  C   UNL     1     -10.293   9.156  67.494  1.00  0.00    -0.324 A  
HETATM   11  C   UNL     1     -10.267   8.590  68.776  1.00  0.00    -0.217 A  
HETATM   12  C   UNL     1     -10.920   9.217  69.848  1.00  0.00    -0.218 A  
HETATM   13  C   UNL     1     -11.579  10.434  69.609  1.00  0.00    -0.307 A  
BRANCH  12  14
HETATM   14  C   UNL     1     -10.988   8.620  71.252  1.00  0.00    -0.267 C  
HETATM   15  C   UNL     1      -9.608   8.613  71.930  1.00  0.00    -0.377 C  
BRANCH  14  16
HETATM   16  N   UNL     1     -11.719   7.338  71.369  1.00  0.00    -0.273 NA 
HETATM   17  C   UNL     1     -11.248   6.512  72.481  1.00  0.00    -0.262 C  
HETATM   18  C   UNL     1     -13.172   7.424  71.370  1.00  0.00    -0.339 C  
ENDBRANCH  14  16
ENDBRANCH  12  14
ENDBRANCH   7   8
ENDBRANCH   5   7
ENDBRANCH   2   3
TORSDOF 5
ENDMDL
MODEL       97
REMARK 921   NORMALIZED FREE ENERGY PREDICTED BY IDOCK:   -3.83 KCAL/MOL
REMARK 922        TOTAL FREE ENERGY PREDICTED BY IDOCK:   -5.55 KCAL/MOL
REMARK 923 INTER-LIGAND FREE ENERGY PREDICTED BY IDOCK:   -5.21 KCAL/MOL
REMARK 924 INTRA-LIGAND FREE ENERGY PREDICTED BY IDOCK:   -0.34 KCAL/MOL
REMARK 927      BINDING AFFINITY PREDICTED BY RF-SCORE:    0.00 PKD
ROOT
HETATM    1  C   UNL     1      -9.913  12.080  63.601  1.00  0.00    -0.387 C  
HETATM    2  C   UNL     1     -11.233  11.808  64.314  1.00  0.00    -0.344 C  
ENDROOT
BRANCH   2   3
HETATM    3  N   UNL     1     -11.786  12.993  64.957  1.00  0.00    -0.323 N  
HETATM    4  C   UNL     1     -11.836  14.235  64.206  1.00  0.00    -0.379 C  
HETATM    5  C   UNL     1     -11.994  12.986  66.337  1.00  0.00    -0.402 C  
HETATM    6  O   UNL     1     -11.823  11.991  67.034  1.00  0.00    -0.573 OA 
BRANCH   5   7
HETATM    7  O   UNL     1     -12.378  14.236  66.815  1.00  0.00    -0.429 OA 
BRANCH   7   8
HETATM    8  C   UNL     1     -11.627  14.798  67.859  1.00  0.00    -0.351 A  
HETATM    9  C   UNL     1     -12.246  14.960  69.095  1.00  0.00    -0.194 A  
HETATM   10  C   UNL     1     -11.561  15.611  70.120  1.00  0.00    -0.366 A  
HETATM   11  C   UNL     1     -10.271  16.114  69.902  1.00  0.00    -0.146 A  
HETATM   12  C   UNL     1      -9.654  15.982  68.649  1.00  0.00    -0.222 A  
HETATM   13  C   UNL     1     -10.352  15.315  67.629  1.00  0.00    -0.250 A  
BRANCH  12  14
HETATM   14  C   UNL     1      -8.281  16.566  68.325  1.00  0.00    -0.185 C  
HETATM   15  C   UNL     1      -8.273  17.261  66.954  1.00  0.00    -0.256 C  
BRANCH  14  16
HETATM   16  N   UNL     1      -7.131  15.661  68.545  1.00  0.00    -0.113 NA 
HETATM   17  C   UNL     1      -7.102  15.094  69.894  1.00  0.00    -0.119 C  
HETATM   18  C   UNL     1      -6.928  14.622  67.545  1.00  0.00    -0.168 C  
ENDBRANCH  14  16
ENDBRANCH  12  14
ENDBRANCH   7   8
ENDBRANCH   5   7
ENDBRANCH   2   3
TORSDOF 5
ENDMDL
MODEL       98
REMARK 921   NORMALIZED FREE ENERGY PREDICTED BY IDOCK:   -3.82 KCAL/MOL
REMARK 922        TOTAL FREE ENERGY PREDICTED BY IDOCK:   -5.55 KCAL/MOL
REMARK 923 INTER-LIGAND FREE ENERGY PREDICTED BY IDOCK:   -5.32 KCAL/MOL
REMARK 924 INTRA-LIGAND FREE ENERGY PREDICTED BY IDOCK:   -0.23 KCAL/MOL
REMARK 927      BINDING AFFINITY PREDICTED BY RF-SCORE:    0.00 PKD
ROOT
HETATM    1  C   UNL     1     -10.485   7.503  66.925  1.00  0.00    -0.385 C  
HETATM    2  C   UNL     1      -9.971   8.742  67.649  1.00  0.00    -0.193 C  
ENDROOT
BRANCH   2   3
HETATM    3  N   UNL     1     -10.645   9.964  67.231  1.00  0.00    -0.258 N  
HETATM    4  C   UNL     1     -10.298  10.549  65.947  1.00  0.00    -0.206 C  
HETATM    5  C   UNL     1     -11.390  10.686  68.166  1.00  0.00    -0.284 C  
HETATM    6  O   UNL     1     -11.586  10.294  69.311  1.00  0.00    -0.206 OA 
BRANCH   5   7
HETATM    7  O   UNL     1     -11.839  11.900  67.651  1.00  0.00    -0.534 OA 
BRANCH   7   8
HETATM    8  C   UNL     1     -11.346  13.080  68.230  1.00  0.00    -0.288 A  
HETATM    9  C   UNL     1     -10.026  13.436  67.963  1.00  0.00    -0.239 A  
HETATM   10  C   UNL     1      -9.477  14.544  68.607  1.00  0.00    -0.205 A  
HETATM   11  C   UNL     1     -10.237  15.279  69.526  1.00  0.00    -0.265 A  
HETATM   12  C   UNL     1     -11.557  14.906  69.824  1.00  0.00    -0.339 A  
HETATM   13  C   UNL     1     -12.101  13.794  69.160  1.00  0.00    -0.374 A  
BRANCH  12  14
HETATM   14  C   UNL     1     -12.415  15.620  70.865  1.00  0.00    -0.445 C  
HETATM   15  C   UNL     1     -11.564  16.518  71.778  1.00  0.00    -0.207 C  
BRANCH  14  16
HETATM   16  N   UNL     1     -13.381  14.768  71.594  1.00  0.00    -0.335 NA 
HETATM   17  C   UNL     1     -12.732  13.742  72.411  1.00  0.00    -0.155 C  
HETATM   18  C   UNL     1     -14.406  15.465  72.358  1.00  0.00    -0.398 C  
ENDBRANCH  14  16
ENDBRANCH  12  14
ENDBRANCH   7   8
ENDBRANCH   5   7
ENDBRANCH   2   3
TORSDOF 5
ENDMDL
MODEL       99
REMARK 921   NORMALIZED FREE ENERGY PREDICTED BY IDOCK:   -3.81 KCAL/MOL
REMARK 922        TOTAL FREE ENERGY PREDICTED BY IDOCK:   -5.54 KCAL/MOL
REMARK 923 INTER-LIGAND FREE ENERGY PREDICTED BY IDOCK:   -5.27 KCAL/MOL
REMARK 924 INTRA-LIGAND FREE ENERGY PREDICTED BY IDOCK:   -0.26 KCAL/MOL
REMARK 927      BINDING AFFINITY PREDICTED BY RF-SCORE:    0.00 PKD
ROOT
HETATM    1  C   UNL     1      -7.369  19.871  65.588  1.00  0.00    -0.316 C  
HETATM    2  C   UNL     1      -7.743  18.955  66.747  1.00  0.00    -0.240 C  
ENDROOT
BRANCH   2   3
HETATM    3  N   UNL     1      -9.052  18.336  66.582  1.00  0.00    -0.282 N  
HETATM    4  C   UNL     1     -10.239  19.157  66.754  1.00  0.00    -0.400 C  
HETATM    5  C   UNL     1      -9.148  16.944  66.539  1.00  0.00    -0.273 C  
HETATM    6  O   UNL     1      -8.168  16.206  66.538  1.00  0.00    -0.263 OA 
BRANCH   5   7
HETATM    7  O   UNL     1     -10.472  16.511  66.533  1.00  0.00    -0.301 OA 
BRANCH   7   8
HETATM    8  C   UNL     1     -10.900  15.698  67.594  1.00  0.00    -0.307 A  
HETATM    9  C   UNL     1     -11.363  16.323  68.749  1.00  0.00    -0.329 A  
HETATM   10  C   UNL     1     -11.695  15.545  69.858  1.00  0.00    -0.368 A  
HETATM   11  C   UNL     1     -11.547  14.152  69.816  1.00  0.00    -0.351 A  
HETATM   12  C   UNL     1     -11.050  13.519  68.666  1.00  0.00    -0.299 A  
HETATM   13  C   UNL     1     -10.729  14.314  67.554  1.00  0.00    -0.270 A  
BRANCH  12  14
HETATM   14  C   UNL     1     -10.800  12.016  68.579  1.00  0.00    -0.233 C  
HETATM   15  C   UNL     1     -11.392  11.419  67.293  1.00  0.00    -0.347 C  
BRANCH  14  16
HETATM   16  N   UNL     1     -11.116  11.242  69.801  1.00  0.00    -0.213 NA 
HETATM   17  C   UNL     1     -12.532  10.883  69.898  1.00  0.00    -0.224 C  
HETATM   18  C   UNL     1     -10.273  10.085  70.066  1.00  0.00    -0.255 C  
ENDBRANCH  14  16
ENDBRANCH  12  14
ENDBRANCH   7   8
ENDBRANCH   5   7
ENDBRANCH   2   3
TORSDOF 5
ENDMDL
MODEL      100
REMARK 921   NORMALIZED FREE ENERGY PREDICTED BY IDOCK:   -3.79 KCAL/MOL
REMARK 922        TOTAL FREE ENERGY PREDICTED BY IDOCK:   -5.51 KCAL/MOL
REMARK 923 INTER-LIGAND FREE ENERGY PREDICTED BY IDOCK:   -5.26 KCAL/MOL
REMARK 924 INTRA-LIGAND FREE ENERGY PREDICTED BY IDOCK:   -0.25 KCAL/MOL
REMARK 927      BINDING AFFINITY PREDICTED BY RF-SCORE:    0.00 PKD
ROOT
HETATM    1  C   UNL     1      -7.492  19.403  67.281  1.00  0.00    -0.254 C  
HETATM    2  C   UNL     1      -7.777  17.974  66.834  1.00  0.00    -0.223 C  
ENDROOT
BRANCH   2   3
HETATM    3  N   UNL     1      -9.066  17.479  67.302  1.00  0.00    -0.236 N  
HETATM    4  C   UNL     1      -9.490  17.804  68.652  1.00  0.00    -0.283 C  
HETATM    5  C   UNL     1      -9.727  16.495  66.564  1.00  0.00    -0.272 C  
HETATM    6  O   UNL     1      -9.322  16.086  65.481  1.00  0.00    -0.380 OA 
BRANCH   5   7
HETATM    7  O   UNL     1     -10.861  16.023  67.220  1.00  0.00    -0.313 OA 
BRANCH   7   8
HETATM    8  C   UNL     1     -11.081  14.637  67.234  1.00  0.00    -0.328 A  
HETATM    9  C   UNL     1     -11.577  14.043  66.076  1.00  0.00    -0.362 A  
HETATM   10  C   UNL     1     -11.905  12.688  66.094  1.00  0.00    -0.477 A  
HETATM   11  C   UNL     1     -11.754  11.937  67.267  1.00  0.00    -0.319 A  
HETATM   12  C   UNL     1     -11.284  12.536  68.445  1.00  0.00    -0.313 A  
HETATM   13  C   UNL     1     -10.948  13.900  68.411  1.00  0.00    -0.272 A  
BRANCH  12  14
HETATM   14  C   UNL     1     -11.162  11.793  69.772  1.00  0.00    -0.090 C  
HETATM   15  C   UNL     1     -10.247  10.564  69.649  1.00  0.00    -0.207 C  
BRANCH  14  16
HETATM   16  N   UNL     1     -12.437  11.522  70.475  1.00  0.00    -0.305 NA 
HETATM   17  C   UNL     1     -12.425  10.256  71.210  1.00  0.00    -0.408 C  
HETATM   18  C   UNL     1     -12.952  12.598  71.310  1.00  0.00    -0.214 C  
ENDBRANCH  14  16
ENDBRANCH  12  14
ENDBRANCH   7   8
ENDBRANCH   5   7
ENDBRANCH   2   3
TORSDOF 5
ENDMDL
MODEL      101
REMARK 921   NORMALIZED FREE ENERGY PREDICTED BY IDOCK:   -3.78 KCAL/MOL
REMARK 922        TOTAL FREE ENERGY PREDICTED BY IDOCK:   -5.49 KCAL/MOL
REMARK 923 INTER-LIGAND FREE ENERGY PREDICTED BY IDOCK:   -4.99 KCAL/MOL
REMARK 924 INTRA-LIGAND FREE ENERGY PREDICTED BY IDOCK:   -0.51 KCAL/MOL
REMARK 927      BINDING AFFINITY PREDICTED BY RF-SCORE:    0.00 PKD
ROOT
HETATM    1  C   UNL     1     -11.802  10.479  70.533  1.00  0.00    -0.442 C  
HETATM    2  C   UNL     1     -12.149  11.272  69.278  1.00  0.00    -0.303 C  
ENDROOT
BRANCH   2   3
HETATM    3  N   UNL     1     -11.895  12.700  69.421  1.00  0.00    -0.305 N  
HETATM    4  C   UNL     1     -12.396  13.385  70.600  1.00  0.00    -0.348 C  
HETATM    5  C   UNL     1     -11.429  13.423  68.320  1.00  0.00    -0.315 C  
HETATM    6  O   UNL     1     -11.131  12.898  67.253  1.00  0.00    -0.258 OA 
BRANCH   5   7
HETATM    7  O   UNL     1     -11.384  14.792  68.575  1.00  0.00    -0.264 OA 
BRANCH   7   8
HETATM    8  C   UNL     1     -10.141  15.435  68.480  1.00  0.00    -0.213 A  
HETATM    9  C   UNL     1      -9.159  15.097  69.408  1.00  0.00    -0.180 A  
HETATM   10  C   UNL     1      -7.951  15.794  69.406  1.00  0.00    -0.211 A  
HETATM   11  C   UNL     1      -7.735  16.835  68.492  1.00  0.00    -0.223 A  
HETATM   12  C   UNL     1      -8.733  17.201  67.576  1.00  0.00    -0.211 A  
HETATM   13  C   UNL     1      -9.941  16.484  67.583  1.00  0.00    -0.254 A  
BRANCH  12  14
HETATM   14  C   UNL     1      -8.589  18.369  66.603  1.00  0.00    -0.278 C  
HETATM   15  C   UNL     1      -7.247  18.319  65.856  1.00  0.00    -0.270 C  
BRANCH  14  16
HETATM   16  N   UNL     1      -8.921  19.704  67.150  1.00  0.00    -0.304 NA 
HETATM   17  C   UNL     1      -7.814  20.655  67.043  1.00  0.00    -0.250 C  
HETATM   18  C   UNL     1     -10.162  20.302  66.679  1.00  0.00    -0.359 C  
ENDBRANCH  14  16
ENDBRANCH  12  14
ENDBRANCH   7   8
ENDBRANCH   5   7
ENDBRANCH   2   3
TORSDOF 5
ENDMDL
MODEL      102
REMARK 921   NORMALIZED FREE ENERGY PREDICTED BY IDOCK:   -3.78 KCAL/MOL
REMARK 922        TOTAL FREE ENERGY PREDICTED BY IDOCK:   -5.49 KCAL/MOL
REMARK 923 INTER-LIGAND FREE ENERGY PREDICTED BY IDOCK:   -5.47 KCAL/MOL
REMARK 924 INTRA-LIGAND FREE ENERGY PREDICTED BY IDOCK:   -0.02 KCAL/MOL
REMARK 927      BINDING AFFINITY PREDICTED BY RF-SCORE:    0.00 PKD
ROOT
HETATM    1  C   UNL     1     -10.443  19.983  65.793  1.00  0.00    -0.469 C  
HETATM    2  C   UNL     1      -9.830  20.240  67.165  1.00  0.00    -0.466 C  
ENDROOT
BRANCH   2   3
HETATM    3  N   UNL     1      -8.862  19.222  67.554  1.00  0.00    -0.294 N  
HETATM    4  C   UNL     1      -7.629  19.106  66.796  1.00  0.00    -0.239 C  
HETATM    5  C   UNL     1      -9.248  18.220  68.447  1.00  0.00    -0.317 C  
HETATM    6  O   UNL     1     -10.342  18.203  69.001  1.00  0.00    -0.337 OA 
BRANCH   5   7
HETATM    7  O   UNL     1      -8.264  17.245  68.595  1.00  0.00    -0.258 OA 
BRANCH   7   8
HETATM    8  C   UNL     1      -8.535  15.961  68.100  1.00  0.00    -0.167 A  
HETATM    9  C   UNL     1      -7.690  14.922  68.483  1.00  0.00    -0.123 A  
HETATM   10  C   UNL     1      -7.870  13.657  67.924  1.00  0.00    -0.159 A  
HETATM   11  C   UNL     1      -8.877  13.439  66.974  1.00  0.00    -0.217 A  
HETATM   12  C   UNL     1      -9.710  14.489  66.560  1.00  0.00    -0.301 A  
HETATM   13  C   UNL     1      -9.525  15.755  67.139  1.00  0.00    -0.222 A  
BRANCH  12  14
HETATM   14  C   UNL     1     -10.779  14.335  65.481  1.00  0.00    -0.331 C  
HETATM   15  C   UNL     1     -11.002  15.649  64.716  1.00  0.00    -0.418 C  
BRANCH  14  16
HETATM   16  N   UNL     1     -12.031  13.670  65.908  1.00  0.00    -0.381 NA 
HETATM   17  C   UNL     1     -12.645  12.873  64.844  1.00  0.00    -0.458 C  
HETATM   18  C   UNL     1     -11.966  12.911  67.148  1.00  0.00    -0.310 C  
ENDBRANCH  14  16
ENDBRANCH  12  14
ENDBRANCH   7   8
ENDBRANCH   5   7
ENDBRANCH   2   3
TORSDOF 5
ENDMDL
MODEL      103
REMARK 921   NORMALIZED FREE ENERGY PREDICTED BY IDOCK:   -3.77 KCAL/MOL
REMARK 922        TOTAL FREE ENERGY PREDICTED BY IDOCK:   -5.48 KCAL/MOL
REMARK 923 INTER-LIGAND FREE ENERGY PREDICTED BY IDOCK:   -5.07 KCAL/MOL
REMARK 924 INTRA-LIGAND FREE ENERGY PREDICTED BY IDOCK:   -0.41 KCAL/MOL
REMARK 927      BINDING AFFINITY PREDICTED BY RF-SCORE:    0.00 PKD
ROOT
HETATM    1  C   UNL     1      -9.766  15.681  65.987  1.00  0.00    -0.378 C  
HETATM    2  C   UNL     1     -11.230  15.371  65.698  1.00  0.00    -0.208 C  
ENDROOT
BRANCH   2   3
HETATM    3  N   UNL     1     -11.538  13.950  65.789  1.00  0.00    -0.328 N  
HETATM    4  C   UNL     1     -11.906  13.236  64.578  1.00  0.00    -0.387 C  
HETATM    5  C   UNL     1     -11.741  13.375  67.045  1.00  0.00    -0.381 C  
HETATM    6  O   UNL     1     -11.580  13.988  68.095  1.00  0.00    -0.295 OA 
BRANCH   5   7
HETATM    7  O   UNL     1     -12.175  12.055  66.952  1.00  0.00    -0.529 OA 
BRANCH   7   8
HETATM    8  C   UNL     1     -11.356  11.056  67.500  1.00  0.00    -0.257 A  
HETATM    9  C   UNL     1     -10.332  10.543  66.709  1.00  0.00    -0.301 A  
HETATM   10  C   UNL     1      -9.570   9.478  67.187  1.00  0.00    -0.206 A  
HETATM   11  C   UNL     1      -9.844   8.917  68.441  1.00  0.00    -0.191 A  
HETATM   12  C   UNL     1     -10.896   9.407  69.230  1.00  0.00    -0.190 A  
HETATM   13  C   UNL     1     -11.649  10.488  68.740  1.00  0.00    -0.252 A  
BRANCH  12  14
HETATM   14  C   UNL     1     -11.291   8.798  70.572  1.00  0.00    -0.227 C  
HETATM   15  C   UNL     1     -12.075   9.798  71.437  1.00  0.00    -0.486 C  
BRANCH  14  16
HETATM   16  N   UNL     1     -10.211   8.094  71.300  1.00  0.00    -0.192 NA 
HETATM   17  C   UNL     1      -9.542   8.942  72.287  1.00  0.00    -0.047 C  
HETATM   18  C   UNL     1     -10.559   6.805  71.879  1.00  0.00    -0.209 C  
ENDBRANCH  14  16
ENDBRANCH  12  14
ENDBRANCH   7   8
ENDBRANCH   5   7
ENDBRANCH   2   3
TORSDOF 5
ENDMDL
MODEL      104
REMARK 921   NORMALIZED FREE ENERGY PREDICTED BY IDOCK:   -3.76 KCAL/MOL
REMARK 922        TOTAL FREE ENERGY PREDICTED BY IDOCK:   -5.47 KCAL/MOL
REMARK 923 INTER-LIGAND FREE ENERGY PREDICTED BY IDOCK:   -5.17 KCAL/MOL
REMARK 924 INTRA-LIGAND FREE ENERGY PREDICTED BY IDOCK:   -0.30 KCAL/MOL
REMARK 927      BINDING AFFINITY PREDICTED BY RF-SCORE:    0.00 PKD
ROOT
HETATM    1  C   UNL     1      -7.104  17.514  66.874  1.00  0.00    -0.225 C  
HETATM    2  C   UNL     1      -8.250  17.358  67.868  1.00  0.00    -0.225 C  
ENDROOT
BRANCH   2   3
HETATM    3  N   UNL     1      -9.466  16.838  67.255  1.00  0.00    -0.228 N  
HETATM    4  C   UNL     1     -10.275  17.731  66.443  1.00  0.00    -0.365 C  
HETATM    5  C   UNL     1      -9.967  15.605  67.675  1.00  0.00    -0.237 C  
HETATM    6  O   UNL     1      -9.381  14.882  68.474  1.00  0.00    -0.183 OA 
BRANCH   5   7
HETATM    7  O   UNL     1     -11.208  15.324  67.108  1.00  0.00    -0.334 OA 
BRANCH   7   8
HETATM    8  C   UNL     1     -11.254  14.395  66.058  1.00  0.00    -0.333 A  
HETATM    9  C   UNL     1     -12.031  14.706  64.944  1.00  0.00    -0.402 A  
HETATM   10  C   UNL     1     -12.181  13.758  63.933  1.00  0.00    -0.402 A  
HETATM   11  C   UNL     1     -11.572  12.501  64.044  1.00  0.00    -0.485 A  
HETATM   12  C   UNL     1     -10.814  12.170  65.177  1.00  0.00    -0.343 A  
HETATM   13  C   UNL     1     -10.663  13.138  66.184  1.00  0.00    -0.289 A  
BRANCH  12  14
HETATM   14  C   UNL     1     -10.183  10.797  65.392  1.00  0.00    -0.276 C  
HETATM   15  C   UNL     1     -10.335  10.327  66.847  1.00  0.00    -0.298 C  
BRANCH  14  16
HETATM   16  N   UNL     1      -8.817  10.627  64.847  1.00  0.00    -0.193 NA 
HETATM   17  C   UNL     1      -7.846  10.211  65.860  1.00  0.00    -0.132 C  
HETATM   18  C   UNL     1      -8.698   9.805  63.651  1.00  0.00    -0.221 C  
ENDBRANCH  14  16
ENDBRANCH  12  14
ENDBRANCH   7   8
ENDBRANCH   5   7
ENDBRANCH   2   3
TORSDOF 5
ENDMDL
MODEL      105
REMARK 921   NORMALIZED FREE ENERGY PREDICTED BY IDOCK:   -3.75 KCAL/MOL
REMARK 922        TOTAL FREE ENERGY PREDICTED BY IDOCK:   -5.45 KCAL/MOL
REMARK 923 INTER-LIGAND FREE ENERGY PREDICTED BY IDOCK:   -5.28 KCAL/MOL
REMARK 924 INTRA-LIGAND FREE ENERGY PREDICTED BY IDOCK:   -0.17 KCAL/MOL
REMARK 927      BINDING AFFINITY PREDICTED BY RF-SCORE:    0.00 PKD
ROOT
HETATM    1  C   UNL     1     -10.704  10.346  69.899  1.00  0.00    -0.331 C  
HETATM    2  C   UNL     1     -11.425  10.796  68.634  1.00  0.00    -0.295 C  
ENDROOT
BRANCH   2   3
HETATM    3  N   UNL     1     -10.544  11.468  67.686  1.00  0.00    -0.191 N  
HETATM    4  C   UNL     1      -9.198  11.815  68.110  1.00  0.00    -0.186 C  
HETATM    5  C   UNL     1     -11.082  12.001  66.514  1.00  0.00    -0.314 C  
HETATM    6  O   UNL     1     -12.256  11.852  66.189  1.00  0.00    -0.459 OA 
BRANCH   5   7
HETATM    7  O   UNL     1     -10.144  12.738  65.796  1.00  0.00    -0.281 OA 
BRANCH   7   8
HETATM    8  C   UNL     1     -10.369  14.115  65.644  1.00  0.00    -0.333 A  
HETATM    9  C   UNL     1     -11.311  14.523  64.702  1.00  0.00    -0.372 A  
HETATM   10  C   UNL     1     -11.480  15.884  64.454  1.00  0.00    -0.268 A  
HETATM   11  C   UNL     1     -10.699  16.830  65.131  1.00  0.00    -0.159 A  
HETATM   12  C   UNL     1      -9.726  16.425  66.057  1.00  0.00    -0.356 A  
HETATM   13  C   UNL     1      -9.574  15.051  66.305  1.00  0.00    -0.335 A  
BRANCH  12  14
HETATM   14  C   UNL     1      -8.796  17.398  66.777  1.00  0.00    -0.251 C  
HETATM   15  C   UNL     1      -7.585  16.676  67.387  1.00  0.00    -0.191 C  
BRANCH  14  16
HETATM   16  N   UNL     1      -9.454  18.350  67.701  1.00  0.00    -0.270 NA 
HETATM   17  C   UNL     1      -9.910  19.570  67.034  1.00  0.00    -0.360 C  
HETATM   18  C   UNL     1     -10.504  17.802  68.548  1.00  0.00    -0.328 C  
ENDBRANCH  14  16
ENDBRANCH  12  14
ENDBRANCH   7   8
ENDBRANCH   5   7
ENDBRANCH   2   3
TORSDOF 5
ENDMDL
MODEL      106
REMARK 921   NORMALIZED FREE ENERGY PREDICTED BY IDOCK:   -3.75 KCAL/MOL
REMARK 922        TOTAL FREE ENERGY PREDICTED BY IDOCK:   -5.45 KCAL/MOL
REMARK 923 INTER-LIGAND FREE ENERGY PREDICTED BY IDOCK:   -5.33 KCAL/MOL
REMARK 924 INTRA-LIGAND FREE ENERGY PREDICTED BY IDOCK:   -0.11 KCAL/MOL
REMARK 927      BINDING AFFINITY PREDICTED BY RF-SCORE:    0.00 PKD
ROOT
HETATM    1  C   UNL     1     -11.657  13.741  64.522  1.00  0.00    -0.413 C  
HETATM    2  C   UNL     1     -12.302  12.927  65.638  1.00  0.00    -0.423 C  
ENDROOT
BRANCH   2   3
HETATM    3  N   UNL     1     -11.327  12.357  66.560  1.00  0.00    -0.319 N  
HETATM    4  C   UNL     1     -10.499  11.254  66.106  1.00  0.00    -0.254 C  
HETATM    5  C   UNL     1     -11.397  12.686  67.915  1.00  0.00    -0.288 C  
HETATM    6  O   UNL     1     -12.186  13.512  68.363  1.00  0.00    -0.315 OA 
BRANCH   5   7
HETATM    7  O   UNL     1     -10.500  11.945  68.680  1.00  0.00    -0.211 OA 
BRANCH   7   8
HETATM    8  C   UNL     1     -11.002  10.849  69.400  1.00  0.00    -0.252 A  
HETATM    9  C   UNL     1     -11.902  11.103  70.431  1.00  0.00    -0.462 A  
HETATM   10  C   UNL     1     -12.336  10.046  71.231  1.00  0.00    -0.496 A  
HETATM   11  C   UNL     1     -11.857   8.748  71.012  1.00  0.00    -0.315 A  
HETATM   12  C   UNL     1     -10.925   8.492  69.995  1.00  0.00    -0.197 A  
HETATM   13  C   UNL     1     -10.505   9.563  69.190  1.00  0.00    -0.224 A  
BRANCH  12  14
HETATM   14  C   UNL     1     -10.312   7.116  69.747  1.00  0.00    -0.214 C  
HETATM   15  C   UNL     1     -11.159   6.288  68.768  1.00  0.00    -0.424 C  
BRANCH  14  16
HETATM   16  N   UNL     1      -9.898   6.371  70.958  1.00  0.00    -0.179 NA 
HETATM   17  C   UNL     1     -10.157   4.934  70.860  1.00  0.00    -0.222 C  
HETATM   18  C   UNL     1      -8.545   6.620  71.435  1.00  0.00    -0.125 C  
ENDBRANCH  14  16
ENDBRANCH  12  14
ENDBRANCH   7   8
ENDBRANCH   5   7
ENDBRANCH   2   3
TORSDOF 5
ENDMDL
MODEL      107
REMARK 921   NORMALIZED FREE ENERGY PREDICTED BY IDOCK:   -3.74 KCAL/MOL
REMARK 922        TOTAL FREE ENERGY PREDICTED BY IDOCK:   -5.44 KCAL/MOL
REMARK 923 INTER-LIGAND FREE ENERGY PREDICTED BY IDOCK:   -5.55 KCAL/MOL
REMARK 924 INTRA-LIGAND FREE ENERGY PREDICTED BY IDOCK:    0.10 KCAL/MOL
REMARK 927      BINDING AFFINITY PREDICTED BY RF-SCORE:    0.00 PKD
ROOT
HETATM    1  C   UNL     1      -7.351  17.531  66.061  1.00  0.00    -0.288 C  
HETATM    2  C   UNL     1      -8.717  17.302  66.696  1.00  0.00    -0.257 C  
ENDROOT
BRANCH   2   3
HETATM    3  N   UNL     1      -9.316  16.030  66.311  1.00  0.00    -0.293 N  
HETATM    4  C   UNL     1     -10.547  16.042  65.540  1.00  0.00    -0.398 C  
HETATM    5  C   UNL     1      -8.861  14.853  66.911  1.00  0.00    -0.258 C  
HETATM    6  O   UNL     1      -7.910  14.822  67.684  1.00  0.00    -0.144 OA 
BRANCH   5   7
HETATM    7  O   UNL     1      -9.634  13.751  66.552  1.00  0.00    -0.274 OA 
BRANCH   7   8
HETATM    8  C   UNL     1     -10.338  13.086  67.568  1.00  0.00    -0.224 A  
HETATM    9  C   UNL     1     -10.445  11.700  67.488  1.00  0.00    -0.228 A  
HETATM   10  C   UNL     1     -11.226  11.023  68.424  1.00  0.00    -0.337 A  
HETATM   11  C   UNL     1     -11.911  11.730  69.421  1.00  0.00    -0.398 A  
HETATM   12  C   UNL     1     -11.833  13.130  69.487  1.00  0.00    -0.383 A  
HETATM   13  C   UNL     1     -11.034  13.798  68.545  1.00  0.00    -0.283 A  
BRANCH  12  14
HETATM   14  C   UNL     1     -12.607  13.965  70.503  1.00  0.00    -0.312 C  
HETATM   15  C   UNL     1     -12.301  15.464  70.353  1.00  0.00    -0.443 C  
BRANCH  14  16
HETATM   16  N   UNL     1     -12.559  13.481  71.901  1.00  0.00    -0.177 NA 
HETATM   17  C   UNL     1     -12.917  14.513  72.875  1.00  0.00    -0.488 C  
HETATM   18  C   UNL     1     -13.270  12.241  72.179  1.00  0.00    -0.361 C  
ENDBRANCH  14  16
ENDBRANCH  12  14
ENDBRANCH   7   8
ENDBRANCH   5   7
ENDBRANCH   2   3
TORSDOF 5
ENDMDL
MODEL      108
REMARK 921   NORMALIZED FREE ENERGY PREDICTED BY IDOCK:   -3.74 KCAL/MOL
REMARK 922        TOTAL FREE ENERGY PREDICTED BY IDOCK:   -5.44 KCAL/MOL
REMARK 923 INTER-LIGAND FREE ENERGY PREDICTED BY IDOCK:   -5.59 KCAL/MOL
REMARK 924 INTRA-LIGAND FREE ENERGY PREDICTED BY IDOCK:    0.15 KCAL/MOL
REMARK 927      BINDING AFFINITY PREDICTED BY RF-SCORE:    0.00 PKD
ROOT
HETATM    1  C   UNL     1     -11.184   6.105  70.936  1.00  0.00    -0.365 C  
HETATM    2  C   UNL     1     -11.365   6.334  69.440  1.00  0.00    -0.378 C  
ENDROOT
BRANCH   2   3
HETATM    3  N   UNL     1     -10.311   7.156  68.859  1.00  0.00    -0.191 N  
HETATM    4  C   UNL     1      -9.386   7.836  69.750  1.00  0.00    -0.153 C  
HETATM    5  C   UNL     1     -10.374   7.491  67.506  1.00  0.00    -0.252 C  
HETATM    6  O   UNL     1     -11.231   7.049  66.747  1.00  0.00    -0.229 OA 
BRANCH   5   7
HETATM    7  O   UNL     1      -9.383   8.400  67.145  1.00  0.00    -0.143 OA 
BRANCH   7   8
HETATM    8  C   UNL     1      -9.675   9.316  66.122  1.00  0.00    -0.279 A  
HETATM    9  C   UNL     1      -9.083   9.114  64.877  1.00  0.00    -0.190 A  
HETATM   10  C   UNL     1      -9.269  10.064  63.873  1.00  0.00    -0.317 A  
HETATM   11  C   UNL     1     -10.027  11.216  64.120  1.00  0.00    -0.369 A  
HETATM   12  C   UNL     1     -10.599  11.441  65.381  1.00  0.00    -0.333 A  
HETATM   13  C   UNL     1     -10.412  10.471  66.380  1.00  0.00    -0.258 A  
BRANCH  12  14
HETATM   14  C   UNL     1     -11.377  12.705  65.735  1.00  0.00    -0.333 C  
HETATM   15  C   UNL     1     -11.801  12.712  67.213  1.00  0.00    -0.395 C  
BRANCH  14  16
HETATM   16  N   UNL     1     -12.463  13.074  64.799  1.00  0.00    -0.568 NA 
HETATM   17  C   UNL     1     -12.285  14.404  64.215  1.00  0.00    -0.423 C  
HETATM   18  C   UNL     1     -12.784  12.097  63.769  1.00  0.00    -0.411 C  
ENDBRANCH  14  16
ENDBRANCH  12  14
ENDBRANCH   7   8
ENDBRANCH   5   7
ENDBRANCH   2   3
TORSDOF 5
ENDMDL
MODEL      109
REMARK 921   NORMALIZED FREE ENERGY PREDICTED BY IDOCK:   -3.73 KCAL/MOL
REMARK 922        TOTAL FREE ENERGY PREDICTED BY IDOCK:   -5.43 KCAL/MOL
REMARK 923 INTER-LIGAND FREE ENERGY PREDICTED BY IDOCK:   -5.16 KCAL/MOL
REMARK 924 INTRA-LIGAND FREE ENERGY PREDICTED BY IDOCK:   -0.27 KCAL/MOL
REMARK 927      BINDING AFFINITY PREDICTED BY RF-SCORE:    0.00 PKD
ROOT
HETATM    1  C   UNL     1      -9.984  20.405  67.193  1.00  0.00    -0.568 C  
HETATM    2  C   UNL     1     -10.124  19.022  67.817  1.00  0.00    -0.379 C  
ENDROOT
BRANCH   2   3
HETATM    3  N   UNL     1      -9.641  17.955  66.949  1.00  0.00    -0.289 N  
HETATM    4  C   UNL     1     -10.468  17.536  65.831  1.00  0.00    -0.249 C  
HETATM    5  C   UNL     1      -8.550  17.185  67.357  1.00  0.00    -0.203 C  
HETATM    6  O   UNL     1      -7.910  17.420  68.376  1.00  0.00    -0.236 OA 
BRANCH   5   7
HETATM    7  O   UNL     1      -8.312  16.118  66.495  1.00  0.00    -0.261 OA 
BRANCH   7   8
HETATM    8  C   UNL     1      -8.443  14.818  67.008  1.00  0.00    -0.222 A  
HETATM    9  C   UNL     1      -7.307  14.205  67.531  1.00  0.00    -0.193 A  
HETATM   10  C   UNL     1      -7.382  12.878  67.951  1.00  0.00    -0.127 A  
HETATM   11  C   UNL     1      -8.581  12.163  67.832  1.00  0.00    -0.167 A  
HETATM   12  C   UNL     1      -9.721  12.766  67.277  1.00  0.00    -0.206 A  
HETATM   13  C   UNL     1      -9.634  14.106  66.867  1.00  0.00    -0.275 A  
BRANCH  12  14
HETATM   14  C   UNL     1     -11.036  12.024  67.055  1.00  0.00    -0.298 C  
HETATM   15  C   UNL     1     -11.730  12.479  65.761  1.00  0.00    -0.478 C  
BRANCH  14  16
HETATM   16  N   UNL     1     -11.939  11.956  68.227  1.00  0.00    -0.493 NA 
HETATM   17  C   UNL     1     -11.595  10.873  69.149  1.00  0.00    -0.319 C  
HETATM   18  C   UNL     1     -12.151  13.201  68.950  1.00  0.00    -0.194 C  
ENDBRANCH  14  16
ENDBRANCH  12  14
ENDBRANCH   7   8
ENDBRANCH   5   7
ENDBRANCH   2   3
TORSDOF 5
ENDMDL
MODEL      110
REMARK 921   NORMALIZED FREE ENERGY PREDICTED BY IDOCK:   -3.72 KCAL/MOL
REMARK 922        TOTAL FREE ENERGY PREDICTED BY IDOCK:   -5.41 KCAL/MOL
REMARK 923 INTER-LIGAND FREE ENERGY PREDICTED BY IDOCK:   -4.92 KCAL/MOL
REMARK 924 INTRA-LIGAND FREE ENERGY PREDICTED BY IDOCK:   -0.49 KCAL/MOL
REMARK 927      BINDING AFFINITY PREDICTED BY RF-SCORE:    0.00 PKD
ROOT
HETATM    1  C   UNL     1     -11.015  14.214  65.574  1.00  0.00    -0.310 C  
HETATM    2  C   UNL     1     -11.868  12.950  65.582  1.00  0.00    -0.417 C  
ENDROOT
BRANCH   2   3
HETATM    3  N   UNL     1     -11.112  11.759  65.948  1.00  0.00    -0.315 N  
HETATM    4  C   UNL     1     -10.382  11.050  64.911  1.00  0.00    -0.313 C  
HETATM    5  C   UNL     1     -11.323  11.174  67.198  1.00  0.00    -0.181 C  
HETATM    6  O   UNL     1     -12.050  11.669  68.053  1.00  0.00    -0.597 OA 
BRANCH   5   7
HETATM    7  O   UNL     1     -10.645   9.965  67.331  1.00  0.00    -0.253 OA 
BRANCH   7   8
HETATM    8  C   UNL     1     -10.083   9.664  68.581  1.00  0.00    -0.179 A  
HETATM    9  C   UNL     1      -8.831  10.196  68.880  1.00  0.00    -0.154 A  
HETATM   10  C   UNL     1      -8.201   9.829  70.068  1.00  0.00    -0.207 A  
HETATM   11  C   UNL     1      -8.812   8.921  70.943  1.00  0.00    -0.268 A  
HETATM   12  C   UNL     1     -10.058   8.357  70.633  1.00  0.00    -0.220 A  
HETATM   13  C   UNL     1     -10.686   8.743  69.437  1.00  0.00    -0.180 A  
BRANCH  12  14
HETATM   14  C   UNL     1     -10.745   7.311  71.507  1.00  0.00    -0.219 C  
HETATM   15  C   UNL     1     -11.074   7.868  72.901  1.00  0.00    -0.442 C  
BRANCH  14  16
HETATM   16  N   UNL     1     -10.107   5.975  71.531  1.00  0.00    -0.188 NA 
HETATM   17  C   UNL     1     -10.430   5.210  72.737  1.00  0.00    -0.214 C  
HETATM   18  C   UNL     1     -10.280   5.157  70.340  1.00  0.00    -0.264 C  
ENDBRANCH  14  16
ENDBRANCH  12  14
ENDBRANCH   7   8
ENDBRANCH   5   7
ENDBRANCH   2   3
TORSDOF 5
ENDMDL
MODEL      111
REMARK 921   NORMALIZED FREE ENERGY PREDICTED BY IDOCK:   -3.70 KCAL/MOL
REMARK 922        TOTAL FREE ENERGY PREDICTED BY IDOCK:   -5.38 KCAL/MOL
REMARK 923 INTER-LIGAND FREE ENERGY PREDICTED BY IDOCK:   -5.03 KCAL/MOL
REMARK 924 INTRA-LIGAND FREE ENERGY PREDICTED BY IDOCK:   -0.36 KCAL/MOL
REMARK 927      BINDING AFFINITY PREDICTED BY RF-SCORE:    0.00 PKD
ROOT
HETATM    1  C   UNL     1     -11.228   4.862  73.098  1.00  0.00    -0.403 C  
HETATM    2  C   UNL     1     -10.560   6.073  72.459  1.00  0.00    -0.216 C  
ENDROOT
BRANCH   2   3
HETATM    3  N   UNL     1     -11.508   7.123  72.106  1.00  0.00    -0.262 N  
HETATM    4  C   UNL     1     -12.730   6.756  71.412  1.00  0.00    -0.263 C  
HETATM    5  C   UNL     1     -11.108   8.458  72.188  1.00  0.00    -0.345 C  
HETATM    6  O   UNL     1     -10.020   8.804  72.636  1.00  0.00    -0.199 OA 
BRANCH   5   7
HETATM    7  O   UNL     1     -12.069   9.325  71.673  1.00  0.00    -0.331 OA 
BRANCH   7   8
HETATM    8  C   UNL     1     -11.724  10.096  70.553  1.00  0.00    -0.322 A  
HETATM    9  C   UNL     1     -12.134  11.427  70.524  1.00  0.00    -0.487 A  
HETATM   10  C   UNL     1     -11.897  12.187  69.380  1.00  0.00    -0.370 A  
HETATM   11  C   UNL     1     -11.271  11.614  68.265  1.00  0.00    -0.320 A  
HETATM   12  C   UNL     1     -10.885  10.266  68.275  1.00  0.00    -0.300 A  
HETATM   13  C   UNL     1     -11.120   9.514  69.438  1.00  0.00    -0.136 A  
BRANCH  12  14
HETATM   14  C   UNL     1     -10.262   9.563  67.072  1.00  0.00    -0.255 C  
HETATM   15  C   UNL     1     -10.512   8.047  67.112  1.00  0.00    -0.408 C  
BRANCH  14  16
HETATM   16  N   UNL     1      -8.861   9.931  66.768  1.00  0.00    -0.134 NA 
HETATM   17  C   UNL     1      -8.756  11.044  65.823  1.00  0.00    -0.174 C  
HETATM   18  C   UNL     1      -7.988  10.144  67.914  1.00  0.00    -0.101 C  
ENDBRANCH  14  16
ENDBRANCH  12  14
ENDBRANCH   7   8
ENDBRANCH   5   7
ENDBRANCH   2   3
TORSDOF 5
ENDMDL
MODEL      112
REMARK 921   NORMALIZED FREE ENERGY PREDICTED BY IDOCK:   -3.69 KCAL/MOL
REMARK 922        TOTAL FREE ENERGY PREDICTED BY IDOCK:   -5.38 KCAL/MOL
REMARK 923 INTER-LIGAND FREE ENERGY PREDICTED BY IDOCK:   -5.14 KCAL/MOL
REMARK 924 INTRA-LIGAND FREE ENERGY PREDICTED BY IDOCK:   -0.24 KCAL/MOL
REMARK 927      BINDING AFFINITY PREDICTED BY RF-SCORE:    0.00 PKD
ROOT
HETATM    1  C   UNL     1     -13.183  12.829  71.877  1.00  0.00    -0.511 C  
HETATM    2  C   UNL     1     -13.224  14.204  71.219  1.00  0.00    -0.329 C  
ENDROOT
BRANCH   2   3
HETATM    3  N   UNL     1     -12.288  14.330  70.110  1.00  0.00    -0.340 N  
HETATM    4  C   UNL     1     -12.034  13.170  69.274  1.00  0.00    -0.292 C  
HETATM    5  C   UNL     1     -11.462  15.454  70.039  1.00  0.00    -0.316 C  
HETATM    6  O   UNL     1     -11.548  16.397  70.819  1.00  0.00    -0.334 OA 
BRANCH   5   7
HETATM    7  O   UNL     1     -10.525  15.351  69.014  1.00  0.00    -0.229 OA 
BRANCH   7   8
HETATM    8  C   UNL     1      -9.953  16.536  68.527  1.00  0.00    -0.251 A  
HETATM    9  C   UNL     1     -10.640  17.232  67.535  1.00  0.00    -0.329 A  
HETATM   10  C   UNL     1     -10.047  18.354  66.957  1.00  0.00    -0.382 A  
HETATM   11  C   UNL     1      -8.769  18.766  67.357  1.00  0.00    -0.289 A  
HETATM   12  C   UNL     1      -8.059  18.051  68.333  1.00  0.00    -0.304 A  
HETATM   13  C   UNL     1      -8.672  16.928  68.914  1.00  0.00    -0.212 A  
BRANCH  12  14
HETATM   14  C   UNL     1      -6.638  18.404  68.764  1.00  0.00    -0.247 C  
HETATM   15  C   UNL     1      -6.398  19.922  68.726  1.00  0.00    -0.326 C  
BRANCH  14  16
HETATM   16  N   UNL     1      -5.560  17.612  68.130  1.00  0.00    -0.149 NA 
HETATM   17  C   UNL     1      -5.325  16.332  68.799  1.00  0.00    -0.105 C  
HETATM   18  C   UNL     1      -5.657  17.430  66.689  1.00  0.00    -0.192 C  
ENDBRANCH  14  16
ENDBRANCH  12  14
ENDBRANCH   7   8
ENDBRANCH   5   7
ENDBRANCH   2   3
TORSDOF 5
ENDMDL
MODEL      113
REMARK 921   NORMALIZED FREE ENERGY PREDICTED BY IDOCK:   -3.66 KCAL/MOL
REMARK 922        TOTAL FREE ENERGY PREDICTED BY IDOCK:   -5.34 KCAL/MOL
REMARK 923 INTER-LIGAND FREE ENERGY PREDICTED BY IDOCK:   -4.86 KCAL/MOL
REMARK 924 INTRA-LIGAND FREE ENERGY PREDICTED BY IDOCK:   -0.48 KCAL/MOL
REMARK 927      BINDING AFFINITY PREDICTED BY RF-SCORE:    0.00 PKD
ROOT
HETATM    1  C   UNL     1      -7.094   7.288  67.293  1.00  0.00    -0.091 C  
HETATM    2  C   UNL     1      -7.637   8.641  66.850  1.00  0.00    -0.084 C  
ENDROOT
BRANCH   2   3
HETATM    3  N   UNL     1      -9.025   8.851  67.244  1.00  0.00    -0.127 N  
HETATM    4  C   UNL     1     -10.076   8.536  66.291  1.00  0.00    -0.104 C  
HETATM    5  C   UNL     1      -9.303   9.593  68.393  1.00  0.00    -0.133 C  
HETATM    6  O   UNL     1      -8.431  10.004  69.151  1.00  0.00    -0.132 OA 
BRANCH   5   7
HETATM    7  O   UNL     1     -10.667   9.832  68.544  1.00  0.00    -0.217 OA 
BRANCH   7   8
HETATM    8  C   UNL     1     -11.088  11.164  68.676  1.00  0.00    -0.239 A  
HETATM    9  C   UNL     1     -11.557  11.580  69.919  1.00  0.00    -0.387 A  
HETATM   10  C   UNL     1     -12.081  12.866  70.054  1.00  0.00    -0.357 A  
HETATM   11  C   UNL     1     -12.151  13.722  68.946  1.00  0.00    -0.348 A  
HETATM   12  C   UNL     1     -11.710  13.297  67.684  1.00  0.00    -0.408 A  
HETATM   13  C   UNL     1     -11.176  12.003  67.565  1.00  0.00    -0.357 A  
BRANCH  12  14
HETATM   14  C   UNL     1     -11.822  14.153  66.425  1.00  0.00    -0.423 C  
HETATM   15  C   UNL     1     -12.558  13.408  65.300  1.00  0.00    -0.518 C  
BRANCH  14  16
HETATM   16  N   UNL     1     -10.573  14.817  65.988  1.00  0.00    -0.300 NA 
HETATM   17  C   UNL     1     -10.791  15.795  64.921  1.00  0.00    -0.413 C  
HETATM   18  C   UNL     1      -9.740  15.379  67.041  1.00  0.00    -0.224 C  
ENDBRANCH  14  16
ENDBRANCH  12  14
ENDBRANCH   7   8
ENDBRANCH   5   7
ENDBRANCH   2   3
TORSDOF 5
ENDMDL
MODEL      114
REMARK 921   NORMALIZED FREE ENERGY PREDICTED BY IDOCK:   -3.64 KCAL/MOL
REMARK 922        TOTAL FREE ENERGY PREDICTED BY IDOCK:   -5.31 KCAL/MOL
REMARK 923 INTER-LIGAND FREE ENERGY PREDICTED BY IDOCK:   -5.46 KCAL/MOL
REMARK 924 INTRA-LIGAND FREE ENERGY PREDICTED BY IDOCK:    0.15 KCAL/MOL
REMARK 927      BINDING AFFINITY PREDICTED BY RF-SCORE:    0.00 PKD
ROOT
HETATM    1  C   UNL     1      -9.775   8.968  66.795  1.00  0.00    -0.279 C  
HETATM    2  C   UNL     1     -10.464  10.248  67.251  1.00  0.00    -0.253 C  
ENDROOT
BRANCH   2   3
HETATM    3  N   UNL     1      -9.991  11.431  66.542  1.00  0.00    -0.206 N  
HETATM    4  C   UNL     1      -8.591  11.801  66.659  1.00  0.00    -0.170 C  
HETATM    5  C   UNL     1     -10.922  12.321  66.004  1.00  0.00    -0.292 C  
HETATM    6  O   UNL     1     -12.130  12.112  66.014  1.00  0.00    -0.612 OA 
BRANCH   5   7
HETATM    7  O   UNL     1     -10.316  13.469  65.497  1.00  0.00    -0.285 OA 
BRANCH   7   8
HETATM    8  C   UNL     1     -10.216  14.584  66.343  1.00  0.00    -0.287 A  
HETATM    9  C   UNL     1     -11.178  14.737  67.338  1.00  0.00    -0.346 A  
HETATM   10  C   UNL     1     -11.167  15.889  68.124  1.00  0.00    -0.339 A  
HETATM   11  C   UNL     1     -10.210  16.888  67.903  1.00  0.00    -0.308 A  
HETATM   12  C   UNL     1      -9.258  16.755  66.882  1.00  0.00    -0.249 A  
HETATM   13  C   UNL     1      -9.275  15.585  66.104  1.00  0.00    -0.379 A  
BRANCH  12  14
HETATM   14  C   UNL     1      -8.234  17.835  66.544  1.00  0.00    -0.269 C  
HETATM   15  C   UNL     1      -6.828  17.242  66.358  1.00  0.00    -0.300 C  
BRANCH  14  16
HETATM   16  N   UNL     1      -8.267  19.041  67.402  1.00  0.00    -0.272 NA 
HETATM   17  C   UNL     1      -7.553  18.860  68.667  1.00  0.00    -0.331 C  
HETATM   18  C   UNL     1      -7.883  20.293  66.768  1.00  0.00    -0.287 C  
ENDBRANCH  14  16
ENDBRANCH  12  14
ENDBRANCH   7   8
ENDBRANCH   5   7
ENDBRANCH   2   3
TORSDOF 5
ENDMDL
MODEL      115
REMARK 921   NORMALIZED FREE ENERGY PREDICTED BY IDOCK:   -3.63 KCAL/MOL
REMARK 922        TOTAL FREE ENERGY PREDICTED BY IDOCK:   -5.30 KCAL/MOL
REMARK 923 INTER-LIGAND FREE ENERGY PREDICTED BY IDOCK:   -5.04 KCAL/MOL
REMARK 924 INTRA-LIGAND FREE ENERGY PREDICTED BY IDOCK:   -0.26 KCAL/MOL
REMARK 927      BINDING AFFINITY PREDICTED BY RF-SCORE:    0.00 PKD
ROOT
HETATM    1  C   UNL     1      -9.076   3.822  70.538  1.00  0.00    -0.189 C  
HETATM    2  C   UNL     1     -10.266   4.721  70.850  1.00  0.00    -0.177 C  
ENDROOT
BRANCH   2   3
HETATM    3  N   UNL     1      -9.900   6.127  70.968  1.00  0.00    -0.180 N  
HETATM    4  C   UNL     1      -8.529   6.518  70.687  1.00  0.00    -0.134 C  
HETATM    5  C   UNL     1     -10.777   7.010  71.601  1.00  0.00    -0.220 C  
HETATM    6  O   UNL     1     -11.894   6.681  71.986  1.00  0.00    -0.302 OA 
BRANCH   5   7
HETATM    7  O   UNL     1     -10.217   8.274  71.768  1.00  0.00    -0.195 OA 
BRANCH   7   8
HETATM    8  C   UNL     1     -10.817   9.350  71.097  1.00  0.00    -0.357 A  
HETATM    9  C   UNL     1     -12.086   9.750  71.508  1.00  0.00    -0.493 A  
HETATM   10  C   UNL     1     -12.751  10.745  70.792  1.00  0.00    -0.451 A  
HETATM   11  C   UNL     1     -12.157  11.323  69.663  1.00  0.00    -0.391 A  
HETATM   12  C   UNL     1     -10.892  10.902  69.225  1.00  0.00    -0.286 A  
HETATM   13  C   UNL     1     -10.230   9.906  69.961  1.00  0.00    -0.319 A  
BRANCH  12  14
HETATM   14  C   UNL     1     -10.220  11.440  67.965  1.00  0.00    -0.185 C  
HETATM   15  C   UNL     1      -9.729  12.884  68.159  1.00  0.00    -0.227 C  
BRANCH  14  16
HETATM   16  N   UNL     1     -10.960  11.225  66.701  1.00  0.00    -0.287 NA 
HETATM   17  C   UNL     1     -11.602  12.442  66.201  1.00  0.00    -0.396 C  
HETATM   18  C   UNL     1     -10.232  10.551  65.635  1.00  0.00    -0.246 C  
ENDBRANCH  14  16
ENDBRANCH  12  14
ENDBRANCH   7   8
ENDBRANCH   5   7
ENDBRANCH   2   3
TORSDOF 5
ENDMDL
MODEL      116
REMARK 921   NORMALIZED FREE ENERGY PREDICTED BY IDOCK:   -3.63 KCAL/MOL
REMARK 922        TOTAL FREE ENERGY PREDICTED BY IDOCK:   -5.30 KCAL/MOL
REMARK 923 INTER-LIGAND FREE ENERGY PREDICTED BY IDOCK:   -5.05 KCAL/MOL
REMARK 924 INTRA-LIGAND FREE ENERGY PREDICTED BY IDOCK:   -0.25 KCAL/MOL
REMARK 927      BINDING AFFINITY PREDICTED BY RF-SCORE:    0.00 PKD
ROOT
HETATM    1  C   UNL     1     -12.811  12.128  63.510  1.00  0.00    -0.453 C  
HETATM    2  C   UNL     1     -12.500  12.744  64.869  1.00  0.00    -0.497 C  
ENDROOT
BRANCH   2   3
HETATM    3  N   UNL     1     -11.072  12.790  65.157  1.00  0.00    -0.285 N  
HETATM    4  C   UNL     1     -10.144  12.253  64.177  1.00  0.00    -0.302 C  
HETATM    5  C   UNL     1     -10.647  13.087  66.454  1.00  0.00    -0.284 C  
HETATM    6  O   UNL     1     -11.417  13.406  67.353  1.00  0.00    -0.300 OA 
BRANCH   5   7
HETATM    7  O   UNL     1      -9.270  12.940  66.600  1.00  0.00    -0.241 OA 
BRANCH   7   8
HETATM    8  C   UNL     1      -8.524  14.074  66.956  1.00  0.00    -0.147 A  
HETATM    9  C   UNL     1      -7.251  13.879  67.484  1.00  0.00    -0.178 A  
HETATM   10  C   UNL     1      -6.529  14.980  67.945  1.00  0.00    -0.175 A  
HETATM   11  C   UNL     1      -7.085  16.264  67.894  1.00  0.00    -0.147 A  
HETATM   12  C   UNL     1      -8.380  16.464  67.392  1.00  0.00    -0.183 A  
HETATM   13  C   UNL     1      -9.092  15.348  66.922  1.00  0.00    -0.265 A  
BRANCH  12  14
HETATM   14  C   UNL     1      -9.071  17.825  67.372  1.00  0.00    -0.244 C  
HETATM   15  C   UNL     1     -10.527  17.726  67.854  1.00  0.00    -0.401 C  
BRANCH  14  16
HETATM   16  N   UNL     1      -8.904  18.611  66.128  1.00  0.00    -0.484 NA 
HETATM   17  C   UNL     1     -10.122  19.319  65.733  1.00  0.00    -0.152 C  
HETATM   18  C   UNL     1      -7.751  19.498  66.077  1.00  0.00    -0.312 C  
ENDBRANCH  14  16
ENDBRANCH  12  14
ENDBRANCH   7   8
ENDBRANCH   5   7
ENDBRANCH   2   3
TORSDOF 5
ENDMDL
MODEL      117
REMARK 921   NORMALIZED FREE ENERGY PREDICTED BY IDOCK:   -3.63 KCAL/MOL
REMARK 922        TOTAL FREE ENERGY PREDICTED BY IDOCK:   -5.30 KCAL/MOL
REMARK 923 INTER-LIGAND FREE ENERGY PREDICTED BY IDOCK:   -5.33 KCAL/MOL
REMARK 924 INTRA-LIGAND FREE ENERGY PREDICTED BY IDOCK:    0.04 KCAL/MOL
REMARK 927      BINDING AFFINITY PREDICTED BY RF-SCORE:    0.00 PKD
ROOT
HETATM    1  C   UNL     1     -12.176  12.862  63.548  1.00  0.00    -0.595 C  
HETATM    2  C   UNL     1     -10.817  12.855  64.237  1.00  0.00    -0.397 C  
ENDROOT
BRANCH   2   3
HETATM    3  N   UNL     1     -10.637  13.977  65.150  1.00  0.00    -0.361 N  
HETATM    4  C   UNL     1     -11.154  15.279  64.765  1.00  0.00    -0.394 C  
HETATM    5  C   UNL     1      -9.752  13.850  66.222  1.00  0.00    -0.289 C  
HETATM    6  O   UNL     1      -9.180  12.800  66.496  1.00  0.00    -0.233 OA 
BRANCH   5   7
HETATM    7  O   UNL     1      -9.579  15.052  66.903  1.00  0.00    -0.224 OA 
BRANCH   7   8
HETATM    8  C   UNL     1      -8.325  15.678  66.821  1.00  0.00    -0.278 A  
HETATM    9  C   UNL     1      -7.269  15.119  67.536  1.00  0.00    -0.227 A  
HETATM   10  C   UNL     1      -6.039  15.776  67.559  1.00  0.00    -0.162 A  
HETATM   11  C   UNL     1      -5.874  16.994  66.885  1.00  0.00    -0.225 A  
HETATM   12  C   UNL     1      -6.943  17.578  66.189  1.00  0.00    -0.323 A  
HETATM   13  C   UNL     1      -8.173  16.900  66.166  1.00  0.00    -0.295 A  
BRANCH  12  14
HETATM   14  C   UNL     1      -6.849  18.933  65.494  1.00  0.00    -0.227 C  
HETATM   15  C   UNL     1      -5.540  19.072  64.701  1.00  0.00    -0.296 C  
BRANCH  14  16
HETATM   16  N   UNL     1      -7.167  20.109  66.336  1.00  0.00    -0.264 NA 
HETATM   17  C   UNL     1      -8.530  20.079  66.867  1.00  0.00    -0.328 C  
HETATM   18  C   UNL     1      -6.211  20.424  67.388  1.00  0.00    -0.216 C  
ENDBRANCH  14  16
ENDBRANCH  12  14
ENDBRANCH   7   8
ENDBRANCH   5   7
ENDBRANCH   2   3
TORSDOF 5
ENDMDL
MODEL      118
REMARK 921   NORMALIZED FREE ENERGY PREDICTED BY IDOCK:   -3.61 KCAL/MOL
REMARK 922        TOTAL FREE ENERGY PREDICTED BY IDOCK:   -5.27 KCAL/MOL
REMARK 923 INTER-LIGAND FREE ENERGY PREDICTED BY IDOCK:   -4.89 KCAL/MOL
REMARK 924 INTRA-LIGAND FREE ENERGY PREDICTED BY IDOCK:   -0.38 KCAL/MOL
REMARK 927      BINDING AFFINITY PREDICTED BY RF-SCORE:    0.00 PKD
ROOT
HETATM    1  C   UNL     1      -7.411  19.576  66.234  1.00  0.00    -0.279 C  
HETATM    2  C   UNL     1      -8.169  18.639  67.166  1.00  0.00    -0.252 C  
ENDROOT
BRANCH   2   3
HETATM    3  N   UNL     1      -9.171  17.838  66.474  1.00  0.00    -0.269 N  
HETATM    4  C   UNL     1     -10.527  18.349  66.377  1.00  0.00    -0.383 C  
HETATM    5  C   UNL     1      -8.887  16.506  66.167  1.00  0.00    -0.306 C  
HETATM    6  O   UNL     1      -7.792  15.993  66.367  1.00  0.00    -0.244 OA 
BRANCH   5   7
HETATM    7  O   UNL     1      -9.996  15.841  65.649  1.00  0.00    -0.325 OA 
BRANCH   7   8
HETATM    8  C   UNL     1     -10.454  14.702  66.329  1.00  0.00    -0.298 A  
HETATM    9  C   UNL     1     -11.483  14.863  67.254  1.00  0.00    -0.350 A  
HETATM   10  C   UNL     1     -11.886  13.770  68.020  1.00  0.00    -0.408 A  
HETATM   11  C   UNL     1     -11.251  12.530  67.875  1.00  0.00    -0.312 A  
HETATM   12  C   UNL     1     -10.192  12.369  66.968  1.00  0.00    -0.232 A  
HETATM   13  C   UNL     1      -9.803  13.476  66.195  1.00  0.00    -0.292 A  
BRANCH  12  14
HETATM   14  C   UNL     1      -9.414  11.066  66.811  1.00  0.00    -0.182 C  
HETATM   15  C   UNL     1      -9.953  10.223  65.645  1.00  0.00    -0.347 C  
BRANCH  14  16
HETATM   16  N   UNL     1      -9.196  10.295  68.057  1.00  0.00    -0.134 NA 
HETATM   17  C   UNL     1      -9.123   8.851  67.828  1.00  0.00    -0.134 C  
HETATM   18  C   UNL     1      -8.099  10.739  68.905  1.00  0.00    -0.145 C  
ENDBRANCH  14  16
ENDBRANCH  12  14
ENDBRANCH   7   8
ENDBRANCH   5   7
ENDBRANCH   2   3
TORSDOF 5
ENDMDL
MODEL      119
REMARK 921   NORMALIZED FREE ENERGY PREDICTED BY IDOCK:   -3.61 KCAL/MOL
REMARK 922        TOTAL FREE ENERGY PREDICTED BY IDOCK:   -5.27 KCAL/MOL
REMARK 923 INTER-LIGAND FREE ENERGY PREDICTED BY IDOCK:   -5.26 KCAL/MOL
REMARK 924 INTRA-LIGAND FREE ENERGY PREDICTED BY IDOCK:   -0.01 KCAL/MOL
REMARK 927      BINDING AFFINITY PREDICTED BY RF-SCORE:    0.00 PKD
ROOT
HETATM    1  C   UNL     1     -11.297  11.582  69.221  1.00  0.00    -0.353 C  
HETATM    2  C   UNL     1     -11.403  11.727  67.707  1.00  0.00    -0.289 C  
ENDROOT
BRANCH   2   3
HETATM    3  N   UNL     1     -11.069  13.066  67.240  1.00  0.00    -0.265 N  
HETATM    4  C   UNL     1     -12.096  14.093  67.274  1.00  0.00    -0.372 C  
HETATM    5  C   UNL     1      -9.885  13.265  66.527  1.00  0.00    -0.281 C  
HETATM    6  O   UNL     1      -9.055  12.379  66.351  1.00  0.00    -0.215 OA 
BRANCH   5   7
HETATM    7  O   UNL     1      -9.789  14.559  66.022  1.00  0.00    -0.292 OA 
BRANCH   7   8
HETATM    8  C   UNL     1      -9.096  15.510  66.785  1.00  0.00    -0.255 A  
HETATM    9  C   UNL     1      -8.371  15.061  67.886  1.00  0.00    -0.151 A  
HETATM   10  C   UNL     1      -7.759  15.993  68.724  1.00  0.00    -0.187 A  
HETATM   11  C   UNL     1      -7.887  17.365  68.471  1.00  0.00    -0.268 A  
HETATM   12  C   UNL     1      -8.642  17.825  67.382  1.00  0.00    -0.233 A  
HETATM   13  C   UNL     1      -9.245  16.876  66.540  1.00  0.00    -0.295 A  
BRANCH  12  14
HETATM   14  C   UNL     1      -8.879  19.305  67.091  1.00  0.00    -0.294 C  
HETATM   15  C   UNL     1     -10.218  19.532  66.372  1.00  0.00    -0.576 C  
BRANCH  14  16
HETATM   16  N   UNL     1      -7.741  20.028  66.480  1.00  0.00    -0.290 NA 
HETATM   17  C   UNL     1      -7.034  20.887  67.431  1.00  0.00    -0.368 C  
HETATM   18  C   UNL     1      -6.800  19.220  65.717  1.00  0.00    -0.278 C  
ENDBRANCH  14  16
ENDBRANCH  12  14
ENDBRANCH   7   8
ENDBRANCH   5   7
ENDBRANCH   2   3
TORSDOF 5
ENDMDL
MODEL      120
REMARK 921   NORMALIZED FREE ENERGY PREDICTED BY IDOCK:   -3.60 KCAL/MOL
REMARK 922        TOTAL FREE ENERGY PREDICTED BY IDOCK:   -5.26 KCAL/MOL
REMARK 923 INTER-LIGAND FREE ENERGY PREDICTED BY IDOCK:   -5.32 KCAL/MOL
REMARK 924 INTRA-LIGAND FREE ENERGY PREDICTED BY IDOCK:    0.05 KCAL/MOL
REMARK 927      BINDING AFFINITY PREDICTED BY RF-SCORE:    0.00 PKD
ROOT
HETATM    1  C   UNL     1     -10.616  19.686  66.036  1.00  0.00    -0.584 C  
HETATM    2  C   UNL     1     -10.774  18.844  67.297  1.00  0.00    -0.449 C  
ENDROOT
BRANCH   2   3
HETATM    3  N   UNL     1      -9.582  18.068  67.615  1.00  0.00    -0.266 N  
HETATM    4  C   UNL     1      -8.460  18.102  66.692  1.00  0.00    -0.264 C  
HETATM    5  C   UNL     1      -9.641  17.112  68.630  1.00  0.00    -0.281 C  
HETATM    6  O   UNL     1     -10.627  16.952  69.341  1.00  0.00    -0.337 OA 
BRANCH   5   7
HETATM    7  O   UNL     1      -8.474  16.356  68.705  1.00  0.00    -0.225 OA 
BRANCH   7   8
HETATM    8  C   UNL     1      -8.517  15.035  68.233  1.00  0.00    -0.147 A  
HETATM    9  C   UNL     1      -7.308  14.396  67.968  1.00  0.00    -0.148 A  
HETATM   10  C   UNL     1      -7.322  13.123  67.399  1.00  0.00    -0.119 A  
HETATM   11  C   UNL     1      -8.537  12.502  67.081  1.00  0.00    -0.200 A  
HETATM   12  C   UNL     1      -9.757  13.153  67.316  1.00  0.00    -0.230 A  
HETATM   13  C   UNL     1      -9.729  14.431  67.899  1.00  0.00    -0.223 A  
BRANCH  12  14
HETATM   14  C   UNL     1     -11.110  12.562  66.930  1.00  0.00    -0.278 C  
HETATM   15  C   UNL     1     -11.182  11.060  67.248  1.00  0.00    -0.330 C  
BRANCH  14  16
HETATM   16  N   UNL     1     -11.600  12.912  65.577  1.00  0.00    -0.340 NA 
HETATM   17  C   UNL     1     -12.744  13.825  65.603  1.00  0.00    -0.478 C  
HETATM   18  C   UNL     1     -10.596  13.369  64.627  1.00  0.00    -0.415 C  
ENDBRANCH  14  16
ENDBRANCH  12  14
ENDBRANCH   7   8
ENDBRANCH   5   7
ENDBRANCH   2   3
TORSDOF 5
ENDMDL
MODEL      121
REMARK 921   NORMALIZED FREE ENERGY PREDICTED BY IDOCK:   -3.57 KCAL/MOL
REMARK 922        TOTAL FREE ENERGY PREDICTED BY IDOCK:   -5.22 KCAL/MOL
REMARK 923 INTER-LIGAND FREE ENERGY PREDICTED BY IDOCK:   -4.79 KCAL/MOL
REMARK 924 INTRA-LIGAND FREE ENERGY PREDICTED BY IDOCK:   -0.43 KCAL/MOL
REMARK 927      BINDING AFFINITY PREDICTED BY RF-SCORE:    0.00 PKD
ROOT
HETATM    1  C   UNL     1     -10.580  15.733  64.893  1.00  0.00    -0.311 C  
HETATM    2  C   UNL     1     -11.752  14.889  64.407  1.00  0.00    -0.328 C  
ENDROOT
BRANCH   2   3
HETATM    3  N   UNL     1     -11.697  13.513  64.883  1.00  0.00    -0.343 N  
HETATM    4  C   UNL     1     -11.617  12.440  63.907  1.00  0.00    -0.441 C  
HETATM    5  C   UNL     1     -11.994  13.240  66.219  1.00  0.00    -0.417 C  
HETATM    6  O   UNL     1     -12.212  14.118  67.048  1.00  0.00    -0.432 OA 
BRANCH   5   7
HETATM    7  O   UNL     1     -12.047  11.872  66.476  1.00  0.00    -0.568 OA 
BRANCH   7   8
HETATM    8  C   UNL     1     -11.247  11.369  67.513  1.00  0.00    -0.292 A  
HETATM    9  C   UNL     1     -11.868  11.044  68.716  1.00  0.00    -0.352 A  
HETATM   10  C   UNL     1     -11.086  10.642  69.799  1.00  0.00    -0.358 A  
HETATM   11  C   UNL     1      -9.691  10.583  69.682  1.00  0.00    -0.092 A  
HETATM   12  C   UNL     1      -9.057  10.940  68.483  1.00  0.00    -0.173 A  
HETATM   13  C   UNL     1      -9.858  11.334  67.397  1.00  0.00    -0.201 A  
BRANCH  12  14
HETATM   14  C   UNL     1      -7.541  10.966  68.311  1.00  0.00    -0.100 C  
HETATM   15  C   UNL     1      -6.970  12.374  68.539  1.00  0.00    -0.092 C  
BRANCH  14  16
HETATM   16  N   UNL     1      -7.022  10.299  67.096  1.00  0.00    -0.086 NA 
HETATM   17  C   UNL     1      -5.957  11.058  66.439  1.00  0.00    -0.143 C  
HETATM   18  C   UNL     1      -6.643   8.900  67.241  1.00  0.00    -0.062 C  
ENDBRANCH  14  16
ENDBRANCH  12  14
ENDBRANCH   7   8
ENDBRANCH   5   7
ENDBRANCH   2   3
TORSDOF 5
ENDMDL
MODEL      122
REMARK 921   NORMALIZED FREE ENERGY PREDICTED BY IDOCK:   -3.57 KCAL/MOL
REMARK 922        TOTAL FREE ENERGY PREDICTED BY IDOCK:   -5.22 KCAL/MOL
REMARK 923 INTER-LIGAND FREE ENERGY PREDICTED BY IDOCK:   -4.71 KCAL/MOL
REMARK 924 INTRA-LIGAND FREE ENERGY PREDICTED BY IDOCK:   -0.51 KCAL/MOL
REMARK 927      BINDING AFFINITY PREDICTED BY RF-SCORE:    0.00 PKD
ROOT
HETATM    1  C   UNL     1     -11.773   6.222  72.197  1.00  0.00    -0.368 C  
HETATM    2  C   UNL     1     -12.107   7.055  70.965  1.00  0.00    -0.368 C  
ENDROOT
BRANCH   2   3
HETATM    3  N   UNL     1     -11.026   7.951  70.574  1.00  0.00    -0.246 N  
HETATM    4  C   UNL     1     -10.903   9.232  71.246  1.00  0.00    -0.347 C  
HETATM    5  C   UNL     1     -10.315   7.690  69.401  1.00  0.00    -0.214 C  
HETATM    6  O   UNL     1     -10.491   6.684  68.722  1.00  0.00    -0.183 OA 
BRANCH   5   7
HETATM    7  O   UNL     1      -9.425   8.715  69.090  1.00  0.00    -0.156 OA 
BRANCH   7   8
HETATM    8  C   UNL     1      -9.243   9.036  67.736  1.00  0.00    -0.140 A  
HETATM    9  C   UNL     1      -8.079   8.593  67.111  1.00  0.00    -0.100 A  
HETATM   10  C   UNL     1      -7.820   8.986  65.799  1.00  0.00    -0.098 A  
HETATM   11  C   UNL     1      -8.711   9.830  65.122  1.00  0.00    -0.192 A  
HETATM   12  C   UNL     1      -9.868  10.305  65.757  1.00  0.00    -0.320 A  
HETATM   13  C   UNL     1     -10.122   9.894  67.076  1.00  0.00    -0.275 A  
BRANCH  12  14
HETATM   14  C   UNL     1     -10.842  11.281  65.102  1.00  0.00    -0.200 C  
HETATM   15  C   UNL     1     -10.744  11.234  63.569  1.00  0.00    -0.408 C  
BRANCH  14  16
HETATM   16  N   UNL     1     -10.848  12.652  65.660  1.00  0.00    -0.269 NA 
HETATM   17  C   UNL     1     -10.588  13.680  64.650  1.00  0.00    -0.430 C  
HETATM   18  C   UNL     1     -12.000  13.011  66.476  1.00  0.00    -0.391 C  
ENDBRANCH  14  16
ENDBRANCH  12  14
ENDBRANCH   7   8
ENDBRANCH   5   7
ENDBRANCH   2   3
TORSDOF 5
ENDMDL
MODEL      123
REMARK 921   NORMALIZED FREE ENERGY PREDICTED BY IDOCK:   -3.53 KCAL/MOL
REMARK 922        TOTAL FREE ENERGY PREDICTED BY IDOCK:   -5.16 KCAL/MOL
REMARK 923 INTER-LIGAND FREE ENERGY PREDICTED BY IDOCK:   -4.87 KCAL/MOL
REMARK 924 INTRA-LIGAND FREE ENERGY PREDICTED BY IDOCK:   -0.29 KCAL/MOL
REMARK 927      BINDING AFFINITY PREDICTED BY RF-SCORE:    0.00 PKD
ROOT
HETATM    1  C   UNL     1     -11.624  10.713  70.291  1.00  0.00    -0.424 C  
HETATM    2  C   UNL     1     -12.381   9.835  71.281  1.00  0.00    -0.371 C  
ENDROOT
BRANCH   2   3
HETATM    3  N   UNL     1     -11.552   8.784  71.857  1.00  0.00    -0.338 N  
HETATM    4  C   UNL     1     -10.123   9.012  71.983  1.00  0.00    -0.172 C  
HETATM    5  C   UNL     1     -12.087   7.504  72.016  1.00  0.00    -0.291 C  
HETATM    6  O   UNL     1     -13.260   7.236  71.780  1.00  0.00    -0.350 OA 
BRANCH   5   7
HETATM    7  O   UNL     1     -11.127   6.584  72.432  1.00  0.00    -0.239 OA 
BRANCH   7   8
HETATM    8  C   UNL     1     -10.691   5.627  71.503  1.00  0.00    -0.242 A  
HETATM    9  C   UNL     1     -10.259   4.395  71.989  1.00  0.00    -0.233 A  
HETATM   10  C   UNL     1      -9.721   3.464  71.101  1.00  0.00    -0.222 A  
HETATM   11  C   UNL     1      -9.599   3.772  69.739  1.00  0.00    -0.253 A  
HETATM   12  C   UNL     1     -10.003   5.022  69.249  1.00  0.00    -0.277 A  
HETATM   13  C   UNL     1     -10.552   5.947  70.152  1.00  0.00    -0.362 A  
BRANCH  12  14
HETATM   14  C   UNL     1      -9.834   5.446  67.792  1.00  0.00    -0.143 C  
HETATM   15  C   UNL     1     -10.987   6.352  67.330  1.00  0.00    -0.463 C  
BRANCH  14  16
HETATM   16  N   UNL     1      -9.510   4.358  66.842  1.00  0.00    -0.164 NA 
HETATM   17  C   UNL     1     -10.358   4.371  65.649  1.00  0.00    -0.225 C  
HETATM   18  C   UNL     1      -8.108   4.219  66.476  1.00  0.00    -0.102 C  
ENDBRANCH  14  16
ENDBRANCH  12  14
ENDBRANCH   7   8
ENDBRANCH   5   7
ENDBRANCH   2   3
TORSDOF 5
ENDMDL
MODEL      124
REMARK 921   NORMALIZED FREE ENERGY PREDICTED BY IDOCK:   -3.50 KCAL/MOL
REMARK 922        TOTAL FREE ENERGY PREDICTED BY IDOCK:   -5.13 KCAL/MOL
REMARK 923 INTER-LIGAND FREE ENERGY PREDICTED BY IDOCK:   -5.09 KCAL/MOL
REMARK 924 INTRA-LIGAND FREE ENERGY PREDICTED BY IDOCK:   -0.04 KCAL/MOL
REMARK 927      BINDING AFFINITY PREDICTED BY RF-SCORE:    0.00 PKD
ROOT
HETATM    1  C   UNL     1     -12.290  15.572  74.181  1.00  0.00    -0.806 C  
HETATM    2  C   UNL     1     -13.436  15.786  73.199  1.00  0.00    -0.561 C  
ENDROOT
BRANCH   2   3
HETATM    3  N   UNL     1     -13.413  14.845  72.086  1.00  0.00    -0.358 N  
HETATM    4  C   UNL     1     -13.557  13.427  72.367  1.00  0.00    -0.606 C  
HETATM    5  C   UNL     1     -12.985  15.283  70.831  1.00  0.00    -0.462 C  
HETATM    6  O   UNL     1     -12.712  16.454  70.589  1.00  0.00     0.285 OA 
BRANCH   5   7
HETATM    7  O   UNL     1     -12.875  14.235  69.921  1.00  0.00    -0.180 OA 
BRANCH   7   8
HETATM    8  C   UNL     1     -11.699  14.148  69.160  1.00  0.00    -0.327 A  
HETATM    9  C   UNL     1     -11.608  13.132  68.212  1.00  0.00    -0.370 A  
HETATM   10  C   UNL     1     -10.412  12.955  67.517  1.00  0.00    -0.226 A  
HETATM   11  C   UNL     1      -9.310  13.778  67.782  1.00  0.00    -0.213 A  
HETATM   12  C   UNL     1      -9.385  14.783  68.758  1.00  0.00    -0.198 A  
HETATM   13  C   UNL     1     -10.598  14.957  69.444  1.00  0.00    -0.255 A  
BRANCH  12  14
HETATM   14  C   UNL     1      -8.201  15.667  69.143  1.00  0.00    -0.248 C  
HETATM   15  C   UNL     1      -8.201  16.985  68.354  1.00  0.00    -0.250 C  
BRANCH  14  16
HETATM   16  N   UNL     1      -6.884  14.993  69.184  1.00  0.00    -0.121 NA 
HETATM   17  C   UNL     1      -5.910  15.588  68.268  1.00  0.00    -0.114 C  
HETATM   18  C   UNL     1      -6.300  14.800  70.504  1.00  0.00    -0.085 C  
ENDBRANCH  14  16
ENDBRANCH  12  14
ENDBRANCH   7   8
ENDBRANCH   5   7
ENDBRANCH   2   3
TORSDOF 5
ENDMDL
MODEL      125
REMARK 921   NORMALIZED FREE ENERGY PREDICTED BY IDOCK:   -3.50 KCAL/MOL
REMARK 922        TOTAL FREE ENERGY PREDICTED BY IDOCK:   -5.12 KCAL/MOL
REMARK 923 INTER-LIGAND FREE ENERGY PREDICTED BY IDOCK:   -4.67 KCAL/MOL
REMARK 924 INTRA-LIGAND FREE ENERGY PREDICTED BY IDOCK:   -0.45 KCAL/MOL
REMARK 927      BINDING AFFINITY PREDICTED BY RF-SCORE:    0.00 PKD
ROOT
HETATM    1  C   UNL     1     -11.006   6.093  71.512  1.00  0.00    -0.328 C  
HETATM    2  C   UNL     1     -10.010   6.698  70.530  1.00  0.00    -0.179 C  
ENDROOT
BRANCH   2   3
HETATM    3  N   UNL     1      -9.952   8.153  70.604  1.00  0.00    -0.188 N  
HETATM    4  C   UNL     1      -9.775   8.779  71.903  1.00  0.00    -0.316 C  
HETATM    5  C   UNL     1     -10.335   8.908  69.494  1.00  0.00    -0.213 C  
HETATM    6  O   UNL     1     -10.634   8.407  68.415  1.00  0.00    -0.190 OA 
BRANCH   5   7
HETATM    7  O   UNL     1     -10.369  10.272  69.776  1.00  0.00    -0.243 OA 
BRANCH   7   8
HETATM    8  C   UNL     1      -9.829  11.151  68.826  1.00  0.00    -0.192 A  
HETATM    9  C   UNL     1      -8.486  11.004  68.489  1.00  0.00    -0.153 A  
HETATM   10  C   UNL     1      -7.895  11.928  67.627  1.00  0.00    -0.142 A  
HETATM   11  C   UNL     1      -8.640  13.002  67.122  1.00  0.00    -0.195 A  
HETATM   12  C   UNL     1      -9.984  13.174  67.483  1.00  0.00    -0.223 A  
HETATM   13  C   UNL     1     -10.570  12.230  68.343  1.00  0.00    -0.250 A  
BRANCH  12  14
HETATM   14  C   UNL     1     -10.830  14.359  67.024  1.00  0.00    -0.297 C  
HETATM   15  C   UNL     1     -11.959  14.666  68.020  1.00  0.00    -0.292 C  
BRANCH  14  16
HETATM   16  N   UNL     1     -11.272  14.322  65.611  1.00  0.00    -0.307 NA 
HETATM   17  C   UNL     1     -12.656  13.871  65.458  1.00  0.00    -0.526 C  
HETATM   18  C   UNL     1     -11.033  15.527  64.830  1.00  0.00    -0.436 C  
ENDBRANCH  14  16
ENDBRANCH  12  14
ENDBRANCH   7   8
ENDBRANCH   5   7
ENDBRANCH   2   3
TORSDOF 5
ENDMDL
MODEL      126
REMARK 921   NORMALIZED FREE ENERGY PREDICTED BY IDOCK:   -3.50 KCAL/MOL
REMARK 922        TOTAL FREE ENERGY PREDICTED BY IDOCK:   -5.12 KCAL/MOL
REMARK 923 INTER-LIGAND FREE ENERGY PREDICTED BY IDOCK:   -4.73 KCAL/MOL
REMARK 924 INTRA-LIGAND FREE ENERGY PREDICTED BY IDOCK:   -0.39 KCAL/MOL
REMARK 927      BINDING AFFINITY PREDICTED BY RF-SCORE:    0.00 PKD
ROOT
HETATM    1  C   UNL     1      -9.435  14.366  67.140  1.00  0.00    -0.225 C  
HETATM    2  C   UNL     1      -9.431  13.118  68.014  1.00  0.00    -0.220 C  
ENDROOT
BRANCH   2   3
HETATM    3  N   UNL     1     -10.151  12.002  67.413  1.00  0.00    -0.193 N  
HETATM    4  C   UNL     1     -11.584  12.124  67.209  1.00  0.00    -0.334 C  
HETATM    5  C   UNL     1      -9.518  10.762  67.303  1.00  0.00    -0.159 C  
HETATM    6  O   UNL     1      -8.342  10.583  67.603  1.00  0.00    -0.114 OA 
BRANCH   5   7
HETATM    7  O   UNL     1     -10.385   9.770  66.852  1.00  0.00    -0.233 OA 
BRANCH   7   8
HETATM    8  C   UNL     1     -10.515   8.610  67.632  1.00  0.00    -0.244 A  
HETATM    9  C   UNL     1     -10.587   7.386  66.972  1.00  0.00    -0.414 A  
HETATM   10  C   UNL     1     -10.822   6.227  67.712  1.00  0.00    -0.424 A  
HETATM   11  C   UNL     1     -11.002   6.297  69.100  1.00  0.00    -0.442 A  
HETATM   12  C   UNL     1     -10.962   7.531  69.766  1.00  0.00    -0.195 A  
HETATM   13  C   UNL     1     -10.715   8.689  69.010  1.00  0.00    -0.122 A  
BRANCH  12  14
HETATM   14  C   UNL     1     -11.219   7.685  71.263  1.00  0.00    -0.254 C  
HETATM   15  C   UNL     1     -11.863   9.042  71.589  1.00  0.00    -0.431 C  
BRANCH  14  16
HETATM   16  N   UNL     1     -10.085   7.332  72.147  1.00  0.00    -0.180 NA 
HETATM   17  C   UNL     1      -8.932   8.217  71.976  1.00  0.00    -0.176 C  
HETATM   18  C   UNL     1     -10.399   7.161  73.558  1.00  0.00    -0.369 C  
ENDBRANCH  14  16
ENDBRANCH  12  14
ENDBRANCH   7   8
ENDBRANCH   5   7
ENDBRANCH   2   3
TORSDOF 5
ENDMDL
MODEL      127
REMARK 921   NORMALIZED FREE ENERGY PREDICTED BY IDOCK:   -3.49 KCAL/MOL
REMARK 922        TOTAL FREE ENERGY PREDICTED BY IDOCK:   -5.12 KCAL/MOL
REMARK 923 INTER-LIGAND FREE ENERGY PREDICTED BY IDOCK:   -5.04 KCAL/MOL
REMARK 924 INTRA-LIGAND FREE ENERGY PREDICTED BY IDOCK:   -0.08 KCAL/MOL
REMARK 927      BINDING AFFINITY PREDICTED BY RF-SCORE:    0.00 PKD
ROOT
HETATM    1  C   UNL     1      -8.072   6.812  68.517  1.00  0.00    -0.120 C  
HETATM    2  C   UNL     1      -8.054   8.221  67.938  1.00  0.00    -0.127 C  
ENDROOT
BRANCH   2   3
HETATM    3  N   UNL     1      -9.003   9.115  68.591  1.00  0.00    -0.136 N  
HETATM    4  C   UNL     1      -8.738   9.538  69.955  1.00  0.00    -0.210 C  
HETATM    5  C   UNL     1     -10.256   9.321  68.010  1.00  0.00    -0.209 C  
HETATM    6  O   UNL     1     -10.571   8.859  66.919  1.00  0.00    -0.263 OA 
BRANCH   5   7
HETATM    7  O   UNL     1     -11.094  10.073  68.829  1.00  0.00    -0.226 OA 
BRANCH   7   8
HETATM    8  C   UNL     1     -11.140  11.461  68.624  1.00  0.00    -0.236 A  
HETATM    9  C   UNL     1     -11.799  12.240  69.571  1.00  0.00    -0.380 A  
HETATM   10  C   UNL     1     -11.952  13.607  69.341  1.00  0.00    -0.394 A  
HETATM   11  C   UNL     1     -11.465  14.186  68.162  1.00  0.00    -0.340 A  
HETATM   12  C   UNL     1     -10.827  13.401  67.189  1.00  0.00    -0.284 A  
HETATM   13  C   UNL     1     -10.671  12.027  67.439  1.00  0.00    -0.266 A  
BRANCH  12  14
HETATM   14  C   UNL     1     -10.336  13.956  65.855  1.00  0.00    -0.311 C  
HETATM   15  C   UNL     1      -9.892  15.422  65.982  1.00  0.00    -0.355 C  
BRANCH  14  16
HETATM   16  N   UNL     1     -11.210  13.693  64.690  1.00  0.00    -0.358 NA 
HETATM   17  C   UNL     1     -10.761  12.558  63.883  1.00  0.00    -0.437 C  
HETATM   18  C   UNL     1     -12.637  13.598  64.964  1.00  0.00    -0.390 C  
ENDBRANCH  14  16
ENDBRANCH  12  14
ENDBRANCH   7   8
ENDBRANCH   5   7
ENDBRANCH   2   3
TORSDOF 5
ENDMDL
MODEL      128
REMARK 921   NORMALIZED FREE ENERGY PREDICTED BY IDOCK:   -3.48 KCAL/MOL
REMARK 922        TOTAL FREE ENERGY PREDICTED BY IDOCK:   -5.11 KCAL/MOL
REMARK 923 INTER-LIGAND FREE ENERGY PREDICTED BY IDOCK:   -5.07 KCAL/MOL
REMARK 924 INTRA-LIGAND FREE ENERGY PREDICTED BY IDOCK:   -0.04 KCAL/MOL
REMARK 927      BINDING AFFINITY PREDICTED BY RF-SCORE:    0.00 PKD
ROOT
HETATM    1  C   UNL     1     -11.757  12.905  63.883  1.00  0.00    -0.526 C  
HETATM    2  C   UNL     1     -11.092  11.534  63.878  1.00  0.00    -0.380 C  
ENDROOT
BRANCH   2   3
HETATM    3  N   UNL     1     -10.581  11.146  65.187  1.00  0.00    -0.275 N  
HETATM    4  C   UNL     1     -10.915  11.967  66.338  1.00  0.00    -0.292 C  
HETATM    5  C   UNL     1      -9.578  10.178  65.268  1.00  0.00    -0.277 C  
HETATM    6  O   UNL     1      -9.163   9.561  64.292  1.00  0.00    -0.229 OA 
BRANCH   5   7
HETATM    7  O   UNL     1      -9.094  10.034  66.566  1.00  0.00    -0.145 OA 
BRANCH   7   8
HETATM    8  C   UNL     1      -9.622   8.996  67.350  1.00  0.00    -0.152 A  
HETATM    9  C   UNL     1     -10.100   7.863  66.697  1.00  0.00    -0.310 A  
HETATM   10  C   UNL     1     -10.726   6.863  67.440  1.00  0.00    -0.396 A  
HETATM   11  C   UNL     1     -10.888   7.005  68.825  1.00  0.00    -0.198 A  
HETATM   12  C   UNL     1     -10.436   8.158  69.484  1.00  0.00    -0.227 A  
HETATM   13  C   UNL     1      -9.799   9.153  68.725  1.00  0.00    -0.175 A  
BRANCH  12  14
HETATM   14  C   UNL     1     -10.643   8.406  70.976  1.00  0.00    -0.214 C  
HETATM   15  C   UNL     1      -9.327   8.789  71.672  1.00  0.00    -0.345 C  
BRANCH  14  16
HETATM   16  N   UNL     1     -11.422   7.373  71.696  1.00  0.00    -0.256 NA 
HETATM   17  C   UNL     1     -10.959   7.162  73.068  1.00  0.00    -0.317 C  
HETATM   18  C   UNL     1     -12.870   7.517  71.657  1.00  0.00    -0.358 C  
ENDBRANCH  14  16
ENDBRANCH  12  14
ENDBRANCH   7   8
ENDBRANCH   5   7
ENDBRANCH   2   3
TORSDOF 5
ENDMDL
MODEL      129
REMARK 921   NORMALIZED FREE ENERGY PREDICTED BY IDOCK:   -3.48 KCAL/MOL
REMARK 922        TOTAL FREE ENERGY PREDICTED BY IDOCK:   -5.10 KCAL/MOL
REMARK 923 INTER-LIGAND FREE ENERGY PREDICTED BY IDOCK:   -4.61 KCAL/MOL
REMARK 924 INTRA-LIGAND FREE ENERGY PREDICTED BY IDOCK:   -0.49 KCAL/MOL
REMARK 927      BINDING AFFINITY PREDICTED BY RF-SCORE:    0.00 PKD
ROOT
HETATM    1  C   UNL     1     -11.816  12.810  66.773  1.00  0.00    -0.452 C  
HETATM    2  C   UNL     1     -11.840  12.862  68.296  1.00  0.00    -0.330 C  
ENDROOT
BRANCH   2   3
HETATM    3  N   UNL     1     -10.927  11.907  68.911  1.00  0.00    -0.231 N  
HETATM    4  C   UNL     1      -9.610  11.724  68.327  1.00  0.00    -0.199 C  
HETATM    5  C   UNL     1     -11.419  11.006  69.858  1.00  0.00    -0.320 C  
HETATM    6  O   UNL     1     -12.573  11.037  70.273  1.00  0.00    -0.297 OA 
BRANCH   5   7
HETATM    7  O   UNL     1     -10.462  10.067  70.233  1.00  0.00    -0.274 OA 
BRANCH   7   8
HETATM    8  C   UNL     1     -10.745   8.713  69.998  1.00  0.00    -0.228 A  
HETATM    9  C   UNL     1     -11.415   8.004  70.991  1.00  0.00    -0.300 A  
HETATM   10  C   UNL     1     -11.616   6.633  70.831  1.00  0.00    -0.416 A  
HETATM   11  C   UNL     1     -11.133   5.974  69.692  1.00  0.00    -0.474 A  
HETATM   12  C   UNL     1     -10.429   6.678  68.703  1.00  0.00    -0.241 A  
HETATM   13  C   UNL     1     -10.242   8.059  68.872  1.00  0.00    -0.220 A  
BRANCH  12  14
HETATM   14  C   UNL     1      -9.817   6.009  67.475  1.00  0.00    -0.125 C  
HETATM   15  C   UNL     1      -9.854   4.477  67.589  1.00  0.00    -0.181 C  
BRANCH  14  16
HETATM   16  N   UNL     1      -8.509   6.546  67.037  1.00  0.00    -0.112 NA 
HETATM   17  C   UNL     1      -7.389   5.666  67.376  1.00  0.00    -0.077 C  
HETATM   18  C   UNL     1      -8.422   6.980  65.650  1.00  0.00    -0.138 C  
ENDBRANCH  14  16
ENDBRANCH  12  14
ENDBRANCH   7   8
ENDBRANCH   5   7
ENDBRANCH   2   3
TORSDOF 5
ENDMDL
MODEL      130
REMARK 921   NORMALIZED FREE ENERGY PREDICTED BY IDOCK:   -3.47 KCAL/MOL
REMARK 922        TOTAL FREE ENERGY PREDICTED BY IDOCK:   -5.10 KCAL/MOL
REMARK 923 INTER-LIGAND FREE ENERGY PREDICTED BY IDOCK:   -4.58 KCAL/MOL
REMARK 924 INTRA-LIGAND FREE ENERGY PREDICTED BY IDOCK:   -0.52 KCAL/MOL
REMARK 927      BINDING AFFINITY PREDICTED BY RF-SCORE:    0.00 PKD
ROOT
HETATM    1  C   UNL     1      -9.285   3.868  69.214  1.00  0.00    -0.224 C  
HETATM    2  C   UNL     1     -10.248   5.024  69.454  1.00  0.00    -0.198 C  
ENDROOT
BRANCH   2   3
HETATM    3  N   UNL     1     -10.516   5.799  68.248  1.00  0.00    -0.215 N  
HETATM    4  C   UNL     1     -10.218   5.206  66.956  1.00  0.00    -0.223 C  
HETATM    5  C   UNL     1     -10.784   7.165  68.361  1.00  0.00    -0.147 C  
HETATM    6  O   UNL     1     -10.900   7.736  69.440  1.00  0.00    -0.207 OA 
BRANCH   5   7
HETATM    7  O   UNL     1     -10.864   7.787  67.118  1.00  0.00    -0.313 OA 
BRANCH   7   8
HETATM    8  C   UNL     1     -10.154   8.983  66.936  1.00  0.00    -0.267 A  
HETATM    9  C   UNL     1      -8.764   8.935  67.011  1.00  0.00    -0.130 A  
HETATM   10  C   UNL     1      -8.037  10.123  66.941  1.00  0.00    -0.121 A  
HETATM   11  C   UNL     1      -8.699  11.352  66.814  1.00  0.00    -0.174 A  
HETATM   12  C   UNL     1     -10.100  11.410  66.770  1.00  0.00    -0.250 A  
HETATM   13  C   UNL     1     -10.819  10.205  66.832  1.00  0.00    -0.176 A  
BRANCH  12  14
HETATM   14  C   UNL     1     -10.883  12.719  66.703  1.00  0.00    -0.264 C  
HETATM   15  C   UNL     1     -11.665  12.975  68.001  1.00  0.00    -0.397 C  
BRANCH  14  16
HETATM   16  N   UNL     1     -11.678  12.927  65.472  1.00  0.00    -0.361 NA 
HETATM   17  C   UNL     1     -12.615  14.047  65.582  1.00  0.00    -0.512 C  
HETATM   18  C   UNL     1     -10.930  13.001  64.226  1.00  0.00    -0.399 C  
ENDBRANCH  14  16
ENDBRANCH  12  14
ENDBRANCH   7   8
ENDBRANCH   5   7
ENDBRANCH   2   3
TORSDOF 5
ENDMDL
MODEL      131
REMARK 921   NORMALIZED FREE ENERGY PREDICTED BY IDOCK:   -3.47 KCAL/MOL
REMARK 922        TOTAL FREE ENERGY PREDICTED BY IDOCK:   -5.09 KCAL/MOL
REMARK 923 INTER-LIGAND FREE ENERGY PREDICTED BY IDOCK:   -4.56 KCAL/MOL
REMARK 924 INTRA-LIGAND FREE ENERGY PREDICTED BY IDOCK:   -0.53 KCAL/MOL
REMARK 927      BINDING AFFINITY PREDICTED BY RF-SCORE:    0.00 PKD
ROOT
HETATM    1  C   UNL     1     -10.013   7.554  73.408  1.00  0.00    -0.378 C  
HETATM    2  C   UNL     1     -10.855   6.352  72.998  1.00  0.00    -0.259 C  
ENDROOT
BRANCH   2   3
HETATM    3  N   UNL     1     -11.411   6.479  71.656  1.00  0.00    -0.271 N  
HETATM    4  C   UNL     1     -12.774   6.957  71.507  1.00  0.00    -0.349 C  
HETATM    5  C   UNL     1     -10.740   5.892  70.582  1.00  0.00    -0.285 C  
HETATM    6  O   UNL     1      -9.647   5.347  70.693  1.00  0.00    -0.159 OA 
BRANCH   5   7
HETATM    7  O   UNL     1     -11.474   5.971  69.400  1.00  0.00    -0.372 OA 
BRANCH   7   8
HETATM    8  C   UNL     1     -10.850   6.535  68.278  1.00  0.00    -0.288 A  
HETATM    9  C   UNL     1     -10.312   5.672  67.326  1.00  0.00    -0.295 A  
HETATM   10  C   UNL     1      -9.594   6.202  66.255  1.00  0.00    -0.123 A  
HETATM   11  C   UNL     1      -9.400   7.585  66.146  1.00  0.00    -0.128 A  
HETATM   12  C   UNL     1      -9.912   8.458  67.119  1.00  0.00    -0.304 A  
HETATM   13  C   UNL     1     -10.642   7.912  68.187  1.00  0.00    -0.179 A  
BRANCH  12  14
HETATM   14  C   UNL     1      -9.678   9.966  67.097  1.00  0.00    -0.178 C  
HETATM   15  C   UNL     1      -9.671  10.557  68.516  1.00  0.00    -0.170 C  
BRANCH  14  16
HETATM   16  N   UNL     1     -10.503  10.730  66.134  1.00  0.00    -0.239 NA 
HETATM   17  C   UNL     1     -11.134  11.907  66.732  1.00  0.00    -0.308 C  
HETATM   18  C   UNL     1      -9.867  11.072  64.870  1.00  0.00    -0.274 C  
ENDBRANCH  14  16
ENDBRANCH  12  14
ENDBRANCH   7   8
ENDBRANCH   5   7
ENDBRANCH   2   3
TORSDOF 5
ENDMDL
MODEL      132
REMARK 921   NORMALIZED FREE ENERGY PREDICTED BY IDOCK:   -3.46 KCAL/MOL
REMARK 922        TOTAL FREE ENERGY PREDICTED BY IDOCK:   -5.07 KCAL/MOL
REMARK 923 INTER-LIGAND FREE ENERGY PREDICTED BY IDOCK:   -4.55 KCAL/MOL
REMARK 924 INTRA-LIGAND FREE ENERGY PREDICTED BY IDOCK:   -0.53 KCAL/MOL
REMARK 927      BINDING AFFINITY PREDICTED BY RF-SCORE:    0.00 PKD
ROOT
HETATM    1  C   UNL     1      -8.062   8.134  67.455  1.00  0.00    -0.122 C  
HETATM    2  C   UNL     1      -9.452   8.279  66.847  1.00  0.00    -0.186 C  
ENDROOT
BRANCH   2   3
HETATM    3  N   UNL     1     -10.165   9.454  67.333  1.00  0.00    -0.222 N  
HETATM    4  C   UNL     1     -10.552   9.507  68.732  1.00  0.00    -0.214 C  
HETATM    5  C   UNL     1     -10.695  10.359  66.411  1.00  0.00    -0.064 C  
HETATM    6  O   UNL     1     -10.511  10.267  65.202  1.00  0.00    -0.222 OA 
BRANCH   5   7
HETATM    7  O   UNL     1     -11.472  11.337  67.027  1.00  0.00    -0.455 OA 
BRANCH   7   8
HETATM    8  C   UNL     1     -11.228  12.677  66.689  1.00  0.00    -0.300 A  
HETATM    9  C   UNL     1     -12.090  13.289  65.782  1.00  0.00    -0.491 A  
HETATM   10  C   UNL     1     -11.812  14.584  65.347  1.00  0.00    -0.344 A  
HETATM   11  C   UNL     1     -10.669  15.255  65.803  1.00  0.00    -0.357 A  
HETATM   12  C   UNL     1      -9.780  14.632  66.691  1.00  0.00    -0.283 A  
HETATM   13  C   UNL     1     -10.078  13.331  67.129  1.00  0.00    -0.239 A  
BRANCH  12  14
HETATM   14  C   UNL     1      -8.484  15.279  67.171  1.00  0.00    -0.209 C  
HETATM   15  C   UNL     1      -8.194  14.940  68.642  1.00  0.00    -0.157 C  
BRANCH  14  16
HETATM   16  N   UNL     1      -8.325  16.715  66.846  1.00  0.00    -0.190 NA 
HETATM   17  C   UNL     1      -8.633  17.593  67.975  1.00  0.00    -0.248 C  
HETATM   18  C   UNL     1      -7.066  17.098  66.223  1.00  0.00    -0.245 C  
ENDBRANCH  14  16
ENDBRANCH  12  14
ENDBRANCH   7   8
ENDBRANCH   5   7
ENDBRANCH   2   3
TORSDOF 5
ENDMDL
MODEL      133
REMARK 921   NORMALIZED FREE ENERGY PREDICTED BY IDOCK:   -3.45 KCAL/MOL
REMARK 922        TOTAL FREE ENERGY PREDICTED BY IDOCK:   -5.06 KCAL/MOL
REMARK 923 INTER-LIGAND FREE ENERGY PREDICTED BY IDOCK:   -4.83 KCAL/MOL
REMARK 924 INTRA-LIGAND FREE ENERGY PREDICTED BY IDOCK:   -0.23 KCAL/MOL
REMARK 927      BINDING AFFINITY PREDICTED BY RF-SCORE:    0.00 PKD
ROOT
HETATM    1  C   UNL     1      -5.838  10.137  64.514  1.00  0.00    -0.126 C  
HETATM    2  C   UNL     1      -7.263   9.685  64.806  1.00  0.00    -0.119 C  
ENDROOT
BRANCH   2   3
HETATM    3  N   UNL     1      -7.928  10.514  65.804  1.00  0.00    -0.156 N  
HETATM    4  C   UNL     1      -7.119  11.179  66.810  1.00  0.00    -0.139 C  
HETATM    5  C   UNL     1      -9.315  10.433  65.943  1.00  0.00    -0.182 C  
HETATM    6  O   UNL     1     -10.024   9.764  65.199  1.00  0.00    -0.309 OA 
BRANCH   5   7
HETATM    7  O   UNL     1      -9.775  11.166  67.035  1.00  0.00    -0.182 OA 
BRANCH   7   8
HETATM    8  C   UNL     1     -10.476  12.354  66.778  1.00  0.00    -0.221 A  
HETATM    9  C   UNL     1     -11.616  12.280  65.981  1.00  0.00    -0.451 A  
HETATM   10  C   UNL     1     -12.273  13.456  65.621  1.00  0.00    -0.510 A  
HETATM   11  C   UNL     1     -11.782  14.699  66.042  1.00  0.00    -0.306 A  
HETATM   12  C   UNL     1     -10.616  14.782  66.818  1.00  0.00    -0.302 A  
HETATM   13  C   UNL     1      -9.970  13.589  67.182  1.00  0.00    -0.246 A  
BRANCH  12  14
HETATM   14  C   UNL     1      -9.991  16.106  67.251  1.00  0.00    -0.248 C  
HETATM   15  C   UNL     1     -10.869  16.837  68.279  1.00  0.00    -0.366 C  
BRANCH  14  16
HETATM   16  N   UNL     1      -9.504  16.974  66.154  1.00  0.00    -0.431 NA 
HETATM   17  C   UNL     1     -10.348  18.150  65.941  1.00  0.00    -0.277 C  
HETATM   18  C   UNL     1      -8.098  17.350  66.207  1.00  0.00    -0.263 C  
ENDBRANCH  14  16
ENDBRANCH  12  14
ENDBRANCH   7   8
ENDBRANCH   5   7
ENDBRANCH   2   3
TORSDOF 5
ENDMDL
MODEL      134
REMARK 921   NORMALIZED FREE ENERGY PREDICTED BY IDOCK:   -3.41 KCAL/MOL
REMARK 922        TOTAL FREE ENERGY PREDICTED BY IDOCK:   -5.02 KCAL/MOL
REMARK 923 INTER-LIGAND FREE ENERGY PREDICTED BY IDOCK:   -4.87 KCAL/MOL
REMARK 924 INTRA-LIGAND FREE ENERGY PREDICTED BY IDOCK:   -0.15 KCAL/MOL
REMARK 927      BINDING AFFINITY PREDICTED BY RF-SCORE:    0.00 PKD
ROOT
HETATM    1  C   UNL     1     -10.512  19.540  66.160  1.00  0.00    -0.613 C  
HETATM    2  C   UNL     1      -9.253  19.568  67.018  1.00  0.00    -0.332 C  
ENDROOT
BRANCH   2   3
HETATM    3  N   UNL     1      -8.821  18.241  67.436  1.00  0.00    -0.252 N  
HETATM    4  C   UNL     1      -7.986  17.463  66.538  1.00  0.00    -0.281 C  
HETATM    5  C   UNL     1      -9.429  17.642  68.541  1.00  0.00    -0.298 C  
HETATM    6  O   UNL     1     -10.252  18.218  69.245  1.00  0.00    -0.275 OA 
BRANCH   5   7
HETATM    7  O   UNL     1      -9.017  16.324  68.716  1.00  0.00    -0.220 OA 
BRANCH   7   8
HETATM    8  C   UNL     1      -9.948  15.306  68.459  1.00  0.00    -0.222 A  
HETATM    9  C   UNL     1     -11.093  15.254  69.250  1.00  0.00    -0.277 A  
HETATM   10  C   UNL     1     -11.984  14.194  69.089  1.00  0.00    -0.388 A  
HETATM   11  C   UNL     1     -11.721  13.182  68.155  1.00  0.00    -0.391 A  
HETATM   12  C   UNL     1     -10.553  13.212  67.378  1.00  0.00    -0.247 A  
HETATM   13  C   UNL     1      -9.669  14.291  67.543  1.00  0.00    -0.223 A  
BRANCH  12  14
HETATM   14  C   UNL     1     -10.173  12.108  66.395  1.00  0.00    -0.220 C  
HETATM   15  C   UNL     1     -11.408  11.546  65.672  1.00  0.00    -0.151 C  
BRANCH  14  16
HETATM   16  N   UNL     1      -9.261  11.067  66.920  1.00  0.00    -0.154 NA 
HETATM   17  C   UNL     1      -9.969   9.973  67.587  1.00  0.00    -0.176 C  
HETATM   18  C   UNL     1      -8.271  10.548  65.988  1.00  0.00    -0.150 C  
ENDBRANCH  14  16
ENDBRANCH  12  14
ENDBRANCH   7   8
ENDBRANCH   5   7
ENDBRANCH   2   3
TORSDOF 5
ENDMDL
MODEL      135
REMARK 921   NORMALIZED FREE ENERGY PREDICTED BY IDOCK:   -3.41 KCAL/MOL
REMARK 922        TOTAL FREE ENERGY PREDICTED BY IDOCK:   -5.01 KCAL/MOL
REMARK 923 INTER-LIGAND FREE ENERGY PREDICTED BY IDOCK:   -4.53 KCAL/MOL
REMARK 924 INTRA-LIGAND FREE ENERGY PREDICTED BY IDOCK:   -0.48 KCAL/MOL
REMARK 927      BINDING AFFINITY PREDICTED BY RF-SCORE:    0.00 PKD
ROOT
HETATM    1  C   UNL     1     -10.216  16.485  65.707  1.00  0.00    -0.350 C  
HETATM    2  C   UNL     1     -11.187  16.043  66.796  1.00  0.00     0.095 C  
ENDROOT
BRANCH   2   3
HETATM    3  N   UNL     1     -11.668  14.680  66.609  1.00  0.00    -0.362 N  
HETATM    4  C   UNL     1     -12.707  14.436  65.623  1.00  0.00    -0.284 C  
HETATM    5  C   UNL     1     -11.332  13.703  67.547  1.00  0.00    -0.308 C  
HETATM    6  O   UNL     1     -10.567  13.910  68.483  1.00  0.00    -0.241 OA 
BRANCH   5   7
HETATM    7  O   UNL     1     -11.992  12.499  67.309  1.00  0.00    -0.474 OA 
BRANCH   7   8
HETATM    8  C   UNL     1     -11.209  11.360  67.065  1.00  0.00    -0.283 A  
HETATM    9  C   UNL     1     -11.143  10.388  68.060  1.00  0.00    -0.359 A  
HETATM   10  C   UNL     1     -10.292   9.297  67.890  1.00  0.00    -0.279 A  
HETATM   11  C   UNL     1      -9.498   9.190  66.740  1.00  0.00    -0.230 A  
HETATM   12  C   UNL     1      -9.536  10.182  65.749  1.00  0.00    -0.288 A  
HETATM   13  C   UNL     1     -10.406  11.270  65.928  1.00  0.00    -0.304 A  
BRANCH  12  14
HETATM   14  C   UNL     1      -8.648  10.161  64.508  1.00  0.00    -0.189 C  
HETATM   15  C   UNL     1      -9.219  11.049  63.390  1.00  0.00    -0.255 C  
BRANCH  14  16
HETATM   16  N   UNL     1      -8.221   8.820  64.048  1.00  0.00    -0.165 NA 
HETATM   17  C   UNL     1      -8.369   8.638  62.603  1.00  0.00    -0.187 C  
HETATM   18  C   UNL     1      -6.907   8.376  64.491  1.00  0.00    -0.069 C  
ENDBRANCH  14  16
ENDBRANCH  12  14
ENDBRANCH   7   8
ENDBRANCH   5   7
ENDBRANCH   2   3
TORSDOF 5
ENDMDL
MODEL      136
REMARK 921   NORMALIZED FREE ENERGY PREDICTED BY IDOCK:   -3.39 KCAL/MOL
REMARK 922        TOTAL FREE ENERGY PREDICTED BY IDOCK:   -4.98 KCAL/MOL
REMARK 923 INTER-LIGAND FREE ENERGY PREDICTED BY IDOCK:   -4.87 KCAL/MOL
REMARK 924 INTRA-LIGAND FREE ENERGY PREDICTED BY IDOCK:   -0.11 KCAL/MOL
REMARK 927      BINDING AFFINITY PREDICTED BY RF-SCORE:    0.00 PKD
ROOT
HETATM    1  C   UNL     1     -10.126   5.053  66.845  1.00  0.00    -0.261 C  
HETATM    2  C   UNL     1     -11.102   6.193  67.113  1.00  0.00    -0.242 C  
ENDROOT
BRANCH   2   3
HETATM    3  N   UNL     1     -10.441   7.412  67.564  1.00  0.00    -0.245 N  
HETATM    4  C   UNL     1      -9.515   8.078  66.664  1.00  0.00    -0.212 C  
HETATM    5  C   UNL     1     -10.493   7.755  68.916  1.00  0.00    -0.194 C  
HETATM    6  O   UNL     1     -11.151   7.129  69.741  1.00  0.00    -0.254 OA 
BRANCH   5   7
HETATM    7  O   UNL     1      -9.689   8.854  69.208  1.00  0.00    -0.161 OA 
BRANCH   7   8
HETATM    8  C   UNL     1     -10.309  10.108  69.322  1.00  0.00    -0.223 A  
HETATM    9  C   UNL     1     -11.326  10.250  70.264  1.00  0.00    -0.398 A  
HETATM   10  C   UNL     1     -12.032  11.451  70.327  1.00  0.00    -0.460 A  
HETATM   11  C   UNL     1     -11.734  12.495  69.441  1.00  0.00    -0.383 A  
HETATM   12  C   UNL     1     -10.733  12.347  68.470  1.00  0.00    -0.262 A  
HETATM   13  C   UNL     1     -10.023  11.136  68.424  1.00  0.00    -0.193 A  
BRANCH  12  14
HETATM   14  C   UNL     1     -10.407  13.418  67.432  1.00  0.00    -0.240 C  
HETATM   15  C   UNL     1      -9.031  14.052  67.689  1.00  0.00    -0.194 C  
BRANCH  14  16
HETATM   16  N   UNL     1     -11.481  14.402  67.167  1.00  0.00    -0.346 NA 
HETATM   17  C   UNL     1     -11.323  15.638  67.934  1.00  0.00    -0.302 C  
HETATM   18  C   UNL     1     -11.755  14.695  65.768  1.00  0.00    -0.302 C  
ENDBRANCH  14  16
ENDBRANCH  12  14
ENDBRANCH   7   8
ENDBRANCH   5   7
ENDBRANCH   2   3
TORSDOF 5
ENDMDL
MODEL      137
REMARK 921   NORMALIZED FREE ENERGY PREDICTED BY IDOCK:   -3.35 KCAL/MOL
REMARK 922        TOTAL FREE ENERGY PREDICTED BY IDOCK:   -4.93 KCAL/MOL
REMARK 923 INTER-LIGAND FREE ENERGY PREDICTED BY IDOCK:   -4.68 KCAL/MOL
REMARK 924 INTRA-LIGAND FREE ENERGY PREDICTED BY IDOCK:   -0.25 KCAL/MOL
REMARK 927      BINDING AFFINITY PREDICTED BY RF-SCORE:    0.00 PKD
ROOT
HETATM    1  C   UNL     1     -13.011  14.004  65.350  1.00  0.00    -0.346 C  
HETATM    2  C   UNL     1     -12.570  12.636  64.844  1.00  0.00    -0.450 C  
ENDROOT
BRANCH   2   3
HETATM    3  N   UNL     1     -11.200  12.307  65.218  1.00  0.00    -0.318 N  
HETATM    4  C   UNL     1     -10.203  12.178  64.170  1.00  0.00    -0.343 C  
HETATM    5  C   UNL     1     -10.935  11.860  66.514  1.00  0.00    -0.292 C  
HETATM    6  O   UNL     1     -11.788  11.816  67.394  1.00  0.00    -0.590 OA 
BRANCH   5   7
HETATM    7  O   UNL     1      -9.614  11.444  66.664  1.00  0.00    -0.185 OA 
BRANCH   7   8
HETATM    8  C   UNL     1      -8.716  12.327  67.282  1.00  0.00    -0.188 A  
HETATM    9  C   UNL     1      -7.736  11.786  68.111  1.00  0.00    -0.124 A  
HETATM   10  C   UNL     1      -6.896  12.644  68.821  1.00  0.00    -0.096 A  
HETATM   11  C   UNL     1      -7.050  14.033  68.717  1.00  0.00    -0.108 A  
HETATM   12  C   UNL     1      -8.056  14.583  67.909  1.00  0.00    -0.151 A  
HETATM   13  C   UNL     1      -8.888  13.708  67.191  1.00  0.00    -0.237 A  
BRANCH  12  14
HETATM   14  C   UNL     1      -8.321  16.083  67.806  1.00  0.00    -0.150 C  
HETATM   15  C   UNL     1      -7.548  16.868  68.878  1.00  0.00    -0.234 C  
BRANCH  14  16
HETATM   16  N   UNL     1      -9.743  16.476  67.684  1.00  0.00    -0.236 NA 
HETATM   17  C   UNL     1     -10.403  16.638  68.980  1.00  0.00    -0.317 C  
HETATM   18  C   UNL     1     -10.025  17.610  66.816  1.00  0.00    -0.320 C  
ENDBRANCH  14  16
ENDBRANCH  12  14
ENDBRANCH   7   8
ENDBRANCH   5   7
ENDBRANCH   2   3
TORSDOF 5
ENDMDL
MODEL      138
REMARK 921   NORMALIZED FREE ENERGY PREDICTED BY IDOCK:   -3.34 KCAL/MOL
REMARK 922        TOTAL FREE ENERGY PREDICTED BY IDOCK:   -4.92 KCAL/MOL
REMARK 923 INTER-LIGAND FREE ENERGY PREDICTED BY IDOCK:   -4.57 KCAL/MOL
REMARK 924 INTRA-LIGAND FREE ENERGY PREDICTED BY IDOCK:   -0.35 KCAL/MOL
REMARK 927      BINDING AFFINITY PREDICTED BY RF-SCORE:    0.00 PKD
ROOT
HETATM    1  C   UNL     1      -9.167   3.336  67.505  1.00  0.00    -0.233 C  
HETATM    2  C   UNL     1     -10.026   4.275  66.667  1.00  0.00    -0.177 C  
ENDROOT
BRANCH   2   3
HETATM    3  N   UNL     1      -9.346   5.520  66.332  1.00  0.00    -0.148 N  
HETATM    4  C   UNL     1      -7.935   5.476  65.992  1.00  0.00    -0.106 C  
HETATM    5  C   UNL     1      -9.975   6.736  66.609  1.00  0.00    -0.142 C  
HETATM    6  O   UNL     1     -11.122   6.813  67.037  1.00  0.00    -0.403 OA 
BRANCH   5   7
HETATM    7  O   UNL     1      -9.137   7.824  66.375  1.00  0.00    -0.160 OA 
BRANCH   7   8
HETATM    8  C   UNL     1      -9.562   9.085  66.818  1.00  0.00    -0.200 A  
HETATM    9  C   UNL     1      -9.431   9.380  68.173  1.00  0.00    -0.146 A  
HETATM   10  C   UNL     1      -9.941  10.583  68.660  1.00  0.00    -0.188 A  
HETATM   11  C   UNL     1     -10.593  11.476  67.800  1.00  0.00    -0.227 A  
HETATM   12  C   UNL     1     -10.756  11.171  66.440  1.00  0.00    -0.303 A  
HETATM   13  C   UNL     1     -10.229   9.961  65.961  1.00  0.00    -0.269 A  
BRANCH  12  14
HETATM   14  C   UNL     1     -11.515  12.068  65.466  1.00  0.00    -0.313 C  
HETATM   15  C   UNL     1     -11.168  11.735  64.006  1.00  0.00    -0.461 C  
BRANCH  14  16
HETATM   16  N   UNL     1     -11.489  13.516  65.773  1.00  0.00    -0.310 NA 
HETATM   17  C   UNL     1     -10.363  14.211  65.148  1.00  0.00    -0.405 C  
HETATM   18  C   UNL     1     -12.731  14.243  65.552  1.00  0.00    -0.380 C  
ENDBRANCH  14  16
ENDBRANCH  12  14
ENDBRANCH   7   8
ENDBRANCH   5   7
ENDBRANCH   2   3
TORSDOF 5
ENDMDL
MODEL      139
REMARK 921   NORMALIZED FREE ENERGY PREDICTED BY IDOCK:   -3.33 KCAL/MOL
REMARK 922        TOTAL FREE ENERGY PREDICTED BY IDOCK:   -4.91 KCAL/MOL
REMARK 923 INTER-LIGAND FREE ENERGY PREDICTED BY IDOCK:   -4.56 KCAL/MOL
REMARK 924 INTRA-LIGAND FREE ENERGY PREDICTED BY IDOCK:   -0.35 KCAL/MOL
REMARK 927      BINDING AFFINITY PREDICTED BY RF-SCORE:    0.00 PKD
ROOT
HETATM    1  C   UNL     1     -10.066  17.262  67.607  1.00  0.00    -0.313 C  
HETATM    2  C   UNL     1     -11.119  16.542  68.441  1.00  0.00    -0.333 C  
ENDROOT
BRANCH   2   3
HETATM    3  N   UNL     1     -11.313  15.155  68.036  1.00  0.00    -0.326 N  
HETATM    4  C   UNL     1     -10.985  14.774  66.673  1.00  0.00    -0.326 C  
HETATM    5  C   UNL     1     -12.053  14.302  68.857  1.00  0.00    -0.279 C  
HETATM    6  O   UNL     1     -12.475  14.635  69.959  1.00  0.00    -0.326 OA 
BRANCH   5   7
HETATM    7  O   UNL     1     -12.276  13.064  68.259  1.00  0.00    -0.225 OA 
BRANCH   7   8
HETATM    8  C   UNL     1     -11.644  11.943  68.817  1.00  0.00    -0.309 A  
HETATM    9  C   UNL     1     -12.147  11.438  70.014  1.00  0.00    -0.417 A  
HETATM   10  C   UNL     1     -11.476  10.392  70.647  1.00  0.00    -0.438 A  
HETATM   11  C   UNL     1     -10.299   9.868  70.095  1.00  0.00    -0.336 A  
HETATM   12  C   UNL     1      -9.770  10.394  68.907  1.00  0.00    -0.203 A  
HETATM   13  C   UNL     1     -10.461  11.441  68.275  1.00  0.00    -0.221 A  
BRANCH  12  14
HETATM   14  C   UNL     1      -8.457   9.917  68.291  1.00  0.00    -0.111 C  
HETATM   15  C   UNL     1      -8.603   9.655  66.784  1.00  0.00    -0.140 C  
BRANCH  14  16
HETATM   16  N   UNL     1      -7.762   8.833  69.023  1.00  0.00    -0.089 NA 
HETATM   17  C   UNL     1      -7.723   7.575  68.276  1.00  0.00    -0.120 C  
HETATM   18  C   UNL     1      -6.447   9.158  69.556  1.00  0.00    -0.043 C  
ENDBRANCH  14  16
ENDBRANCH  12  14
ENDBRANCH   7   8
ENDBRANCH   5   7
ENDBRANCH   2   3
TORSDOF 5
ENDMDL
MODEL      140
REMARK 921   NORMALIZED FREE ENERGY PREDICTED BY IDOCK:   -3.32 KCAL/MOL
REMARK 922        TOTAL FREE ENERGY PREDICTED BY IDOCK:   -4.90 KCAL/MOL
REMARK 923 INTER-LIGAND FREE ENERGY PREDICTED BY IDOCK:   -4.45 KCAL/MOL
REMARK 924 INTRA-LIGAND FREE ENERGY PREDICTED BY IDOCK:   -0.45 KCAL/MOL
REMARK 927      BINDING AFFINITY PREDICTED BY RF-SCORE:    0.00 PKD
ROOT
HETATM    1  C   UNL     1      -6.133   8.898  65.970  1.00  0.00    -0.052 C  
HETATM    2  C   UNL     1      -7.027  10.099  66.250  1.00  0.00    -0.109 C  
ENDROOT
BRANCH   2   3
HETATM    3  N   UNL     1      -8.379   9.721  66.645  1.00  0.00    -0.123 N  
HETATM    4  C   UNL     1      -8.855   8.389  66.317  1.00  0.00    -0.159 C  
HETATM    5  C   UNL     1      -9.266  10.710  67.073  1.00  0.00    -0.151 C  
HETATM    6  O   UNL     1      -8.938  11.882  67.226  1.00  0.00    -0.166 OA 
BRANCH   5   7
HETATM    7  O   UNL     1     -10.552  10.212  67.265  1.00  0.00    -0.240 OA 
BRANCH   7   8
HETATM    8  C   UNL     1     -11.090  10.268  68.560  1.00  0.00    -0.242 A  
HETATM    9  C   UNL     1     -11.696  11.455  68.964  1.00  0.00    -0.409 A  
HETATM   10  C   UNL     1     -12.145  11.576  70.279  1.00  0.00    -0.444 A  
HETATM   11  C   UNL     1     -11.972  10.523  71.187  1.00  0.00    -0.435 A  
HETATM   12  C   UNL     1     -11.335   9.337  70.794  1.00  0.00    -0.349 A  
HETATM   13  C   UNL     1     -10.896   9.224  69.464  1.00  0.00    -0.211 A  
BRANCH  12  14
HETATM   14  C   UNL     1     -11.054   8.180  71.750  1.00  0.00    -0.270 C  
HETATM   15  C   UNL     1      -9.546   7.920  71.893  1.00  0.00    -0.226 C  
BRANCH  14  16
HETATM   16  N   UNL     1     -11.855   6.955  71.528  1.00  0.00    -0.304 NA 
HETATM   17  C   UNL     1     -11.357   5.804  72.282  1.00  0.00    -0.278 C  
HETATM   18  C   UNL     1     -13.295   7.091  71.685  1.00  0.00    -0.285 C  
ENDBRANCH  14  16
ENDBRANCH  12  14
ENDBRANCH   7   8
ENDBRANCH   5   7
ENDBRANCH   2   3
TORSDOF 5
ENDMDL
MODEL      141
REMARK 921   NORMALIZED FREE ENERGY PREDICTED BY IDOCK:   -3.32 KCAL/MOL
REMARK 922        TOTAL FREE ENERGY PREDICTED BY IDOCK:   -4.90 KCAL/MOL
REMARK 923 INTER-LIGAND FREE ENERGY PREDICTED BY IDOCK:   -4.61 KCAL/MOL
REMARK 924 INTRA-LIGAND FREE ENERGY PREDICTED BY IDOCK:   -0.28 KCAL/MOL
REMARK 927      BINDING AFFINITY PREDICTED BY RF-SCORE:    0.00 PKD
ROOT
HETATM    1  C   UNL     1     -10.911  14.945  64.968  1.00  0.00    -0.432 C  
HETATM    2  C   UNL     1     -11.521  14.715  66.345  1.00  0.00    -0.347 C  
ENDROOT
BRANCH   2   3
HETATM    3  N   UNL     1     -11.798  13.310  66.616  1.00  0.00    -0.380 N  
HETATM    4  C   UNL     1     -12.354  12.491  65.553  1.00  0.00    -0.295 C  
HETATM    5  C   UNL     1     -11.785  12.854  67.936  1.00  0.00    -0.357 C  
HETATM    6  O   UNL     1     -11.459  13.560  68.884  1.00  0.00    -0.263 OA 
BRANCH   5   7
HETATM    7  O   UNL     1     -12.218  11.534  68.037  1.00  0.00    -0.582 OA 
BRANCH   7   8
HETATM    8  C   UNL     1     -11.276  10.563  68.409  1.00  0.00    -0.279 A  
HETATM    9  C   UNL     1     -11.110  10.300  69.767  1.00  0.00    -0.340 A  
HETATM   10  C   UNL     1     -10.109   9.419  70.172  1.00  0.00    -0.273 A  
HETATM   11  C   UNL     1      -9.267   8.818  69.226  1.00  0.00    -0.149 A  
HETATM   12  C   UNL     1      -9.409   9.103  67.860  1.00  0.00    -0.151 A  
HETATM   13  C   UNL     1     -10.428   9.985  67.464  1.00  0.00    -0.307 A  
BRANCH  12  14
HETATM   14  C   UNL     1      -8.483   8.538  66.786  1.00  0.00    -0.109 C  
HETATM   15  C   UNL     1      -8.574   7.005  66.712  1.00  0.00    -0.120 C  
BRANCH  14  16
HETATM   16  N   UNL     1      -7.096   9.055  66.798  1.00  0.00    -0.081 NA 
HETATM   17  C   UNL     1      -7.033  10.515  66.875  1.00  0.00    -0.096 C  
HETATM   18  C   UNL     1      -6.190   8.448  67.762  1.00  0.00    -0.052 C  
ENDBRANCH  14  16
ENDBRANCH  12  14
ENDBRANCH   7   8
ENDBRANCH   5   7
ENDBRANCH   2   3
TORSDOF 5
ENDMDL
MODEL      142
REMARK 921   NORMALIZED FREE ENERGY PREDICTED BY IDOCK:   -3.31 KCAL/MOL
REMARK 922        TOTAL FREE ENERGY PREDICTED BY IDOCK:   -4.89 KCAL/MOL
REMARK 923 INTER-LIGAND FREE ENERGY PREDICTED BY IDOCK:   -4.72 KCAL/MOL
REMARK 924 INTRA-LIGAND FREE ENERGY PREDICTED BY IDOCK:   -0.16 KCAL/MOL
REMARK 927      BINDING AFFINITY PREDICTED BY RF-SCORE:    0.00 PKD
ROOT
HETATM    1  C   UNL     1      -7.332   8.616  67.171  1.00  0.00    -0.088 C  
HETATM    2  C   UNL     1      -7.604   9.955  66.495  1.00  0.00    -0.103 C  
ENDROOT
BRANCH   2   3
HETATM    3  N   UNL     1      -9.001  10.126  66.117  1.00  0.00    -0.147 N  
HETATM    4  C   UNL     1      -9.400   9.811  64.756  1.00  0.00    -0.265 C  
HETATM    5  C   UNL     1      -9.856  10.835  66.964  1.00  0.00    -0.187 C  
HETATM    6  O   UNL     1      -9.513  11.247  68.067  1.00  0.00    -0.162 OA 
BRANCH   5   7
HETATM    7  O   UNL     1     -11.108  11.041  66.391  1.00  0.00    -0.201 OA 
BRANCH   7   8
HETATM    8  C   UNL     1     -11.374  12.300  65.832  1.00  0.00    -0.360 A  
HETATM    9  C   UNL     1     -11.891  12.345  64.540  1.00  0.00    -0.452 A  
HETATM   10  C   UNL     1     -12.066  13.581  63.919  1.00  0.00    -0.493 A  
HETATM   11  C   UNL     1     -11.709  14.764  64.581  1.00  0.00    -0.426 A  
HETATM   12  C   UNL     1     -11.158  14.723  65.871  1.00  0.00    -0.340 A  
HETATM   13  C   UNL     1     -10.996  13.472  66.488  1.00  0.00    -0.295 A  
BRANCH  12  14
HETATM   14  C   UNL     1     -10.684  15.967  66.619  1.00  0.00    -0.270 C  
HETATM   15  C   UNL     1     -10.647  17.198  65.700  1.00  0.00    -0.187 C  
BRANCH  14  16
HETATM   16  N   UNL     1      -9.464  15.795  67.440  1.00  0.00    -0.211 NA 
HETATM   17  C   UNL     1      -8.233  16.053  66.693  1.00  0.00    -0.289 C  
HETATM   18  C   UNL     1      -9.447  16.490  68.719  1.00  0.00    -0.246 C  
ENDBRANCH  14  16
ENDBRANCH  12  14
ENDBRANCH   7   8
ENDBRANCH   5   7
ENDBRANCH   2   3
TORSDOF 5
ENDMDL
MODEL      143
REMARK 921   NORMALIZED FREE ENERGY PREDICTED BY IDOCK:   -3.29 KCAL/MOL
REMARK 922        TOTAL FREE ENERGY PREDICTED BY IDOCK:   -4.86 KCAL/MOL
REMARK 923 INTER-LIGAND FREE ENERGY PREDICTED BY IDOCK:   -4.78 KCAL/MOL
REMARK 924 INTRA-LIGAND FREE ENERGY PREDICTED BY IDOCK:   -0.08 KCAL/MOL
REMARK 927      BINDING AFFINITY PREDICTED BY RF-SCORE:    0.00 PKD
ROOT
HETATM    1  C   UNL     1      -6.157  10.123  64.957  1.00  0.00    -0.123 C  
HETATM    2  C   UNL     1      -7.515   9.506  65.271  1.00  0.00    -0.107 C  
ENDROOT
BRANCH   2   3
HETATM    3  N   UNL     1      -8.314  10.323  66.176  1.00  0.00    -0.135 N  
HETATM    4  C   UNL     1      -7.667  11.411  66.889  1.00  0.00    -0.155 C  
HETATM    5  C   UNL     1      -9.586   9.884  66.546  1.00  0.00    -0.190 C  
HETATM    6  O   UNL     1     -10.113   8.883  66.072  1.00  0.00    -0.260 OA 
BRANCH   5   7
HETATM    7  O   UNL     1     -10.153  10.693  67.529  1.00  0.00    -0.174 OA 
BRANCH   7   8
HETATM    8  C   UNL     1     -10.903  11.803  67.112  1.00  0.00    -0.258 A  
HETATM    9  C   UNL     1     -11.524  11.740  65.867  1.00  0.00    -0.273 A  
HETATM   10  C   UNL     1     -12.188  12.866  65.380  1.00  0.00    -0.528 A  
HETATM   11  C   UNL     1     -12.213  14.052  66.126  1.00  0.00    -0.494 A  
HETATM   12  C   UNL     1     -11.561  14.131  67.367  1.00  0.00    -0.399 A  
HETATM   13  C   UNL     1     -10.906  12.986  67.849  1.00  0.00    -0.260 A  
BRANCH  12  14
HETATM   14  C   UNL     1     -11.492  15.410  68.196  1.00  0.00    -0.343 C  
HETATM   15  C   UNL     1     -10.870  16.567  67.398  1.00  0.00    -0.202 C  
BRANCH  14  16
HETATM   16  N   UNL     1     -10.940  15.260  69.562  1.00  0.00    -0.260 NA 
HETATM   17  C   UNL     1      -9.554  15.718  69.671  1.00  0.00    -0.233 C  
HETATM   18  C   UNL     1     -11.748  15.799  70.646  1.00  0.00    -0.385 C  
ENDBRANCH  14  16
ENDBRANCH  12  14
ENDBRANCH   7   8
ENDBRANCH   5   7
ENDBRANCH   2   3
TORSDOF 5
ENDMDL
MODEL      144
REMARK 921   NORMALIZED FREE ENERGY PREDICTED BY IDOCK:   -3.28 KCAL/MOL
REMARK 922        TOTAL FREE ENERGY PREDICTED BY IDOCK:   -4.85 KCAL/MOL
REMARK 923 INTER-LIGAND FREE ENERGY PREDICTED BY IDOCK:   -4.50 KCAL/MOL
REMARK 924 INTRA-LIGAND FREE ENERGY PREDICTED BY IDOCK:   -0.35 KCAL/MOL
REMARK 927      BINDING AFFINITY PREDICTED BY RF-SCORE:    0.00 PKD
ROOT
HETATM    1  C   UNL     1     -11.855  16.158  69.099  1.00  0.00    -0.182 C  
HETATM    2  C   UNL     1     -11.350  15.009  68.236  1.00  0.00    -0.318 C  
ENDROOT
BRANCH   2   3
HETATM    3  N   UNL     1     -11.840  13.709  68.677  1.00  0.00    -0.358 N  
HETATM    4  C   UNL     1     -12.123  13.512  70.088  1.00  0.00    -0.354 C  
HETATM    5  C   UNL     1     -11.767  12.621  67.805  1.00  0.00    -0.356 C  
HETATM    6  O   UNL     1     -11.394  12.720  66.641  1.00  0.00    -0.285 OA 
BRANCH   5   7
HETATM    7  O   UNL     1     -12.130  11.428  68.426  1.00  0.00    -0.575 OA 
BRANCH   7   8
HETATM    8  C   UNL     1     -11.165  10.412  68.509  1.00  0.00    -0.251 A  
HETATM    9  C   UNL     1     -10.385  10.345  69.660  1.00  0.00    -0.261 A  
HETATM   10  C   UNL     1      -9.348   9.414  69.726  1.00  0.00    -0.217 A  
HETATM   11  C   UNL     1      -9.083   8.570  68.640  1.00  0.00    -0.139 A  
HETATM   12  C   UNL     1      -9.846   8.654  67.465  1.00  0.00    -0.234 A  
HETATM   13  C   UNL     1     -10.893   9.589  67.416  1.00  0.00    -0.215 A  
BRANCH  12  14
HETATM   14  C   UNL     1      -9.566   7.813  66.223  1.00  0.00    -0.108 C  
HETATM   15  C   UNL     1      -9.531   6.313  66.553  1.00  0.00    -0.181 C  
BRANCH  14  16
HETATM   16  N   UNL     1      -8.436   8.268  65.381  1.00  0.00    -0.171 NA 
HETATM   17  C   UNL     1      -7.683   7.161  64.791  1.00  0.00    -0.115 C  
HETATM   18  C   UNL     1      -8.746   9.275  64.377  1.00  0.00    -0.181 C  
ENDBRANCH  14  16
ENDBRANCH  12  14
ENDBRANCH   7   8
ENDBRANCH   5   7
ENDBRANCH   2   3
TORSDOF 5
ENDMDL
MODEL      145
REMARK 921   NORMALIZED FREE ENERGY PREDICTED BY IDOCK:   -3.27 KCAL/MOL
REMARK 922        TOTAL FREE ENERGY PREDICTED BY IDOCK:   -4.83 KCAL/MOL
REMARK 923 INTER-LIGAND FREE ENERGY PREDICTED BY IDOCK:   -4.74 KCAL/MOL
REMARK 924 INTRA-LIGAND FREE ENERGY PREDICTED BY IDOCK:   -0.09 KCAL/MOL
REMARK 927      BINDING AFFINITY PREDICTED BY RF-SCORE:    0.00 PKD
ROOT
HETATM    1  C   UNL     1     -11.360  10.023  70.694  1.00  0.00    -0.425 C  
HETATM    2  C   UNL     1      -9.982   9.534  70.263  1.00  0.00    -0.259 C  
ENDROOT
BRANCH   2   3
HETATM    3  N   UNL     1      -9.828   9.472  68.815  1.00  0.00    -0.164 N  
HETATM    4  C   UNL     1     -10.320   8.300  68.111  1.00  0.00    -0.202 C  
HETATM    5  C   UNL     1      -8.986  10.385  68.179  1.00  0.00    -0.132 C  
HETATM    6  O   UNL     1      -8.433  11.308  68.768  1.00  0.00    -0.155 OA 
BRANCH   5   7
HETATM    7  O   UNL     1      -8.829  10.097  66.825  1.00  0.00    -0.132 OA 
BRANCH   7   8
HETATM    8  C   UNL     1      -9.553  10.868  65.903  1.00  0.00    -0.216 A  
HETATM    9  C   UNL     1      -9.369  10.607  64.547  1.00  0.00    -0.284 A  
HETATM   10  C   UNL     1      -9.992  11.426  63.606  1.00  0.00    -0.402 A  
HETATM   11  C   UNL     1     -10.779  12.509  64.019  1.00  0.00    -0.449 A  
HETATM   12  C   UNL     1     -10.942  12.796  65.383  1.00  0.00    -0.313 A  
HETATM   13  C   UNL     1     -10.317  11.958  66.320  1.00  0.00    -0.259 A  
BRANCH  12  14
HETATM   14  C   UNL     1     -11.728  13.999  65.897  1.00  0.00    -0.366 C  
HETATM   15  C   UNL     1     -13.214  13.908  65.516  1.00  0.00    -0.039 C  
BRANCH  14  16
HETATM   16  N   UNL     1     -11.122  15.323  65.630  1.00  0.00    -0.329 NA 
HETATM   17  C   UNL     1      -9.670  15.334  65.819  1.00  0.00    -0.350 C  
HETATM   18  C   UNL     1     -11.483  15.954  64.368  1.00  0.00    -0.264 C  
ENDBRANCH  14  16
ENDBRANCH  12  14
ENDBRANCH   7   8
ENDBRANCH   5   7
ENDBRANCH   2   3
TORSDOF 5
ENDMDL
MODEL      146
REMARK 921   NORMALIZED FREE ENERGY PREDICTED BY IDOCK:   -3.25 KCAL/MOL
REMARK 922        TOTAL FREE ENERGY PREDICTED BY IDOCK:   -4.81 KCAL/MOL
REMARK 923 INTER-LIGAND FREE ENERGY PREDICTED BY IDOCK:   -4.55 KCAL/MOL
REMARK 924 INTRA-LIGAND FREE ENERGY PREDICTED BY IDOCK:   -0.26 KCAL/MOL
REMARK 927      BINDING AFFINITY PREDICTED BY RF-SCORE:    0.00 PKD
ROOT
HETATM    1  C   UNL     1      -9.915   4.145  67.513  1.00  0.00    -0.061 C  
HETATM    2  C   UNL     1      -9.482   5.511  66.993  1.00  0.00    -0.131 C  
ENDROOT
BRANCH   2   3
HETATM    3  N   UNL     1      -9.148   6.445  68.061  1.00  0.00    -0.114 N  
HETATM    4  C   UNL     1      -8.213   6.023  69.090  1.00  0.00    -0.111 C  
HETATM    5  C   UNL     1      -9.922   7.595  68.229  1.00  0.00    -0.176 C  
HETATM    6  O   UNL     1     -10.822   7.913  67.459  1.00  0.00    -0.205 OA 
BRANCH   5   7
HETATM    7  O   UNL     1      -9.571   8.298  69.379  1.00  0.00    -0.168 OA 
BRANCH   7   8
HETATM    8  C   UNL     1     -10.405   9.352  69.782  1.00  0.00    -0.223 A  
HETATM    9  C   UNL     1     -11.277   9.125  70.844  1.00  0.00    -0.359 A  
HETATM   10  C   UNL     1     -12.191  10.117  71.199  1.00  0.00    -0.490 A  
HETATM   11  C   UNL     1     -12.244  11.320  70.483  1.00  0.00    -0.474 A  
HETATM   12  C   UNL     1     -11.390  11.542  69.392  1.00  0.00    -0.355 A  
HETATM   13  C   UNL     1     -10.467  10.539  69.052  1.00  0.00    -0.238 A  
BRANCH  12  14
HETATM   14  C   UNL     1     -11.443  12.800  68.529  1.00  0.00    -0.309 C  
HETATM   15  C   UNL     1     -11.607  12.456  67.040  1.00  0.00    -0.434 C  
BRANCH  14  16
HETATM   16  N   UNL     1     -10.393  13.808  68.799  1.00  0.00    -0.224 NA 
HETATM   17  C   UNL     1      -9.627  14.167  67.604  1.00  0.00    -0.216 C  
HETATM   18  C   UNL     1     -10.816  15.001  69.517  1.00  0.00    -0.262 C  
ENDBRANCH  14  16
ENDBRANCH  12  14
ENDBRANCH   7   8
ENDBRANCH   5   7
ENDBRANCH   2   3
TORSDOF 5
ENDMDL
MODEL      147
REMARK 921   NORMALIZED FREE ENERGY PREDICTED BY IDOCK:   -3.25 KCAL/MOL
REMARK 922        TOTAL FREE ENERGY PREDICTED BY IDOCK:   -4.81 KCAL/MOL
REMARK 923 INTER-LIGAND FREE ENERGY PREDICTED BY IDOCK:   -4.53 KCAL/MOL
REMARK 924 INTRA-LIGAND FREE ENERGY PREDICTED BY IDOCK:   -0.28 KCAL/MOL
REMARK 927      BINDING AFFINITY PREDICTED BY RF-SCORE:    0.00 PKD
ROOT
HETATM    1  C   UNL     1     -10.680  19.931  67.948  1.00  0.00    -0.321 C  
HETATM    2  C   UNL     1      -9.837  18.882  67.232  1.00  0.00    -0.320 C  
ENDROOT
BRANCH   2   3
HETATM    3  N   UNL     1     -10.192  17.518  67.605  1.00  0.00    -0.328 N  
HETATM    4  C   UNL     1     -10.392  17.208  69.010  1.00  0.00    -0.331 C  
HETATM    5  C   UNL     1     -10.063  16.497  66.661  1.00  0.00    -0.294 C  
HETATM    6  O   UNL     1      -9.753  16.703  65.492  1.00  0.00    -0.538 OA 
BRANCH   5   7
HETATM    7  O   UNL     1     -10.292  15.240  67.215  1.00  0.00    -0.256 OA 
BRANCH   7   8
HETATM    8  C   UNL     1      -9.200  14.368  67.334  1.00  0.00    -0.198 A  
HETATM    9  C   UNL     1      -7.953  14.918  67.622  1.00  0.00    -0.184 A  
HETATM   10  C   UNL     1      -6.832  14.089  67.642  1.00  0.00    -0.195 A  
HETATM   11  C   UNL     1      -6.955  12.723  67.356  1.00  0.00    -0.132 A  
HETATM   12  C   UNL     1      -8.203  12.169  67.034  1.00  0.00    -0.164 A  
HETATM   13  C   UNL     1      -9.326  13.013  67.028  1.00  0.00    -0.236 A  
BRANCH  12  14
HETATM   14  C   UNL     1      -8.395  10.705  66.646  1.00  0.00    -0.136 C  
HETATM   15  C   UNL     1      -7.278  10.218  65.708  1.00  0.00    -0.133 C  
BRANCH  14  16
HETATM   16  N   UNL     1      -9.756  10.333  66.200  1.00  0.00    -0.199 NA 
HETATM   17  C   UNL     1      -9.854  10.163  64.749  1.00  0.00    -0.312 C  
HETATM   18  C   UNL     1     -10.378   9.214  66.893  1.00  0.00    -0.251 C  
ENDBRANCH  14  16
ENDBRANCH  12  14
ENDBRANCH   7   8
ENDBRANCH   5   7
ENDBRANCH   2   3
TORSDOF 5
ENDMDL
MODEL      148
REMARK 921   NORMALIZED FREE ENERGY PREDICTED BY IDOCK:   -3.21 KCAL/MOL
REMARK 922        TOTAL FREE ENERGY PREDICTED BY IDOCK:   -4.76 KCAL/MOL
REMARK 923 INTER-LIGAND FREE ENERGY PREDICTED BY IDOCK:   -4.89 KCAL/MOL
REMARK 924 INTRA-LIGAND FREE ENERGY PREDICTED BY IDOCK:    0.14 KCAL/MOL
REMARK 927      BINDING AFFINITY PREDICTED BY RF-SCORE:    0.00 PKD
ROOT
HETATM    1  C   UNL     1      -8.482   8.632  64.754  1.00  0.00    -0.168 C  
HETATM    2  C   UNL     1      -9.594   9.460  65.387  1.00  0.00    -0.226 C  
ENDROOT
BRANCH   2   3
HETATM    3  N   UNL     1      -9.328  10.892  65.348  1.00  0.00    -0.200 N  
HETATM    4  C   UNL     1      -8.304  11.436  66.222  1.00  0.00    -0.111 C  
HETATM    5  C   UNL     1     -10.229  11.735  64.693  1.00  0.00    -0.284 C  
HETATM    6  O   UNL     1     -11.195  11.321  64.061  1.00  0.00    -0.340 OA 
BRANCH   5   7
HETATM    7  O   UNL     1      -9.915  13.080  64.878  1.00  0.00    -0.230 OA 
BRANCH   7   8
HETATM    8  C   UNL     1     -10.447  13.729  66.002  1.00  0.00    -0.297 A  
HETATM    9  C   UNL     1     -11.531  13.137  66.645  1.00  0.00    -0.389 A  
HETATM   10  C   UNL     1     -12.148  13.810  67.699  1.00  0.00    -0.333 A  
HETATM   11  C   UNL     1     -11.693  15.075  68.095  1.00  0.00    -0.335 A  
HETATM   12  C   UNL     1     -10.622  15.690  67.430  1.00  0.00    -0.301 A  
HETATM   13  C   UNL     1     -10.004  14.997  66.377  1.00  0.00    -0.295 A  
BRANCH  12  14
HETATM   14  C   UNL     1     -10.123  17.094  67.765  1.00  0.00    -0.306 C  
HETATM   15  C   UNL     1     -10.600  18.124  66.730  1.00  0.00    -0.310 C  
BRANCH  14  16
HETATM   16  N   UNL     1      -8.684  17.200  68.098  1.00  0.00    -0.225 NA 
HETATM   17  C   UNL     1      -8.270  18.570  68.406  1.00  0.00    -0.328 C  
HETATM   18  C   UNL     1      -8.185  16.272  69.102  1.00  0.00    -0.215 C  
ENDBRANCH  14  16
ENDBRANCH  12  14
ENDBRANCH   7   8
ENDBRANCH   5   7
ENDBRANCH   2   3
TORSDOF 5
ENDMDL
MODEL      149
REMARK 921   NORMALIZED FREE ENERGY PREDICTED BY IDOCK:   -3.20 KCAL/MOL
REMARK 922        TOTAL FREE ENERGY PREDICTED BY IDOCK:   -4.74 KCAL/MOL
REMARK 923 INTER-LIGAND FREE ENERGY PREDICTED BY IDOCK:   -4.36 KCAL/MOL
REMARK 924 INTRA-LIGAND FREE ENERGY PREDICTED BY IDOCK:   -0.38 KCAL/MOL
REMARK 927      BINDING AFFINITY PREDICTED BY RF-SCORE:    0.00 PKD
ROOT
HETATM    1  C   UNL     1     -11.850  11.284  69.177  1.00  0.00    -0.423 C  
HETATM    2  C   UNL     1     -12.373  10.492  70.370  1.00  0.00    -0.324 C  
ENDROOT
BRANCH   2   3
HETATM    3  N   UNL     1     -11.318   9.790  71.091  1.00  0.00    -0.373 N  
HETATM    4  C   UNL     1      -9.977   9.782  70.534  1.00  0.00    -0.193 C  
HETATM    5  C   UNL     1     -11.663   8.926  72.132  1.00  0.00    -0.341 C  
HETATM    6  O   UNL     1     -12.813   8.794  72.539  1.00  0.00    -0.399 OA 
BRANCH   5   7
HETATM    7  O   UNL     1     -10.563   8.221  72.613  1.00  0.00    -0.332 OA 
BRANCH   7   8
HETATM    8  C   UNL     1     -10.547   6.829  72.436  1.00  0.00    -0.214 A  
HETATM    9  C   UNL     1     -10.937   6.030  73.508  1.00  0.00    -0.140 A  
HETATM   10  C   UNL     1     -10.831   4.644  73.398  1.00  0.00    -0.349 A  
HETATM   11  C   UNL     1     -10.322   4.063  72.229  1.00  0.00    -0.183 A  
HETATM   12  C   UNL     1      -9.898   4.864  71.157  1.00  0.00    -0.261 A  
HETATM   13  C   UNL     1     -10.019   6.258  71.278  1.00  0.00    -0.207 A  
BRANCH  12  14
HETATM   14  C   UNL     1      -9.270   4.298  69.886  1.00  0.00    -0.138 C  
HETATM   15  C   UNL     1      -9.958   4.847  68.625  1.00  0.00    -0.195 C  
BRANCH  14  16
HETATM   16  N   UNL     1      -9.068   2.832  69.868  1.00  0.00    -0.108 NA 
HETATM   17  C   UNL     1      -9.448   2.219  68.594  1.00  0.00    -0.135 C  
HETATM   18  C   UNL     1      -7.760   2.358  70.299  1.00  0.00    -0.042 C  
ENDBRANCH  14  16
ENDBRANCH  12  14
ENDBRANCH   7   8
ENDBRANCH   5   7
ENDBRANCH   2   3
TORSDOF 5
ENDMDL
MODEL      150
REMARK 921   NORMALIZED FREE ENERGY PREDICTED BY IDOCK:   -3.20 KCAL/MOL
REMARK 922        TOTAL FREE ENERGY PREDICTED BY IDOCK:   -4.74 KCAL/MOL
REMARK 923 INTER-LIGAND FREE ENERGY PREDICTED BY IDOCK:   -4.63 KCAL/MOL
REMARK 924 INTRA-LIGAND FREE ENERGY PREDICTED BY IDOCK:   -0.11 KCAL/MOL
REMARK 927      BINDING AFFINITY PREDICTED BY RF-SCORE:    0.00 PKD
ROOT
HETATM    1  C   UNL     1     -11.893  12.067  69.654  1.00  0.00    -0.401 C  
HETATM    2  C   UNL     1     -11.706  13.563  69.430  1.00  0.00    -0.325 C  
ENDROOT
BRANCH   2   3
HETATM    3  N   UNL     1     -11.420  13.897  68.040  1.00  0.00    -0.288 N  
HETATM    4  C   UNL     1     -12.508  13.875  67.078  1.00  0.00    -0.103 C  
HETATM    5  C   UNL     1     -10.092  13.960  67.613  1.00  0.00    -0.241 C  
HETATM    6  O   UNL     1      -9.139  13.838  68.375  1.00  0.00    -0.192 OA 
BRANCH   5   7
HETATM    7  O   UNL     1      -9.993  14.137  66.236  1.00  0.00    -0.283 OA 
BRANCH   7   8
HETATM    8  C   UNL     1      -9.896  12.991  65.432  1.00  0.00    -0.112 A  
HETATM    9  C   UNL     1     -10.425  13.049  64.145  1.00  0.00    -0.395 A  
HETATM   10  C   UNL     1     -10.439  11.895  63.363  1.00  0.00    -0.487 A  
HETATM   11  C   UNL     1      -9.942  10.687  63.871  1.00  0.00    -0.390 A  
HETATM   12  C   UNL     1      -9.437  10.615  65.178  1.00  0.00    -0.276 A  
HETATM   13  C   UNL     1      -9.420  11.787  65.952  1.00  0.00    -0.239 A  
BRANCH  12  14
HETATM   14  C   UNL     1      -8.945   9.319  65.816  1.00  0.00    -0.192 C  
HETATM   15  C   UNL     1      -8.384   8.349  64.764  1.00  0.00    -0.151 C  
BRANCH  14  16
HETATM   16  N   UNL     1      -9.875   8.686  66.779  1.00  0.00    -0.228 NA 
HETATM   17  C   UNL     1      -9.935   7.230  66.641  1.00  0.00    -0.176 C  
HETATM   18  C   UNL     1      -9.712   9.064  68.175  1.00  0.00    -0.152 C  
ENDBRANCH  14  16
ENDBRANCH  12  14
ENDBRANCH   7   8
ENDBRANCH   5   7
ENDBRANCH   2   3
TORSDOF 5
ENDMDL
MODEL      151
REMARK 921   NORMALIZED FREE ENERGY PREDICTED BY IDOCK:   -3.15 KCAL/MOL
REMARK 922        TOTAL FREE ENERGY PREDICTED BY IDOCK:   -4.68 KCAL/MOL
REMARK 923 INTER-LIGAND FREE ENERGY PREDICTED BY IDOCK:   -4.15 KCAL/MOL
REMARK 924 INTRA-LIGAND FREE ENERGY PREDICTED BY IDOCK:   -0.53 KCAL/MOL
REMARK 927      BINDING AFFINITY PREDICTED BY RF-SCORE:    0.00 PKD
ROOT
HETATM    1  C   UNL     1      -6.174  10.206  64.780  1.00  0.00    -0.130 C  
HETATM    2  C   UNL     1      -7.543   9.772  65.291  1.00  0.00    -0.119 C  
ENDROOT
BRANCH   2   3
HETATM    3  N   UNL     1      -7.965  10.507  66.477  1.00  0.00    -0.127 N  
HETATM    4  C   UNL     1      -7.136  11.600  66.953  1.00  0.00    -0.124 C  
HETATM    5  C   UNL     1      -8.984   9.984  67.276  1.00  0.00    -0.135 C  
HETATM    6  O   UNL     1      -9.615   8.975  66.980  1.00  0.00    -0.156 OA 
BRANCH   5   7
HETATM    7  O   UNL     1      -9.162  10.720  68.445  1.00  0.00    -0.150 OA 
BRANCH   7   8
HETATM    8  C   UNL     1      -9.029  10.048  69.669  1.00  0.00    -0.202 A  
HETATM    9  C   UNL     1      -7.752   9.656  70.064  1.00  0.00    -0.162 A  
HETATM   10  C   UNL     1      -7.602   8.895  71.222  1.00  0.00    -0.132 A  
HETATM   11  C   UNL     1      -8.723   8.513  71.971  1.00  0.00    -0.265 A  
HETATM   12  C   UNL     1     -10.015   8.878  71.561  1.00  0.00    -0.391 A  
HETATM   13  C   UNL     1     -10.151   9.653  70.398  1.00  0.00    -0.336 A  
BRANCH  12  14
HETATM   14  C   UNL     1     -11.281   8.438  72.291  1.00  0.00    -0.376 C  
HETATM   15  C   UNL     1     -10.983   7.343  73.328  1.00  0.00    -0.367 C  
BRANCH  14  16
HETATM   16  N   UNL     1     -12.448   8.144  71.429  1.00  0.00    -0.306 NA 
HETATM   17  C   UNL     1     -12.503   6.746  71.000  1.00  0.00    -0.263 C  
HETATM   18  C   UNL     1     -13.744   8.581  71.930  1.00  0.00    -0.415 C  
ENDBRANCH  14  16
ENDBRANCH  12  14
ENDBRANCH   7   8
ENDBRANCH   5   7
ENDBRANCH   2   3
TORSDOF 5
ENDMDL
MODEL      152
REMARK 921   NORMALIZED FREE ENERGY PREDICTED BY IDOCK:   -3.15 KCAL/MOL
REMARK 922        TOTAL FREE ENERGY PREDICTED BY IDOCK:   -4.67 KCAL/MOL
REMARK 923 INTER-LIGAND FREE ENERGY PREDICTED BY IDOCK:   -4.21 KCAL/MOL
REMARK 924 INTRA-LIGAND FREE ENERGY PREDICTED BY IDOCK:   -0.46 KCAL/MOL
REMARK 927      BINDING AFFINITY PREDICTED BY RF-SCORE:    0.00 PKD
ROOT
HETATM    1  C   UNL     1      -5.930  10.139  63.200  1.00  0.00    -0.139 C  
HETATM    2  C   UNL     1      -7.150   9.231  63.296  1.00  0.00    -0.089 C  
ENDROOT
BRANCH   2   3
HETATM    3  N   UNL     1      -8.390   9.966  63.510  1.00  0.00    -0.153 N  
HETATM    4  C   UNL     1      -8.944  10.735  62.409  1.00  0.00    -0.306 C  
HETATM    5  C   UNL     1      -8.863  10.142  64.812  1.00  0.00    -0.195 C  
HETATM    6  O   UNL     1      -8.335   9.625  65.791  1.00  0.00    -0.123 OA 
BRANCH   5   7
HETATM    7  O   UNL     1      -9.966  10.991  64.858  1.00  0.00    -0.245 OA 
BRANCH   7   8
HETATM    8  C   UNL     1     -10.204  11.692  66.050  1.00  0.00    -0.232 A  
HETATM    9  C   UNL     1     -11.063  11.117  66.984  1.00  0.00    -0.339 A  
HETATM   10  C   UNL     1     -11.402  11.837  68.129  1.00  0.00    -0.348 A  
HETATM   11  C   UNL     1     -10.900  13.130  68.329  1.00  0.00    -0.274 A  
HETATM   12  C   UNL     1     -10.060  13.726  67.376  1.00  0.00    -0.244 A  
HETATM   13  C   UNL     1      -9.719  12.987  66.232  1.00  0.00    -0.265 A  
BRANCH  12  14
HETATM   14  C   UNL     1      -9.536  15.155  67.499  1.00  0.00    -0.206 C  
HETATM   15  C   UNL     1     -10.652  16.187  67.274  1.00  0.00    -0.305 C  
BRANCH  14  16
HETATM   16  N   UNL     1      -8.291  15.447  66.753  1.00  0.00    -0.253 NA 
HETATM   17  C   UNL     1      -8.234  16.822  66.255  1.00  0.00    -0.324 C  
HETATM   18  C   UNL     1      -7.045  15.085  67.413  1.00  0.00    -0.175 C  
ENDBRANCH  14  16
ENDBRANCH  12  14
ENDBRANCH   7   8
ENDBRANCH   5   7
ENDBRANCH   2   3
TORSDOF 5
ENDMDL
MODEL      153
REMARK 921   NORMALIZED FREE ENERGY PREDICTED BY IDOCK:   -3.14 KCAL/MOL
REMARK 922        TOTAL FREE ENERGY PREDICTED BY IDOCK:   -4.66 KCAL/MOL
REMARK 923 INTER-LIGAND FREE ENERGY PREDICTED BY IDOCK:   -4.37 KCAL/MOL
REMARK 924 INTRA-LIGAND FREE ENERGY PREDICTED BY IDOCK:   -0.29 KCAL/MOL
REMARK 927      BINDING AFFINITY PREDICTED BY RF-SCORE:    0.00 PKD
ROOT
HETATM    1  C   UNL     1     -11.866  13.794  64.399  1.00  0.00    -0.458 C  
HETATM    2  C   UNL     1     -12.301  13.444  65.817  1.00  0.00    -0.460 C  
ENDROOT
BRANCH   2   3
HETATM    3  N   UNL     1     -11.192  13.416  66.762  1.00  0.00    -0.302 N  
HETATM    4  C   UNL     1     -10.058  14.295  66.532  1.00  0.00    -0.278 C  
HETATM    5  C   UNL     1     -11.111  12.377  67.690  1.00  0.00    -0.259 C  
HETATM    6  O   UNL     1     -11.985  11.525  67.817  1.00  0.00    -0.623 OA 
BRANCH   5   7
HETATM    7  O   UNL     1      -9.921  12.410  68.411  1.00  0.00    -0.220 OA 
BRANCH   7   8
HETATM    8  C   UNL     1      -9.039  11.327  68.272  1.00  0.00    -0.173 A  
HETATM    9  C   UNL     1      -7.905  11.506  67.485  1.00  0.00    -0.133 A  
HETATM   10  C   UNL     1      -7.067  10.418  67.242  1.00  0.00    -0.088 A  
HETATM   11  C   UNL     1      -7.372   9.156  67.768  1.00  0.00    -0.084 A  
HETATM   12  C   UNL     1      -8.531   8.963  68.536  1.00  0.00    -0.129 A  
HETATM   13  C   UNL     1      -9.361  10.069  68.781  1.00  0.00    -0.162 A  
BRANCH  12  14
HETATM   14  C   UNL     1      -8.958   7.602  69.080  1.00  0.00    -0.137 C  
HETATM   15  C   UNL     1      -8.401   6.452  68.225  1.00  0.00    -0.116 C  
BRANCH  14  16
HETATM   16  N   UNL     1     -10.395   7.464  69.406  1.00  0.00    -0.206 NA 
HETATM   17  C   UNL     1     -11.064   6.432  68.612  1.00  0.00    -0.311 C  
HETATM   18  C   UNL     1     -10.724   7.322  70.817  1.00  0.00    -0.231 C  
ENDBRANCH  14  16
ENDBRANCH  12  14
ENDBRANCH   7   8
ENDBRANCH   5   7
ENDBRANCH   2   3
TORSDOF 5
ENDMDL
MODEL      154
REMARK 921   NORMALIZED FREE ENERGY PREDICTED BY IDOCK:   -3.14 KCAL/MOL
REMARK 922        TOTAL FREE ENERGY PREDICTED BY IDOCK:   -4.66 KCAL/MOL
REMARK 923 INTER-LIGAND FREE ENERGY PREDICTED BY IDOCK:   -4.96 KCAL/MOL
REMARK 924 INTRA-LIGAND FREE ENERGY PREDICTED BY IDOCK:    0.31 KCAL/MOL
REMARK 927      BINDING AFFINITY PREDICTED BY RF-SCORE:    0.00 PKD
ROOT
HETATM    1  C   UNL     1      -8.500   4.091  70.727  1.00  0.00    -0.097 C  
HETATM    2  C   UNL     1      -8.813   4.937  71.955  1.00  0.00    -0.128 C  
ENDROOT
BRANCH   2   3
HETATM    3  N   UNL     1      -8.730   6.369  71.694  1.00  0.00    -0.133 N  
HETATM    4  C   UNL     1      -7.721   7.148  72.391  1.00  0.00    -0.092 C  
HETATM    5  C   UNL     1      -9.771   6.999  71.011  1.00  0.00    -0.173 C  
HETATM    6  O   UNL     1     -10.720   6.389  70.530  1.00  0.00    -0.227 OA 
BRANCH   5   7
HETATM    7  O   UNL     1      -9.614   8.382  70.978  1.00  0.00    -0.154 OA 
BRANCH   7   8
HETATM    8  C   UNL     1     -10.722   9.176  71.311  1.00  0.00    -0.331 A  
HETATM    9  C   UNL     1     -11.665   8.646  72.188  1.00  0.00    -0.442 A  
HETATM   10  C   UNL     1     -12.828   9.367  72.455  1.00  0.00    -0.394 A  
HETATM   11  C   UNL     1     -13.054  10.602  71.832  1.00  0.00    -0.563 A  
HETATM   12  C   UNL     1     -12.124  11.126  70.922  1.00  0.00    -0.427 A  
HETATM   13  C   UNL     1     -10.952  10.394  70.671  1.00  0.00    -0.191 A  
BRANCH  12  14
HETATM   14  C   UNL     1     -12.341  12.430  70.159  1.00  0.00    -0.136 C  
HETATM   15  C   UNL     1     -11.405  12.536  68.945  1.00  0.00    -0.346 C  
BRANCH  14  16
HETATM   16  N   UNL     1     -12.391  13.657  70.986  1.00  0.00    -0.368 NA 
HETATM   17  C   UNL     1     -12.164  14.877  70.210  1.00  0.00    -0.335 C  
HETATM   18  C   UNL     1     -13.554  13.804  71.849  1.00  0.00    -0.429 C  
ENDBRANCH  14  16
ENDBRANCH  12  14
ENDBRANCH   7   8
ENDBRANCH   5   7
ENDBRANCH   2   3
TORSDOF 5
ENDMDL
MODEL      155
REMARK 921   NORMALIZED FREE ENERGY PREDICTED BY IDOCK:   -3.13 KCAL/MOL
REMARK 922        TOTAL FREE ENERGY PREDICTED BY IDOCK:   -4.65 KCAL/MOL
REMARK 923 INTER-LIGAND FREE ENERGY PREDICTED BY IDOCK:   -4.45 KCAL/MOL
REMARK 924 INTRA-LIGAND FREE ENERGY PREDICTED BY IDOCK:   -0.20 KCAL/MOL
REMARK 927      BINDING AFFINITY PREDICTED BY RF-SCORE:    0.00 PKD
ROOT
HETATM    1  C   UNL     1     -11.172  15.041  64.898  1.00  0.00    -0.423 C  
HETATM    2  C   UNL     1     -11.946  14.396  66.042  1.00  0.00    -0.367 C  
ENDROOT
BRANCH   2   3
HETATM    3  N   UNL     1     -11.692  12.966  66.165  1.00  0.00    -0.376 N  
HETATM    4  C   UNL     1     -11.662  12.156  64.960  1.00  0.00    -0.314 C  
HETATM    5  C   UNL     1     -11.756  12.368  67.425  1.00  0.00    -0.347 C  
HETATM    6  O   UNL     1     -11.925  13.005  68.459  1.00  0.00    -0.323 OA 
BRANCH   5   7
HETATM    7  O   UNL     1     -11.642  10.982  67.352  1.00  0.00    -0.525 OA 
BRANCH   7   8
HETATM    8  C   UNL     1     -10.547  10.380  67.992  1.00  0.00    -0.221 A  
HETATM    9  C   UNL     1      -9.484  11.195  68.372  1.00  0.00    -0.189 A  
HETATM   10  C   UNL     1      -8.339  10.612  68.913  1.00  0.00    -0.150 A  
HETATM   11  C   UNL     1      -8.252   9.221  69.056  1.00  0.00    -0.111 A  
HETATM   12  C   UNL     1      -9.307   8.392  68.646  1.00  0.00    -0.143 A  
HETATM   13  C   UNL     1     -10.458   8.993  68.112  1.00  0.00    -0.257 A  
BRANCH  12  14
HETATM   14  C   UNL     1      -9.248   6.868  68.710  1.00  0.00    -0.131 C  
HETATM   15  C   UNL     1      -8.273   6.385  69.795  1.00  0.00    -0.126 C  
BRANCH  14  16
HETATM   16  N   UNL     1      -9.088   6.177  67.410  1.00  0.00    -0.111 NA 
HETATM   17  C   UNL     1      -7.811   5.472  67.292  1.00  0.00    -0.101 C  
HETATM   18  C   UNL     1     -10.190   5.321  66.996  1.00  0.00    -0.234 C  
ENDBRANCH  14  16
ENDBRANCH  12  14
ENDBRANCH   7   8
ENDBRANCH   5   7
ENDBRANCH   2   3
TORSDOF 5
ENDMDL
MODEL      156
REMARK 921   NORMALIZED FREE ENERGY PREDICTED BY IDOCK:   -3.12 KCAL/MOL
REMARK 922        TOTAL FREE ENERGY PREDICTED BY IDOCK:   -4.64 KCAL/MOL
REMARK 923 INTER-LIGAND FREE ENERGY PREDICTED BY IDOCK:   -4.22 KCAL/MOL
REMARK 924 INTRA-LIGAND FREE ENERGY PREDICTED BY IDOCK:   -0.42 KCAL/MOL
REMARK 927      BINDING AFFINITY PREDICTED BY RF-SCORE:    0.00 PKD
ROOT
HETATM    1  C   UNL     1     -10.643  12.768  64.747  1.00  0.00    -0.348 C  
HETATM    2  C   UNL     1     -11.229  13.500  65.948  1.00  0.00    -0.300 C  
ENDROOT
BRANCH   2   3
HETATM    3  N   UNL     1     -10.581  13.140  67.203  1.00  0.00    -0.256 N  
HETATM    4  C   UNL     1      -9.218  13.584  67.437  1.00  0.00    -0.223 C  
HETATM    5  C   UNL     1     -11.164  12.168  68.018  1.00  0.00    -0.264 C  
HETATM    6  O   UNL     1     -12.254  11.660  67.777  1.00  0.00    -0.560 OA 
BRANCH   5   7
HETATM    7  O   UNL     1     -10.349  11.831  69.095  1.00  0.00    -0.118 OA 
BRANCH   7   8
HETATM    8  C   UNL     1     -10.391  10.507  69.560  1.00  0.00    -0.221 A  
HETATM    9  C   UNL     1     -11.161  10.235  70.688  1.00  0.00    -0.406 A  
HETATM   10  C   UNL     1     -11.138   8.952  71.234  1.00  0.00    -0.367 A  
HETATM   11  C   UNL     1     -10.335   7.954  70.667  1.00  0.00    -0.205 A  
HETATM   12  C   UNL     1      -9.532   8.231  69.550  1.00  0.00    -0.162 A  
HETATM   13  C   UNL     1      -9.573   9.524  69.003  1.00  0.00    -0.166 A  
BRANCH  12  14
HETATM   14  C   UNL     1      -8.584   7.210  68.926  1.00  0.00    -0.129 C  
HETATM   15  C   UNL     1      -7.386   7.893  68.247  1.00  0.00    -0.098 C  
BRANCH  14  16
HETATM   16  N   UNL     1      -9.224   6.162  68.099  1.00  0.00    -0.118 NA 
HETATM   17  C   UNL     1     -10.123   6.709  67.082  1.00  0.00    -0.174 C  
HETATM   18  C   UNL     1      -8.333   5.167  67.518  1.00  0.00    -0.106 C  
ENDBRANCH  14  16
ENDBRANCH  12  14
ENDBRANCH   7   8
ENDBRANCH   5   7
ENDBRANCH   2   3
TORSDOF 5
ENDMDL
MODEL      157
REMARK 921   NORMALIZED FREE ENERGY PREDICTED BY IDOCK:   -3.12 KCAL/MOL
REMARK 922        TOTAL FREE ENERGY PREDICTED BY IDOCK:   -4.64 KCAL/MOL
REMARK 923 INTER-LIGAND FREE ENERGY PREDICTED BY IDOCK:   -4.25 KCAL/MOL
REMARK 924 INTRA-LIGAND FREE ENERGY PREDICTED BY IDOCK:   -0.39 KCAL/MOL
REMARK 927      BINDING AFFINITY PREDICTED BY RF-SCORE:    0.00 PKD
ROOT
HETATM    1  C   UNL     1      -7.014  18.338  66.894  1.00  0.00    -0.213 C  
HETATM    2  C   UNL     1      -7.850  17.907  68.093  1.00  0.00    -0.266 C  
ENDROOT
BRANCH   2   3
HETATM    3  N   UNL     1      -9.000  17.093  67.721  1.00  0.00    -0.223 N  
HETATM    4  C   UNL     1      -9.822  17.518  66.601  1.00  0.00    -0.306 C  
HETATM    5  C   UNL     1      -9.444  16.099  68.595  1.00  0.00    -0.227 C  
HETATM    6  O   UNL     1      -8.855  15.807  69.630  1.00  0.00    -0.232 OA 
BRANCH   5   7
HETATM    7  O   UNL     1     -10.637  15.520  68.166  1.00  0.00    -0.253 OA 
BRANCH   7   8
HETATM    8  C   UNL     1     -10.905  14.202  68.564  1.00  0.00    -0.252 A  
HETATM    9  C   UNL     1     -11.944  13.991  69.467  1.00  0.00    -0.390 A  
HETATM   10  C   UNL     1     -12.166  12.706  69.962  1.00  0.00    -0.267 A  
HETATM   11  C   UNL     1     -11.342  11.643  69.569  1.00  0.00    -0.328 A  
HETATM   12  C   UNL     1     -10.273  11.855  68.685  1.00  0.00    -0.202 A  
HETATM   13  C   UNL     1     -10.067  13.152  68.187  1.00  0.00    -0.237 A  
BRANCH  12  14
HETATM   14  C   UNL     1      -9.297  10.757  68.272  1.00  0.00    -0.161 C  
HETATM   15  C   UNL     1      -8.245  11.280  67.280  1.00  0.00    -0.140 C  
BRANCH  14  16
HETATM   16  N   UNL     1      -9.911   9.471  67.871  1.00  0.00    -0.150 NA 
HETATM   17  C   UNL     1     -10.049   9.332  66.421  1.00  0.00    -0.267 C  
HETATM   18  C   UNL     1      -9.325   8.270  68.450  1.00  0.00    -0.135 C  
ENDBRANCH  14  16
ENDBRANCH  12  14
ENDBRANCH   7   8
ENDBRANCH   5   7
ENDBRANCH   2   3
TORSDOF 5
ENDMDL
MODEL      158
REMARK 921   NORMALIZED FREE ENERGY PREDICTED BY IDOCK:   -3.10 KCAL/MOL
REMARK 922        TOTAL FREE ENERGY PREDICTED BY IDOCK:   -4.61 KCAL/MOL
REMARK 923 INTER-LIGAND FREE ENERGY PREDICTED BY IDOCK:   -4.46 KCAL/MOL
REMARK 924 INTRA-LIGAND FREE ENERGY PREDICTED BY IDOCK:   -0.15 KCAL/MOL
REMARK 927      BINDING AFFINITY PREDICTED BY RF-SCORE:    0.00 PKD
ROOT
HETATM    1  C   UNL     1      -7.867  19.262  68.610  1.00  0.00    -0.396 C  
HETATM    2  C   UNL     1      -8.776  18.224  67.964  1.00  0.00    -0.276 C  
ENDROOT
BRANCH   2   3
HETATM    3  N   UNL     1      -8.049  17.061  67.470  1.00  0.00    -0.174 N  
HETATM    4  C   UNL     1      -7.506  17.098  66.123  1.00  0.00    -0.260 C  
HETATM    5  C   UNL     1      -8.125  15.859  68.175  1.00  0.00    -0.145 C  
HETATM    6  O   UNL     1      -8.702  15.751  69.252  1.00  0.00    -0.240 OA 
BRANCH   5   7
HETATM    7  O   UNL     1      -7.506  14.813  67.495  1.00  0.00    -0.170 OA 
BRANCH   7   8
HETATM    8  C   UNL     1      -8.173  13.580  67.442  1.00  0.00    -0.181 A  
HETATM    9  C   UNL     1      -7.664  12.530  68.202  1.00  0.00    -0.141 A  
HETATM   10  C   UNL     1      -8.242  11.265  68.089  1.00  0.00    -0.140 A  
HETATM   11  C   UNL     1      -9.309  11.050  67.207  1.00  0.00    -0.167 A  
HETATM   12  C   UNL     1      -9.806  12.097  66.415  1.00  0.00    -0.242 A  
HETATM   13  C   UNL     1      -9.221  13.367  66.547  1.00  0.00    -0.182 A  
BRANCH  12  14
HETATM   14  C   UNL     1     -10.918  11.914  65.386  1.00  0.00    -0.301 C  
HETATM   15  C   UNL     1     -10.409  12.152  63.956  1.00  0.00    -0.412 C  
BRANCH  14  16
HETATM   16  N   UNL     1     -12.193  12.603  65.691  1.00  0.00    -0.590 NA 
HETATM   17  C   UNL     1     -12.269  13.076  67.074  1.00  0.00    -0.153 C  
HETATM   18  C   UNL     1     -12.595  13.652  64.764  1.00  0.00    -0.295 C  
ENDBRANCH  14  16
ENDBRANCH  12  14
ENDBRANCH   7   8
ENDBRANCH   5   7
ENDBRANCH   2   3
TORSDOF 5
ENDMDL
MODEL      159
REMARK 921   NORMALIZED FREE ENERGY PREDICTED BY IDOCK:   -3.09 KCAL/MOL
REMARK 922        TOTAL FREE ENERGY PREDICTED BY IDOCK:   -4.60 KCAL/MOL
REMARK 923 INTER-LIGAND FREE ENERGY PREDICTED BY IDOCK:   -4.13 KCAL/MOL
REMARK 924 INTRA-LIGAND FREE ENERGY PREDICTED BY IDOCK:   -0.47 KCAL/MOL
REMARK 927      BINDING AFFINITY PREDICTED BY RF-SCORE:    0.00 PKD
ROOT
HETATM    1  C   UNL     1     -12.336  14.238  65.175  1.00  0.00    -0.427 C  
HETATM    2  C   UNL     1     -12.590  12.768  64.862  1.00  0.00    -0.470 C  
ENDROOT
BRANCH   2   3
HETATM    3  N   UNL     1     -11.376  11.963  64.890  1.00  0.00    -0.303 N  
HETATM    4  C   UNL     1     -10.771  11.568  63.630  1.00  0.00    -0.424 C  
HETATM    5  C   UNL     1     -10.981  11.366  66.089  1.00  0.00    -0.236 C  
HETATM    6  O   UNL     1     -11.557  11.561  67.155  1.00  0.00    -0.516 OA 
BRANCH   5   7
HETATM    7  O   UNL     1      -9.895  10.511  65.915  1.00  0.00    -0.210 OA 
BRANCH   7   8
HETATM    8  C   UNL     1      -8.713  10.803  66.613  1.00  0.00    -0.147 A  
HETATM    9  C   UNL     1      -8.017   9.743  67.190  1.00  0.00    -0.102 A  
HETATM   10  C   UNL     1      -6.899  10.011  67.978  1.00  0.00    -0.068 A  
HETATM   11  C   UNL     1      -6.491  11.333  68.203  1.00  0.00    -0.056 A  
HETATM   12  C   UNL     1      -7.207  12.406  67.651  1.00  0.00    -0.130 A  
HETATM   13  C   UNL     1      -8.325  12.121  66.851  1.00  0.00    -0.151 A  
BRANCH  12  14
HETATM   14  C   UNL     1      -6.857  13.869  67.913  1.00  0.00    -0.160 C  
HETATM   15  C   UNL     1      -5.906  14.016  69.111  1.00  0.00    -0.087 C  
BRANCH  14  16
HETATM   16  N   UNL     1      -8.002  14.807  67.939  1.00  0.00    -0.130 NA 
HETATM   17  C   UNL     1      -8.176  15.459  69.238  1.00  0.00    -0.252 C  
HETATM   18  C   UNL     1      -8.059  15.783  66.861  1.00  0.00    -0.257 C  
ENDBRANCH  14  16
ENDBRANCH  12  14
ENDBRANCH   7   8
ENDBRANCH   5   7
ENDBRANCH   2   3
TORSDOF 5
ENDMDL
MODEL      160
REMARK 921   NORMALIZED FREE ENERGY PREDICTED BY IDOCK:   -3.07 KCAL/MOL
REMARK 922        TOTAL FREE ENERGY PREDICTED BY IDOCK:   -4.57 KCAL/MOL
REMARK 923 INTER-LIGAND FREE ENERGY PREDICTED BY IDOCK:   -5.40 KCAL/MOL
REMARK 924 INTRA-LIGAND FREE ENERGY PREDICTED BY IDOCK:    0.83 KCAL/MOL
REMARK 927      BINDING AFFINITY PREDICTED BY RF-SCORE:    0.00 PKD
ROOT
HETATM    1  C   UNL     1     -12.304  15.796  71.119  1.00  0.00    -0.480 C  
HETATM    2  C   UNL     1     -11.886  15.862  69.655  1.00  0.00    -0.290 C  
ENDROOT
BRANCH   2   3
HETATM    3  N   UNL     1     -10.753  14.998  69.349  1.00  0.00    -0.253 N  
HETATM    4  C   UNL     1      -9.412  15.548  69.437  1.00  0.00    -0.278 C  
HETATM    5  C   UNL     1     -10.981  13.771  68.723  1.00  0.00    -0.264 C  
HETATM    6  O   UNL     1     -12.104  13.333  68.498  1.00  0.00    -0.341 OA 
BRANCH   5   7
HETATM    7  O   UNL     1      -9.793  13.139  68.362  1.00  0.00    -0.228 OA 
BRANCH   7   8
HETATM    8  C   UNL     1      -9.880  11.972  67.589  1.00  0.00    -0.189 A  
HETATM    9  C   UNL     1      -9.575  10.758  68.201  1.00  0.00    -0.167 A  
HETATM   10  C   UNL     1      -9.550   9.595  67.433  1.00  0.00    -0.183 A  
HETATM   11  C   UNL     1      -9.810   9.649  66.057  1.00  0.00    -0.345 A  
HETATM   12  C   UNL     1     -10.086  10.873  65.428  1.00  0.00    -0.336 A  
HETATM   13  C   UNL     1     -10.118  12.035  66.216  1.00  0.00    -0.247 A  
BRANCH  12  14
HETATM   14  C   UNL     1     -10.310  11.010  63.924  1.00  0.00    -0.372 C  
HETATM   15  C   UNL     1      -8.999  10.836  63.141  1.00  0.00    -0.239 C  
BRANCH  14  16
HETATM   16  N   UNL     1     -11.111  12.181  63.500  1.00  0.00    -0.441 NA 
HETATM   17  C   UNL     1     -12.550  11.911  63.484  1.00  0.00    -0.459 C  
HETATM   18  C   UNL     1     -10.829  13.436  64.181  1.00  0.00    -0.290 C  
ENDBRANCH  14  16
ENDBRANCH  12  14
ENDBRANCH   7   8
ENDBRANCH   5   7
ENDBRANCH   2   3
TORSDOF 5
ENDMDL
MODEL      161
REMARK 921   NORMALIZED FREE ENERGY PREDICTED BY IDOCK:   -3.06 KCAL/MOL
REMARK 922        TOTAL FREE ENERGY PREDICTED BY IDOCK:   -4.57 KCAL/MOL
REMARK 923 INTER-LIGAND FREE ENERGY PREDICTED BY IDOCK:   -4.20 KCAL/MOL
REMARK 924 INTRA-LIGAND FREE ENERGY PREDICTED BY IDOCK:   -0.37 KCAL/MOL
REMARK 927      BINDING AFFINITY PREDICTED BY RF-SCORE:    0.00 PKD
ROOT
HETATM    1  C   UNL     1     -12.113  13.753  68.900  1.00  0.00    -0.348 C  
HETATM    2  C   UNL     1     -11.709  12.325  68.553  1.00  0.00    -0.331 C  
ENDROOT
BRANCH   2   3
HETATM    3  N   UNL     1     -11.634  11.457  69.721  1.00  0.00    -0.310 N  
HETATM    4  C   UNL     1     -12.427  11.791  70.891  1.00  0.00    -0.318 C  
HETATM    5  C   UNL     1     -10.618  10.502  69.796  1.00  0.00    -0.227 C  
HETATM    6  O   UNL     1      -9.831  10.288  68.880  1.00  0.00    -0.176 OA 
BRANCH   5   7
HETATM    7  O   UNL     1     -10.591   9.863  71.034  1.00  0.00    -0.290 OA 
BRANCH   7   8
HETATM    8  C   UNL     1     -10.829   8.481  71.063  1.00  0.00    -0.241 A  
HETATM    9  C   UNL     1     -12.025   8.035  71.618  1.00  0.00    -0.336 A  
HETATM   10  C   UNL     1     -12.243   6.665  71.757  1.00  0.00    -0.400 A  
HETATM   11  C   UNL     1     -11.262   5.748  71.360  1.00  0.00    -0.234 A  
HETATM   12  C   UNL     1     -10.041   6.191  70.829  1.00  0.00    -0.238 A  
HETATM   13  C   UNL     1      -9.839   7.573  70.685  1.00  0.00    -0.179 A  
BRANCH  12  14
HETATM   14  C   UNL     1      -8.904   5.248  70.441  1.00  0.00    -0.127 C  
HETATM   15  C   UNL     1      -7.533   5.838  70.805  1.00  0.00    -0.090 C  
BRANCH  14  16
HETATM   16  N   UNL     1      -8.972   4.691  69.071  1.00  0.00    -0.104 NA 
HETATM   17  C   UNL     1      -7.771   4.969  68.282  1.00  0.00    -0.083 C  
HETATM   18  C   UNL     1      -9.346   3.288  68.964  1.00  0.00    -0.163 C  
ENDBRANCH  14  16
ENDBRANCH  12  14
ENDBRANCH   7   8
ENDBRANCH   5   7
ENDBRANCH   2   3
TORSDOF 5
ENDMDL
MODEL      162
REMARK 921   NORMALIZED FREE ENERGY PREDICTED BY IDOCK:   -3.06 KCAL/MOL
REMARK 922        TOTAL FREE ENERGY PREDICTED BY IDOCK:   -4.56 KCAL/MOL
REMARK 923 INTER-LIGAND FREE ENERGY PREDICTED BY IDOCK:   -4.37 KCAL/MOL
REMARK 924 INTRA-LIGAND FREE ENERGY PREDICTED BY IDOCK:   -0.19 KCAL/MOL
REMARK 927      BINDING AFFINITY PREDICTED BY RF-SCORE:    0.00 PKD
ROOT
HETATM    1  C   UNL     1      -6.005  19.043  67.233  1.00  0.00    -0.164 C  
HETATM    2  C   UNL     1      -6.397  17.714  66.597  1.00  0.00    -0.200 C  
ENDROOT
BRANCH   2   3
HETATM    3  N   UNL     1      -7.530  17.080  67.260  1.00  0.00    -0.155 N  
HETATM    4  C   UNL     1      -8.578  17.922  67.810  1.00  0.00    -0.242 C  
HETATM    5  C   UNL     1      -7.455  15.726  67.593  1.00  0.00    -0.158 C  
HETATM    6  O   UNL     1      -6.513  15.010  67.270  1.00  0.00    -0.305 OA 
BRANCH   5   7
HETATM    7  O   UNL     1      -8.546  15.313  68.353  1.00  0.00    -0.151 OA 
BRANCH   7   8
HETATM    8  C   UNL     1      -9.614  14.695  67.685  1.00  0.00    -0.212 A  
HETATM    9  C   UNL     1     -10.908  15.086  68.018  1.00  0.00    -0.270 A  
HETATM   10  C   UNL     1     -11.990  14.416  67.449  1.00  0.00    -0.407 A  
HETATM   11  C   UNL     1     -11.778  13.349  66.566  1.00  0.00    -0.415 A  
HETATM   12  C   UNL     1     -10.477  12.929  66.250  1.00  0.00    -0.282 A  
HETATM   13  C   UNL     1      -9.396  13.619  66.823  1.00  0.00    -0.269 A  
BRANCH  12  14
HETATM   14  C   UNL     1     -10.178  11.732  65.351  1.00  0.00    -0.261 C  
HETATM   15  C   UNL     1     -11.306  11.494  64.334  1.00  0.00    -0.283 C  
BRANCH  14  16
HETATM   16  N   UNL     1      -9.730  10.504  66.047  1.00  0.00    -0.195 NA 
HETATM   17  C   UNL     1     -10.700  10.019  67.029  1.00  0.00    -0.178 C  
HETATM   18  C   UNL     1      -9.267   9.416  65.198  1.00  0.00    -0.225 C  
ENDBRANCH  14  16
ENDBRANCH  12  14
ENDBRANCH   7   8
ENDBRANCH   5   7
ENDBRANCH   2   3
TORSDOF 5
ENDMDL
MODEL      163
REMARK 921   NORMALIZED FREE ENERGY PREDICTED BY IDOCK:   -3.06 KCAL/MOL
REMARK 922        TOTAL FREE ENERGY PREDICTED BY IDOCK:   -4.56 KCAL/MOL
REMARK 923 INTER-LIGAND FREE ENERGY PREDICTED BY IDOCK:   -4.37 KCAL/MOL
REMARK 924 INTRA-LIGAND FREE ENERGY PREDICTED BY IDOCK:   -0.19 KCAL/MOL
REMARK 927      BINDING AFFINITY PREDICTED BY RF-SCORE:    0.00 PKD
ROOT
HETATM    1  C   UNL     1      -7.862   7.394  74.558  1.00  0.00    -0.193 C  
HETATM    2  C   UNL     1      -8.782   8.110  73.576  1.00  0.00    -0.249 C  
ENDROOT
BRANCH   2   3
HETATM    3  N   UNL     1      -9.434   7.200  72.643  1.00  0.00    -0.144 N  
HETATM    4  C   UNL     1      -8.683   6.065  72.134  1.00  0.00    -0.132 C  
HETATM    5  C   UNL     1     -10.641   7.578  72.052  1.00  0.00    -0.211 C  
HETATM    6  O   UNL     1     -11.238   8.607  72.351  1.00  0.00    -0.357 OA 
BRANCH   5   7
HETATM    7  O   UNL     1     -11.052   6.674  71.076  1.00  0.00    -0.255 OA 
BRANCH   7   8
HETATM    8  C   UNL     1     -10.968   7.076  69.734  1.00  0.00    -0.250 A  
HETATM    9  C   UNL     1     -11.068   6.094  68.751  1.00  0.00    -0.398 A  
HETATM   10  C   UNL     1     -10.883   6.447  67.415  1.00  0.00    -0.457 A  
HETATM   11  C   UNL     1     -10.581   7.770  67.067  1.00  0.00    -0.396 A  
HETATM   12  C   UNL     1     -10.448   8.758  68.055  1.00  0.00    -0.260 A  
HETATM   13  C   UNL     1     -10.647   8.390  69.396  1.00  0.00    -0.204 A  
BRANCH  12  14
HETATM   14  C   UNL     1     -10.054  10.200  67.750  1.00  0.00    -0.180 C  
HETATM   15  C   UNL     1     -10.267  10.542  66.266  1.00  0.00    -0.296 C  
BRANCH  14  16
HETATM   16  N   UNL     1      -8.742  10.633  68.282  1.00  0.00    -0.129 NA 
HETATM   17  C   UNL     1      -7.617   9.921  67.673  1.00  0.00    -0.091 C  
HETATM   18  C   UNL     1      -8.496  12.068  68.299  1.00  0.00    -0.167 C  
ENDBRANCH  14  16
ENDBRANCH  12  14
ENDBRANCH   7   8
ENDBRANCH   5   7
ENDBRANCH   2   3
TORSDOF 5
ENDMDL
MODEL      164
REMARK 921   NORMALIZED FREE ENERGY PREDICTED BY IDOCK:   -3.04 KCAL/MOL
REMARK 922        TOTAL FREE ENERGY PREDICTED BY IDOCK:   -4.54 KCAL/MOL
REMARK 923 INTER-LIGAND FREE ENERGY PREDICTED BY IDOCK:   -3.97 KCAL/MOL
REMARK 924 INTRA-LIGAND FREE ENERGY PREDICTED BY IDOCK:   -0.57 KCAL/MOL
REMARK 927      BINDING AFFINITY PREDICTED BY RF-SCORE:    0.00 PKD
ROOT
HETATM    1  C   UNL     1     -10.943  11.103  64.561  1.00  0.00    -0.255 C  
HETATM    2  C   UNL     1      -9.452  11.408  64.638  1.00  0.00    -0.148 C  
ENDROOT
BRANCH   2   3
HETATM    3  N   UNL     1      -8.715  10.443  65.443  1.00  0.00    -0.173 N  
HETATM    4  C   UNL     1      -8.737   9.044  65.050  1.00  0.00    -0.183 C  
HETATM    5  C   UNL     1      -8.243  10.823  66.701  1.00  0.00    -0.140 C  
HETATM    6  O   UNL     1      -8.335  11.967  67.132  1.00  0.00    -0.167 OA 
BRANCH   5   7
HETATM    7  O   UNL     1      -7.700   9.749  67.402  1.00  0.00    -0.095 OA 
BRANCH   7   8
HETATM    8  C   UNL     1      -8.124   9.547  68.724  1.00  0.00    -0.096 A  
HETATM    9  C   UNL     1      -7.150   9.449  69.715  1.00  0.00    -0.068 A  
HETATM   10  C   UNL     1      -7.535   9.143  71.020  1.00  0.00    -0.120 A  
HETATM   11  C   UNL     1      -8.884   8.920  71.327  1.00  0.00    -0.298 A  
HETATM   12  C   UNL     1      -9.866   8.987  70.328  1.00  0.00    -0.227 A  
HETATM   13  C   UNL     1      -9.466   9.305  69.020  1.00  0.00    -0.155 A  
BRANCH  12  14
HETATM   14  C   UNL     1     -11.341   8.687  70.581  1.00  0.00    -0.247 C  
HETATM   15  C   UNL     1     -11.965   9.703  71.551  1.00  0.00    -0.485 C  
BRANCH  14  16
HETATM   16  N   UNL     1     -11.663   7.278  70.901  1.00  0.00    -0.307 NA 
HETATM   17  C   UNL     1     -13.012   7.111  71.446  1.00  0.00    -0.368 C  
HETATM   18  C   UNL     1     -11.408   6.304  69.850  1.00  0.00    -0.434 C  
ENDBRANCH  14  16
ENDBRANCH  12  14
ENDBRANCH   7   8
ENDBRANCH   5   7
ENDBRANCH   2   3
TORSDOF 5
ENDMDL
MODEL      165
REMARK 921   NORMALIZED FREE ENERGY PREDICTED BY IDOCK:   -3.02 KCAL/MOL
REMARK 922        TOTAL FREE ENERGY PREDICTED BY IDOCK:   -4.52 KCAL/MOL
REMARK 923 INTER-LIGAND FREE ENERGY PREDICTED BY IDOCK:   -4.50 KCAL/MOL
REMARK 924 INTRA-LIGAND FREE ENERGY PREDICTED BY IDOCK:   -0.01 KCAL/MOL
REMARK 927      BINDING AFFINITY PREDICTED BY RF-SCORE:    0.00 PKD
ROOT
HETATM    1  C   UNL     1     -10.259   6.027  66.809  1.00  0.00    -0.268 C  
HETATM    2  C   UNL     1     -10.784   7.402  67.205  1.00  0.00    -0.330 C  
ENDROOT
BRANCH   2   3
HETATM    3  N   UNL     1      -9.977   8.493  66.672  1.00  0.00    -0.272 N  
HETATM    4  C   UNL     1      -8.787   8.170  65.904  1.00  0.00    -0.158 C  
HETATM    5  C   UNL     1     -10.199   9.793  67.130  1.00  0.00    -0.228 C  
HETATM    6  O   UNL     1     -11.110  10.084  67.898  1.00  0.00    -0.275 OA 
BRANCH   5   7
HETATM    7  O   UNL     1      -9.251  10.689  66.643  1.00  0.00    -0.160 OA 
BRANCH   7   8
HETATM    8  C   UNL     1      -9.714  11.841  65.989  1.00  0.00    -0.232 A  
HETATM    9  C   UNL     1      -9.959  11.762  64.620  1.00  0.00    -0.275 A  
HETATM   10  C   UNL     1     -10.317  12.916  63.925  1.00  0.00    -0.264 A  
HETATM   11  C   UNL     1     -10.411  14.145  64.592  1.00  0.00    -0.366 A  
HETATM   12  C   UNL     1     -10.135  14.237  65.964  1.00  0.00    -0.333 A  
HETATM   13  C   UNL     1      -9.785  13.065  66.654  1.00  0.00    -0.256 A  
BRANCH  12  14
HETATM   14  C   UNL     1     -10.152  15.555  66.735  1.00  0.00    -0.264 C  
HETATM   15  C   UNL     1     -10.639  16.717  65.856  1.00  0.00    -0.255 C  
BRANCH  14  16
HETATM   16  N   UNL     1      -8.927  15.861  67.509  1.00  0.00    -0.192 NA 
HETATM   17  C   UNL     1      -8.872  15.159  68.792  1.00  0.00    -0.196 C  
HETATM   18  C   UNL     1      -7.665  15.729  66.794  1.00  0.00    -0.181 C  
ENDBRANCH  14  16
ENDBRANCH  12  14
ENDBRANCH   7   8
ENDBRANCH   5   7
ENDBRANCH   2   3
TORSDOF 5
ENDMDL
MODEL      166
REMARK 921   NORMALIZED FREE ENERGY PREDICTED BY IDOCK:   -3.00 KCAL/MOL
REMARK 922        TOTAL FREE ENERGY PREDICTED BY IDOCK:   -4.48 KCAL/MOL
REMARK 923 INTER-LIGAND FREE ENERGY PREDICTED BY IDOCK:   -3.91 KCAL/MOL
REMARK 924 INTRA-LIGAND FREE ENERGY PREDICTED BY IDOCK:   -0.57 KCAL/MOL
REMARK 927      BINDING AFFINITY PREDICTED BY RF-SCORE:    0.00 PKD
ROOT
HETATM    1  C   UNL     1     -12.180  13.760  64.029  1.00  0.00    -0.429 C  
HETATM    2  C   UNL     1     -12.539  13.466  65.481  1.00  0.00    -0.465 C  
ENDROOT
BRANCH   2   3
HETATM    3  N   UNL     1     -11.372  13.405  66.353  1.00  0.00    -0.305 N  
HETATM    4  C   UNL     1     -10.227  14.244  66.047  1.00  0.00    -0.315 C  
HETATM    5  C   UNL     1     -11.268  12.366  67.280  1.00  0.00    -0.303 C  
HETATM    6  O   UNL     1     -12.159  11.545  67.468  1.00  0.00    -0.614 OA 
BRANCH   5   7
HETATM    7  O   UNL     1     -10.033  12.362  67.924  1.00  0.00    -0.193 OA 
BRANCH   7   8
HETATM    8  C   UNL     1      -9.235  11.214  67.804  1.00  0.00    -0.153 A  
HETATM    9  C   UNL     1      -8.697  10.668  68.967  1.00  0.00    -0.152 A  
HETATM   10  C   UNL     1      -7.816   9.592  68.870  1.00  0.00    -0.081 A  
HETATM   11  C   UNL     1      -7.461   9.078  67.615  1.00  0.00    -0.085 A  
HETATM   12  C   UNL     1      -7.974   9.644  66.439  1.00  0.00    -0.108 A  
HETATM   13  C   UNL     1      -8.869  10.721  66.552  1.00  0.00    -0.162 A  
BRANCH  12  14
HETATM   14  C   UNL     1      -7.575   9.177  65.041  1.00  0.00    -0.106 C  
HETATM   15  C   UNL     1      -6.415   8.170  65.092  1.00  0.00    -0.052 C  
BRANCH  14  16
HETATM   16  N   UNL     1      -7.395  10.248  64.035  1.00  0.00    -0.106 NA 
HETATM   17  C   UNL     1      -6.007  10.388  63.593  1.00  0.00    -0.113 C  
HETATM   18  C   UNL     1      -8.298  10.217  62.893  1.00  0.00    -0.169 C  
ENDBRANCH  14  16
ENDBRANCH  12  14
ENDBRANCH   7   8
ENDBRANCH   5   7
ENDBRANCH   2   3
TORSDOF 5
ENDMDL
MODEL      167
REMARK 921   NORMALIZED FREE ENERGY PREDICTED BY IDOCK:   -3.00 KCAL/MOL
REMARK 922        TOTAL FREE ENERGY PREDICTED BY IDOCK:   -4.48 KCAL/MOL
REMARK 923 INTER-LIGAND FREE ENERGY PREDICTED BY IDOCK:   -4.08 KCAL/MOL
REMARK 924 INTRA-LIGAND FREE ENERGY PREDICTED BY IDOCK:   -0.40 KCAL/MOL
REMARK 927      BINDING AFFINITY PREDICTED BY RF-SCORE:    0.00 PKD
ROOT
HETATM    1  C   UNL     1      -7.664   3.873  67.297  1.00  0.00    -0.080 C  
HETATM    2  C   UNL     1      -8.343   4.952  68.132  1.00  0.00    -0.099 C  
ENDROOT
BRANCH   2   3
HETATM    3  N   UNL     1      -9.252   5.784  67.355  1.00  0.00    -0.110 N  
HETATM    4  C   UNL     1      -9.341   5.570  65.921  1.00  0.00    -0.125 C  
HETATM    5  C   UNL     1      -9.800   6.927  67.940  1.00  0.00    -0.135 C  
HETATM    6  O   UNL     1      -9.629   7.222  69.118  1.00  0.00    -0.155 OA 
BRANCH   5   7
HETATM    7  O   UNL     1     -10.519   7.691  67.024  1.00  0.00    -0.304 OA 
BRANCH   7   8
HETATM    8  C   UNL     1     -10.248   9.066  66.961  1.00  0.00    -0.266 A  
HETATM    9  C   UNL     1      -9.005   9.465  66.478  1.00  0.00    -0.176 A  
HETATM   10  C   UNL     1      -8.667  10.818  66.503  1.00  0.00    -0.154 A  
HETATM   11  C   UNL     1      -9.561  11.762  67.025  1.00  0.00    -0.196 A  
HETATM   12  C   UNL     1     -10.802  11.363  67.543  1.00  0.00    -0.291 A  
HETATM   13  C   UNL     1     -11.134   9.998  67.503  1.00  0.00    -0.190 A  
BRANCH  12  14
HETATM   14  C   UNL     1     -11.792  12.330  68.189  1.00  0.00    -0.311 C  
HETATM   15  C   UNL     1     -11.848  13.667  67.434  1.00  0.00    -0.429 C  
BRANCH  14  16
HETATM   16  N   UNL     1     -11.680  12.475  69.658  1.00  0.00    -0.311 NA 
HETATM   17  C   UNL     1     -12.108  13.791  70.134  1.00  0.00    -0.359 C  
HETATM   18  C   UNL     1     -12.281  11.417  70.457  1.00  0.00    -0.386 C  
ENDBRANCH  14  16
ENDBRANCH  12  14
ENDBRANCH   7   8
ENDBRANCH   5   7
ENDBRANCH   2   3
TORSDOF 5
ENDMDL
MODEL      168
REMARK 921   NORMALIZED FREE ENERGY PREDICTED BY IDOCK:   -2.99 KCAL/MOL
REMARK 922        TOTAL FREE ENERGY PREDICTED BY IDOCK:   -4.48 KCAL/MOL
REMARK 923 INTER-LIGAND FREE ENERGY PREDICTED BY IDOCK:   -4.72 KCAL/MOL
REMARK 924 INTRA-LIGAND FREE ENERGY PREDICTED BY IDOCK:    0.24 KCAL/MOL
REMARK 927      BINDING AFFINITY PREDICTED BY RF-SCORE:    0.00 PKD
ROOT
HETATM    1  C   UNL     1     -13.289  12.115  71.726  1.00  0.00    -0.342 C  
HETATM    2  C   UNL     1     -13.619  13.405  72.467  1.00  0.00    -0.554 C  
ENDROOT
BRANCH   2   3
HETATM    3  N   UNL     1     -13.295  14.600  71.699  1.00  0.00    -0.333 N  
HETATM    4  C   UNL     1     -14.017  14.853  70.464  1.00  0.00     0.489 C  
HETATM    5  C   UNL     1     -12.136  15.316  72.007  1.00  0.00    -0.385 C  
HETATM    6  O   UNL     1     -11.416  15.044  72.961  1.00  0.00    -0.269 OA 
BRANCH   5   7
HETATM    7  O   UNL     1     -11.891  16.334  71.088  1.00  0.00    -0.401 OA 
BRANCH   7   8
HETATM    8  C   UNL     1     -11.107  16.028  69.965  1.00  0.00    -0.362 A  
HETATM    9  C   UNL     1     -10.051  15.135  70.129  1.00  0.00    -0.043 A  
HETATM   10  C   UNL     1      -9.192  14.893  69.058  1.00  0.00    -0.176 A  
HETATM   11  C   UNL     1      -9.378  15.555  67.836  1.00  0.00    -0.192 A  
HETATM   12  C   UNL     1     -10.421  16.479  67.675  1.00  0.00    -0.305 A  
HETATM   13  C   UNL     1     -11.285  16.706  68.759  1.00  0.00    -0.217 A  
BRANCH  12  14
HETATM   14  C   UNL     1     -10.636  17.284  66.396  1.00  0.00    -0.179 C  
HETATM   15  C   UNL     1     -10.674  16.375  65.157  1.00  0.00    -0.309 C  
BRANCH  14  16
HETATM   16  N   UNL     1      -9.776  18.478  66.237  1.00  0.00    -0.436 NA 
HETATM   17  C   UNL     1     -10.269  19.639  66.978  1.00  0.00    -0.439 C  
HETATM   18  C   UNL     1      -8.353  18.282  66.473  1.00  0.00    -0.266 C  
ENDBRANCH  14  16
ENDBRANCH  12  14
ENDBRANCH   7   8
ENDBRANCH   5   7
ENDBRANCH   2   3
TORSDOF 5
ENDMDL
MODEL      169
REMARK 921   NORMALIZED FREE ENERGY PREDICTED BY IDOCK:   -2.99 KCAL/MOL
REMARK 922        TOTAL FREE ENERGY PREDICTED BY IDOCK:   -4.47 KCAL/MOL
REMARK 923 INTER-LIGAND FREE ENERGY PREDICTED BY IDOCK:   -4.00 KCAL/MOL
REMARK 924 INTRA-LIGAND FREE ENERGY PREDICTED BY IDOCK:   -0.47 KCAL/MOL
REMARK 927      BINDING AFFINITY PREDICTED BY RF-SCORE:    0.00 PKD
ROOT
HETATM    1  C   UNL     1      -9.028   6.358  73.225  1.00  0.00    -0.134 C  
HETATM    2  C   UNL     1     -10.449   6.163  72.711  1.00  0.00    -0.216 C  
ENDROOT
BRANCH   2   3
HETATM    3  N   UNL     1     -10.919   7.281  71.902  1.00  0.00    -0.227 N  
HETATM    4  C   UNL     1     -11.782   8.274  72.518  1.00  0.00    -0.383 C  
HETATM    5  C   UNL     1     -10.764   7.232  70.515  1.00  0.00    -0.232 C  
HETATM    6  O   UNL     1     -10.163   6.330  69.941  1.00  0.00    -0.170 OA 
BRANCH   5   7
HETATM    7  O   UNL     1     -11.398   8.298  69.880  1.00  0.00    -0.105 OA 
BRANCH   7   8
HETATM    8  C   UNL     1     -10.609   9.161  69.104  1.00  0.00    -0.208 A  
HETATM    9  C   UNL     1     -10.118  10.316  69.708  1.00  0.00    -0.244 A  
HETATM   10  C   UNL     1      -9.421  11.244  68.935  1.00  0.00    -0.102 A  
HETATM   11  C   UNL     1      -9.233  11.026  67.564  1.00  0.00    -0.149 A  
HETATM   12  C   UNL     1      -9.754   9.880  66.943  1.00  0.00    -0.236 A  
HETATM   13  C   UNL     1     -10.445   8.948  67.736  1.00  0.00    -0.300 A  
BRANCH  12  14
HETATM   14  C   UNL     1      -9.645   9.617  65.444  1.00  0.00    -0.291 C  
HETATM   15  C   UNL     1      -8.488   8.657  65.121  1.00  0.00    -0.197 C  
BRANCH  14  16
HETATM   16  N   UNL     1      -9.687  10.816  64.577  1.00  0.00    -0.267 NA 
HETATM   17  C   UNL     1      -8.917  10.655  63.343  1.00  0.00    -0.219 C  
HETATM   18  C   UNL     1     -11.007  11.360  64.295  1.00  0.00    -0.321 C  
ENDBRANCH  14  16
ENDBRANCH  12  14
ENDBRANCH   7   8
ENDBRANCH   5   7
ENDBRANCH   2   3
TORSDOF 5
ENDMDL
MODEL      170
REMARK 921   NORMALIZED FREE ENERGY PREDICTED BY IDOCK:   -2.97 KCAL/MOL
REMARK 922        TOTAL FREE ENERGY PREDICTED BY IDOCK:   -4.44 KCAL/MOL
REMARK 923 INTER-LIGAND FREE ENERGY PREDICTED BY IDOCK:   -4.40 KCAL/MOL
REMARK 924 INTRA-LIGAND FREE ENERGY PREDICTED BY IDOCK:   -0.04 KCAL/MOL
REMARK 927      BINDING AFFINITY PREDICTED BY RF-SCORE:    0.00 PKD
ROOT
HETATM    1  C   UNL     1      -6.872   6.084  69.704  1.00  0.00    -0.065 C  
HETATM    2  C   UNL     1      -6.429   7.275  68.863  1.00  0.00    -0.040 C  
ENDROOT
BRANCH   2   3
HETATM    3  N   UNL     1      -7.531   8.162  68.511  1.00  0.00    -0.096 N  
HETATM    4  C   UNL     1      -8.384   7.805  67.390  1.00  0.00    -0.123 C  
HETATM    5  C   UNL     1      -7.578   9.444  69.062  1.00  0.00    -0.074 C  
HETATM    6  O   UNL     1      -6.784   9.837  69.910  1.00  0.00    -0.057 OA 
BRANCH   5   7
HETATM    7  O   UNL     1      -8.599  10.214  68.509  1.00  0.00    -0.111 OA 
BRANCH   7   8
HETATM    8  C   UNL     1      -9.808  10.304  69.217  1.00  0.00    -0.228 A  
HETATM    9  C   UNL     1     -10.646  11.382  68.942  1.00  0.00    -0.234 A  
HETATM   10  C   UNL     1     -11.802  11.556  69.702  1.00  0.00    -0.421 A  
HETATM   11  C   UNL     1     -12.106  10.668  70.742  1.00  0.00    -0.474 A  
HETATM   12  C   UNL     1     -11.250   9.599  71.045  1.00  0.00    -0.445 A  
HETATM   13  C   UNL     1     -10.094   9.429  70.265  1.00  0.00    -0.288 A  
BRANCH  12  14
HETATM   14  C   UNL     1     -11.487   8.638  72.207  1.00  0.00    -0.353 C  
HETATM   15  C   UNL     1     -10.163   8.165  72.828  1.00  0.00    -0.372 C  
BRANCH  14  16
HETATM   16  N   UNL     1     -12.452   7.545  71.949  1.00  0.00    -0.311 NA 
HETATM   17  C   UNL     1     -13.820   8.027  71.753  1.00  0.00    -0.386 C  
HETATM   18  C   UNL     1     -12.085   6.596  70.908  1.00  0.00    -0.320 C  
ENDBRANCH  14  16
ENDBRANCH  12  14
ENDBRANCH   7   8
ENDBRANCH   5   7
ENDBRANCH   2   3
TORSDOF 5
ENDMDL
MODEL      171
REMARK 921   NORMALIZED FREE ENERGY PREDICTED BY IDOCK:   -2.96 KCAL/MOL
REMARK 922        TOTAL FREE ENERGY PREDICTED BY IDOCK:   -4.43 KCAL/MOL
REMARK 923 INTER-LIGAND FREE ENERGY PREDICTED BY IDOCK:   -4.26 KCAL/MOL
REMARK 924 INTRA-LIGAND FREE ENERGY PREDICTED BY IDOCK:   -0.17 KCAL/MOL
REMARK 927      BINDING AFFINITY PREDICTED BY RF-SCORE:    0.00 PKD
ROOT
HETATM    1  C   UNL     1      -6.864   8.631  64.387  1.00  0.00    -0.077 C  
HETATM    2  C   UNL     1      -8.359   8.383  64.541  1.00  0.00    -0.116 C  
ENDROOT
BRANCH   2   3
HETATM    3  N   UNL     1      -8.704   7.760  65.813  1.00  0.00    -0.154 N  
HETATM    4  C   UNL     1      -8.190   6.432  66.102  1.00  0.00    -0.122 C  
HETATM    5  C   UNL     1      -9.720   8.317  66.592  1.00  0.00    -0.251 C  
HETATM    6  O   UNL     1     -10.282   9.368  66.305  1.00  0.00    -0.274 OA 
BRANCH   5   7
HETATM    7  O   UNL     1     -10.030   7.522  67.693  1.00  0.00    -0.151 OA 
BRANCH   7   8
HETATM    8  C   UNL     1      -9.994   8.119  68.962  1.00  0.00    -0.189 A  
HETATM    9  C   UNL     1      -8.993   9.052  69.217  1.00  0.00    -0.144 A  
HETATM   10  C   UNL     1      -8.867   9.582  70.501  1.00  0.00    -0.253 A  
HETATM   11  C   UNL     1      -9.728   9.168  71.526  1.00  0.00    -0.313 A  
HETATM   12  C   UNL     1     -10.719   8.205  71.283  1.00  0.00    -0.270 A  
HETATM   13  C   UNL     1     -10.840   7.686  69.984  1.00  0.00    -0.250 A  
BRANCH  12  14
HETATM   14  C   UNL     1     -11.642   7.659  72.370  1.00  0.00    -0.336 C  
HETATM   15  C   UNL     1     -11.471   6.142  72.547  1.00  0.00    -0.318 C  
BRANCH  14  16
HETATM   16  N   UNL     1     -13.053   8.099  72.292  1.00  0.00    -0.230 NA 
HETATM   17  C   UNL     1     -13.191   9.518  71.965  1.00  0.00    -0.452 C  
HETATM   18  C   UNL     1     -13.934   7.290  71.462  1.00  0.00    -0.361 C  
ENDBRANCH  14  16
ENDBRANCH  12  14
ENDBRANCH   7   8
ENDBRANCH   5   7
ENDBRANCH   2   3
TORSDOF 5
ENDMDL
MODEL      172
REMARK 921   NORMALIZED FREE ENERGY PREDICTED BY IDOCK:   -2.95 KCAL/MOL
REMARK 922        TOTAL FREE ENERGY PREDICTED BY IDOCK:   -4.42 KCAL/MOL
REMARK 923 INTER-LIGAND FREE ENERGY PREDICTED BY IDOCK:   -5.22 KCAL/MOL
REMARK 924 INTRA-LIGAND FREE ENERGY PREDICTED BY IDOCK:    0.80 KCAL/MOL
REMARK 927      BINDING AFFINITY PREDICTED BY RF-SCORE:    0.00 PKD
ROOT
HETATM    1  C   UNL     1     -12.304  15.988  72.658  1.00  0.00    -0.594 C  
HETATM    2  C   UNL     1     -12.811  15.600  71.274  1.00  0.00    -0.487 C  
ENDROOT
BRANCH   2   3
HETATM    3  N   UNL     1     -11.737  15.237  70.358  1.00  0.00    -0.283 N  
HETATM    4  C   UNL     1     -10.978  16.297  69.717  1.00  0.00    -0.354 C  
HETATM    5  C   UNL     1     -11.641  13.918  69.908  1.00  0.00    -0.241 C  
HETATM    6  O   UNL     1     -12.363  13.017  70.320  1.00  0.00    -0.310 OA 
BRANCH   5   7
HETATM    7  O   UNL     1     -10.664  13.771  68.927  1.00  0.00    -0.248 OA 
BRANCH   7   8
HETATM    8  C   UNL     1     -10.683  12.600  68.154  1.00  0.00    -0.225 A  
HETATM    9  C   UNL     1     -11.118  11.424  68.761  1.00  0.00    -0.290 A  
HETATM   10  C   UNL     1     -11.049  10.226  68.051  1.00  0.00    -0.336 A  
HETATM   11  C   UNL     1     -10.530  10.201  66.750  1.00  0.00    -0.270 A  
HETATM   12  C   UNL     1     -10.061  11.377  66.144  1.00  0.00    -0.271 A  
HETATM   13  C   UNL     1     -10.146  12.579  66.867  1.00  0.00    -0.232 A  
BRANCH  12  14
HETATM   14  C   UNL     1      -9.422  11.408  64.758  1.00  0.00    -0.153 C  
HETATM   15  C   UNL     1     -10.484  11.403  63.647  1.00  0.00    -0.472 C  
BRANCH  14  16
HETATM   16  N   UNL     1      -8.320  10.445  64.539  1.00  0.00    -0.164 NA 
HETATM   17  C   UNL     1      -7.365  10.408  65.647  1.00  0.00    -0.148 C  
HETATM   18  C   UNL     1      -8.711   9.097  64.150  1.00  0.00    -0.141 C  
ENDBRANCH  14  16
ENDBRANCH  12  14
ENDBRANCH   7   8
ENDBRANCH   5   7
ENDBRANCH   2   3
TORSDOF 5
ENDMDL
MODEL      173
REMARK 921   NORMALIZED FREE ENERGY PREDICTED BY IDOCK:   -2.95 KCAL/MOL
REMARK 922        TOTAL FREE ENERGY PREDICTED BY IDOCK:   -4.42 KCAL/MOL
REMARK 923 INTER-LIGAND FREE ENERGY PREDICTED BY IDOCK:   -4.28 KCAL/MOL
REMARK 924 INTRA-LIGAND FREE ENERGY PREDICTED BY IDOCK:   -0.14 KCAL/MOL
REMARK 927      BINDING AFFINITY PREDICTED BY RF-SCORE:    0.00 PKD
ROOT
HETATM    1  C   UNL     1     -14.111   7.707  71.575  1.00  0.00    -0.535 C  
HETATM    2  C   UNL     1     -13.301   8.760  72.322  1.00  0.00    -0.419 C  
ENDROOT
BRANCH   2   3
HETATM    3  N   UNL     1     -11.864   8.525  72.254  1.00  0.00    -0.379 N  
HETATM    4  C   UNL     1     -11.276   7.539  73.144  1.00  0.00    -0.267 C  
HETATM    5  C   UNL     1     -11.058   9.423  71.551  1.00  0.00    -0.376 C  
HETATM    6  O   UNL     1     -11.510  10.360  70.902  1.00  0.00    -0.344 OA 
BRANCH   5   7
HETATM    7  O   UNL     1      -9.703   9.144  71.710  1.00  0.00    -0.283 OA 
BRANCH   7   8
HETATM    8  C   UNL     1      -9.065   8.398  70.708  1.00  0.00    -0.156 A  
HETATM    9  C   UNL     1      -7.854   7.785  71.020  1.00  0.00    -0.089 A  
HETATM   10  C   UNL     1      -7.146   7.126  70.016  1.00  0.00    -0.066 A  
HETATM   11  C   UNL     1      -7.637   7.097  68.704  1.00  0.00    -0.111 A  
HETATM   12  C   UNL     1      -8.841   7.740  68.376  1.00  0.00    -0.130 A  
HETATM   13  C   UNL     1      -9.549   8.391  69.399  1.00  0.00    -0.170 A  
BRANCH  12  14
HETATM   14  C   UNL     1      -9.396   7.805  66.956  1.00  0.00    -0.157 C  
HETATM   15  C   UNL     1     -10.368   8.983  66.783  1.00  0.00    -0.310 C  
BRANCH  14  16
HETATM   16  N   UNL     1      -9.900   6.527  66.405  1.00  0.00    -0.106 NA 
HETATM   17  C   UNL     1      -8.906   5.826  65.590  1.00  0.00    -0.136 C  
HETATM   18  C   UNL     1     -10.522   5.617  67.356  1.00  0.00    -0.241 C  
ENDBRANCH  14  16
ENDBRANCH  12  14
ENDBRANCH   7   8
ENDBRANCH   5   7
ENDBRANCH   2   3
TORSDOF 5
ENDMDL
MODEL      174
REMARK 921   NORMALIZED FREE ENERGY PREDICTED BY IDOCK:   -2.95 KCAL/MOL
REMARK 922        TOTAL FREE ENERGY PREDICTED BY IDOCK:   -4.42 KCAL/MOL
REMARK 923 INTER-LIGAND FREE ENERGY PREDICTED BY IDOCK:   -4.23 KCAL/MOL
REMARK 924 INTRA-LIGAND FREE ENERGY PREDICTED BY IDOCK:   -0.18 KCAL/MOL
REMARK 927      BINDING AFFINITY PREDICTED BY RF-SCORE:    0.00 PKD
ROOT
HETATM    1  C   UNL     1     -10.620   8.036  67.004  1.00  0.00    -0.364 C  
HETATM    2  C   UNL     1      -9.176   8.252  66.569  1.00  0.00    -0.187 C  
ENDROOT
BRANCH   2   3
HETATM    3  N   UNL     1      -8.484   9.250  67.375  1.00  0.00    -0.121 N  
HETATM    4  C   UNL     1      -8.793   9.341  68.791  1.00  0.00    -0.132 C  
HETATM    5  C   UNL     1      -7.761  10.260  66.737  1.00  0.00    -0.111 C  
HETATM    6  O   UNL     1      -7.597  10.299  65.522  1.00  0.00    -0.140 OA 
BRANCH   5   7
HETATM    7  O   UNL     1      -7.291  11.214  67.635  1.00  0.00    -0.090 OA 
BRANCH   7   8
HETATM    8  C   UNL     1      -7.602  12.559  67.384  1.00  0.00    -0.156 A  
HETATM    9  C   UNL     1      -6.652  13.522  67.717  1.00  0.00    -0.175 A  
HETATM   10  C   UNL     1      -6.974  14.872  67.577  1.00  0.00    -0.203 A  
HETATM   11  C   UNL     1      -8.244  15.255  67.126  1.00  0.00    -0.250 A  
HETATM   12  C   UNL     1      -9.216  14.291  66.820  1.00  0.00    -0.282 A  
HETATM   13  C   UNL     1      -8.875  12.935  66.955  1.00  0.00    -0.208 A  
BRANCH  12  14
HETATM   14  C   UNL     1     -10.638  14.641  66.391  1.00  0.00    -0.301 C  
HETATM   15  C   UNL     1     -10.653  15.800  65.381  1.00  0.00    -0.441 C  
BRANCH  14  16
HETATM   16  N   UNL     1     -11.621  14.789  67.488  1.00  0.00    -0.358 NA 
HETATM   17  C   UNL     1     -11.958  13.516  68.127  1.00  0.00    -0.341 C  
HETATM   18  C   UNL     1     -11.323  15.805  68.487  1.00  0.00    -0.374 C  
ENDBRANCH  14  16
ENDBRANCH  12  14
ENDBRANCH   7   8
ENDBRANCH   5   7
ENDBRANCH   2   3
TORSDOF 5
ENDMDL
MODEL      175
REMARK 921   NORMALIZED FREE ENERGY PREDICTED BY IDOCK:   -2.95 KCAL/MOL
REMARK 922        TOTAL FREE ENERGY PREDICTED BY IDOCK:   -4.41 KCAL/MOL
REMARK 923 INTER-LIGAND FREE ENERGY PREDICTED BY IDOCK:   -3.81 KCAL/MOL
REMARK 924 INTRA-LIGAND FREE ENERGY PREDICTED BY IDOCK:   -0.61 KCAL/MOL
REMARK 927      BINDING AFFINITY PREDICTED BY RF-SCORE:    0.00 PKD
ROOT
HETATM    1  C   UNL     1      -7.561   6.373  66.366  1.00  0.00    -0.090 C  
HETATM    2  C   UNL     1      -9.075   6.464  66.216  1.00  0.00    -0.151 C  
ENDROOT
BRANCH   2   3
HETATM    3  N   UNL     1      -9.793   5.934  67.369  1.00  0.00    -0.122 N  
HETATM    4  C   UNL     1      -9.893   4.494  67.526  1.00  0.00    -0.140 C  
HETATM    5  C   UNL     1     -10.588   6.792  68.130  1.00  0.00    -0.230 C  
HETATM    6  O   UNL     1     -10.644   8.002  67.936  1.00  0.00    -0.209 OA 
BRANCH   5   7
HETATM    7  O   UNL     1     -11.323   6.106  69.095  1.00  0.00    -0.399 OA 
BRANCH   7   8
HETATM    8  C   UNL     1     -11.268   6.575  70.416  1.00  0.00    -0.355 A  
HETATM    9  C   UNL     1     -12.354   7.304  70.895  1.00  0.00    -0.287 A  
HETATM   10  C   UNL     1     -12.284   7.873  72.166  1.00  0.00    -0.353 A  
HETATM   11  C   UNL     1     -11.129   7.728  72.945  1.00  0.00    -0.457 A  
HETATM   12  C   UNL     1     -10.020   7.022  72.456  1.00  0.00    -0.191 A  
HETATM   13  C   UNL     1     -10.107   6.446  71.178  1.00  0.00    -0.213 A  
BRANCH  12  14
HETATM   14  C   UNL     1      -8.707   6.887  73.223  1.00  0.00    -0.126 C  
HETATM   15  C   UNL     1      -7.806   8.116  73.022  1.00  0.00    -0.207 C  
BRANCH  14  16
HETATM   16  N   UNL     1      -8.002   5.595  73.065  1.00  0.00    -0.104 NA 
HETATM   17  C   UNL     1      -6.550   5.747  72.959  1.00  0.00    -0.069 C  
HETATM   18  C   UNL     1      -8.343   4.553  74.023  1.00  0.00    -0.103 C  
ENDBRANCH  14  16
ENDBRANCH  12  14
ENDBRANCH   7   8
ENDBRANCH   5   7
ENDBRANCH   2   3
TORSDOF 5
ENDMDL
MODEL      176
REMARK 921   NORMALIZED FREE ENERGY PREDICTED BY IDOCK:   -2.92 KCAL/MOL
REMARK 922        TOTAL FREE ENERGY PREDICTED BY IDOCK:   -4.39 KCAL/MOL
REMARK 923 INTER-LIGAND FREE ENERGY PREDICTED BY IDOCK:   -3.97 KCAL/MOL
REMARK 924 INTRA-LIGAND FREE ENERGY PREDICTED BY IDOCK:   -0.42 KCAL/MOL
REMARK 927      BINDING AFFINITY PREDICTED BY RF-SCORE:    0.00 PKD
ROOT
HETATM    1  C   UNL     1      -9.731   7.634  73.332  1.00  0.00    -0.363 C  
HETATM    2  C   UNL     1     -10.353   8.492  72.237  1.00  0.00    -0.332 C  
ENDROOT
BRANCH   2   3
HETATM    3  N   UNL     1     -11.115   7.713  71.269  1.00  0.00    -0.243 N  
HETATM    4  C   UNL     1     -12.179   6.849  71.751  1.00  0.00    -0.356 C  
HETATM    5  C   UNL     1     -10.641   7.598  69.961  1.00  0.00    -0.238 C  
HETATM    6  O   UNL     1      -9.655   8.203  69.552  1.00  0.00    -0.166 OA 
BRANCH   5   7
HETATM    7  O   UNL     1     -11.394   6.702  69.208  1.00  0.00    -0.291 OA 
BRANCH   7   8
HETATM    8  C   UNL     1     -10.720   5.639  68.587  1.00  0.00    -0.179 A  
HETATM    9  C   UNL     1     -10.096   4.698  69.400  1.00  0.00    -0.194 A  
HETATM   10  C   UNL     1      -9.330   3.691  68.813  1.00  0.00    -0.231 A  
HETATM   11  C   UNL     1      -9.176   3.639  67.421  1.00  0.00    -0.220 A  
HETATM   12  C   UNL     1      -9.777   4.603  66.598  1.00  0.00    -0.213 A  
HETATM   13  C   UNL     1     -10.553   5.605  67.202  1.00  0.00    -0.344 A  
BRANCH  12  14
HETATM   14  C   UNL     1      -9.592   4.644  65.083  1.00  0.00    -0.128 C  
HETATM   15  C   UNL     1     -10.034   3.327  64.425  1.00  0.00    -0.145 C  
BRANCH  14  16
HETATM   16  N   UNL     1      -8.280   5.139  64.610  1.00  0.00    -0.125 NA 
HETATM   17  C   UNL     1      -8.273   5.463  63.183  1.00  0.00    -0.105 C  
HETATM   18  C   UNL     1      -7.679   6.214  65.386  1.00  0.00    -0.093 C  
ENDBRANCH  14  16
ENDBRANCH  12  14
ENDBRANCH   7   8
ENDBRANCH   5   7
ENDBRANCH   2   3
TORSDOF 5
ENDMDL
MODEL      177
REMARK 921   NORMALIZED FREE ENERGY PREDICTED BY IDOCK:   -2.92 KCAL/MOL
REMARK 922        TOTAL FREE ENERGY PREDICTED BY IDOCK:   -4.39 KCAL/MOL
REMARK 923 INTER-LIGAND FREE ENERGY PREDICTED BY IDOCK:   -4.12 KCAL/MOL
REMARK 924 INTRA-LIGAND FREE ENERGY PREDICTED BY IDOCK:   -0.27 KCAL/MOL
REMARK 927      BINDING AFFINITY PREDICTED BY RF-SCORE:    0.00 PKD
ROOT
HETATM    1  C   UNL     1      -7.147   6.612  69.014  1.00  0.00    -0.089 C  
HETATM    2  C   UNL     1      -6.743   7.777  68.118  1.00  0.00    -0.067 C  
ENDROOT
BRANCH   2   3
HETATM    3  N   UNL     1      -7.876   8.594  67.704  1.00  0.00    -0.102 N  
HETATM    4  C   UNL     1      -8.675   8.159  66.572  1.00  0.00    -0.143 C  
HETATM    5  C   UNL     1      -8.005   9.889  68.212  1.00  0.00    -0.100 C  
HETATM    6  O   UNL     1      -7.258  10.348  69.070  1.00  0.00    -0.073 OA 
BRANCH   5   7
HETATM    7  O   UNL     1      -9.046  10.587  67.606  1.00  0.00    -0.141 OA 
BRANCH   7   8
HETATM    8  C   UNL     1     -10.008  11.182  68.436  1.00  0.00    -0.187 A  
HETATM    9  C   UNL     1     -10.508  10.430  69.497  1.00  0.00    -0.274 A  
HETATM   10  C   UNL     1     -11.540  10.954  70.275  1.00  0.00    -0.426 A  
HETATM   11  C   UNL     1     -12.080  12.214  69.982  1.00  0.00    -0.352 A  
HETATM   12  C   UNL     1     -11.601  12.962  68.895  1.00  0.00    -0.360 A  
HETATM   13  C   UNL     1     -10.555  12.427  68.126  1.00  0.00    -0.232 A  
BRANCH  12  14
HETATM   14  C   UNL     1     -12.190  14.308  68.481  1.00  0.00    -0.159 C  
HETATM   15  C   UNL     1     -12.019  14.559  66.974  1.00  0.00    -0.371 C  
BRANCH  14  16
HETATM   16  N   UNL     1     -11.812  15.462  69.327  1.00  0.00    -0.342 NA 
HETATM   17  C   UNL     1     -12.586  15.538  70.567  1.00  0.00    -0.416 C  
HETATM   18  C   UNL     1     -10.390  15.624  69.596  1.00  0.00    -0.286 C  
ENDBRANCH  14  16
ENDBRANCH  12  14
ENDBRANCH   7   8
ENDBRANCH   5   7
ENDBRANCH   2   3
TORSDOF 5
ENDMDL
MODEL      178
REMARK 921   NORMALIZED FREE ENERGY PREDICTED BY IDOCK:   -2.92 KCAL/MOL
REMARK 922        TOTAL FREE ENERGY PREDICTED BY IDOCK:   -4.38 KCAL/MOL
REMARK 923 INTER-LIGAND FREE ENERGY PREDICTED BY IDOCK:   -4.25 KCAL/MOL
REMARK 924 INTRA-LIGAND FREE ENERGY PREDICTED BY IDOCK:   -0.13 KCAL/MOL
REMARK 927      BINDING AFFINITY PREDICTED BY RF-SCORE:    0.00 PKD
ROOT
HETATM    1  C   UNL     1      -5.134  10.083  73.352  1.00  0.00     0.029 C  
HETATM    2  C   UNL     1      -5.493   8.795  72.620  1.00  0.00    -0.061 C  
ENDROOT
BRANCH   2   3
HETATM    3  N   UNL     1      -6.708   8.172  73.129  1.00  0.00    -0.101 N  
HETATM    4  C   UNL     1      -6.880   8.049  74.566  1.00  0.00    -0.133 C  
HETATM    5  C   UNL     1      -7.536   7.472  72.249  1.00  0.00    -0.074 C  
HETATM    6  O   UNL     1      -7.342   7.431  71.038  1.00  0.00    -0.071 OA 
BRANCH   5   7
HETATM    7  O   UNL     1      -8.566   6.812  72.913  1.00  0.00    -0.117 OA 
BRANCH   7   8
HETATM    8  C   UNL     1      -9.837   6.815  72.319  1.00  0.00    -0.155 A  
HETATM    9  C   UNL     1     -10.119   5.832  71.374  1.00  0.00    -0.249 A  
HETATM   10  C   UNL     1     -11.334   5.874  70.691  1.00  0.00    -0.206 A  
HETATM   11  C   UNL     1     -12.252   6.903  70.939  1.00  0.00    -0.404 A  
HETATM   12  C   UNL     1     -11.960   7.913  71.867  1.00  0.00    -0.347 A  
HETATM   13  C   UNL     1     -10.738   7.854  72.555  1.00  0.00    -0.391 A  
BRANCH  12  14
HETATM   14  C   UNL     1     -12.885   9.099  72.133  1.00  0.00    -0.412 C  
HETATM   15  C   UNL     1     -14.353   8.655  72.246  1.00  0.00    -0.486 C  
BRANCH  14  16
HETATM   16  N   UNL     1     -12.681  10.279  71.264  1.00  0.00    -0.384 NA 
HETATM   17  C   UNL     1     -12.942  11.545  71.951  1.00  0.00    -0.348 C  
HETATM   18  C   UNL     1     -11.419  10.336  70.541  1.00  0.00    -0.343 C  
ENDBRANCH  14  16
ENDBRANCH  12  14
ENDBRANCH   7   8
ENDBRANCH   5   7
ENDBRANCH   2   3
TORSDOF 5
ENDMDL
MODEL      179
REMARK 921   NORMALIZED FREE ENERGY PREDICTED BY IDOCK:   -2.91 KCAL/MOL
REMARK 922        TOTAL FREE ENERGY PREDICTED BY IDOCK:   -4.37 KCAL/MOL
REMARK 923 INTER-LIGAND FREE ENERGY PREDICTED BY IDOCK:   -4.00 KCAL/MOL
REMARK 924 INTRA-LIGAND FREE ENERGY PREDICTED BY IDOCK:   -0.37 KCAL/MOL
REMARK 927      BINDING AFFINITY PREDICTED BY RF-SCORE:    0.00 PKD
ROOT
HETATM    1  C   UNL     1     -10.673  18.862  67.207  1.00  0.00    -0.523 C  
HETATM    2  C   UNL     1     -10.701  17.572  68.018  1.00  0.00    -0.341 C  
ENDROOT
BRANCH   2   3
HETATM    3  N   UNL     1     -10.200  16.423  67.273  1.00  0.00    -0.273 N  
HETATM    4  C   UNL     1     -11.133  15.651  66.471  1.00  0.00    -0.135 C  
HETATM    5  C   UNL     1      -8.925  15.930  67.556  1.00  0.00    -0.194 C  
HETATM    6  O   UNL     1      -8.156  16.475  68.341  1.00  0.00    -0.179 OA 
BRANCH   5   7
HETATM    7  O   UNL     1      -8.659  14.746  66.873  1.00  0.00    -0.228 OA 
BRANCH   7   8
HETATM    8  C   UNL     1      -8.498  13.575  67.630  1.00  0.00    -0.184 A  
HETATM    9  C   UNL     1      -7.226  13.282  68.116  1.00  0.00    -0.112 A  
HETATM   10  C   UNL     1      -7.014  12.074  68.780  1.00  0.00    -0.101 A  
HETATM   11  C   UNL     1      -8.062  11.159  68.940  1.00  0.00    -0.115 A  
HETATM   12  C   UNL     1      -9.338  11.435  68.425  1.00  0.00    -0.194 A  
HETATM   13  C   UNL     1      -9.541  12.659  67.767  1.00  0.00    -0.197 A  
BRANCH  12  14
HETATM   14  C   UNL     1     -10.504  10.453  68.504  1.00  0.00    -0.186 C  
HETATM   15  C   UNL     1     -11.401  10.738  69.719  1.00  0.00    -0.372 C  
BRANCH  14  16
HETATM   16  N   UNL     1     -10.151   9.024  68.342  1.00  0.00    -0.184 NA 
HETATM   17  C   UNL     1     -10.507   8.213  69.507  1.00  0.00    -0.227 C  
HETATM   18  C   UNL     1     -10.600   8.385  67.113  1.00  0.00    -0.256 C  
ENDBRANCH  14  16
ENDBRANCH  12  14
ENDBRANCH   7   8
ENDBRANCH   5   7
ENDBRANCH   2   3
TORSDOF 5
ENDMDL
MODEL      180
REMARK 921   NORMALIZED FREE ENERGY PREDICTED BY IDOCK:   -2.90 KCAL/MOL
REMARK 922        TOTAL FREE ENERGY PREDICTED BY IDOCK:   -4.36 KCAL/MOL
REMARK 923 INTER-LIGAND FREE ENERGY PREDICTED BY IDOCK:   -4.35 KCAL/MOL
REMARK 924 INTRA-LIGAND FREE ENERGY PREDICTED BY IDOCK:   -0.01 KCAL/MOL
REMARK 927      BINDING AFFINITY PREDICTED BY RF-SCORE:    0.00 PKD
ROOT
HETATM    1  C   UNL     1      -7.452   7.329  66.471  1.00  0.00    -0.088 C  
HETATM    2  C   UNL     1      -7.314   8.839  66.624  1.00  0.00    -0.082 C  
ENDROOT
BRANCH   2   3
HETATM    3  N   UNL     1      -8.521   9.470  67.143  1.00  0.00    -0.130 N  
HETATM    4  C   UNL     1      -8.913   9.201  68.516  1.00  0.00    -0.133 C  
HETATM    5  C   UNL     1      -9.408  10.081  66.255  1.00  0.00    -0.168 C  
HETATM    6  O   UNL     1      -9.177  10.200  65.056  1.00  0.00    -0.180 OA 
BRANCH   5   7
HETATM    7  O   UNL     1     -10.577  10.497  66.886  1.00  0.00    -0.248 OA 
BRANCH   7   8
HETATM    8  C   UNL     1     -10.606  11.792  67.426  1.00  0.00    -0.224 A  
HETATM    9  C   UNL     1     -11.576  12.078  68.384  1.00  0.00    -0.368 A  
HETATM   10  C   UNL     1     -11.697  13.383  68.861  1.00  0.00    -0.369 A  
HETATM   11  C   UNL     1     -10.865  14.398  68.368  1.00  0.00    -0.256 A  
HETATM   12  C   UNL     1      -9.908  14.122  67.380  1.00  0.00    -0.239 A  
HETATM   13  C   UNL     1      -9.790  12.801  66.916  1.00  0.00    -0.236 A  
BRANCH  12  14
HETATM   14  C   UNL     1      -9.019  15.192  66.753  1.00  0.00    -0.264 C  
HETATM   15  C   UNL     1      -8.173  15.916  67.812  1.00  0.00    -0.157 C  
BRANCH  14  16
HETATM   16  N   UNL     1      -9.690  16.103  65.797  1.00  0.00    -0.435 NA 
HETATM   17  C   UNL     1     -10.692  15.427  64.973  1.00  0.00    -0.438 C  
HETATM   18  C   UNL     1     -10.226  17.337  66.352  1.00  0.00    -0.331 C  
ENDBRANCH  14  16
ENDBRANCH  12  14
ENDBRANCH   7   8
ENDBRANCH   5   7
ENDBRANCH   2   3
TORSDOF 5
ENDMDL
MODEL      181
REMARK 921   NORMALIZED FREE ENERGY PREDICTED BY IDOCK:   -2.90 KCAL/MOL
REMARK 922        TOTAL FREE ENERGY PREDICTED BY IDOCK:   -4.36 KCAL/MOL
REMARK 923 INTER-LIGAND FREE ENERGY PREDICTED BY IDOCK:   -4.00 KCAL/MOL
REMARK 924 INTRA-LIGAND FREE ENERGY PREDICTED BY IDOCK:   -0.36 KCAL/MOL
REMARK 927      BINDING AFFINITY PREDICTED BY RF-SCORE:    0.00 PKD
ROOT
HETATM    1  C   UNL     1     -10.526  17.422  65.883  1.00  0.00    -0.256 C  
HETATM    2  C   UNL     1     -10.151  17.343  67.358  1.00  0.00    -0.321 C  
ENDROOT
BRANCH   2   3
HETATM    3  N   UNL     1      -9.466  16.104  67.704  1.00  0.00    -0.219 N  
HETATM    4  C   UNL     1      -8.105  15.904  67.237  1.00  0.00    -0.184 C  
HETATM    5  C   UNL     1     -10.204  15.040  68.226  1.00  0.00    -0.222 C  
HETATM    6  O   UNL     1     -11.397  15.124  68.500  1.00  0.00    -0.278 OA 
BRANCH   5   7
HETATM    7  O   UNL     1      -9.436  13.885  68.358  1.00  0.00    -0.213 OA 
BRANCH   7   8
HETATM    8  C   UNL     1      -9.821  12.754  67.622  1.00  0.00    -0.214 A  
HETATM    9  C   UNL     1     -10.130  12.926  66.275  1.00  0.00    -0.281 A  
HETATM   10  C   UNL     1     -10.617  11.842  65.545  1.00  0.00    -0.323 A  
HETATM   11  C   UNL     1     -10.811  10.600  66.164  1.00  0.00    -0.069 A  
HETATM   12  C   UNL     1     -10.532  10.429  67.529  1.00  0.00    -0.292 A  
HETATM   13  C   UNL     1     -10.033  11.526  68.250  1.00  0.00    -0.205 A  
BRANCH  12  14
HETATM   14  C   UNL     1     -10.786   9.124  68.279  1.00  0.00    -0.122 C  
HETATM   15  C   UNL     1     -11.018   9.371  69.778  1.00  0.00    -0.234 C  
BRANCH  14  16
HETATM   16  N   UNL     1      -9.836   8.025  67.993  1.00  0.00    -0.161 NA 
HETATM   17  C   UNL     1     -10.317   7.113  66.954  1.00  0.00    -0.279 C  
HETATM   18  C   UNL     1      -8.457   8.415  67.739  1.00  0.00    -0.131 C  
ENDBRANCH  14  16
ENDBRANCH  12  14
ENDBRANCH   7   8
ENDBRANCH   5   7
ENDBRANCH   2   3
TORSDOF 5
ENDMDL
MODEL      182
REMARK 921   NORMALIZED FREE ENERGY PREDICTED BY IDOCK:   -2.89 KCAL/MOL
REMARK 922        TOTAL FREE ENERGY PREDICTED BY IDOCK:   -4.34 KCAL/MOL
REMARK 923 INTER-LIGAND FREE ENERGY PREDICTED BY IDOCK:   -4.58 KCAL/MOL
REMARK 924 INTRA-LIGAND FREE ENERGY PREDICTED BY IDOCK:    0.23 KCAL/MOL
REMARK 927      BINDING AFFINITY PREDICTED BY RF-SCORE:    0.00 PKD
ROOT
HETATM    1  C   UNL     1     -10.546   7.762  67.058  1.00  0.00    -0.396 C  
HETATM    2  C   UNL     1     -10.168   9.143  67.581  1.00  0.00    -0.236 C  
ENDROOT
BRANCH   2   3
HETATM    3  N   UNL     1     -10.515  10.215  66.656  1.00  0.00    -0.212 N  
HETATM    4  C   UNL     1      -9.944  10.197  65.321  1.00  0.00    -0.311 C  
HETATM    5  C   UNL     1     -11.150  11.358  67.145  1.00  0.00    -0.305 C  
HETATM    6  O   UNL     1     -11.521  11.471  68.309  1.00  0.00    -0.250 OA 
BRANCH   5   7
HETATM    7  O   UNL     1     -11.273  12.345  66.171  1.00  0.00    -0.291 OA 
BRANCH   7   8
HETATM    8  C   UNL     1     -10.485  13.499  66.303  1.00  0.00    -0.290 A  
HETATM    9  C   UNL     1     -10.868  14.636  65.596  1.00  0.00    -0.335 A  
HETATM   10  C   UNL     1     -10.048  15.763  65.624  1.00  0.00    -0.401 A  
HETATM   11  C   UNL     1      -8.843  15.745  66.340  1.00  0.00    -0.371 A  
HETATM   12  C   UNL     1      -8.436  14.592  67.027  1.00  0.00    -0.237 A  
HETATM   13  C   UNL     1      -9.277  13.467  66.999  1.00  0.00    -0.248 A  
BRANCH  12  14
HETATM   14  C   UNL     1      -7.105  14.484  67.767  1.00  0.00    -0.175 C  
HETATM   15  C   UNL     1      -6.668  13.019  67.931  1.00  0.00    -0.129 C  
BRANCH  14  16
HETATM   16  N   UNL     1      -6.993  15.285  69.007  1.00  0.00    -0.125 NA 
HETATM   17  C   UNL     1      -8.121  16.198  69.199  1.00  0.00    -0.230 C  
HETATM   18  C   UNL     1      -6.716  14.544  70.229  1.00  0.00    -0.035 C  
ENDBRANCH  14  16
ENDBRANCH  12  14
ENDBRANCH   7   8
ENDBRANCH   5   7
ENDBRANCH   2   3
TORSDOF 5
ENDMDL
MODEL      183
REMARK 921   NORMALIZED FREE ENERGY PREDICTED BY IDOCK:   -2.89 KCAL/MOL
REMARK 922        TOTAL FREE ENERGY PREDICTED BY IDOCK:   -4.34 KCAL/MOL
REMARK 923 INTER-LIGAND FREE ENERGY PREDICTED BY IDOCK:   -3.98 KCAL/MOL
REMARK 924 INTRA-LIGAND FREE ENERGY PREDICTED BY IDOCK:   -0.36 KCAL/MOL
REMARK 927      BINDING AFFINITY PREDICTED BY RF-SCORE:    0.00 PKD
ROOT
HETATM    1  C   UNL     1     -12.406  13.618  65.673  1.00  0.00    -0.518 C  
HETATM    2  C   UNL     1     -11.892  13.897  67.080  1.00  0.00    -0.412 C  
ENDROOT
BRANCH   2   3
HETATM    3  N   UNL     1     -10.657  13.185  67.385  1.00  0.00    -0.241 N  
HETATM    4  C   UNL     1      -9.561  13.252  66.434  1.00  0.00    -0.254 C  
HETATM    5  C   UNL     1     -10.646  12.250  68.421  1.00  0.00    -0.235 C  
HETATM    6  O   UNL     1     -11.607  12.060  69.160  1.00  0.00    -0.264 OA 
BRANCH   5   7
HETATM    7  O   UNL     1      -9.443  11.552  68.483  1.00  0.00    -0.185 OA 
BRANCH   7   8
HETATM    8  C   UNL     1      -9.501  10.159  68.646  1.00  0.00    -0.164 A  
HETATM    9  C   UNL     1      -9.284   9.642  69.921  1.00  0.00    -0.255 A  
HETATM   10  C   UNL     1      -9.230   8.259  70.094  1.00  0.00    -0.155 A  
HETATM   11  C   UNL     1      -9.374   7.401  68.996  1.00  0.00    -0.145 A  
HETATM   12  C   UNL     1      -9.561   7.917  67.705  1.00  0.00    -0.183 A  
HETATM   13  C   UNL     1      -9.623   9.311  67.546  1.00  0.00    -0.184 A  
BRANCH  12  14
HETATM   14  C   UNL     1      -9.656   7.041  66.458  1.00  0.00    -0.144 C  
HETATM   15  C   UNL     1     -10.424   5.740  66.739  1.00  0.00    -0.350 C  
BRANCH  14  16
HETATM   16  N   UNL     1      -8.389   6.841  65.717  1.00  0.00    -0.139 NA 
HETATM   17  C   UNL     1      -8.178   7.840  64.669  1.00  0.00    -0.076 C  
HETATM   18  C   UNL     1      -7.189   6.680  66.526  1.00  0.00    -0.073 C  
ENDBRANCH  14  16
ENDBRANCH  12  14
ENDBRANCH   7   8
ENDBRANCH   5   7
ENDBRANCH   2   3
TORSDOF 5
ENDMDL
MODEL      184
REMARK 921   NORMALIZED FREE ENERGY PREDICTED BY IDOCK:   -2.86 KCAL/MOL
REMARK 922        TOTAL FREE ENERGY PREDICTED BY IDOCK:   -4.31 KCAL/MOL
REMARK 923 INTER-LIGAND FREE ENERGY PREDICTED BY IDOCK:   -4.57 KCAL/MOL
REMARK 924 INTRA-LIGAND FREE ENERGY PREDICTED BY IDOCK:    0.26 KCAL/MOL
REMARK 927      BINDING AFFINITY PREDICTED BY RF-SCORE:    0.00 PKD
ROOT
HETATM    1  C   UNL     1     -12.561  10.288  71.323  1.00  0.00    -0.522 C  
HETATM    2  C   UNL     1     -11.111  10.184  70.866  1.00  0.00    -0.253 C  
ENDROOT
BRANCH   2   3
HETATM    3  N   UNL     1     -10.984   9.829  69.458  1.00  0.00    -0.236 N  
HETATM    4  C   UNL     1     -11.748  10.580  68.477  1.00  0.00    -0.049 C  
HETATM    5  C   UNL     1     -10.365   8.627  69.111  1.00  0.00    -0.217 C  
HETATM    6  O   UNL     1      -9.831   7.888  69.932  1.00  0.00    -0.179 OA 
BRANCH   5   7
HETATM    7  O   UNL     1     -10.461   8.363  67.746  1.00  0.00    -0.236 OA 
BRANCH   7   8
HETATM    8  C   UNL     1      -9.584   9.040  66.885  1.00  0.00    -0.185 A  
HETATM    9  C   UNL     1      -8.300   9.318  67.347  1.00  0.00    -0.122 A  
HETATM   10  C   UNL     1      -7.442  10.081  66.555  1.00  0.00    -0.105 A  
HETATM   11  C   UNL     1      -7.874  10.578  65.318  1.00  0.00    -0.100 A  
HETATM   12  C   UNL     1      -9.177  10.329  64.862  1.00  0.00    -0.273 A  
HETATM   13  C   UNL     1     -10.027   9.551  65.665  1.00  0.00    -0.269 A  
BRANCH  12  14
HETATM   14  C   UNL     1      -9.732  10.898  63.559  1.00  0.00    -0.342 C  
HETATM   15  C   UNL     1      -8.652  10.964  62.467  1.00  0.00    -0.313 C  
BRANCH  14  16
HETATM   16  N   UNL     1     -10.529  12.139  63.689  1.00  0.00    -0.432 NA 
HETATM   17  C   UNL     1     -11.955  11.930  63.435  1.00  0.00    -0.425 C  
HETATM   18  C   UNL     1     -10.329  12.907  64.910  1.00  0.00    -0.308 C  
ENDBRANCH  14  16
ENDBRANCH  12  14
ENDBRANCH   7   8
ENDBRANCH   5   7
ENDBRANCH   2   3
TORSDOF 5
ENDMDL
MODEL      185
REMARK 921   NORMALIZED FREE ENERGY PREDICTED BY IDOCK:   -2.84 KCAL/MOL
REMARK 922        TOTAL FREE ENERGY PREDICTED BY IDOCK:   -4.28 KCAL/MOL
REMARK 923 INTER-LIGAND FREE ENERGY PREDICTED BY IDOCK:   -4.21 KCAL/MOL
REMARK 924 INTRA-LIGAND FREE ENERGY PREDICTED BY IDOCK:   -0.07 KCAL/MOL
REMARK 927      BINDING AFFINITY PREDICTED BY RF-SCORE:    0.00 PKD
ROOT
HETATM    1  C   UNL     1     -10.942   6.938  72.956  1.00  0.00    -0.308 C  
HETATM    2  C   UNL     1     -10.147   8.217  72.719  1.00  0.00    -0.297 C  
ENDROOT
BRANCH   2   3
HETATM    3  N   UNL     1     -10.639   8.990  71.585  1.00  0.00    -0.343 N  
HETATM    4  C   UNL     1     -11.878   9.734  71.733  1.00  0.00    -0.262 C  
HETATM    5  C   UNL     1     -10.077   8.784  70.324  1.00  0.00    -0.191 C  
HETATM    6  O   UNL     1      -9.115   8.047  70.133  1.00  0.00    -0.149 OA 
BRANCH   5   7
HETATM    7  O   UNL     1     -10.757   9.482  69.328  1.00  0.00    -0.225 OA 
BRANCH   7   8
HETATM    8  C   UNL     1     -10.050  10.461  68.614  1.00  0.00    -0.176 A  
HETATM    9  C   UNL     1      -8.841  10.095  68.026  1.00  0.00    -0.125 A  
HETATM   10  C   UNL     1      -8.066  11.071  67.402  1.00  0.00    -0.122 A  
HETATM   11  C   UNL     1      -8.488  12.407  67.382  1.00  0.00    -0.179 A  
HETATM   12  C   UNL     1      -9.689  12.787  68.000  1.00  0.00    -0.220 A  
HETATM   13  C   UNL     1     -10.465  11.792  68.617  1.00  0.00    -0.242 A  
BRANCH  12  14
HETATM   14  C   UNL     1     -10.172  14.233  68.074  1.00  0.00    -0.226 C  
HETATM   15  C   UNL     1     -11.537  14.408  67.390  1.00  0.00    -0.398 C  
BRANCH  14  16
HETATM   16  N   UNL     1      -9.176  15.262  67.696  1.00  0.00    -0.186 NA 
HETATM   17  C   UNL     1      -9.315  15.707  66.309  1.00  0.00    -0.323 C  
HETATM   18  C   UNL     1      -9.056  16.401  68.594  1.00  0.00    -0.233 C  
ENDBRANCH  14  16
ENDBRANCH  12  14
ENDBRANCH   7   8
ENDBRANCH   5   7
ENDBRANCH   2   3
TORSDOF 5
ENDMDL
MODEL      186
REMARK 921   NORMALIZED FREE ENERGY PREDICTED BY IDOCK:   -2.82 KCAL/MOL
REMARK 922        TOTAL FREE ENERGY PREDICTED BY IDOCK:   -4.26 KCAL/MOL
REMARK 923 INTER-LIGAND FREE ENERGY PREDICTED BY IDOCK:   -4.31 KCAL/MOL
REMARK 924 INTRA-LIGAND FREE ENERGY PREDICTED BY IDOCK:    0.06 KCAL/MOL
REMARK 927      BINDING AFFINITY PREDICTED BY RF-SCORE:    0.00 PKD
ROOT
HETATM    1  C   UNL     1     -11.336   7.837  72.719  1.00  0.00    -0.446 C  
HETATM    2  C   UNL     1     -12.117   8.145  71.448  1.00  0.00    -0.297 C  
ENDROOT
BRANCH   2   3
HETATM    3  N   UNL     1     -11.259   8.317  70.282  1.00  0.00    -0.222 N  
HETATM    4  C   UNL     1     -10.601   7.149  69.721  1.00  0.00    -0.234 C  
HETATM    5  C   UNL     1     -10.871   9.604  69.904  1.00  0.00    -0.256 C  
HETATM    6  O   UNL     1     -11.295  10.617  70.450  1.00  0.00    -0.307 OA 
BRANCH   5   7
HETATM    7  O   UNL     1      -9.935   9.587  68.873  1.00  0.00    -0.168 OA 
BRANCH   7   8
HETATM    8  C   UNL     1      -9.276  10.787  68.567  1.00  0.00    -0.174 A  
HETATM    9  C   UNL     1      -7.937  10.908  68.932  1.00  0.00    -0.146 A  
HETATM   10  C   UNL     1      -7.286  12.125  68.737  1.00  0.00    -0.103 A  
HETATM   11  C   UNL     1      -7.975  13.219  68.197  1.00  0.00    -0.150 A  
HETATM   12  C   UNL     1      -9.331  13.113  67.856  1.00  0.00    -0.215 A  
HETATM   13  C   UNL     1      -9.973  11.878  68.049  1.00  0.00    -0.192 A  
BRANCH  12  14
HETATM   14  C   UNL     1     -10.157  14.284  67.330  1.00  0.00    -0.252 C  
HETATM   15  C   UNL     1      -9.313  15.218  66.448  1.00  0.00    -0.328 C  
BRANCH  14  16
HETATM   16  N   UNL     1     -10.981  14.992  68.336  1.00  0.00    -0.254 NA 
HETATM   17  C   UNL     1     -12.144  14.216  68.769  1.00  0.00    -0.291 C  
HETATM   18  C   UNL     1     -10.269  15.537  69.483  1.00  0.00    -0.279 C  
ENDBRANCH  14  16
ENDBRANCH  12  14
ENDBRANCH   7   8
ENDBRANCH   5   7
ENDBRANCH   2   3
TORSDOF 5
ENDMDL
MODEL      187
REMARK 921   NORMALIZED FREE ENERGY PREDICTED BY IDOCK:   -2.80 KCAL/MOL
REMARK 922        TOTAL FREE ENERGY PREDICTED BY IDOCK:   -4.23 KCAL/MOL
REMARK 923 INTER-LIGAND FREE ENERGY PREDICTED BY IDOCK:   -4.03 KCAL/MOL
REMARK 924 INTRA-LIGAND FREE ENERGY PREDICTED BY IDOCK:   -0.20 KCAL/MOL
REMARK 927      BINDING AFFINITY PREDICTED BY RF-SCORE:    0.00 PKD
ROOT
HETATM    1  C   UNL     1     -11.878  15.678  68.774  1.00  0.00    -0.336 C  
HETATM    2  C   UNL     1     -11.170  14.449  68.216  1.00  0.00    -0.275 C  
ENDROOT
BRANCH   2   3
HETATM    3  N   UNL     1     -11.687  13.200  68.762  1.00  0.00    -0.304 N  
HETATM    4  C   UNL     1     -12.138  13.175  70.142  1.00  0.00    -0.321 C  
HETATM    5  C   UNL     1     -11.486  12.012  68.056  1.00  0.00    -0.328 C  
HETATM    6  O   UNL     1     -10.973  11.975  66.942  1.00  0.00    -0.253 OA 
BRANCH   5   7
HETATM    7  O   UNL     1     -11.900  10.897  68.780  1.00  0.00    -0.368 OA 
BRANCH   7   8
HETATM    8  C   UNL     1     -10.912  10.030  69.271  1.00  0.00    -0.228 A  
HETATM    9  C   UNL     1      -9.658  10.565  69.557  1.00  0.00    -0.125 A  
HETATM   10  C   UNL     1      -8.626   9.711  69.945  1.00  0.00    -0.218 A  
HETATM   11  C   UNL     1      -8.843   8.329  70.028  1.00  0.00    -0.134 A  
HETATM   12  C   UNL     1     -10.095   7.781  69.711  1.00  0.00    -0.194 A  
HETATM   13  C   UNL     1     -11.128   8.653  69.331  1.00  0.00     0.068 A  
BRANCH  12  14
HETATM   14  C   UNL     1     -10.378   6.281  69.714  1.00  0.00    -0.207 C  
HETATM   15  C   UNL     1     -10.204   5.676  71.116  1.00  0.00    -0.280 C  
BRANCH  14  16
HETATM   16  N   UNL     1      -9.720   5.502  68.640  1.00  0.00    -0.134 NA 
HETATM   17  C   UNL     1      -9.393   4.134  69.046  1.00  0.00    -0.165 C  
HETATM   18  C   UNL     1     -10.379   5.511  67.342  1.00  0.00    -0.225 C  
ENDBRANCH  14  16
ENDBRANCH  12  14
ENDBRANCH   7   8
ENDBRANCH   5   7
ENDBRANCH   2   3
TORSDOF 5
ENDMDL
MODEL      188
REMARK 921   NORMALIZED FREE ENERGY PREDICTED BY IDOCK:   -2.80 KCAL/MOL
REMARK 922        TOTAL FREE ENERGY PREDICTED BY IDOCK:   -4.22 KCAL/MOL
REMARK 923 INTER-LIGAND FREE ENERGY PREDICTED BY IDOCK:   -4.24 KCAL/MOL
REMARK 924 INTRA-LIGAND FREE ENERGY PREDICTED BY IDOCK:    0.02 KCAL/MOL
REMARK 927      BINDING AFFINITY PREDICTED BY RF-SCORE:    0.00 PKD
ROOT
HETATM    1  C   UNL     1     -10.344   8.923  67.118  1.00  0.00    -0.351 C  
HETATM    2  C   UNL     1      -9.345   9.803  67.860  1.00  0.00    -0.127 C  
ENDROOT
BRANCH   2   3
HETATM    3  N   UNL     1      -9.196  11.123  67.261  1.00  0.00    -0.160 N  
HETATM    4  C   UNL     1      -9.989  11.451  66.089  1.00  0.00    -0.227 C  
HETATM    5  C   UNL     1      -8.121  11.928  67.643  1.00  0.00    -0.148 C  
HETATM    6  O   UNL     1      -7.338  11.619  68.535  1.00  0.00    -0.088 OA 
BRANCH   5   7
HETATM    7  O   UNL     1      -8.034  13.085  66.872  1.00  0.00    -0.057 OA 
BRANCH   7   8
HETATM    8  C   UNL     1      -8.578  14.266  67.399  1.00  0.00    -0.213 A  
HETATM    9  C   UNL     1      -8.670  14.382  68.783  1.00  0.00    -0.129 A  
HETATM   10  C   UNL     1      -9.303  15.497  69.333  1.00  0.00    -0.279 A  
HETATM   11  C   UNL     1      -9.855  16.480  68.501  1.00  0.00    -0.243 A  
HETATM   12  C   UNL     1      -9.794  16.353  67.105  1.00  0.00    -0.249 A  
HETATM   13  C   UNL     1      -9.145  15.230  66.565  1.00  0.00    -0.334 A  
BRANCH  12  14
HETATM   14  C   UNL     1     -10.435  17.351  66.144  1.00  0.00    -0.284 C  
HETATM   15  C   UNL     1     -10.801  16.690  64.805  1.00  0.00    -0.076 C  
BRANCH  14  16
HETATM   16  N   UNL     1      -9.732  18.646  66.001  1.00  0.00    -0.507 NA 
HETATM   17  C   UNL     1     -10.440  19.754  66.643  1.00  0.00    -0.497 C  
HETATM   18  C   UNL     1      -8.322  18.656  66.362  1.00  0.00    -0.276 C  
ENDBRANCH  14  16
ENDBRANCH  12  14
ENDBRANCH   7   8
ENDBRANCH   5   7
ENDBRANCH   2   3
TORSDOF 5
ENDMDL
MODEL      189
REMARK 921   NORMALIZED FREE ENERGY PREDICTED BY IDOCK:   -2.79 KCAL/MOL
REMARK 922        TOTAL FREE ENERGY PREDICTED BY IDOCK:   -4.21 KCAL/MOL
REMARK 923 INTER-LIGAND FREE ENERGY PREDICTED BY IDOCK:   -4.08 KCAL/MOL
REMARK 924 INTRA-LIGAND FREE ENERGY PREDICTED BY IDOCK:   -0.13 KCAL/MOL
REMARK 927      BINDING AFFINITY PREDICTED BY RF-SCORE:    0.00 PKD
ROOT
HETATM    1  C   UNL     1      -8.247  11.575  66.346  1.00  0.00    -0.092 C  
HETATM    2  C   UNL     1      -8.898  11.789  67.707  1.00  0.00    -0.163 C  
ENDROOT
BRANCH   2   3
HETATM    3  N   UNL     1      -9.073  10.550  68.454  1.00  0.00    -0.142 N  
HETATM    4  C   UNL     1      -7.947  10.023  69.206  1.00  0.00    -0.130 C  
HETATM    5  C   UNL     1     -10.202   9.764  68.216  1.00  0.00    -0.183 C  
HETATM    6  O   UNL     1     -11.113  10.110  67.471  1.00  0.00    -0.298 OA 
BRANCH   5   7
HETATM    7  O   UNL     1     -10.144   8.547  68.891  1.00  0.00    -0.192 OA 
BRANCH   7   8
HETATM    8  C   UNL     1     -10.800   8.452  70.128  1.00  0.00    -0.236 A  
HETATM    9  C   UNL     1     -11.785   9.393  70.419  1.00  0.00    -0.195 A  
HETATM   10  C   UNL     1     -12.379   9.388  71.680  1.00  0.00    -0.465 A  
HETATM   11  C   UNL     1     -11.978   8.459  72.649  1.00  0.00    -0.346 A  
HETATM   12  C   UNL     1     -10.965   7.529  72.373  1.00  0.00    -0.333 A  
HETATM   13  C   UNL     1     -10.381   7.539  71.095  1.00  0.00    -0.208 A  
BRANCH  12  14
HETATM   14  C   UNL     1     -10.433   6.538  73.405  1.00  0.00    -0.274 C  
HETATM   15  C   UNL     1      -9.166   7.066  74.095  1.00  0.00    -0.267 C  
BRANCH  14  16
HETATM   16  N   UNL     1     -10.326   5.133  72.949  1.00  0.00    -0.186 NA 
HETATM   17  C   UNL     1      -8.957   4.619  73.002  1.00  0.00    -0.117 C  
HETATM   18  C   UNL     1     -11.255   4.188  73.551  1.00  0.00    -0.250 C  
ENDBRANCH  14  16
ENDBRANCH  12  14
ENDBRANCH   7   8
ENDBRANCH   5   7
ENDBRANCH   2   3
TORSDOF 5
ENDMDL
MODEL      190
REMARK 921   NORMALIZED FREE ENERGY PREDICTED BY IDOCK:   -2.77 KCAL/MOL
REMARK 922        TOTAL FREE ENERGY PREDICTED BY IDOCK:   -4.19 KCAL/MOL
REMARK 923 INTER-LIGAND FREE ENERGY PREDICTED BY IDOCK:   -3.95 KCAL/MOL
REMARK 924 INTRA-LIGAND FREE ENERGY PREDICTED BY IDOCK:   -0.24 KCAL/MOL
REMARK 927      BINDING AFFINITY PREDICTED BY RF-SCORE:    0.00 PKD
ROOT
HETATM    1  C   UNL     1      -8.304   9.301  62.673  1.00  0.00    -0.185 C  
HETATM    2  C   UNL     1      -8.189  10.023  64.010  1.00  0.00    -0.156 C  
ENDROOT
BRANCH   2   3
HETATM    3  N   UNL     1      -8.319   9.127  65.152  1.00  0.00    -0.144 N  
HETATM    4  C   UNL     1      -7.353   8.054  65.310  1.00  0.00    -0.070 C  
HETATM    5  C   UNL     1      -9.497   9.142  65.901  1.00  0.00    -0.259 C  
HETATM    6  O   UNL     1     -10.404   9.944  65.704  1.00  0.00    -0.220 OA 
BRANCH   5   7
HETATM    7  O   UNL     1      -9.523   8.128  66.855  1.00  0.00    -0.165 OA 
BRANCH   7   8
HETATM    8  C   UNL     1      -9.913   8.466  68.160  1.00  0.00    -0.191 A  
HETATM    9  C   UNL     1      -9.506   9.699  68.665  1.00  0.00    -0.147 A  
HETATM   10  C   UNL     1      -9.787  10.017  69.993  1.00  0.00    -0.247 A  
HETATM   11  C   UNL     1     -10.456   9.101  70.815  1.00  0.00    -0.322 A  
HETATM   12  C   UNL     1     -10.841   7.845  70.322  1.00  0.00    -0.241 A  
HETATM   13  C   UNL     1     -10.560   7.541  68.979  1.00  0.00    -0.190 A  
BRANCH  12  14
HETATM   14  C   UNL     1     -11.510   6.776  71.182  1.00  0.00    -0.314 C  
HETATM   15  C   UNL     1     -12.901   7.224  71.659  1.00  0.00    -0.415 C  
BRANCH  14  16
HETATM   16  N   UNL     1     -10.668   6.194  72.252  1.00  0.00    -0.220 NA 
HETATM   17  C   UNL     1     -11.365   5.173  73.034  1.00  0.00    -0.309 C  
HETATM   18  C   UNL     1      -9.350   5.725  71.850  1.00  0.00    -0.151 C  
ENDBRANCH  14  16
ENDBRANCH  12  14
ENDBRANCH   7   8
ENDBRANCH   5   7
ENDBRANCH   2   3
TORSDOF 5
ENDMDL
MODEL      191
REMARK 921   NORMALIZED FREE ENERGY PREDICTED BY IDOCK:   -2.72 KCAL/MOL
REMARK 922        TOTAL FREE ENERGY PREDICTED BY IDOCK:   -4.12 KCAL/MOL
REMARK 923 INTER-LIGAND FREE ENERGY PREDICTED BY IDOCK:   -3.88 KCAL/MOL
REMARK 924 INTRA-LIGAND FREE ENERGY PREDICTED BY IDOCK:   -0.24 KCAL/MOL
REMARK 927      BINDING AFFINITY PREDICTED BY RF-SCORE:    0.00 PKD
ROOT
HETATM    1  C   UNL     1     -10.221  17.150  65.606  1.00  0.00    -0.162 C  
HETATM    2  C   UNL     1     -10.508  17.492  67.063  1.00  0.00    -0.293 C  
ENDROOT
BRANCH   2   3
HETATM    3  N   UNL     1      -9.970  16.508  67.994  1.00  0.00    -0.239 N  
HETATM    4  C   UNL     1      -8.558  16.175  67.919  1.00  0.00    -0.168 C  
HETATM    5  C   UNL     1     -10.850  15.718  68.735  1.00  0.00    -0.274 C  
HETATM    6  O   UNL     1     -12.067  15.873  68.714  1.00  0.00    -0.297 OA 
BRANCH   5   7
HETATM    7  O   UNL     1     -10.186  14.729  69.456  1.00  0.00    -0.175 OA 
BRANCH   7   8
HETATM    8  C   UNL     1     -10.481  13.390  69.159  1.00  0.00     0.064 A  
HETATM    9  C   UNL     1     -11.575  12.807  69.793  1.00  0.00    -0.288 A  
HETATM   10  C   UNL     1     -11.830  11.450  69.599  1.00  0.00    -0.431 A  
HETATM   11  C   UNL     1     -10.985  10.678  68.790  1.00  0.00    -0.292 A  
HETATM   12  C   UNL     1      -9.863  11.253  68.174  1.00  0.00    -0.190 A  
HETATM   13  C   UNL     1      -9.624  12.623  68.370  1.00  0.00    -0.173 A  
BRANCH  12  14
HETATM   14  C   UNL     1      -8.865  10.456  67.339  1.00  0.00    -0.132 C  
HETATM   15  C   UNL     1      -7.580  11.257  67.077  1.00  0.00    -0.143 C  
BRANCH  14  16
HETATM   16  N   UNL     1      -9.419   9.800  66.132  1.00  0.00    -0.188 NA 
HETATM   17  C   UNL     1     -10.019   8.496  66.417  1.00  0.00    -0.244 C  
HETATM   18  C   UNL     1     -10.307  10.609  65.310  1.00  0.00    -0.251 C  
ENDBRANCH  14  16
ENDBRANCH  12  14
ENDBRANCH   7   8
ENDBRANCH   5   7
ENDBRANCH   2   3
TORSDOF 5
ENDMDL
MODEL      192
REMARK 921   NORMALIZED FREE ENERGY PREDICTED BY IDOCK:   -2.71 KCAL/MOL
REMARK 922        TOTAL FREE ENERGY PREDICTED BY IDOCK:   -4.11 KCAL/MOL
REMARK 923 INTER-LIGAND FREE ENERGY PREDICTED BY IDOCK:   -4.02 KCAL/MOL
REMARK 924 INTRA-LIGAND FREE ENERGY PREDICTED BY IDOCK:   -0.09 KCAL/MOL
REMARK 927      BINDING AFFINITY PREDICTED BY RF-SCORE:    0.00 PKD
ROOT
HETATM    1  C   UNL     1     -14.378   8.101  71.994  1.00  0.00    -0.524 C  
HETATM    2  C   UNL     1     -12.885   7.805  71.935  1.00  0.00    -0.292 C  
ENDROOT
BRANCH   2   3
HETATM    3  N   UNL     1     -12.092   8.962  71.536  1.00  0.00    -0.312 N  
HETATM    4  C   UNL     1     -12.677  10.286  71.663  1.00  0.00    -0.456 C  
HETATM    5  C   UNL     1     -10.923   8.766  70.799  1.00  0.00    -0.247 C  
HETATM    6  O   UNL     1     -10.471   7.655  70.545  1.00  0.00    -0.214 OA 
BRANCH   5   7
HETATM    7  O   UNL     1     -10.369   9.969  70.368  1.00  0.00    -0.282 OA 
BRANCH   7   8
HETATM    8  C   UNL     1      -9.316   9.912  69.443  1.00  0.00    -0.214 A  
HETATM    9  C   UNL     1      -8.014  10.002  69.929  1.00  0.00    -0.184 A  
HETATM   10  C   UNL     1      -6.952  10.054  69.026  1.00  0.00    -0.056 A  
HETATM   11  C   UNL     1      -7.194  10.034  67.646  1.00  0.00    -0.088 A  
HETATM   12  C   UNL     1      -8.505   9.975  67.150  1.00  0.00    -0.125 A  
HETATM   13  C   UNL     1      -9.564   9.913  68.070  1.00  0.00    -0.155 A  
BRANCH  12  14
HETATM   14  C   UNL     1      -8.841  10.020  65.661  1.00  0.00    -0.160 C  
HETATM   15  C   UNL     1      -7.648   9.573  64.800  1.00  0.00    -0.112 C  
BRANCH  14  16
HETATM   16  N   UNL     1      -9.489  11.263  65.187  1.00  0.00    -0.222 NA 
HETATM   17  C   UNL     1     -10.820  11.032  64.623  1.00  0.00    -0.178 C  
HETATM   18  C   UNL     1      -9.513  12.375  66.126  1.00  0.00    -0.199 C  
ENDBRANCH  14  16
ENDBRANCH  12  14
ENDBRANCH   7   8
ENDBRANCH   5   7
ENDBRANCH   2   3
TORSDOF 5
ENDMDL
MODEL      193
REMARK 921   NORMALIZED FREE ENERGY PREDICTED BY IDOCK:   -2.70 KCAL/MOL
REMARK 922        TOTAL FREE ENERGY PREDICTED BY IDOCK:   -4.10 KCAL/MOL
REMARK 923 INTER-LIGAND FREE ENERGY PREDICTED BY IDOCK:   -4.01 KCAL/MOL
REMARK 924 INTRA-LIGAND FREE ENERGY PREDICTED BY IDOCK:   -0.09 KCAL/MOL
REMARK 927      BINDING AFFINITY PREDICTED BY RF-SCORE:    0.00 PKD
ROOT
HETATM    1  C   UNL     1     -11.152  12.233  63.387  1.00  0.00    -0.487 C  
HETATM    2  C   UNL     1     -10.429  11.062  64.041  1.00  0.00    -0.366 C  
ENDROOT
BRANCH   2   3
HETATM    3  N   UNL     1     -10.432  11.134  65.497  1.00  0.00    -0.266 N  
HETATM    4  C   UNL     1     -11.398  11.999  66.151  1.00  0.00    -0.351 C  
HETATM    5  C   UNL     1      -9.355  10.601  66.208  1.00  0.00    -0.171 C  
HETATM    6  O   UNL     1      -8.440   9.984  65.673  1.00  0.00    -0.138 OA 
BRANCH   5   7
HETATM    7  O   UNL     1      -9.436  10.885  67.570  1.00  0.00    -0.154 OA 
BRANCH   7   8
HETATM    8  C   UNL     1      -9.949   9.891  68.417  1.00  0.00    -0.158 A  
HETATM    9  C   UNL     1     -10.579  10.296  69.591  1.00  0.00    -0.288 A  
HETATM   10  C   UNL     1     -11.004   9.331  70.503  1.00  0.00    -0.318 A  
HETATM   11  C   UNL     1     -10.784   7.971  70.250  1.00  0.00    -0.239 A  
HETATM   12  C   UNL     1     -10.121   7.558  69.084  1.00  0.00    -0.192 A  
HETATM   13  C   UNL     1      -9.707   8.540  68.169  1.00  0.00    -0.175 A  
BRANCH  12  14
HETATM   14  C   UNL     1      -9.789   6.099  68.781  1.00  0.00    -0.136 C  
HETATM   15  C   UNL     1      -9.783   5.244  70.059  1.00  0.00    -0.263 C  
BRANCH  14  16
HETATM   16  N   UNL     1      -8.615   5.877  67.907  1.00  0.00    -0.106 NA 
HETATM   17  C   UNL     1      -7.720   4.834  68.408  1.00  0.00    -0.081 C  
HETATM   18  C   UNL     1      -8.894   5.681  66.492  1.00  0.00    -0.123 C  
ENDBRANCH  14  16
ENDBRANCH  12  14
ENDBRANCH   7   8
ENDBRANCH   5   7
ENDBRANCH   2   3
TORSDOF 5
ENDMDL
MODEL      194
REMARK 921   NORMALIZED FREE ENERGY PREDICTED BY IDOCK:   -2.70 KCAL/MOL
REMARK 922        TOTAL FREE ENERGY PREDICTED BY IDOCK:   -4.10 KCAL/MOL
REMARK 923 INTER-LIGAND FREE ENERGY PREDICTED BY IDOCK:   -3.84 KCAL/MOL
REMARK 924 INTRA-LIGAND FREE ENERGY PREDICTED BY IDOCK:   -0.26 KCAL/MOL
REMARK 927      BINDING AFFINITY PREDICTED BY RF-SCORE:    0.00 PKD
ROOT
HETATM    1  C   UNL     1     -14.387   7.683  71.569  1.00  0.00    -0.589 C  
HETATM    2  C   UNL     1     -13.064   6.954  71.771  1.00  0.00    -0.245 C  
ENDROOT
BRANCH   2   3
HETATM    3  N   UNL     1     -11.918   7.710  71.282  1.00  0.00    -0.300 N  
HETATM    4  C   UNL     1     -11.771   9.097  71.688  1.00  0.00    -0.378 C  
HETATM    5  C   UNL     1     -11.153   7.188  70.237  1.00  0.00    -0.274 C  
HETATM    6  O   UNL     1     -11.339   6.072  69.765  1.00  0.00    -0.409 OA 
BRANCH   5   7
HETATM    7  O   UNL     1     -10.197   8.095  69.785  1.00  0.00    -0.194 OA 
BRANCH   7   8
HETATM    8  C   UNL     1      -9.223   7.628  68.889  1.00  0.00    -0.139 A  
HETATM    9  C   UNL     1      -8.066   7.062  69.418  1.00  0.00    -0.130 A  
HETATM   10  C   UNL     1      -7.036   6.687  68.555  1.00  0.00    -0.083 A  
HETATM   11  C   UNL     1      -7.157   6.894  67.175  1.00  0.00    -0.080 A  
HETATM   12  C   UNL     1      -8.308   7.493  66.639  1.00  0.00    -0.127 A  
HETATM   13  C   UNL     1      -9.341   7.857  67.518  1.00  0.00    -0.166 A  
BRANCH  12  14
HETATM   14  C   UNL     1      -8.474   7.809  65.155  1.00  0.00    -0.060 C  
HETATM   15  C   UNL     1      -7.633   6.866  64.279  1.00  0.00    -0.108 C  
BRANCH  14  16
HETATM   16  N   UNL     1      -8.351   9.238  64.786  1.00  0.00    -0.151 NA 
HETATM   17  C   UNL     1      -9.631   9.947  64.822  1.00  0.00    -0.271 C  
HETATM   18  C   UNL     1      -7.321   9.996  65.481  1.00  0.00    -0.137 C  
ENDBRANCH  14  16
ENDBRANCH  12  14
ENDBRANCH   7   8
ENDBRANCH   5   7
ENDBRANCH   2   3
TORSDOF 5
ENDMDL
MODEL      195
REMARK 921   NORMALIZED FREE ENERGY PREDICTED BY IDOCK:   -2.69 KCAL/MOL
REMARK 922        TOTAL FREE ENERGY PREDICTED BY IDOCK:   -4.08 KCAL/MOL
REMARK 923 INTER-LIGAND FREE ENERGY PREDICTED BY IDOCK:   -3.59 KCAL/MOL
REMARK 924 INTRA-LIGAND FREE ENERGY PREDICTED BY IDOCK:   -0.49 KCAL/MOL
REMARK 927      BINDING AFFINITY PREDICTED BY RF-SCORE:    0.00 PKD
ROOT
HETATM    1  C   UNL     1      -8.081  13.293  67.799  1.00  0.00    -0.166 C  
HETATM    2  C   UNL     1      -9.091  12.233  67.377  1.00  0.00    -0.184 C  
ENDROOT
BRANCH   2   3
HETATM    3  N   UNL     1      -8.542  10.883  67.404  1.00  0.00    -0.127 N  
HETATM    4  C   UNL     1      -7.846  10.390  66.228  1.00  0.00    -0.132 C  
HETATM    5  C   UNL     1      -8.924  10.010  68.424  1.00  0.00    -0.121 C  
HETATM    6  O   UNL     1      -9.634  10.352  69.365  1.00  0.00    -0.217 OA 
BRANCH   5   7
HETATM    7  O   UNL     1      -8.436   8.722  68.222  1.00  0.00    -0.128 OA 
BRANCH   7   8
HETATM    8  C   UNL     1      -9.175   7.651  68.746  1.00  0.00    -0.142 A  
HETATM    9  C   UNL     1     -10.317   7.247  68.059  1.00  0.00    -0.243 A  
HETATM   10  C   UNL     1     -11.129   6.257  68.611  1.00  0.00    -0.409 A  
HETATM   11  C   UNL     1     -10.810   5.688  69.851  1.00  0.00    -0.370 A  
HETATM   12  C   UNL     1      -9.678   6.113  70.563  1.00  0.00    -0.203 A  
HETATM   13  C   UNL     1      -8.863   7.104  69.991  1.00  0.00    -0.142 A  
BRANCH  12  14
HETATM   14  C   UNL     1      -9.312   5.585  71.948  1.00  0.00    -0.144 C  
HETATM   15  C   UNL     1     -10.159   4.360  72.327  1.00  0.00    -0.253 C  
BRANCH  14  16
HETATM   16  N   UNL     1      -9.220   6.604  73.019  1.00  0.00    -0.131 NA 
HETATM   17  C   UNL     1     -10.502   6.855  73.679  1.00  0.00    -0.369 C  
HETATM   18  C   UNL     1      -8.163   6.410  74.002  1.00  0.00    -0.111 C  
ENDBRANCH  14  16
ENDBRANCH  12  14
ENDBRANCH   7   8
ENDBRANCH   5   7
ENDBRANCH   2   3
TORSDOF 5
ENDMDL
MODEL      196
REMARK 921   NORMALIZED FREE ENERGY PREDICTED BY IDOCK:   -2.68 KCAL/MOL
REMARK 922        TOTAL FREE ENERGY PREDICTED BY IDOCK:   -4.07 KCAL/MOL
REMARK 923 INTER-LIGAND FREE ENERGY PREDICTED BY IDOCK:   -4.58 KCAL/MOL
REMARK 924 INTRA-LIGAND FREE ENERGY PREDICTED BY IDOCK:    0.51 KCAL/MOL
REMARK 927      BINDING AFFINITY PREDICTED BY RF-SCORE:    0.00 PKD
ROOT
HETATM    1  C   UNL     1     -10.539  16.446  69.442  1.00  0.00    -0.317 C  
HETATM    2  C   UNL     1     -12.004  16.040  69.332  1.00  0.00    -0.178 C  
ENDROOT
BRANCH   2   3
HETATM    3  N   UNL     1     -12.190  14.595  69.284  1.00  0.00    -0.257 N  
HETATM    4  C   UNL     1     -12.108  13.839  70.522  1.00  0.00    -0.345 C  
HETATM    5  C   UNL     1     -12.166  13.945  68.049  1.00  0.00    -0.153 C  
HETATM    6  O   UNL     1     -12.090  14.542  66.980  1.00  0.00    -0.398 OA 
BRANCH   5   7
HETATM    7  O   UNL     1     -12.203  12.559  68.186  1.00  0.00    -0.270 OA 
BRANCH   7   8
HETATM    8  C   UNL     1     -11.129  11.820  67.667  1.00  0.00    -0.252 A  
HETATM    9  C   UNL     1     -10.169  11.350  68.559  1.00  0.00    -0.216 A  
HETATM   10  C   UNL     1      -9.037  10.705  68.063  1.00  0.00    -0.147 A  
HETATM   11  C   UNL     1      -8.859  10.548  66.682  1.00  0.00    -0.145 A  
HETATM   12  C   UNL     1      -9.807  11.048  65.777  1.00  0.00    -0.282 A  
HETATM   13  C   UNL     1     -10.947  11.687  66.291  1.00  0.00    -0.338 A  
BRANCH  12  14
HETATM   14  C   UNL     1      -9.640  10.972  64.261  1.00  0.00    -0.262 C  
HETATM   15  C   UNL     1     -10.772  11.711  63.531  1.00  0.00    -0.495 C  
BRANCH  14  16
HETATM   16  N   UNL     1      -9.352   9.626  63.714  1.00  0.00    -0.134 NA 
HETATM   17  C   UNL     1      -8.872   9.663  62.332  1.00  0.00    -0.250 C  
HETATM   18  C   UNL     1      -8.508   8.767  64.531  1.00  0.00    -0.140 C  
ENDBRANCH  14  16
ENDBRANCH  12  14
ENDBRANCH   7   8
ENDBRANCH   5   7
ENDBRANCH   2   3
TORSDOF 5
ENDMDL
MODEL      197
REMARK 921   NORMALIZED FREE ENERGY PREDICTED BY IDOCK:   -2.68 KCAL/MOL
REMARK 922        TOTAL FREE ENERGY PREDICTED BY IDOCK:   -4.07 KCAL/MOL
REMARK 923 INTER-LIGAND FREE ENERGY PREDICTED BY IDOCK:   -3.72 KCAL/MOL
REMARK 924 INTRA-LIGAND FREE ENERGY PREDICTED BY IDOCK:   -0.35 KCAL/MOL
REMARK 927      BINDING AFFINITY PREDICTED BY RF-SCORE:    0.00 PKD
ROOT
HETATM    1  C   UNL     1     -10.729   3.168  62.970  1.00  0.00    -0.211 C  
HETATM    2  C   UNL     1      -9.211   3.043  63.011  1.00  0.00    -0.094 C  
ENDROOT
BRANCH   2   3
HETATM    3  N   UNL     1      -8.616   3.729  64.151  1.00  0.00    -0.091 N  
HETATM    4  C   UNL     1      -8.659   3.085  65.453  1.00  0.00    -0.112 C  
HETATM    5  C   UNL     1      -8.271   5.077  64.033  1.00  0.00    -0.125 C  
HETATM    6  O   UNL     1      -8.357   5.699  62.979  1.00  0.00    -0.119 OA 
BRANCH   5   7
HETATM    7  O   UNL     1      -7.861   5.620  65.248  1.00  0.00    -0.091 OA 
BRANCH   7   8
HETATM    8  C   UNL     1      -8.679   6.595  65.839  1.00  0.00    -0.137 A  
HETATM    9  C   UNL     1      -9.723   6.165  66.653  1.00  0.00    -0.196 A  
HETATM   10  C   UNL     1     -10.616   7.105  67.168  1.00  0.00    -0.417 A  
HETATM   11  C   UNL     1     -10.474   8.463  66.855  1.00  0.00    -0.359 A  
HETATM   12  C   UNL     1      -9.443   8.899  66.009  1.00  0.00    -0.320 A  
HETATM   13  C   UNL     1      -8.545   7.943  65.506  1.00  0.00    -0.139 A  
BRANCH  12  14
HETATM   14  C   UNL     1      -9.274  10.352  65.573  1.00  0.00    -0.184 C  
HETATM   15  C   UNL     1      -9.155  11.294  66.782  1.00  0.00    -0.181 C  
BRANCH  14  16
HETATM   16  N   UNL     1     -10.221  10.825  64.537  1.00  0.00    -0.350 NA 
HETATM   17  C   UNL     1     -10.654  12.206  64.749  1.00  0.00    -0.296 C  
HETATM   18  C   UNL     1      -9.817  10.617  63.154  1.00  0.00    -0.302 C  
ENDBRANCH  14  16
ENDBRANCH  12  14
ENDBRANCH   7   8
ENDBRANCH   5   7
ENDBRANCH   2   3
TORSDOF 5
ENDMDL
MODEL      198
REMARK 921   NORMALIZED FREE ENERGY PREDICTED BY IDOCK:   -2.68 KCAL/MOL
REMARK 922        TOTAL FREE ENERGY PREDICTED BY IDOCK:   -4.07 KCAL/MOL
REMARK 923 INTER-LIGAND FREE ENERGY PREDICTED BY IDOCK:   -4.31 KCAL/MOL
REMARK 924 INTRA-LIGAND FREE ENERGY PREDICTED BY IDOCK:    0.24 KCAL/MOL
REMARK 927      BINDING AFFINITY PREDICTED BY RF-SCORE:    0.00 PKD
ROOT
HETATM    1  C   UNL     1      -9.682  16.943  68.616  1.00  0.00    -0.267 C  
HETATM    2  C   UNL     1     -10.884  16.731  67.703  1.00  0.00    -0.252 C  
ENDROOT
BRANCH   2   3
HETATM    3  N   UNL     1     -11.122  15.326  67.397  1.00  0.00    -0.326 N  
HETATM    4  C   UNL     1     -11.766  14.492  68.397  1.00  0.00    -0.333 C  
HETATM    5  C   UNL     1     -10.494  14.753  66.289  1.00  0.00    -0.296 C  
HETATM    6  O   UNL     1      -9.818  15.400  65.495  1.00  0.00    -0.342 OA 
BRANCH   5   7
HETATM    7  O   UNL     1     -10.700  13.378  66.223  1.00  0.00    -0.283 OA 
BRANCH   7   8
HETATM    8  C   UNL     1      -9.835  12.550  66.954  1.00  0.00    -0.227 A  
HETATM    9  C   UNL     1      -8.568  13.039  67.263  1.00  0.00    -0.206 A  
HETATM   10  C   UNL     1      -7.651  12.201  67.895  1.00  0.00    -0.123 A  
HETATM   11  C   UNL     1      -7.993  10.877  68.200  1.00  0.00    -0.117 A  
HETATM   12  C   UNL     1      -9.256  10.369  67.864  1.00  0.00    -0.143 A  
HETATM   13  C   UNL     1     -10.174  11.226  67.236  1.00  0.00    -0.226 A  
BRANCH  12  14
HETATM   14  C   UNL     1      -9.667   8.918  68.105  1.00  0.00    -0.160 C  
HETATM   15  C   UNL     1     -10.596   8.403  66.994  1.00  0.00    -0.316 C  
BRANCH  14  16
HETATM   16  N   UNL     1     -10.138   8.604  69.473  1.00  0.00    -0.197 NA 
HETATM   17  C   UNL     1     -10.996   9.648  70.035  1.00  0.00    -0.260 C  
HETATM   18  C   UNL     1     -10.733   7.290  69.663  1.00  0.00    -0.236 C  
ENDBRANCH  14  16
ENDBRANCH  12  14
ENDBRANCH   7   8
ENDBRANCH   5   7
ENDBRANCH   2   3
TORSDOF 5
ENDMDL
MODEL      199
REMARK 921   NORMALIZED FREE ENERGY PREDICTED BY IDOCK:   -2.66 KCAL/MOL
REMARK 922        TOTAL FREE ENERGY PREDICTED BY IDOCK:   -4.04 KCAL/MOL
REMARK 923 INTER-LIGAND FREE ENERGY PREDICTED BY IDOCK:   -3.65 KCAL/MOL
REMARK 924 INTRA-LIGAND FREE ENERGY PREDICTED BY IDOCK:   -0.39 KCAL/MOL
REMARK 927      BINDING AFFINITY PREDICTED BY RF-SCORE:    0.00 PKD
ROOT
HETATM    1  C   UNL     1     -12.658  12.578  64.596  1.00  0.00    -0.507 C  
HETATM    2  C   UNL     1     -11.889  12.702  65.905  1.00  0.00    -0.444 C  
ENDROOT
BRANCH   2   3
HETATM    3  N   UNL     1     -10.663  11.913  65.920  1.00  0.00    -0.274 N  
HETATM    4  C   UNL     1      -9.853  11.859  64.716  1.00  0.00    -0.191 C  
HETATM    5  C   UNL     1     -10.439  11.021  66.971  1.00  0.00    -0.240 C  
HETATM    6  O   UNL     1     -11.182  10.933  67.943  1.00  0.00    -0.283 OA 
BRANCH   5   7
HETATM    7  O   UNL     1      -9.307  10.238  66.760  1.00  0.00    -0.156 OA 
BRANCH   7   8
HETATM    8  C   UNL     1      -9.308   8.933  67.277  1.00  0.00    -0.140 A  
HETATM    9  C   UNL     1      -9.937   7.937  66.534  1.00  0.00    -0.267 A  
HETATM   10  C   UNL     1     -10.046   6.654  67.070  1.00  0.00    -0.247 A  
HETATM   11  C   UNL     1      -9.545   6.376  68.348  1.00  0.00    -0.125 A  
HETATM   12  C   UNL     1      -8.939   7.382  69.115  1.00  0.00    -0.135 A  
HETATM   13  C   UNL     1      -8.826   8.667  68.559  1.00  0.00    -0.142 A  
BRANCH  12  14
HETATM   14  C   UNL     1      -8.435   7.163  70.539  1.00  0.00    -0.139 C  
HETATM   15  C   UNL     1      -8.838   8.321  71.465  1.00  0.00    -0.216 C  
BRANCH  14  16
HETATM   16  N   UNL     1      -7.015   6.764  70.662  1.00  0.00    -0.062 NA 
HETATM   17  C   UNL     1      -6.423   7.151  71.944  1.00  0.00    -0.044 C  
HETATM   18  C   UNL     1      -6.707   5.375  70.351  1.00  0.00    -0.043 C  
ENDBRANCH  14  16
ENDBRANCH  12  14
ENDBRANCH   7   8
ENDBRANCH   5   7
ENDBRANCH   2   3
TORSDOF 5
ENDMDL
MODEL      200
REMARK 921   NORMALIZED FREE ENERGY PREDICTED BY IDOCK:   -2.64 KCAL/MOL
REMARK 922        TOTAL FREE ENERGY PREDICTED BY IDOCK:   -4.02 KCAL/MOL
REMARK 923 INTER-LIGAND FREE ENERGY PREDICTED BY IDOCK:   -3.51 KCAL/MOL
REMARK 924 INTRA-LIGAND FREE ENERGY PREDICTED BY IDOCK:   -0.51 KCAL/MOL
REMARK 927      BINDING AFFINITY PREDICTED BY RF-SCORE:    0.00 PKD
ROOT
HETATM    1  C   UNL     1      -6.104  10.721  66.490  1.00  0.00    -0.103 C  
HETATM    2  C   UNL     1      -6.313  11.078  67.957  1.00  0.00    -0.057 C  
ENDROOT
BRANCH   2   3
HETATM    3  N   UNL     1      -6.241   9.921  68.840  1.00  0.00    -0.041 N  
HETATM    4  C   UNL     1      -6.417   8.596  68.270  1.00  0.00    -0.060 C  
HETATM    5  C   UNL     1      -6.280  10.114  70.222  1.00  0.00    -0.103 C  
HETATM    6  O   UNL     1      -6.279  11.224  70.742  1.00  0.00    -0.352 OA 
BRANCH   5   7
HETATM    7  O   UNL     1      -6.357   8.909  70.916  1.00  0.00    -0.042 OA 
BRANCH   7   8
HETATM    8  C   UNL     1      -7.496   8.677  71.702  1.00  0.00    -0.092 A  
HETATM    9  C   UNL     1      -7.309   8.372  73.049  1.00  0.00    -0.109 A  
HETATM   10  C   UNL     1      -8.413   8.033  73.829  1.00  0.00    -0.317 A  
HETATM   11  C   UNL     1      -9.693   7.982  73.262  1.00  0.00    -0.308 A  
HETATM   12  C   UNL     1      -9.884   8.256  71.900  1.00  0.00    -0.300 A  
HETATM   13  C   UNL     1      -8.764   8.606  71.127  1.00  0.00    -0.244 A  
BRANCH  12  14
HETATM   14  C   UNL     1     -11.239   8.151  71.205  1.00  0.00    -0.260 C  
HETATM   15  C   UNL     1     -11.119   8.394  69.692  1.00  0.00    -0.011 C  
BRANCH  14  16
HETATM   16  N   UNL     1     -12.347   8.895  71.845  1.00  0.00    -0.349 NA 
HETATM   17  C   UNL     1     -12.361  10.315  71.489  1.00  0.00    -0.390 C  
HETATM   18  C   UNL     1     -13.676   8.316  71.707  1.00  0.00    -0.377 C  
ENDBRANCH  14  16
ENDBRANCH  12  14
ENDBRANCH   7   8
ENDBRANCH   5   7
ENDBRANCH   2   3
TORSDOF 5
ENDMDL
MODEL      201
REMARK 921   NORMALIZED FREE ENERGY PREDICTED BY IDOCK:   -2.64 KCAL/MOL
REMARK 922        TOTAL FREE ENERGY PREDICTED BY IDOCK:   -4.02 KCAL/MOL
REMARK 923 INTER-LIGAND FREE ENERGY PREDICTED BY IDOCK:   -3.58 KCAL/MOL
REMARK 924 INTRA-LIGAND FREE ENERGY PREDICTED BY IDOCK:   -0.44 KCAL/MOL
REMARK 927      BINDING AFFINITY PREDICTED BY RF-SCORE:    0.00 PKD
ROOT
HETATM    1  C   UNL     1     -10.362   7.551  73.160  1.00  0.00    -0.402 C  
HETATM    2  C   UNL     1     -11.256   6.611  72.360  1.00  0.00    -0.267 C  
ENDROOT
BRANCH   2   3
HETATM    3  N   UNL     1     -10.502   5.702  71.505  1.00  0.00    -0.231 N  
HETATM    4  C   UNL     1      -9.330   5.041  72.051  1.00  0.00    -0.137 C  
HETATM    5  C   UNL     1     -10.749   5.696  70.131  1.00  0.00    -0.305 C  
HETATM    6  O   UNL     1     -11.642   6.355  69.609  1.00  0.00    -0.417 OA 
BRANCH   5   7
HETATM    7  O   UNL     1      -9.846   4.890  69.441  1.00  0.00    -0.176 OA 
BRANCH   7   8
HETATM    8  C   UNL     1      -9.533   5.241  68.119  1.00  0.00    -0.123 A  
HETATM    9  C   UNL     1      -9.745   4.290  67.123  1.00  0.00    -0.232 A  
HETATM   10  C   UNL     1      -9.345   4.571  65.818  1.00  0.00    -0.162 A  
HETATM   11  C   UNL     1      -8.720   5.788  65.514  1.00  0.00    -0.141 A  
HETATM   12  C   UNL     1      -8.474   6.736  66.518  1.00  0.00    -0.124 A  
HETATM   13  C   UNL     1      -8.891   6.445  67.827  1.00  0.00    -0.112 A  
BRANCH  12  14
HETATM   14  C   UNL     1      -7.737   8.049  66.268  1.00  0.00    -0.091 C  
HETATM   15  C   UNL     1      -7.300   8.711  67.585  1.00  0.00    -0.089 C  
BRANCH  14  16
HETATM   16  N   UNL     1      -8.387   8.979  65.317  1.00  0.00    -0.140 NA 
HETATM   17  C   UNL     1      -9.681   9.469  65.794  1.00  0.00    -0.287 C  
HETATM   18  C   UNL     1      -7.567  10.079  64.830  1.00  0.00    -0.143 C  
ENDBRANCH  14  16
ENDBRANCH  12  14
ENDBRANCH   7   8
ENDBRANCH   5   7
ENDBRANCH   2   3
TORSDOF 5
ENDMDL
MODEL      202
REMARK 921   NORMALIZED FREE ENERGY PREDICTED BY IDOCK:   -2.64 KCAL/MOL
REMARK 922        TOTAL FREE ENERGY PREDICTED BY IDOCK:   -4.01 KCAL/MOL
REMARK 923 INTER-LIGAND FREE ENERGY PREDICTED BY IDOCK:   -3.74 KCAL/MOL
REMARK 924 INTRA-LIGAND FREE ENERGY PREDICTED BY IDOCK:   -0.28 KCAL/MOL
REMARK 927      BINDING AFFINITY PREDICTED BY RF-SCORE:    0.00 PKD
ROOT
HETATM    1  C   UNL     1     -13.411   9.635  71.510  1.00  0.00    -0.468 C  
HETATM    2  C   UNL     1     -12.176  10.495  71.268  1.00  0.00    -0.368 C  
ENDROOT
BRANCH   2   3
HETATM    3  N   UNL     1     -11.105   9.774  70.592  1.00  0.00    -0.306 N  
HETATM    4  C   UNL     1     -10.094   9.109  71.396  1.00  0.00    -0.322 C  
HETATM    5  C   UNL     1     -10.916   9.962  69.221  1.00  0.00    -0.211 C  
HETATM    6  O   UNL     1     -11.669  10.639  68.529  1.00  0.00    -0.364 OA 
BRANCH   5   7
HETATM    7  O   UNL     1      -9.766   9.327  68.760  1.00  0.00    -0.153 OA 
BRANCH   7   8
HETATM    8  C   UNL     1      -9.921   8.137  68.033  1.00  0.00    -0.184 A  
HETATM    9  C   UNL     1     -10.865   7.217  68.481  1.00  0.00    -0.141 A  
HETATM   10  C   UNL     1     -10.968   5.981  67.842  1.00  0.00    -0.334 A  
HETATM   11  C   UNL     1     -10.120   5.663  66.774  1.00  0.00    -0.235 A  
HETATM   12  C   UNL     1      -9.145   6.574  66.338  1.00  0.00    -0.172 A  
HETATM   13  C   UNL     1      -9.059   7.818  66.983  1.00  0.00    -0.162 A  
BRANCH  12  14
HETATM   14  C   UNL     1      -8.145   6.263  65.227  1.00  0.00    -0.132 C  
HETATM   15  C   UNL     1      -8.680   5.184  64.272  1.00  0.00    -0.071 C  
BRANCH  14  16
HETATM   16  N   UNL     1      -6.750   6.037  65.665  1.00  0.00    -0.047 NA 
HETATM   17  C   UNL     1      -6.604   4.855  66.516  1.00  0.00    -0.046 C  
HETATM   18  C   UNL     1      -5.737   6.047  64.620  1.00  0.00    -0.021 C  
ENDBRANCH  14  16
ENDBRANCH  12  14
ENDBRANCH   7   8
ENDBRANCH   5   7
ENDBRANCH   2   3
TORSDOF 5
ENDMDL
MODEL      203
REMARK 921   NORMALIZED FREE ENERGY PREDICTED BY IDOCK:   -2.59 KCAL/MOL
REMARK 922        TOTAL FREE ENERGY PREDICTED BY IDOCK:   -3.95 KCAL/MOL
REMARK 923 INTER-LIGAND FREE ENERGY PREDICTED BY IDOCK:   -3.57 KCAL/MOL
REMARK 924 INTRA-LIGAND FREE ENERGY PREDICTED BY IDOCK:   -0.38 KCAL/MOL
REMARK 927      BINDING AFFINITY PREDICTED BY RF-SCORE:    0.00 PKD
ROOT
HETATM    1  C   UNL     1     -12.161  12.523  69.548  1.00  0.00    -0.139 C  
HETATM    2  C   UNL     1     -11.106  11.464  69.250  1.00  0.00    -0.254 C  
ENDROOT
BRANCH   2   3
HETATM    3  N   UNL     1     -11.251  10.271  70.074  1.00  0.00    -0.289 N  
HETATM    4  C   UNL     1     -12.530  10.016  70.714  1.00  0.00    -0.295 C  
HETATM    5  C   UNL     1     -10.111   9.559  70.450  1.00  0.00    -0.271 C  
HETATM    6  O   UNL     1      -8.987   9.833  70.043  1.00  0.00    -0.217 OA 
BRANCH   5   7
HETATM    7  O   UNL     1     -10.404   8.542  71.356  1.00  0.00    -0.206 OA 
BRANCH   7   8
HETATM    8  C   UNL     1     -10.159   7.219  70.958  1.00  0.00    -0.191 A  
HETATM    9  C   UNL     1     -10.431   6.874  69.636  1.00  0.00    -0.240 A  
HETATM   10  C   UNL     1     -10.298   5.544  69.240  1.00  0.00    -0.335 A  
HETATM   11  C   UNL     1      -9.913   4.563  70.164  1.00  0.00    -0.278 A  
HETATM   12  C   UNL     1      -9.668   4.900  71.503  1.00  0.00    -0.233 A  
HETATM   13  C   UNL     1      -9.796   6.245  71.887  1.00  0.00    -0.172 A  
BRANCH  12  14
HETATM   14  C   UNL     1      -9.313   3.871  72.574  1.00  0.00    -0.116 C  
HETATM   15  C   UNL     1      -9.959   4.217  73.925  1.00  0.00    -0.173 C  
BRANCH  14  16
HETATM   16  N   UNL     1      -7.880   3.513  72.669  1.00  0.00    -0.067 NA 
HETATM   17  C   UNL     1      -7.343   3.665  74.022  1.00  0.00    -0.054 C  
HETATM   18  C   UNL     1      -7.498   2.227  72.104  1.00  0.00    -0.043 C  
ENDBRANCH  14  16
ENDBRANCH  12  14
ENDBRANCH   7   8
ENDBRANCH   5   7
ENDBRANCH   2   3
TORSDOF 5
ENDMDL
MODEL      204
REMARK 921   NORMALIZED FREE ENERGY PREDICTED BY IDOCK:   -2.57 KCAL/MOL
REMARK 922        TOTAL FREE ENERGY PREDICTED BY IDOCK:   -3.93 KCAL/MOL
REMARK 923 INTER-LIGAND FREE ENERGY PREDICTED BY IDOCK:   -3.63 KCAL/MOL
REMARK 924 INTRA-LIGAND FREE ENERGY PREDICTED BY IDOCK:   -0.30 KCAL/MOL
REMARK 927      BINDING AFFINITY PREDICTED BY RF-SCORE:    0.00 PKD
ROOT
HETATM    1  C   UNL     1     -12.211  11.780  69.812  1.00  0.00    -0.270 C  
HETATM    2  C   UNL     1     -10.974  12.333  69.115  1.00  0.00    -0.162 C  
ENDROOT
BRANCH   2   3
HETATM    3  N   UNL     1     -10.411  11.409  68.138  1.00  0.00    -0.181 N  
HETATM    4  C   UNL     1     -11.033  11.313  66.829  1.00  0.00    -0.281 C  
HETATM    5  C   UNL     1      -9.482  10.456  68.558  1.00  0.00    -0.159 C  
HETATM    6  O   UNL     1      -9.038  10.413  69.701  1.00  0.00    -0.163 OA 
BRANCH   5   7
HETATM    7  O   UNL     1      -9.160   9.557  67.544  1.00  0.00    -0.130 OA 
BRANCH   7   8
HETATM    8  C   UNL     1      -9.518   8.212  67.722  1.00  0.00    -0.142 A  
HETATM    9  C   UNL     1     -10.566   7.709  66.956  1.00  0.00    -0.406 A  
HETATM   10  C   UNL     1     -11.014   6.408  67.185  1.00  0.00    -0.476 A  
HETATM   11  C   UNL     1     -10.428   5.624  68.188  1.00  0.00    -0.260 A  
HETATM   12  C   UNL     1      -9.394   6.136  68.984  1.00  0.00    -0.133 A  
HETATM   13  C   UNL     1      -8.946   7.444  68.736  1.00  0.00    -0.129 A  
BRANCH  12  14
HETATM   14  C   UNL     1      -8.761   5.360  70.137  1.00  0.00    -0.126 C  
HETATM   15  C   UNL     1      -9.527   4.061  70.430  1.00  0.00    -0.252 C  
BRANCH  14  16
HETATM   16  N   UNL     1      -8.442   6.154  71.345  1.00  0.00    -0.127 NA 
HETATM   17  C   UNL     1      -9.500   6.104  72.355  1.00  0.00    -0.148 C  
HETATM   18  C   UNL     1      -7.140   5.910  71.950  1.00  0.00    -0.083 C  
ENDBRANCH  14  16
ENDBRANCH  12  14
ENDBRANCH   7   8
ENDBRANCH   5   7
ENDBRANCH   2   3
TORSDOF 5
ENDMDL
MODEL      205
REMARK 921   NORMALIZED FREE ENERGY PREDICTED BY IDOCK:   -2.56 KCAL/MOL
REMARK 922        TOTAL FREE ENERGY PREDICTED BY IDOCK:   -3.92 KCAL/MOL
REMARK 923 INTER-LIGAND FREE ENERGY PREDICTED BY IDOCK:   -3.81 KCAL/MOL
REMARK 924 INTRA-LIGAND FREE ENERGY PREDICTED BY IDOCK:   -0.11 KCAL/MOL
REMARK 927      BINDING AFFINITY PREDICTED BY RF-SCORE:    0.00 PKD
ROOT
HETATM    1  C   UNL     1      -6.663   3.254  70.458  1.00  0.00    -0.033 C  
HETATM    2  C   UNL     1      -7.725   3.738  71.438  1.00  0.00    -0.056 C  
ENDROOT
BRANCH   2   3
HETATM    3  N   UNL     1      -8.242   5.060  71.108  1.00  0.00    -0.112 N  
HETATM    4  C   UNL     1      -7.298   6.139  70.869  1.00  0.00    -0.080 C  
HETATM    5  C   UNL     1      -9.599   5.329  71.296  1.00  0.00    -0.159 C  
HETATM    6  O   UNL     1     -10.408   4.474  71.639  1.00  0.00    -0.175 OA 
BRANCH   5   7
HETATM    7  O   UNL     1      -9.901   6.672  71.082  1.00  0.00    -0.181 OA 
BRANCH   7   8
HETATM    8  C   UNL     1     -10.259   7.064  69.783  1.00  0.00    -0.201 A  
HETATM    9  C   UNL     1     -10.745   6.088  68.917  1.00  0.00    -0.384 A  
HETATM   10  C   UNL     1     -11.008   6.427  67.590  1.00  0.00    -0.441 A  
HETATM   11  C   UNL     1     -10.769   7.728  67.129  1.00  0.00    -0.337 A  
HETATM   12  C   UNL     1     -10.249   8.707  67.989  1.00  0.00    -0.261 A  
HETATM   13  C   UNL     1      -9.998   8.356  69.325  1.00  0.00    -0.195 A  
BRANCH  12  14
HETATM   14  C   UNL     1      -9.901  10.122  67.534  1.00  0.00    -0.177 C  
HETATM   15  C   UNL     1      -9.170  10.906  68.636  1.00  0.00    -0.187 C  
BRANCH  14  16
HETATM   16  N   UNL     1     -10.999  10.877  66.890  1.00  0.00    -0.256 NA 
HETATM   17  C   UNL     1     -11.650  11.823  67.799  1.00  0.00    -0.304 C  
HETATM   18  C   UNL     1     -10.684  11.516  65.621  1.00  0.00    -0.267 C  
ENDBRANCH  14  16
ENDBRANCH  12  14
ENDBRANCH   7   8
ENDBRANCH   5   7
ENDBRANCH   2   3
TORSDOF 5
ENDMDL
MODEL      206
REMARK 921   NORMALIZED FREE ENERGY PREDICTED BY IDOCK:   -2.52 KCAL/MOL
REMARK 922        TOTAL FREE ENERGY PREDICTED BY IDOCK:   -3.87 KCAL/MOL
REMARK 923 INTER-LIGAND FREE ENERGY PREDICTED BY IDOCK:   -3.65 KCAL/MOL
REMARK 924 INTRA-LIGAND FREE ENERGY PREDICTED BY IDOCK:   -0.22 KCAL/MOL
REMARK 927      BINDING AFFINITY PREDICTED BY RF-SCORE:    0.00 PKD
ROOT
HETATM    1  C   UNL     1     -12.946  14.902  71.199  1.00  0.00    -0.432 C  
HETATM    2  C   UNL     1     -12.643  15.526  69.842  1.00  0.00    -0.133 C  
ENDROOT
BRANCH   2   3
HETATM    3  N   UNL     1     -11.299  15.226  69.366  1.00  0.00    -0.273 N  
HETATM    4  C   UNL     1     -10.324  16.301  69.304  1.00  0.00    -0.277 C  
HETATM    5  C   UNL     1     -11.056  14.006  68.731  1.00  0.00    -0.264 C  
HETATM    6  O   UNL     1     -11.902  13.123  68.634  1.00  0.00    -0.308 OA 
BRANCH   5   7
HETATM    7  O   UNL     1      -9.769  13.938  68.202  1.00  0.00    -0.210 OA 
BRANCH   7   8
HETATM    8  C   UNL     1      -9.569  13.140  67.066  1.00  0.00    -0.241 A  
HETATM    9  C   UNL     1     -10.361  13.386  65.947  1.00  0.00    -0.290 A  
HETATM   10  C   UNL     1     -10.259  12.542  64.842  1.00  0.00    -0.301 A  
HETATM   11  C   UNL     1      -9.383  11.449  64.863  1.00  0.00    -0.137 A  
HETATM   12  C   UNL     1      -8.606  11.177  65.999  1.00  0.00    -0.154 A  
HETATM   13  C   UNL     1      -8.712  12.040  67.102  1.00  0.00    -0.183 A  
BRANCH  12  14
HETATM   14  C   UNL     1      -7.686   9.964  66.114  1.00  0.00    -0.107 C  
HETATM   15  C   UNL     1      -8.437   8.733  66.644  1.00  0.00    -0.111 C  
BRANCH  14  16
HETATM   16  N   UNL     1      -6.386  10.206  66.781  1.00  0.00    -0.068 NA 
HETATM   17  C   UNL     1      -5.952   9.080  67.609  1.00  0.00    -0.046 C  
HETATM   18  C   UNL     1      -5.301  10.669  65.928  1.00  0.00    -0.111 C  
ENDBRANCH  14  16
ENDBRANCH  12  14
ENDBRANCH   7   8
ENDBRANCH   5   7
ENDBRANCH   2   3
TORSDOF 5
ENDMDL
MODEL      207
REMARK 921   NORMALIZED FREE ENERGY PREDICTED BY IDOCK:   -2.51 KCAL/MOL
REMARK 922        TOTAL FREE ENERGY PREDICTED BY IDOCK:   -3.85 KCAL/MOL
REMARK 923 INTER-LIGAND FREE ENERGY PREDICTED BY IDOCK:   -4.01 KCAL/MOL
REMARK 924 INTRA-LIGAND FREE ENERGY PREDICTED BY IDOCK:    0.17 KCAL/MOL
REMARK 927      BINDING AFFINITY PREDICTED BY RF-SCORE:    0.00 PKD
ROOT
HETATM    1  C   UNL     1      -5.548  10.692  66.436  1.00  0.00    -0.080 C  
HETATM    2  C   UNL     1      -5.406  10.772  67.951  1.00  0.00    -0.039 C  
ENDROOT
BRANCH   2   3
HETATM    3  N   UNL     1      -6.104   9.696  68.644  1.00  0.00    -0.043 N  
HETATM    4  C   UNL     1      -6.427   8.486  67.908  1.00  0.00    -0.057 C  
HETATM    5  C   UNL     1      -6.682   9.949  69.889  1.00  0.00    -0.088 C  
HETATM    6  O   UNL     1      -6.553  11.015  70.482  1.00  0.00    -0.299 OA 
BRANCH   5   7
HETATM    7  O   UNL     1      -7.438   8.872  70.344  1.00  0.00    -0.062 OA 
BRANCH   7   8
HETATM    8  C   UNL     1      -8.768   9.115  70.717  1.00  0.00    -0.236 A  
HETATM    9  C   UNL     1      -9.254   8.479  71.857  1.00  0.00    -0.326 A  
HETATM   10  C   UNL     1     -10.600   8.617  72.192  1.00  0.00    -0.411 A  
HETATM   11  C   UNL     1     -11.459   9.372  71.382  1.00  0.00    -0.449 A  
HETATM   12  C   UNL     1     -10.983   9.988  70.215  1.00  0.00    -0.377 A  
HETATM   13  C   UNL     1      -9.622   9.849  69.894  1.00  0.00    -0.265 A  
BRANCH  12  14
HETATM   14  C   UNL     1     -11.878  10.765  69.253  1.00  0.00    -0.288 C  
HETATM   15  C   UNL     1     -11.234  10.896  67.863  1.00  0.00    -0.387 C  
BRANCH  14  16
HETATM   16  N   UNL     1     -12.434  12.033  69.777  1.00  0.00    -0.004 NA 
HETATM   17  C   UNL     1     -12.672  11.998  71.220  1.00  0.00    -0.279 C  
HETATM   18  C   UNL     1     -11.730  13.250  69.400  1.00  0.00    -0.325 C  
ENDBRANCH  14  16
ENDBRANCH  12  14
ENDBRANCH   7   8
ENDBRANCH   5   7
ENDBRANCH   2   3
TORSDOF 5
ENDMDL
MODEL      208
REMARK 921   NORMALIZED FREE ENERGY PREDICTED BY IDOCK:   -2.50 KCAL/MOL
REMARK 922        TOTAL FREE ENERGY PREDICTED BY IDOCK:   -3.84 KCAL/MOL
REMARK 923 INTER-LIGAND FREE ENERGY PREDICTED BY IDOCK:   -3.28 KCAL/MOL
REMARK 924 INTRA-LIGAND FREE ENERGY PREDICTED BY IDOCK:   -0.56 KCAL/MOL
REMARK 927      BINDING AFFINITY PREDICTED BY RF-SCORE:    0.00 PKD
ROOT
HETATM    1  C   UNL     1      -9.666   3.928  64.347  1.00  0.00    -0.181 C  
HETATM    2  C   UNL     1      -9.224   2.798  65.270  1.00  0.00    -0.130 C  
ENDROOT
BRANCH   2   3
HETATM    3  N   UNL     1      -8.618   3.279  66.505  1.00  0.00    -0.111 N  
HETATM    4  C   UNL     1      -7.637   4.348  66.431  1.00  0.00    -0.086 C  
HETATM    5  C   UNL     1      -8.777   2.537  67.677  1.00  0.00    -0.115 C  
HETATM    6  O   UNL     1      -9.487   1.539  67.745  1.00  0.00    -0.148 OA 
BRANCH   5   7
HETATM    7  O   UNL     1      -8.015   3.045  68.726  1.00  0.00    -0.056 OA 
BRANCH   7   8
HETATM    8  C   UNL     1      -8.688   3.458  69.885  1.00  0.00    -0.076 A  
HETATM    9  C   UNL     1      -8.604   2.645  71.013  1.00  0.00    -0.106 A  
HETATM   10  C   UNL     1      -9.348   2.974  72.146  1.00  0.00    -0.182 A  
HETATM   11  C   UNL     1     -10.183   4.099  72.143  1.00  0.00    -0.220 A  
HETATM   12  C   UNL     1     -10.296   4.904  71.000  1.00  0.00    -0.217 A  
HETATM   13  C   UNL     1      -9.534   4.566  69.869  1.00  0.00    -0.245 A  
BRANCH  12  14
HETATM   14  C   UNL     1     -11.239   6.101  70.908  1.00  0.00    -0.299 C  
HETATM   15  C   UNL     1     -11.291   6.670  69.481  1.00  0.00    -0.358 C  
BRANCH  14  16
HETATM   16  N   UNL     1     -11.071   7.131  71.958  1.00  0.00    -0.238 NA 
HETATM   17  C   UNL     1      -9.799   7.848  71.855  1.00  0.00    -0.178 C  
HETATM   18  C   UNL     1     -12.177   8.063  72.127  1.00  0.00    -0.331 C  
ENDBRANCH  14  16
ENDBRANCH  12  14
ENDBRANCH   7   8
ENDBRANCH   5   7
ENDBRANCH   2   3
TORSDOF 5
ENDMDL
MODEL      209
REMARK 921   NORMALIZED FREE ENERGY PREDICTED BY IDOCK:   -2.48 KCAL/MOL
REMARK 922        TOTAL FREE ENERGY PREDICTED BY IDOCK:   -3.81 KCAL/MOL
REMARK 923 INTER-LIGAND FREE ENERGY PREDICTED BY IDOCK:   -3.96 KCAL/MOL
REMARK 924 INTRA-LIGAND FREE ENERGY PREDICTED BY IDOCK:    0.15 KCAL/MOL
REMARK 927      BINDING AFFINITY PREDICTED BY RF-SCORE:    0.00 PKD
ROOT
HETATM    1  C   UNL     1     -10.745  17.513  65.738  1.00  0.00    -0.106 C  
HETATM    2  C   UNL     1     -10.249  17.198  67.144  1.00  0.00    -0.316 C  
ENDROOT
BRANCH   2   3
HETATM    3  N   UNL     1      -9.323  16.073  67.180  1.00  0.00    -0.209 N  
HETATM    4  C   UNL     1      -8.009  16.230  66.579  1.00  0.00    -0.291 C  
HETATM    5  C   UNL     1      -9.799  14.808  67.533  1.00  0.00    -0.218 C  
HETATM    6  O   UNL     1     -10.949  14.608  67.909  1.00  0.00    -0.263 OA 
BRANCH   5   7
HETATM    7  O   UNL     1      -8.831  13.821  67.370  1.00  0.00    -0.188 OA 
BRANCH   7   8
HETATM    8  C   UNL     1      -9.167  12.693  66.607  1.00  0.00    -0.218 A  
HETATM    9  C   UNL     1     -10.251  12.791  65.738  1.00  0.00    -0.302 A  
HETATM   10  C   UNL     1     -10.674  11.657  65.046  1.00  0.00    -0.351 A  
HETATM   11  C   UNL     1     -10.027  10.429  65.235  1.00  0.00    -0.376 A  
HETATM   12  C   UNL     1      -8.954  10.316  66.132  1.00  0.00    -0.174 A  
HETATM   13  C   UNL     1      -8.532  11.468  66.816  1.00  0.00    -0.168 A  
BRANCH  12  14
HETATM   14  C   UNL     1      -8.252   8.995  66.436  1.00  0.00    -0.111 C  
HETATM   15  C   UNL     1      -7.913   8.227  65.149  1.00  0.00    -0.128 C  
BRANCH  14  16
HETATM   16  N   UNL     1      -8.882   8.160  67.483  1.00  0.00    -0.134 NA 
HETATM   17  C   UNL     1      -8.760   8.737  68.823  1.00  0.00    -0.137 C  
HETATM   18  C   UNL     1     -10.250   7.731  67.229  1.00  0.00    -0.273 C  
ENDBRANCH  14  16
ENDBRANCH  12  14
ENDBRANCH   7   8
ENDBRANCH   5   7
ENDBRANCH   2   3
TORSDOF 5
ENDMDL
MODEL      210
REMARK 921   NORMALIZED FREE ENERGY PREDICTED BY IDOCK:   -2.44 KCAL/MOL
REMARK 922        TOTAL FREE ENERGY PREDICTED BY IDOCK:   -3.76 KCAL/MOL
REMARK 923 INTER-LIGAND FREE ENERGY PREDICTED BY IDOCK:   -3.41 KCAL/MOL
REMARK 924 INTRA-LIGAND FREE ENERGY PREDICTED BY IDOCK:   -0.35 KCAL/MOL
REMARK 927      BINDING AFFINITY PREDICTED BY RF-SCORE:    0.00 PKD
ROOT
HETATM    1  C   UNL     1      -9.284   3.446  64.328  1.00  0.00    -0.130 C  
HETATM    2  C   UNL     1      -8.017   3.298  65.162  1.00  0.00    -0.082 C  
ENDROOT
BRANCH   2   3
HETATM    3  N   UNL     1      -8.291   3.134  66.585  1.00  0.00    -0.093 N  
HETATM    4  C   UNL     1      -9.136   2.033  67.010  1.00  0.00    -0.092 C  
HETATM    5  C   UNL     1      -7.975   4.172  67.464  1.00  0.00    -0.091 C  
HETATM    6  O   UNL     1      -7.386   5.189  67.114  1.00  0.00    -0.080 OA 
BRANCH   5   7
HETATM    7  O   UNL     1      -8.436   3.923  68.754  1.00  0.00    -0.076 OA 
BRANCH   7   8
HETATM    8  C   UNL     1      -9.429   4.769  69.270  1.00  0.00    -0.153 A  
HETATM    9  C   UNL     1     -10.316   5.359  68.372  1.00  0.00    -0.216 A  
HETATM   10  C   UNL     1     -11.245   6.286  68.842  1.00  0.00    -0.387 A  
HETATM   11  C   UNL     1     -11.275   6.634  70.199  1.00  0.00    -0.416 A  
HETATM   12  C   UNL     1     -10.364   6.068  71.103  1.00  0.00    -0.267 A  
HETATM   13  C   UNL     1      -9.440   5.128  70.618  1.00  0.00    -0.229 A  
BRANCH  12  14
HETATM   14  C   UNL     1     -10.297   6.455  72.578  1.00  0.00    -0.191 C  
HETATM   15  C   UNL     1     -11.113   7.725  72.866  1.00  0.00    -0.457 C  
BRANCH  14  16
HETATM   16  N   UNL     1      -8.944   6.463  73.178  1.00  0.00    -0.129 NA 
HETATM   17  C   UNL     1      -8.465   7.812  73.485  1.00  0.00    -0.207 C  
HETATM   18  C   UNL     1      -8.736   5.572  74.311  1.00  0.00    -0.118 C  
ENDBRANCH  14  16
ENDBRANCH  12  14
ENDBRANCH   7   8
ENDBRANCH   5   7
ENDBRANCH   2   3
TORSDOF 5
ENDMDL
MODEL      211
REMARK 921   NORMALIZED FREE ENERGY PREDICTED BY IDOCK:   -2.43 KCAL/MOL
REMARK 922        TOTAL FREE ENERGY PREDICTED BY IDOCK:   -3.75 KCAL/MOL
REMARK 923 INTER-LIGAND FREE ENERGY PREDICTED BY IDOCK:   -3.41 KCAL/MOL
REMARK 924 INTRA-LIGAND FREE ENERGY PREDICTED BY IDOCK:   -0.34 KCAL/MOL
REMARK 927      BINDING AFFINITY PREDICTED BY RF-SCORE:    0.00 PKD
ROOT
HETATM    1  C   UNL     1     -12.768  13.379  65.157  1.00  0.00    -0.459 C  
HETATM    2  C   UNL     1     -12.157  14.023  66.395  1.00  0.00    -0.455 C  
ENDROOT
BRANCH   2   3
HETATM    3  N   UNL     1     -10.708  14.156  66.309  1.00  0.00    -0.290 N  
HETATM    4  C   UNL     1     -10.118  14.568  65.046  1.00  0.00    -0.290 C  
HETATM    5  C   UNL     1      -9.913  13.632  67.329  1.00  0.00    -0.240 C  
HETATM    6  O   UNL     1     -10.377  13.142  68.353  1.00  0.00    -0.245 OA 
BRANCH   5   7
HETATM    7  O   UNL     1      -8.556  13.703  67.025  1.00  0.00    -0.209 OA 
BRANCH   7   8
HETATM    8  C   UNL     1      -7.767  12.570  67.275  1.00  0.00    -0.146 A  
HETATM    9  C   UNL     1      -6.661  12.715  68.108  1.00  0.00    -0.081 A  
HETATM   10  C   UNL     1      -5.800  11.634  68.291  1.00  0.00    -0.045 A  
HETATM   11  C   UNL     1      -6.034  10.421  67.629  1.00  0.00    -0.048 A  
HETATM   12  C   UNL     1      -7.129  10.278  66.763  1.00  0.00    -0.094 A  
HETATM   13  C   UNL     1      -7.994  11.372  66.596  1.00  0.00    -0.148 A  
BRANCH  12  14
HETATM   14  C   UNL     1      -7.402   9.010  65.960  1.00  0.00    -0.094 C  
HETATM   15  C   UNL     1      -7.595   9.318  64.466  1.00  0.00    -0.107 C  
BRANCH  14  16
HETATM   16  N   UNL     1      -8.429   8.103  66.522  1.00  0.00    -0.125 NA 
HETATM   17  C   UNL     1      -8.205   7.795  67.935  1.00  0.00    -0.123 C  
HETATM   18  C   UNL     1      -9.816   8.479  66.289  1.00  0.00    -0.215 C  
ENDBRANCH  14  16
ENDBRANCH  12  14
ENDBRANCH   7   8
ENDBRANCH   5   7
ENDBRANCH   2   3
TORSDOF 5
ENDMDL
MODEL      212
REMARK 921   NORMALIZED FREE ENERGY PREDICTED BY IDOCK:   -2.40 KCAL/MOL
REMARK 922        TOTAL FREE ENERGY PREDICTED BY IDOCK:   -3.71 KCAL/MOL
REMARK 923 INTER-LIGAND FREE ENERGY PREDICTED BY IDOCK:   -3.89 KCAL/MOL
REMARK 924 INTRA-LIGAND FREE ENERGY PREDICTED BY IDOCK:    0.18 KCAL/MOL
REMARK 927      BINDING AFFINITY PREDICTED BY RF-SCORE:    0.00 PKD
ROOT
HETATM    1  C   UNL     1     -11.485  15.724  68.787  1.00  0.00    -0.391 C  
HETATM    2  C   UNL     1     -10.275  14.892  68.379  1.00  0.00    -0.231 C  
ENDROOT
BRANCH   2   3
HETATM    3  N   UNL     1     -10.611  13.502  68.095  1.00  0.00    -0.238 N  
HETATM    4  C   UNL     1     -11.960  13.040  68.371  1.00  0.00    -0.271 C  
HETATM    5  C   UNL     1      -9.585  12.593  67.832  1.00  0.00    -0.211 C  
HETATM    6  O   UNL     1      -8.407  12.923  67.734  1.00  0.00    -0.152 OA 
BRANCH   5   7
HETATM    7  O   UNL     1     -10.056  11.286  67.733  1.00  0.00    -0.175 OA 
BRANCH   7   8
HETATM    8  C   UNL     1      -9.366  10.286  68.435  1.00  0.00    -0.143 A  
HETATM    9  C   UNL     1      -8.003  10.139  68.190  1.00  0.00    -0.104 A  
HETATM   10  C   UNL     1      -7.313   9.087  68.792  1.00  0.00    -0.076 A  
HETATM   11  C   UNL     1      -7.987   8.178  69.618  1.00  0.00    -0.115 A  
HETATM   12  C   UNL     1      -9.367   8.302  69.843  1.00  0.00    -0.159 A  
HETATM   13  C   UNL     1     -10.047   9.372  69.239  1.00  0.00    -0.200 A  
BRANCH  12  14
HETATM   14  C   UNL     1     -10.173   7.308  70.675  1.00  0.00    -0.195 C  
HETATM   15  C   UNL     1     -11.377   6.761  69.891  1.00  0.00    -0.374 C  
BRANCH  14  16
HETATM   16  N   UNL     1     -10.501   7.742  72.052  1.00  0.00    -0.214 NA 
HETATM   17  C   UNL     1      -9.399   8.450  72.705  1.00  0.00    -0.264 C  
HETATM   18  C   UNL     1     -11.751   8.470  72.217  1.00  0.00    -0.373 C  
ENDBRANCH  14  16
ENDBRANCH  12  14
ENDBRANCH   7   8
ENDBRANCH   5   7
ENDBRANCH   2   3
TORSDOF 5
ENDMDL
MODEL      213
REMARK 921   NORMALIZED FREE ENERGY PREDICTED BY IDOCK:   -2.34 KCAL/MOL
REMARK 922        TOTAL FREE ENERGY PREDICTED BY IDOCK:   -3.63 KCAL/MOL
REMARK 923 INTER-LIGAND FREE ENERGY PREDICTED BY IDOCK:   -3.46 KCAL/MOL
REMARK 924 INTRA-LIGAND FREE ENERGY PREDICTED BY IDOCK:   -0.17 KCAL/MOL
REMARK 927      BINDING AFFINITY PREDICTED BY RF-SCORE:    0.00 PKD
ROOT
HETATM    1  C   UNL     1      -9.165   6.318  72.807  1.00  0.00    -0.137 C  
HETATM    2  C   UNL     1     -10.404   6.258  71.922  1.00  0.00    -0.204 C  
ENDROOT
BRANCH   2   3
HETATM    3  N   UNL     1     -10.888   7.577  71.534  1.00  0.00    -0.226 N  
HETATM    4  C   UNL     1     -11.650   8.353  72.497  1.00  0.00    -0.356 C  
HETATM    5  C   UNL     1     -10.854   7.947  70.188  1.00  0.00    -0.243 C  
HETATM    6  O   UNL     1     -10.346   7.250  69.316  1.00  0.00    -0.195 OA 
BRANCH   5   7
HETATM    7  O   UNL     1     -11.489   9.166  69.964  1.00  0.00    -0.158 OA 
BRANCH   7   8
HETATM    8  C   UNL     1     -10.789  10.147  69.245  1.00  0.00    -0.235 A  
HETATM    9  C   UNL     1     -11.491  10.886  68.296  1.00  0.00    -0.376 A  
HETATM   10  C   UNL     1     -10.801  11.794  67.493  1.00  0.00    -0.286 A  
HETATM   11  C   UNL     1      -9.415  11.947  67.627  1.00  0.00    -0.182 A  
HETATM   12  C   UNL     1      -8.697  11.182  68.560  1.00  0.00    -0.161 A  
HETATM   13  C   UNL     1      -9.406  10.279  69.369  1.00  0.00    -0.217 A  
BRANCH  12  14
HETATM   14  C   UNL     1      -7.179  11.250  68.708  1.00  0.00    -0.104 C  
HETATM   15  C   UNL     1      -6.691  12.700  68.861  1.00  0.00    -0.098 C  
BRANCH  14  16
HETATM   16  N   UNL     1      -6.403  10.457  67.728  1.00  0.00    -0.060 NA 
HETATM   17  C   UNL     1      -6.931   9.105  67.543  1.00  0.00    -0.078 C  
HETATM   18  C   UNL     1      -6.149  11.092  66.443  1.00  0.00    -0.141 C  
ENDBRANCH  14  16
ENDBRANCH  12  14
ENDBRANCH   7   8
ENDBRANCH   5   7
ENDBRANCH   2   3
TORSDOF 5
ENDMDL
MODEL      214
REMARK 921   NORMALIZED FREE ENERGY PREDICTED BY IDOCK:   -2.33 KCAL/MOL
REMARK 922        TOTAL FREE ENERGY PREDICTED BY IDOCK:   -3.62 KCAL/MOL
REMARK 923 INTER-LIGAND FREE ENERGY PREDICTED BY IDOCK:   -3.16 KCAL/MOL
REMARK 924 INTRA-LIGAND FREE ENERGY PREDICTED BY IDOCK:   -0.46 KCAL/MOL
REMARK 927      BINDING AFFINITY PREDICTED BY RF-SCORE:    0.00 PKD
ROOT
HETATM    1  C   UNL     1      -8.678  11.496  66.232  1.00  0.00    -0.159 C  
HETATM    2  C   UNL     1      -9.399  11.693  67.560  1.00  0.00    -0.168 C  
ENDROOT
BRANCH   2   3
HETATM    3  N   UNL     1      -8.806  10.925  68.648  1.00  0.00    -0.153 N  
HETATM    4  C   UNL     1      -7.363  10.761  68.681  1.00  0.00    -0.097 C  
HETATM    5  C   UNL     1      -9.632  10.146  69.461  1.00  0.00    -0.221 C  
HETATM    6  O   UNL     1     -10.855  10.146  69.367  1.00  0.00    -0.214 OA 
BRANCH   5   7
HETATM    7  O   UNL     1      -8.901   9.359  70.347  1.00  0.00    -0.217 OA 
BRANCH   7   8
HETATM    8  C   UNL     1      -9.117   7.972  70.324  1.00  0.00    -0.148 A  
HETATM    9  C   UNL     1      -9.052   7.322  69.095  1.00  0.00    -0.137 A  
HETATM   10  C   UNL     1      -9.366   5.965  69.025  1.00  0.00    -0.138 A  
HETATM   11  C   UNL     1      -9.760   5.269  70.176  1.00  0.00    -0.262 A  
HETATM   12  C   UNL     1      -9.858   5.926  71.412  1.00  0.00    -0.205 A  
HETATM   13  C   UNL     1      -9.529   7.290  71.469  1.00  0.00    -0.160 A  
BRANCH  12  14
HETATM   14  C   UNL     1     -10.346   5.244  72.687  1.00  0.00    -0.202 C  
HETATM   15  C   UNL     1     -10.431   6.234  73.860  1.00  0.00    -0.292 C  
BRANCH  14  16
HETATM   16  N   UNL     1      -9.679   3.967  73.028  1.00  0.00    -0.126 NA 
HETATM   17  C   UNL     1      -8.696   4.107  74.103  1.00  0.00    -0.096 C  
HETATM   18  C   UNL     1     -10.553   2.829  73.273  1.00  0.00    -0.165 C  
ENDBRANCH  14  16
ENDBRANCH  12  14
ENDBRANCH   7   8
ENDBRANCH   5   7
ENDBRANCH   2   3
TORSDOF 5
ENDMDL
MODEL      215
REMARK 921   NORMALIZED FREE ENERGY PREDICTED BY IDOCK:   -2.31 KCAL/MOL
REMARK 922        TOTAL FREE ENERGY PREDICTED BY IDOCK:   -3.60 KCAL/MOL
REMARK 923 INTER-LIGAND FREE ENERGY PREDICTED BY IDOCK:   -3.25 KCAL/MOL
REMARK 924 INTRA-LIGAND FREE ENERGY PREDICTED BY IDOCK:   -0.35 KCAL/MOL
REMARK 927      BINDING AFFINITY PREDICTED BY RF-SCORE:    0.00 PKD
ROOT
HETATM    1  C   UNL     1      -9.841  13.694  66.271  1.00  0.00    -0.310 C  
HETATM    2  C   UNL     1     -10.413  12.384  66.801  1.00  0.00    -0.221 C  
ENDROOT
BRANCH   2   3
HETATM    3  N   UNL     1      -9.824  11.210  66.170  1.00  0.00    -0.216 N  
HETATM    4  C   UNL     1     -10.093  10.965  64.764  1.00  0.00    -0.321 C  
HETATM    5  C   UNL     1      -9.256  10.218  66.971  1.00  0.00    -0.150 C  
HETATM    6  O   UNL     1      -9.141  10.326  68.187  1.00  0.00    -0.133 OA 
BRANCH   5   7
HETATM    7  O   UNL     1      -8.878   9.100  66.231  1.00  0.00    -0.136 OA 
BRANCH   7   8
HETATM    8  C   UNL     1      -9.292   7.841  66.690  1.00  0.00    -0.188 A  
HETATM    9  C   UNL     1     -10.652   7.642  66.916  1.00  0.00    -0.359 A  
HETATM   10  C   UNL     1     -11.080   6.437  67.471  1.00  0.00    -0.401 A  
HETATM   11  C   UNL     1     -10.153   5.445  67.815  1.00  0.00    -0.215 A  
HETATM   12  C   UNL     1      -8.779   5.651  67.619  1.00  0.00    -0.107 A  
HETATM   13  C   UNL     1      -8.361   6.866  67.050  1.00  0.00    -0.121 A  
BRANCH  12  14
HETATM   14  C   UNL     1      -7.712   4.642  68.035  1.00  0.00    -0.081 C  
HETATM   15  C   UNL     1      -6.361   5.325  68.300  1.00  0.00    -0.035 C  
BRANCH  14  16
HETATM   16  N   UNL     1      -7.615   3.428  67.193  1.00  0.00    -0.077 NA 
HETATM   17  C   UNL     1      -8.413   2.313  67.704  1.00  0.00    -0.082 C  
HETATM   18  C   UNL     1      -7.844   3.614  65.767  1.00  0.00    -0.092 C  
ENDBRANCH  14  16
ENDBRANCH  12  14
ENDBRANCH   7   8
ENDBRANCH   5   7
ENDBRANCH   2   3
TORSDOF 5
ENDMDL
MODEL      216
REMARK 921   NORMALIZED FREE ENERGY PREDICTED BY IDOCK:   -2.29 KCAL/MOL
REMARK 922        TOTAL FREE ENERGY PREDICTED BY IDOCK:   -3.56 KCAL/MOL
REMARK 923 INTER-LIGAND FREE ENERGY PREDICTED BY IDOCK:   -3.59 KCAL/MOL
REMARK 924 INTRA-LIGAND FREE ENERGY PREDICTED BY IDOCK:    0.02 KCAL/MOL
REMARK 927      BINDING AFFINITY PREDICTED BY RF-SCORE:    0.00 PKD
ROOT
HETATM    1  C   UNL     1      -8.954   9.548  62.756  1.00  0.00    -0.243 C  
HETATM    2  C   UNL     1      -7.683   9.773  63.565  1.00  0.00    -0.132 C  
ENDROOT
BRANCH   2   3
HETATM    3  N   UNL     1      -7.813   9.355  64.956  1.00  0.00    -0.111 N  
HETATM    4  C   UNL     1      -8.131  10.357  65.958  1.00  0.00    -0.143 C  
HETATM    5  C   UNL     1      -7.370   8.086  65.331  1.00  0.00    -0.069 C  
HETATM    6  O   UNL     1      -6.956   7.257  64.527  1.00  0.00    -0.049 OA 
BRANCH   5   7
HETATM    7  O   UNL     1      -7.422   7.900  66.711  1.00  0.00    -0.087 OA 
BRANCH   7   8
HETATM    8  C   UNL     1      -8.617   7.412  67.261  1.00  0.00    -0.118 A  
HETATM    9  C   UNL     1      -9.331   6.463  66.534  1.00  0.00    -0.181 A  
HETATM   10  C   UNL     1     -10.573   6.038  67.004  1.00  0.00    -0.385 A  
HETATM   11  C   UNL     1     -11.105   6.573  68.185  1.00  0.00    -0.332 A  
HETATM   12  C   UNL     1     -10.405   7.553  68.905  1.00  0.00    -0.220 A  
HETATM   13  C   UNL     1      -9.151   7.965  68.425  1.00  0.00    -0.135 A  
BRANCH  12  14
HETATM   14  C   UNL     1     -10.958   8.226  70.158  1.00  0.00    -0.222 C  
HETATM   15  C   UNL     1     -10.211   9.532  70.474  1.00  0.00    -0.349 C  
BRANCH  14  16
HETATM   16  N   UNL     1     -11.143   7.343  71.332  1.00  0.00    -0.237 NA 
HETATM   17  C   UNL     1     -12.525   6.888  71.491  1.00  0.00    -0.375 C  
HETATM   18  C   UNL     1     -10.216   6.227  71.450  1.00  0.00    -0.201 C  
ENDBRANCH  14  16
ENDBRANCH  12  14
ENDBRANCH   7   8
ENDBRANCH   5   7
ENDBRANCH   2   3
TORSDOF 5
ENDMDL
MODEL      217
REMARK 921   NORMALIZED FREE ENERGY PREDICTED BY IDOCK:   -2.23 KCAL/MOL
REMARK 922        TOTAL FREE ENERGY PREDICTED BY IDOCK:   -3.49 KCAL/MOL
REMARK 923 INTER-LIGAND FREE ENERGY PREDICTED BY IDOCK:   -2.98 KCAL/MOL
REMARK 924 INTRA-LIGAND FREE ENERGY PREDICTED BY IDOCK:   -0.51 KCAL/MOL
REMARK 927      BINDING AFFINITY PREDICTED BY RF-SCORE:    0.00 PKD
ROOT
HETATM    1  C   UNL     1     -13.046   9.439  71.913  1.00  0.00    -0.505 C  
HETATM    2  C   UNL     1     -12.294   8.237  72.471  1.00  0.00    -0.276 C  
ENDROOT
BRANCH   2   3
HETATM    3  N   UNL     1     -11.585   7.484  71.444  1.00  0.00    -0.268 N  
HETATM    4  C   UNL     1     -12.215   6.298  70.888  1.00  0.00     0.172 C  
HETATM    5  C   UNL     1     -10.233   7.746  71.218  1.00  0.00    -0.193 C  
HETATM    6  O   UNL     1      -9.624   8.651  71.778  1.00  0.00    -0.237 OA 
BRANCH   5   7
HETATM    7  O   UNL     1      -9.668   6.843  70.320  1.00  0.00    -0.172 OA 
BRANCH   7   8
HETATM    8  C   UNL     1      -8.916   7.361  69.255  1.00  0.00    -0.136 A  
HETATM    9  C   UNL     1      -7.589   6.957  69.136  1.00  0.00    -0.097 A  
HETATM   10  C   UNL     1      -6.787   7.535  68.152  1.00  0.00    -0.063 A  
HETATM   11  C   UNL     1      -7.305   8.525  67.306  1.00  0.00    -0.088 A  
HETATM   12  C   UNL     1      -8.632   8.959  67.442  1.00  0.00    -0.119 A  
HETATM   13  C   UNL     1      -9.432   8.361  68.430  1.00  0.00    -0.145 A  
BRANCH  12  14
HETATM   14  C   UNL     1      -9.238  10.079  66.600  1.00  0.00    -0.149 C  
HETATM   15  C   UNL     1      -8.561  10.180  65.224  1.00  0.00    -0.169 C  
BRANCH  14  16
HETATM   16  N   UNL     1      -9.397  11.382  67.286  1.00  0.00    -0.166 NA 
HETATM   17  C   UNL     1      -8.121  11.965  67.705  1.00  0.00    -0.146 C  
HETATM   18  C   UNL     1     -10.217  12.372  66.604  1.00  0.00    -0.224 C  
ENDBRANCH  14  16
ENDBRANCH  12  14
ENDBRANCH   7   8
ENDBRANCH   5   7
ENDBRANCH   2   3
TORSDOF 5
ENDMDL
MODEL      218
REMARK 921   NORMALIZED FREE ENERGY PREDICTED BY IDOCK:   -2.23 KCAL/MOL
REMARK 922        TOTAL FREE ENERGY PREDICTED BY IDOCK:   -3.49 KCAL/MOL
REMARK 923 INTER-LIGAND FREE ENERGY PREDICTED BY IDOCK:   -3.47 KCAL/MOL
REMARK 924 INTRA-LIGAND FREE ENERGY PREDICTED BY IDOCK:   -0.02 KCAL/MOL
REMARK 927      BINDING AFFINITY PREDICTED BY RF-SCORE:    0.00 PKD
ROOT
HETATM    1  C   UNL     1     -10.894   2.676  73.330  1.00  0.00    -0.293 C  
HETATM    2  C   UNL     1      -9.776   3.543  72.764  1.00  0.00    -0.136 C  
ENDROOT
BRANCH   2   3
HETATM    3  N   UNL     1     -10.131   4.955  72.698  1.00  0.00    -0.168 N  
HETATM    4  C   UNL     1     -11.379   5.390  73.300  1.00  0.00    -0.204 C  
HETATM    5  C   UNL     1      -9.421   5.797  71.840  1.00  0.00    -0.151 C  
HETATM    6  O   UNL     1      -8.443   5.428  71.199  1.00  0.00    -0.121 OA 
BRANCH   5   7
HETATM    7  O   UNL     1      -9.978   7.072  71.779  1.00  0.00    -0.177 OA 
BRANCH   7   8
HETATM    8  C   UNL     1      -9.700   7.856  70.649  1.00  0.00    -0.173 A  
HETATM    9  C   UNL     1      -9.423   9.207  70.844  1.00  0.00    -0.343 A  
HETATM   10  C   UNL     1      -9.246  10.033  69.734  1.00  0.00    -0.227 A  
HETATM   11  C   UNL     1      -9.365   9.513  68.439  1.00  0.00    -0.137 A  
HETATM   12  C   UNL     1      -9.675   8.160  68.236  1.00  0.00    -0.175 A  
HETATM   13  C   UNL     1      -9.840   7.338  69.362  1.00  0.00    -0.163 A  
BRANCH  12  14
HETATM   14  C   UNL     1      -9.886   7.547  66.854  1.00  0.00    -0.226 C  
HETATM   15  C   UNL     1     -10.914   6.405  66.894  1.00  0.00    -0.413 C  
BRANCH  14  16
HETATM   16  N   UNL     1      -8.654   7.218  66.103  1.00  0.00    -0.144 NA 
HETATM   17  C   UNL     1      -8.349   8.190  65.053  1.00  0.00    -0.136 C  
HETATM   18  C   UNL     1      -7.470   6.933  66.902  1.00  0.00    -0.083 C  
ENDBRANCH  14  16
ENDBRANCH  12  14
ENDBRANCH   7   8
ENDBRANCH   5   7
ENDBRANCH   2   3
TORSDOF 5
ENDMDL
MODEL      219
REMARK 921   NORMALIZED FREE ENERGY PREDICTED BY IDOCK:   -2.22 KCAL/MOL
REMARK 922        TOTAL FREE ENERGY PREDICTED BY IDOCK:   -3.48 KCAL/MOL
REMARK 923 INTER-LIGAND FREE ENERGY PREDICTED BY IDOCK:   -2.99 KCAL/MOL
REMARK 924 INTRA-LIGAND FREE ENERGY PREDICTED BY IDOCK:   -0.49 KCAL/MOL
REMARK 927      BINDING AFFINITY PREDICTED BY RF-SCORE:    0.00 PKD
ROOT
HETATM    1  C   UNL     1     -12.028  11.555  70.053  1.00  0.00    -0.435 C  
HETATM    2  C   UNL     1     -10.807  11.812  69.177  1.00  0.00    -0.172 C  
ENDROOT
BRANCH   2   3
HETATM    3  N   UNL     1     -10.383  10.631  68.435  1.00  0.00    -0.167 N  
HETATM    4  C   UNL     1     -11.142  10.233  67.262  1.00  0.00    -0.142 C  
HETATM    5  C   UNL     1      -9.448   9.765  69.007  1.00  0.00    -0.173 C  
HETATM    6  O   UNL     1      -8.888   9.996  70.073  1.00  0.00    -0.192 OA 
BRANCH   5   7
HETATM    7  O   UNL     1      -9.266   8.614  68.244  1.00  0.00    -0.138 OA 
BRANCH   7   8
HETATM    8  C   UNL     1      -9.560   7.379  68.841  1.00  0.00    -0.148 A  
HETATM    9  C   UNL     1     -10.732   7.276  69.586  1.00  0.00    -0.249 A  
HETATM   10  C   UNL     1     -10.997   6.095  70.278  1.00  0.00    -0.417 A  
HETATM   11  C   UNL     1     -10.087   5.031  70.239  1.00  0.00    -0.339 A  
HETATM   12  C   UNL     1      -8.889   5.140  69.516  1.00  0.00    -0.120 A  
HETATM   13  C   UNL     1      -8.639   6.332  68.816  1.00  0.00    -0.122 A  
BRANCH  12  14
HETATM   14  C   UNL     1      -7.824   4.047  69.489  1.00  0.00    -0.052 C  
HETATM   15  C   UNL     1      -7.909   3.146  70.732  1.00  0.00    -0.047 C  
BRANCH  14  16
HETATM   16  N   UNL     1      -6.451   4.497  69.168  1.00  0.00    -0.038 NA 
HETATM   17  C   UNL     1      -5.545   4.430  70.315  1.00  0.00    -0.012 C  
HETATM   18  C   UNL     1      -5.837   3.899  67.991  1.00  0.00    -0.026 C  
ENDBRANCH  14  16
ENDBRANCH  12  14
ENDBRANCH   7   8
ENDBRANCH   5   7
ENDBRANCH   2   3
TORSDOF 5
ENDMDL
MODEL      220
REMARK 921   NORMALIZED FREE ENERGY PREDICTED BY IDOCK:   -2.21 KCAL/MOL
REMARK 922        TOTAL FREE ENERGY PREDICTED BY IDOCK:   -3.46 KCAL/MOL
REMARK 923 INTER-LIGAND FREE ENERGY PREDICTED BY IDOCK:   -3.00 KCAL/MOL
REMARK 924 INTRA-LIGAND FREE ENERGY PREDICTED BY IDOCK:   -0.46 KCAL/MOL
REMARK 927      BINDING AFFINITY PREDICTED BY RF-SCORE:    0.00 PKD
ROOT
HETATM    1  C   UNL     1     -11.810   1.606  73.531  1.00  0.00    -0.294 C  
HETATM    2  C   UNL     1     -10.648   2.029  72.640  1.00  0.00    -0.125 C  
ENDROOT
BRANCH   2   3
HETATM    3  N   UNL     1     -10.292   3.433  72.800  1.00  0.00    -0.167 N  
HETATM    4  C   UNL     1     -11.240   4.325  73.445  1.00  0.00    -0.268 C  
HETATM    5  C   UNL     1      -9.197   3.943  72.100  1.00  0.00    -0.119 C  
HETATM    6  O   UNL     1      -8.451   3.243  71.422  1.00  0.00    -0.066 OA 
BRANCH   5   7
HETATM    7  O   UNL     1      -9.084   5.324  72.239  1.00  0.00    -0.138 OA 
BRANCH   7   8
HETATM    8  C   UNL     1      -8.651   6.062  71.127  1.00  0.00    -0.129 A  
HETATM    9  C   UNL     1      -7.310   6.433  71.072  1.00  0.00    -0.083 A  
HETATM   10  C   UNL     1      -6.874   7.256  70.034  1.00  0.00    -0.055 A  
HETATM   11  C   UNL     1      -7.777   7.718  69.068  1.00  0.00    -0.109 A  
HETATM   12  C   UNL     1      -9.136   7.373  69.136  1.00  0.00    -0.134 A  
HETATM   13  C   UNL     1      -9.560   6.536  70.181  1.00  0.00    -0.171 A  
BRANCH  12  14
HETATM   14  C   UNL     1     -10.183   7.897  68.157  1.00  0.00    -0.205 C  
HETATM   15  C   UNL     1     -10.289   7.004  66.911  1.00  0.00    -0.338 C  
BRANCH  14  16
HETATM   16  N   UNL     1     -10.109   9.344  67.853  1.00  0.00    -0.183 NA 
HETATM   17  C   UNL     1     -10.300   9.638  66.432  1.00  0.00    -0.176 C  
HETATM   18  C   UNL     1     -10.932  10.218  68.675  1.00  0.00    -0.244 C  
ENDBRANCH  14  16
ENDBRANCH  12  14
ENDBRANCH   7   8
ENDBRANCH   5   7
ENDBRANCH   2   3
TORSDOF 5
ENDMDL
MODEL      221
REMARK 921   NORMALIZED FREE ENERGY PREDICTED BY IDOCK:   -2.20 KCAL/MOL
REMARK 922        TOTAL FREE ENERGY PREDICTED BY IDOCK:   -3.46 KCAL/MOL
REMARK 923 INTER-LIGAND FREE ENERGY PREDICTED BY IDOCK:   -3.22 KCAL/MOL
REMARK 924 INTRA-LIGAND FREE ENERGY PREDICTED BY IDOCK:   -0.24 KCAL/MOL
REMARK 927      BINDING AFFINITY PREDICTED BY RF-SCORE:    0.00 PKD
ROOT
HETATM    1  C   UNL     1      -9.434  11.475  66.312  1.00  0.00    -0.235 C  
HETATM    2  C   UNL     1     -10.018  11.809  67.680  1.00  0.00    -0.194 C  
ENDROOT
BRANCH   2   3
HETATM    3  N   UNL     1      -9.341  11.118  68.770  1.00  0.00    -0.175 N  
HETATM    4  C   UNL     1      -7.903  10.929  68.690  1.00  0.00    -0.126 C  
HETATM    5  C   UNL     1     -10.101  10.423  69.713  1.00  0.00    -0.157 C  
HETATM    6  O   UNL     1     -11.327  10.440  69.727  1.00  0.00    -0.252 OA 
BRANCH   5   7
HETATM    7  O   UNL     1      -9.304   9.695  70.593  1.00  0.00    -0.239 OA 
BRANCH   7   8
HETATM    8  C   UNL     1      -9.336   8.295  70.501  1.00  0.00    -0.159 A  
HETATM    9  C   UNL     1      -9.442   7.565  71.682  1.00  0.00    -0.170 A  
HETATM   10  C   UNL     1      -9.370   6.174  71.632  1.00  0.00    -0.157 A  
HETATM   11  C   UNL     1      -9.175   5.518  70.409  1.00  0.00    -0.182 A  
HETATM   12  C   UNL     1      -9.035   6.249  69.219  1.00  0.00    -0.125 A  
HETATM   13  C   UNL     1      -9.120   7.649  69.283  1.00  0.00    -0.145 A  
BRANCH  12  14
HETATM   14  C   UNL     1      -8.752   5.601  67.866  1.00  0.00    -0.107 C  
HETATM   15  C   UNL     1      -7.820   6.471  67.008  1.00  0.00    -0.108 C  
BRANCH  14  16
HETATM   16  N   UNL     1      -9.937   5.094  67.138  1.00  0.00    -0.173 NA 
HETATM   17  C   UNL     1     -10.963   6.118  66.934  1.00  0.00    -0.305 C  
HETATM   18  C   UNL     1      -9.672   4.376  65.899  1.00  0.00    -0.211 C  
ENDBRANCH  14  16
ENDBRANCH  12  14
ENDBRANCH   7   8
ENDBRANCH   5   7
ENDBRANCH   2   3
TORSDOF 5
ENDMDL
MODEL      222
REMARK 921   NORMALIZED FREE ENERGY PREDICTED BY IDOCK:   -2.20 KCAL/MOL
REMARK 922        TOTAL FREE ENERGY PREDICTED BY IDOCK:   -3.45 KCAL/MOL
REMARK 923 INTER-LIGAND FREE ENERGY PREDICTED BY IDOCK:   -2.92 KCAL/MOL
REMARK 924 INTRA-LIGAND FREE ENERGY PREDICTED BY IDOCK:   -0.54 KCAL/MOL
REMARK 927      BINDING AFFINITY PREDICTED BY RF-SCORE:    0.00 PKD
ROOT
HETATM    1  C   UNL     1      -9.657   4.014  64.327  1.00  0.00    -0.166 C  
HETATM    2  C   UNL     1      -8.873   3.448  65.504  1.00  0.00    -0.134 C  
ENDROOT
BRANCH   2   3
HETATM    3  N   UNL     1      -8.313   4.483  66.364  1.00  0.00    -0.106 N  
HETATM    4  C   UNL     1      -6.905   4.816  66.230  1.00  0.00    -0.062 C  
HETATM    5  C   UNL     1      -9.050   4.930  67.463  1.00  0.00    -0.118 C  
HETATM    6  O   UNL     1     -10.196   4.560  67.693  1.00  0.00    -0.071 OA 
BRANCH   5   7
HETATM    7  O   UNL     1      -8.317   5.801  68.265  1.00  0.00    -0.107 OA 
BRANCH   7   8
HETATM    8  C   UNL     1      -8.923   7.008  68.644  1.00  0.00    -0.130 A  
HETATM    9  C   UNL     1      -9.460   7.095  69.926  1.00  0.00    -0.153 A  
HETATM   10  C   UNL     1     -10.161   8.243  70.295  1.00  0.00    -0.195 A  
HETATM   11  C   UNL     1     -10.338   9.289  69.380  1.00  0.00    -0.223 A  
HETATM   12  C   UNL     1      -9.827   9.195  68.077  1.00  0.00    -0.197 A  
HETATM   13  C   UNL     1      -9.115   8.037  67.722  1.00  0.00    -0.136 A  
BRANCH  12  14
HETATM   14  C   UNL     1     -10.045  10.267  67.012  1.00  0.00    -0.218 C  
HETATM   15  C   UNL     1      -9.578   9.790  65.628  1.00  0.00    -0.329 C  
BRANCH  14  16
HETATM   16  N   UNL     1      -9.578  11.626  67.366  1.00  0.00    -0.166 NA 
HETATM   17  C   UNL     1      -8.138  11.802  67.178  1.00  0.00    -0.169 C  
HETATM   18  C   UNL     1     -10.315  12.734  66.774  1.00  0.00    -0.240 C  
ENDBRANCH  14  16
ENDBRANCH  12  14
ENDBRANCH   7   8
ENDBRANCH   5   7
ENDBRANCH   2   3
TORSDOF 5
ENDMDL
MODEL      223
REMARK 921   NORMALIZED FREE ENERGY PREDICTED BY IDOCK:   -2.20 KCAL/MOL
REMARK 922        TOTAL FREE ENERGY PREDICTED BY IDOCK:   -3.45 KCAL/MOL
REMARK 923 INTER-LIGAND FREE ENERGY PREDICTED BY IDOCK:   -3.26 KCAL/MOL
REMARK 924 INTRA-LIGAND FREE ENERGY PREDICTED BY IDOCK:   -0.19 KCAL/MOL
REMARK 927      BINDING AFFINITY PREDICTED BY RF-SCORE:    0.00 PKD
ROOT
HETATM    1  C   UNL     1     -13.380   9.603  71.501  1.00  0.00    -0.468 C  
HETATM    2  C   UNL     1     -12.129  10.463  71.373  1.00  0.00    -0.327 C  
ENDROOT
BRANCH   2   3
HETATM    3  N   UNL     1     -10.968   9.711  70.914  1.00  0.00    -0.317 N  
HETATM    4  C   UNL     1     -10.075   9.132  71.903  1.00  0.00    -0.126 C  
HETATM    5  C   UNL     1     -10.588   9.793  69.573  1.00  0.00    -0.233 C  
HETATM    6  O   UNL     1     -11.242  10.398  68.729  1.00  0.00    -0.246 OA 
BRANCH   5   7
HETATM    7  O   UNL     1      -9.380   9.146  69.330  1.00  0.00    -0.153 OA 
BRANCH   7   8
HETATM    8  C   UNL     1      -9.425   7.875  68.736  1.00  0.00    -0.147 A  
HETATM    9  C   UNL     1     -10.591   7.507  68.070  1.00  0.00    -0.217 A  
HETATM   10  C   UNL     1     -10.705   6.214  67.561  1.00  0.00    -0.393 A  
HETATM   11  C   UNL     1      -9.666   5.290  67.735  1.00  0.00    -0.170 A  
HETATM   12  C   UNL     1      -8.502   5.645  68.433  1.00  0.00    -0.105 A  
HETATM   13  C   UNL     1      -8.396   6.954  68.931  1.00  0.00    -0.121 A  
BRANCH  12  14
HETATM   14  C   UNL     1      -7.365   4.667  68.717  1.00  0.00    -0.060 C  
HETATM   15  C   UNL     1      -7.337   3.521  67.693  1.00  0.00    -0.059 C  
BRANCH  14  16
HETATM   16  N   UNL     1      -7.241   4.218  70.122  1.00  0.00    -0.045 NA 
HETATM   17  C   UNL     1      -8.396   3.444  70.578  1.00  0.00    -0.060 C  
HETATM   18  C   UNL     1      -5.998   3.547  70.476  1.00  0.00    -0.018 C  
ENDBRANCH  14  16
ENDBRANCH  12  14
ENDBRANCH   7   8
ENDBRANCH   5   7
ENDBRANCH   2   3
TORSDOF 5
ENDMDL
MODEL      224
REMARK 921   NORMALIZED FREE ENERGY PREDICTED BY IDOCK:   -2.19 KCAL/MOL
REMARK 922        TOTAL FREE ENERGY PREDICTED BY IDOCK:   -3.44 KCAL/MOL
REMARK 923 INTER-LIGAND FREE ENERGY PREDICTED BY IDOCK:   -3.13 KCAL/MOL
REMARK 924 INTRA-LIGAND FREE ENERGY PREDICTED BY IDOCK:   -0.31 KCAL/MOL
REMARK 927      BINDING AFFINITY PREDICTED BY RF-SCORE:    0.00 PKD
ROOT
HETATM    1  C   UNL     1     -11.487  15.724  68.782  1.00  0.00    -0.391 C  
HETATM    2  C   UNL     1     -10.299  14.885  68.325  1.00  0.00    -0.232 C  
ENDROOT
BRANCH   2   3
HETATM    3  N   UNL     1     -10.672  13.523  67.965  1.00  0.00    -0.245 N  
HETATM    4  C   UNL     1     -12.031  13.080  68.220  1.00  0.00    -0.267 C  
HETATM    5  C   UNL     1      -9.670  12.603  67.648  1.00  0.00    -0.197 C  
HETATM    6  O   UNL     1      -8.485  12.907  67.564  1.00  0.00    -0.163 OA 
BRANCH   5   7
HETATM    7  O   UNL     1     -10.176  11.316  67.479  1.00  0.00    -0.183 OA 
BRANCH   7   8
HETATM    8  C   UNL     1      -9.505  10.260  68.114  1.00  0.00    -0.147 A  
HETATM    9  C   UNL     1      -9.538  10.209  69.506  1.00  0.00    -0.243 A  
HETATM   10  C   UNL     1      -8.794   9.233  70.168  1.00  0.00    -0.235 A  
HETATM   11  C   UNL     1      -8.009   8.327  69.444  1.00  0.00    -0.113 A  
HETATM   12  C   UNL     1      -7.947   8.393  68.044  1.00  0.00    -0.119 A  
HETATM   13  C   UNL     1      -8.709   9.374  67.388  1.00  0.00    -0.128 A  
BRANCH  12  14
HETATM   14  C   UNL     1      -7.059   7.482  67.200  1.00  0.00    -0.085 C  
HETATM   15  C   UNL     1      -6.159   8.291  66.253  1.00  0.00    -0.045 C  
BRANCH  14  16
HETATM   16  N   UNL     1      -7.745   6.343  66.548  1.00  0.00    -0.098 NA 
HETATM   17  C   UNL     1      -8.750   5.716  67.407  1.00  0.00    -0.107 C  
HETATM   18  C   UNL     1      -8.284   6.592  65.219  1.00  0.00    -0.135 C  
ENDBRANCH  14  16
ENDBRANCH  12  14
ENDBRANCH   7   8
ENDBRANCH   5   7
ENDBRANCH   2   3
TORSDOF 5
ENDMDL
MODEL      225
REMARK 921   NORMALIZED FREE ENERGY PREDICTED BY IDOCK:   -2.15 KCAL/MOL
REMARK 922        TOTAL FREE ENERGY PREDICTED BY IDOCK:   -3.38 KCAL/MOL
REMARK 923 INTER-LIGAND FREE ENERGY PREDICTED BY IDOCK:   -3.67 KCAL/MOL
REMARK 924 INTRA-LIGAND FREE ENERGY PREDICTED BY IDOCK:    0.28 KCAL/MOL
REMARK 927      BINDING AFFINITY PREDICTED BY RF-SCORE:    0.00 PKD
ROOT
HETATM    1  C   UNL     1      -5.626   9.847  62.825  1.00  0.00    -0.096 C  
HETATM    2  C   UNL     1      -6.691   8.792  62.553  1.00  0.00    -0.094 C  
ENDROOT
BRANCH   2   3
HETATM    3  N   UNL     1      -7.892   8.977  63.358  1.00  0.00    -0.132 N  
HETATM    4  C   UNL     1      -8.859   9.980  62.947  1.00  0.00    -0.237 C  
HETATM    5  C   UNL     1      -7.959   8.401  64.627  1.00  0.00    -0.147 C  
HETATM    6  O   UNL     1      -7.088   7.659  65.071  1.00  0.00    -0.060 OA 
BRANCH   5   7
HETATM    7  O   UNL     1      -9.098   8.797  65.323  1.00  0.00    -0.186 OA 
BRANCH   7   8
HETATM    8  C   UNL     1      -8.979   9.870  66.219  1.00  0.00    -0.145 A  
HETATM    9  C   UNL     1      -8.498   9.602  67.498  1.00  0.00    -0.125 A  
HETATM   10  C   UNL     1      -8.468  10.628  68.443  1.00  0.00    -0.132 A  
HETATM   11  C   UNL     1      -8.934  11.908  68.114  1.00  0.00    -0.185 A  
HETATM   12  C   UNL     1      -9.448  12.176  66.837  1.00  0.00    -0.210 A  
HETATM   13  C   UNL     1      -9.463  11.137  65.892  1.00  0.00    -0.241 A  
BRANCH  12  14
HETATM   14  C   UNL     1     -10.034  13.528  66.436  1.00  0.00    -0.295 C  
HETATM   15  C   UNL     1      -9.115  14.687  66.853  1.00  0.00    -0.272 C  
BRANCH  14  16
HETATM   16  N   UNL     1     -11.458  13.738  66.783  1.00  0.00    -0.333 NA 
HETATM   17  C   UNL     1     -12.367  13.409  65.684  1.00  0.00    -0.470 C  
HETATM   18  C   UNL     1     -11.913  13.134  68.027  1.00  0.00    -0.304 C  
ENDBRANCH  14  16
ENDBRANCH  12  14
ENDBRANCH   7   8
ENDBRANCH   5   7
ENDBRANCH   2   3
TORSDOF 5
ENDMDL
MODEL      226
REMARK 921   NORMALIZED FREE ENERGY PREDICTED BY IDOCK:   -2.12 KCAL/MOL
REMARK 922        TOTAL FREE ENERGY PREDICTED BY IDOCK:   -3.35 KCAL/MOL
REMARK 923 INTER-LIGAND FREE ENERGY PREDICTED BY IDOCK:   -2.78 KCAL/MOL
REMARK 924 INTRA-LIGAND FREE ENERGY PREDICTED BY IDOCK:   -0.57 KCAL/MOL
REMARK 927      BINDING AFFINITY PREDICTED BY RF-SCORE:    0.00 PKD
ROOT
HETATM    1  C   UNL     1      -6.087  10.589  66.065  1.00  0.00    -0.119 C  
HETATM    2  C   UNL     1      -6.607  11.694  66.976  1.00  0.00    -0.144 C  
ENDROOT
BRANCH   2   3
HETATM    3  N   UNL     1      -6.918  11.223  68.320  1.00  0.00    -0.068 N  
HETATM    4  C   UNL     1      -5.844  10.689  69.139  1.00  0.00    -0.040 C  
HETATM    5  C   UNL     1      -8.253  11.038  68.687  1.00  0.00    -0.151 C  
HETATM    6  O   UNL     1      -9.194  11.344  67.961  1.00  0.00    -0.159 OA 
BRANCH   5   7
HETATM    7  O   UNL     1      -8.374  10.442  69.939  1.00  0.00    -0.098 OA 
BRANCH   7   8
HETATM    8  C   UNL     1      -9.140   9.270  70.036  1.00  0.00    -0.210 A  
HETATM    9  C   UNL     1     -10.344   9.333  70.734  1.00  0.00    -0.348 A  
HETATM   10  C   UNL     1     -11.074   8.162  70.937  1.00  0.00    -0.280 A  
HETATM   11  C   UNL     1     -10.593   6.935  70.461  1.00  0.00    -0.247 A  
HETATM   12  C   UNL     1      -9.365   6.861  69.786  1.00  0.00    -0.146 A  
HETATM   13  C   UNL     1      -8.645   8.049  69.579  1.00  0.00    -0.136 A  
BRANCH  12  14
HETATM   14  C   UNL     1      -8.752   5.548  69.304  1.00  0.00    -0.107 C  
HETATM   15  C   UNL     1      -7.894   5.755  68.046  1.00  0.00    -0.100 C  
BRANCH  14  16
HETATM   16  N   UNL     1      -9.683   4.401  69.212  1.00  0.00    -0.191 NA 
HETATM   17  C   UNL     1      -9.776   3.848  67.860  1.00  0.00    -0.073 C  
HETATM   18  C   UNL     1      -9.496   3.340  70.192  1.00  0.00    -0.163 C  
ENDBRANCH  14  16
ENDBRANCH  12  14
ENDBRANCH   7   8
ENDBRANCH   5   7
ENDBRANCH   2   3
TORSDOF 5
ENDMDL
MODEL      227
REMARK 921   NORMALIZED FREE ENERGY PREDICTED BY IDOCK:   -2.09 KCAL/MOL
REMARK 922        TOTAL FREE ENERGY PREDICTED BY IDOCK:   -3.30 KCAL/MOL
REMARK 923 INTER-LIGAND FREE ENERGY PREDICTED BY IDOCK:   -2.99 KCAL/MOL
REMARK 924 INTRA-LIGAND FREE ENERGY PREDICTED BY IDOCK:   -0.32 KCAL/MOL
REMARK 927      BINDING AFFINITY PREDICTED BY RF-SCORE:    0.00 PKD
ROOT
HETATM    1  C   UNL     1     -12.828   9.613  71.735  1.00  0.00    -0.514 C  
HETATM    2  C   UNL     1     -11.843   8.572  72.255  1.00  0.00    -0.383 C  
ENDROOT
BRANCH   2   3
HETATM    3  N   UNL     1     -11.020   7.993  71.200  1.00  0.00    -0.239 N  
HETATM    4  C   UNL     1     -11.586   6.944  70.370  1.00  0.00    -0.335 C  
HETATM    5  C   UNL     1      -9.648   8.252  71.186  1.00  0.00    -0.163 C  
HETATM    6  O   UNL     1      -9.105   9.026  71.968  1.00  0.00    -0.375 OA 
BRANCH   5   7
HETATM    7  O   UNL     1      -8.985   7.507  70.214  1.00  0.00    -0.146 OA 
BRANCH   7   8
HETATM    8  C   UNL     1      -7.772   8.009  69.717  1.00  0.00    -0.101 A  
HETATM    9  C   UNL     1      -6.593   7.399  70.137  1.00  0.00    -0.043 A  
HETATM   10  C   UNL     1      -5.369   7.941  69.744  1.00  0.00    -0.023 A  
HETATM   11  C   UNL     1      -5.327   9.097  68.953  1.00  0.00    -0.037 A  
HETATM   12  C   UNL     1      -6.512   9.734  68.554  1.00  0.00    -0.051 A  
HETATM   13  C   UNL     1      -7.737   9.172  68.948  1.00  0.00    -0.083 A  
BRANCH  12  14
HETATM   14  C   UNL     1      -6.535  11.033  67.752  1.00  0.00    -0.063 C  
HETATM   15  C   UNL     1      -5.266  11.192  66.899  1.00  0.00    -0.079 C  
BRANCH  14  16
HETATM   16  N   UNL     1      -6.903  12.249  68.511  1.00  0.00    -0.074 NA 
HETATM   17  C   UNL     1      -6.282  12.304  69.835  1.00  0.00    -0.110 C  
HETATM   18  C   UNL     1      -6.742  13.517  67.813  1.00  0.00    -0.168 C  
ENDBRANCH  14  16
ENDBRANCH  12  14
ENDBRANCH   7   8
ENDBRANCH   5   7
ENDBRANCH   2   3
TORSDOF 5
ENDMDL
MODEL      228
REMARK 921   NORMALIZED FREE ENERGY PREDICTED BY IDOCK:   -2.06 KCAL/MOL
REMARK 922        TOTAL FREE ENERGY PREDICTED BY IDOCK:   -3.27 KCAL/MOL
REMARK 923 INTER-LIGAND FREE ENERGY PREDICTED BY IDOCK:   -2.82 KCAL/MOL
REMARK 924 INTRA-LIGAND FREE ENERGY PREDICTED BY IDOCK:   -0.45 KCAL/MOL
REMARK 927      BINDING AFFINITY PREDICTED BY RF-SCORE:    0.00 PKD
ROOT
HETATM    1  C   UNL     1      -9.764   2.324  64.027  1.00  0.00    -0.139 C  
HETATM    2  C   UNL     1      -8.318   2.773  64.201  1.00  0.00    -0.083 C  
ENDROOT
BRANCH   2   3
HETATM    3  N   UNL     1      -8.018   3.208  65.560  1.00  0.00    -0.085 N  
HETATM    4  C   UNL     1      -8.107   2.240  66.639  1.00  0.00    -0.082 C  
HETATM    5  C   UNL     1      -7.927   4.574  65.833  1.00  0.00    -0.099 C  
HETATM    6  O   UNL     1      -7.993   5.436  64.963  1.00  0.00    -0.098 OA 
BRANCH   5   7
HETATM    7  O   UNL     1      -7.790   4.827  67.196  1.00  0.00    -0.093 OA 
BRANCH   7   8
HETATM    8  C   UNL     1      -8.712   5.697  67.797  1.00  0.00    -0.107 A  
HETATM    9  C   UNL     1      -9.899   5.155  68.285  1.00  0.00    -0.212 A  
HETATM   10  C   UNL     1     -10.879   6.008  68.792  1.00  0.00    -0.391 A  
HETATM   11  C   UNL     1     -10.680   7.395  68.791  1.00  0.00    -0.145 A  
HETATM   12  C   UNL     1      -9.501   7.949  68.272  1.00  0.00    -0.149 A  
HETATM   13  C   UNL     1      -8.518   7.078  67.774  1.00  0.00    -0.120 A  
BRANCH  12  14
HETATM   14  C   UNL     1      -9.251   9.452  68.178  1.00  0.00    -0.130 C  
HETATM   15  C   UNL     1      -9.218  10.106  69.569  1.00  0.00    -0.223 C  
BRANCH  14  16
HETATM   16  N   UNL     1     -10.083  10.181  67.193  1.00  0.00    -0.199 NA 
HETATM   17  C   UNL     1      -9.965  11.635  67.312  1.00  0.00    -0.191 C  
HETATM   18  C   UNL     1      -9.950   9.764  65.805  1.00  0.00    -0.279 C  
ENDBRANCH  14  16
ENDBRANCH  12  14
ENDBRANCH   7   8
ENDBRANCH   5   7
ENDBRANCH   2   3
TORSDOF 5
ENDMDL
MODEL      229
REMARK 921   NORMALIZED FREE ENERGY PREDICTED BY IDOCK:   -2.03 KCAL/MOL
REMARK 922        TOTAL FREE ENERGY PREDICTED BY IDOCK:   -3.23 KCAL/MOL
REMARK 923 INTER-LIGAND FREE ENERGY PREDICTED BY IDOCK:   -3.10 KCAL/MOL
REMARK 924 INTRA-LIGAND FREE ENERGY PREDICTED BY IDOCK:   -0.13 KCAL/MOL
REMARK 927      BINDING AFFINITY PREDICTED BY RF-SCORE:    0.00 PKD
ROOT
HETATM    1  C   UNL     1     -13.297   9.845  71.816  1.00  0.00    -0.501 C  
HETATM    2  C   UNL     1     -12.452   8.676  72.306  1.00  0.00    -0.395 C  
ENDROOT
BRANCH   2   3
HETATM    3  N   UNL     1     -11.822   7.936  71.219  1.00  0.00    -0.293 N  
HETATM    4  C   UNL     1     -12.535   6.814  70.634  1.00  0.00    -0.081 C  
HETATM    5  C   UNL     1     -10.466   8.136  70.953  1.00  0.00    -0.202 C  
HETATM    6  O   UNL     1      -9.789   8.981  71.531  1.00  0.00    -0.296 OA 
BRANCH   5   7
HETATM    7  O   UNL     1      -9.984   7.249  69.995  1.00  0.00    -0.182 OA 
BRANCH   7   8
HETATM    8  C   UNL     1      -9.262   7.779  68.915  1.00  0.00    -0.140 A  
HETATM    9  C   UNL     1      -9.430   9.129  68.617  1.00  0.00    -0.145 A  
HETATM   10  C   UNL     1      -8.809   9.660  67.487  1.00  0.00    -0.129 A  
HETATM   11  C   UNL     1      -8.039   8.840  66.651  1.00  0.00    -0.103 A  
HETATM   12  C   UNL     1      -7.892   7.472  66.928  1.00  0.00    -0.111 A  
HETATM   13  C   UNL     1      -8.515   6.953  68.075  1.00  0.00    -0.124 A  
BRANCH  12  14
HETATM   14  C   UNL     1      -7.126   6.512  66.022  1.00  0.00    -0.063 C  
HETATM   15  C   UNL     1      -5.825   7.143  65.501  1.00  0.00    -0.036 C  
BRANCH  14  16
HETATM   16  N   UNL     1      -7.928   5.842  64.974  1.00  0.00    -0.114 NA 
HETATM   17  C   UNL     1      -7.888   6.543  63.690  1.00  0.00    -0.106 C  
HETATM   18  C   UNL     1      -7.688   4.417  64.791  1.00  0.00    -0.078 C  
ENDBRANCH  14  16
ENDBRANCH  12  14
ENDBRANCH   7   8
ENDBRANCH   5   7
ENDBRANCH   2   3
TORSDOF 5
ENDMDL
MODEL      230
REMARK 921   NORMALIZED FREE ENERGY PREDICTED BY IDOCK:   -2.01 KCAL/MOL
REMARK 922        TOTAL FREE ENERGY PREDICTED BY IDOCK:   -3.21 KCAL/MOL
REMARK 923 INTER-LIGAND FREE ENERGY PREDICTED BY IDOCK:   -2.64 KCAL/MOL
REMARK 924 INTRA-LIGAND FREE ENERGY PREDICTED BY IDOCK:   -0.57 KCAL/MOL
REMARK 927      BINDING AFFINITY PREDICTED BY RF-SCORE:    0.00 PKD
ROOT
HETATM    1  C   UNL     1     -10.678   2.710  63.325  1.00  0.00    -0.231 C  
HETATM    2  C   UNL     1      -9.166   2.896  63.379  1.00  0.00    -0.095 C  
ENDROOT
BRANCH   2   3
HETATM    3  N   UNL     1      -8.690   3.295  64.698  1.00  0.00    -0.101 N  
HETATM    4  C   UNL     1      -8.818   2.358  65.800  1.00  0.00    -0.128 C  
HETATM    5  C   UNL     1      -8.383   4.637  64.934  1.00  0.00    -0.129 C  
HETATM    6  O   UNL     1      -8.403   5.492  64.056  1.00  0.00    -0.132 OA 
BRANCH   5   7
HETATM    7  O   UNL     1      -8.092   4.878  66.275  1.00  0.00    -0.106 OA 
BRANCH   7   8
HETATM    8  C   UNL     1      -8.850   5.850  66.945  1.00  0.00    -0.115 A  
HETATM    9  C   UNL     1     -10.200   5.587  67.168  1.00  0.00    -0.260 A  
HETATM   10  C   UNL     1     -11.001   6.576  67.736  1.00  0.00    -0.407 A  
HETATM   11  C   UNL     1     -10.460   7.827  68.061  1.00  0.00    -0.244 A  
HETATM   12  C   UNL     1      -9.109   8.110  67.809  1.00  0.00    -0.140 A  
HETATM   13  C   UNL     1      -8.311   7.101  67.246  1.00  0.00    -0.119 A  
BRANCH  12  14
HETATM   14  C   UNL     1      -8.474   9.473  68.075  1.00  0.00    -0.119 C  
HETATM   15  C   UNL     1      -8.902  10.509  67.023  1.00  0.00    -0.142 C  
BRANCH  14  16
HETATM   16  N   UNL     1      -7.019   9.460  68.346  1.00  0.00    -0.066 NA 
HETATM   17  C   UNL     1      -6.299  10.525  67.647  1.00  0.00    -0.056 C  
HETATM   18  C   UNL     1      -6.626   9.406  69.747  1.00  0.00    -0.045 C  
ENDBRANCH  14  16
ENDBRANCH  12  14
ENDBRANCH   7   8
ENDBRANCH   5   7
ENDBRANCH   2   3
TORSDOF 5
ENDMDL
MODEL      231
REMARK 921   NORMALIZED FREE ENERGY PREDICTED BY IDOCK:   -1.93 KCAL/MOL
REMARK 922        TOTAL FREE ENERGY PREDICTED BY IDOCK:   -3.10 KCAL/MOL
REMARK 923 INTER-LIGAND FREE ENERGY PREDICTED BY IDOCK:   -3.00 KCAL/MOL
REMARK 924 INTRA-LIGAND FREE ENERGY PREDICTED BY IDOCK:   -0.10 KCAL/MOL
REMARK 927      BINDING AFFINITY PREDICTED BY RF-SCORE:    0.00 PKD
ROOT
HETATM    1  C   UNL     1      -9.865   9.781  67.140  1.00  0.00    -0.238 C  
HETATM    2  C   UNL     1      -8.386   9.593  67.458  1.00  0.00    -0.118 C  
ENDROOT
BRANCH   2   3
HETATM    3  N   UNL     1      -7.798  10.747  68.127  1.00  0.00    -0.108 N  
HETATM    4  C   UNL     1      -7.484  10.649  69.541  1.00  0.00    -0.130 C  
HETATM    5  C   UNL     1      -7.805  11.986  67.482  1.00  0.00    -0.155 C  
HETATM    6  O   UNL     1      -8.200  12.138  66.331  1.00  0.00    -0.014 OA 
BRANCH   5   7
HETATM    7  O   UNL     1      -7.350  13.009  68.310  1.00  0.00    -0.097 OA 
BRANCH   7   8
HETATM    8  C   UNL     1      -8.182  14.124  68.492  1.00  0.00    -0.146 A  
HETATM    9  C   UNL     1      -9.523  13.896  68.792  1.00  0.00    -0.045 A  
HETATM   10  C   UNL     1     -10.396  14.980  68.874  1.00  0.00    -0.244 A  
HETATM   11  C   UNL     1      -9.934  16.282  68.640  1.00  0.00    -0.233 A  
HETATM   12  C   UNL     1      -8.591  16.515  68.306  1.00  0.00    -0.200 A  
HETATM   13  C   UNL     1      -7.720  15.415  68.237  1.00  0.00    -0.115 A  
BRANCH  12  14
HETATM   14  C   UNL     1      -8.039  17.898  67.971  1.00  0.00    -0.252 C  
HETATM   15  C   UNL     1      -8.559  18.401  66.615  1.00  0.00    -0.289 C  
BRANCH  14  16
HETATM   16  N   UNL     1      -6.579  18.068  68.153  1.00  0.00    -0.195 NA 
HETATM   17  C   UNL     1      -6.007  19.080  67.264  1.00  0.00    -0.164 C  
HETATM   18  C   UNL     1      -6.119  18.264  69.521  1.00  0.00    -0.253 C  
ENDBRANCH  14  16
ENDBRANCH  12  14
ENDBRANCH   7   8
ENDBRANCH   5   7
ENDBRANCH   2   3
TORSDOF 5
ENDMDL
MODEL      232
REMARK 921   NORMALIZED FREE ENERGY PREDICTED BY IDOCK:   -1.92 KCAL/MOL
REMARK 922        TOTAL FREE ENERGY PREDICTED BY IDOCK:   -3.09 KCAL/MOL
REMARK 923 INTER-LIGAND FREE ENERGY PREDICTED BY IDOCK:   -2.89 KCAL/MOL
REMARK 924 INTRA-LIGAND FREE ENERGY PREDICTED BY IDOCK:   -0.20 KCAL/MOL
REMARK 927      BINDING AFFINITY PREDICTED BY RF-SCORE:    0.00 PKD
ROOT
HETATM    1  C   UNL     1      -9.643   2.367  63.702  1.00  0.00    -0.116 C  
HETATM    2  C   UNL     1      -9.377   2.531  65.194  1.00  0.00    -0.082 C  
ENDROOT
BRANCH   2   3
HETATM    3  N   UNL     1      -9.092   3.909  65.572  1.00  0.00    -0.136 N  
HETATM    4  C   UNL     1      -8.446   4.779  64.604  1.00  0.00    -0.139 C  
HETATM    5  C   UNL     1      -9.188   4.282  66.913  1.00  0.00    -0.148 C  
HETATM    6  O   UNL     1      -9.595   3.527  67.790  1.00  0.00    -0.195 OA 
BRANCH   5   7
HETATM    7  O   UNL     1      -8.738   5.583  67.128  1.00  0.00    -0.110 OA 
BRANCH   7   8
HETATM    8  C   UNL     1      -8.367   5.940  68.433  1.00  0.00    -0.112 A  
HETATM    9  C   UNL     1      -7.150   5.467  68.919  1.00  0.00    -0.061 A  
HETATM   10  C   UNL     1      -6.804   5.717  70.247  1.00  0.00    -0.049 A  
HETATM   11  C   UNL     1      -7.677   6.421  71.086  1.00  0.00    -0.098 A  
HETATM   12  C   UNL     1      -8.918   6.873  70.612  1.00  0.00    -0.151 A  
HETATM   13  C   UNL     1      -9.250   6.623  69.270  1.00  0.00    -0.140 A  
BRANCH  12  14
HETATM   14  C   UNL     1      -9.943   7.583  71.492  1.00  0.00    -0.177 C  
HETATM   15  C   UNL     1      -9.271   8.313  72.665  1.00  0.00    -0.345 C  
BRANCH  14  16
HETATM   16  N   UNL     1     -11.121   6.776  71.884  1.00  0.00    -0.239 NA 
HETATM   17  C   UNL     1     -12.271   6.981  71.002  1.00  0.00    -0.374 C  
HETATM   18  C   UNL     1     -10.884   5.356  72.102  1.00  0.00    -0.214 C  
ENDBRANCH  14  16
ENDBRANCH  12  14
ENDBRANCH   7   8
ENDBRANCH   5   7
ENDBRANCH   2   3
TORSDOF 5
ENDMDL
MODEL      233
REMARK 921   NORMALIZED FREE ENERGY PREDICTED BY IDOCK:   -1.85 KCAL/MOL
REMARK 922        TOTAL FREE ENERGY PREDICTED BY IDOCK:   -3.00 KCAL/MOL
REMARK 923 INTER-LIGAND FREE ENERGY PREDICTED BY IDOCK:   -2.52 KCAL/MOL
REMARK 924 INTRA-LIGAND FREE ENERGY PREDICTED BY IDOCK:   -0.48 KCAL/MOL
REMARK 927      BINDING AFFINITY PREDICTED BY RF-SCORE:    0.00 PKD
ROOT
HETATM    1  C   UNL     1      -8.759  14.161  67.719  1.00  0.00    -0.182 C  
HETATM    2  C   UNL     1      -9.476  12.855  67.395  1.00  0.00    -0.198 C  
ENDROOT
BRANCH   2   3
HETATM    3  N   UNL     1      -8.639  11.681  67.603  1.00  0.00    -0.137 N  
HETATM    4  C   UNL     1      -7.211  11.867  67.798  1.00  0.00    -0.104 C  
HETATM    5  C   UNL     1      -9.164  10.414  67.342  1.00  0.00    -0.142 C  
HETATM    6  O   UNL     1     -10.335  10.227  67.031  1.00  0.00    -0.219 OA 
BRANCH   5   7
HETATM    7  O   UNL     1      -8.197   9.416  67.441  1.00  0.00    -0.119 OA 
BRANCH   7   8
HETATM    8  C   UNL     1      -8.071   8.517  66.371  1.00  0.00    -0.103 A  
HETATM    9  C   UNL     1      -7.663   9.021  65.139  1.00  0.00    -0.101 A  
HETATM   10  C   UNL     1      -7.631   8.172  64.033  1.00  0.00    -0.130 A  
HETATM   11  C   UNL     1      -8.022   6.832  64.156  1.00  0.00    -0.085 A  
HETATM   12  C   UNL     1      -8.464   6.326  65.388  1.00  0.00    -0.131 A  
HETATM   13  C   UNL     1      -8.482   7.190  66.496  1.00  0.00    -0.125 A  
BRANCH  12  14
HETATM   14  C   UNL     1      -8.968   4.898  65.575  1.00  0.00    -0.149 C  
HETATM   15  C   UNL     1     -10.407   4.873  66.115  1.00  0.00    -0.329 C  
BRANCH  14  16
HETATM   16  N   UNL     1      -8.047   3.980  66.282  1.00  0.00    -0.098 NA 
HETATM   17  C   UNL     1      -8.504   3.640  67.631  1.00  0.00    -0.095 C  
HETATM   18  C   UNL     1      -7.648   2.782  65.556  1.00  0.00    -0.076 C  
ENDBRANCH  14  16
ENDBRANCH  12  14
ENDBRANCH   7   8
ENDBRANCH   5   7
ENDBRANCH   2   3
TORSDOF 5
ENDMDL
MODEL      234
REMARK 921   NORMALIZED FREE ENERGY PREDICTED BY IDOCK:   -1.83 KCAL/MOL
REMARK 922        TOTAL FREE ENERGY PREDICTED BY IDOCK:   -2.97 KCAL/MOL
REMARK 923 INTER-LIGAND FREE ENERGY PREDICTED BY IDOCK:   -2.91 KCAL/MOL
REMARK 924 INTRA-LIGAND FREE ENERGY PREDICTED BY IDOCK:   -0.06 KCAL/MOL
REMARK 927      BINDING AFFINITY PREDICTED BY RF-SCORE:    0.00 PKD
ROOT
HETATM    1  C   UNL     1      -5.608   9.780  63.030  1.00  0.00    -0.094 C  
HETATM    2  C   UNL     1      -6.621   8.825  63.648  1.00  0.00    -0.088 C  
ENDROOT
BRANCH   2   3
HETATM    3  N   UNL     1      -7.709   9.515  64.330  1.00  0.00    -0.117 N  
HETATM    4  C   UNL     1      -8.580  10.382  63.554  1.00  0.00    -0.188 C  
HETATM    5  C   UNL     1      -7.727   9.551  65.725  1.00  0.00    -0.100 C  
HETATM    6  O   UNL     1      -6.917   8.946  66.420  1.00  0.00    -0.077 OA 
BRANCH   5   7
HETATM    7  O   UNL     1      -8.738  10.374  66.215  1.00  0.00    -0.146 OA 
BRANCH   7   8
HETATM    8  C   UNL     1      -8.362  11.520  66.932  1.00  0.00    -0.166 A  
HETATM    9  C   UNL     1      -7.487  11.361  68.003  1.00  0.00    -0.100 A  
HETATM   10  C   UNL     1      -7.178  12.464  68.799  1.00  0.00    -0.094 A  
HETATM   11  C   UNL     1      -7.756  13.713  68.534  1.00  0.00    -0.129 A  
HETATM   12  C   UNL     1      -8.663  13.872  67.476  1.00  0.00    -0.194 A  
HETATM   13  C   UNL     1      -8.957  12.755  66.676  1.00  0.00    -0.152 A  
BRANCH  12  14
HETATM   14  C   UNL     1      -9.379  15.186  67.176  1.00  0.00    -0.212 C  
HETATM   15  C   UNL     1      -8.435  16.390  67.324  1.00  0.00    -0.196 C  
BRANCH  14  16
HETATM   16  N   UNL     1     -10.690  15.368  67.841  1.00  0.00    -0.278 NA 
HETATM   17  C   UNL     1     -10.906  16.737  68.311  1.00  0.00    -0.366 C  
HETATM   18  C   UNL     1     -11.853  14.883  67.113  1.00  0.00    -0.211 C  
ENDBRANCH  14  16
ENDBRANCH  12  14
ENDBRANCH   7   8
ENDBRANCH   5   7
ENDBRANCH   2   3
TORSDOF 5
ENDMDL
MODEL      235
REMARK 921   NORMALIZED FREE ENERGY PREDICTED BY IDOCK:   -1.81 KCAL/MOL
REMARK 922        TOTAL FREE ENERGY PREDICTED BY IDOCK:   -2.95 KCAL/MOL
REMARK 923 INTER-LIGAND FREE ENERGY PREDICTED BY IDOCK:   -3.35 KCAL/MOL
REMARK 924 INTRA-LIGAND FREE ENERGY PREDICTED BY IDOCK:    0.40 KCAL/MOL
REMARK 927      BINDING AFFINITY PREDICTED BY RF-SCORE:    0.00 PKD
ROOT
HETATM    1  C   UNL     1      -5.126  19.824  66.373  1.00  0.00    -0.167 C  
HETATM    2  C   UNL     1      -5.558  18.486  65.785  1.00  0.00    -0.180 C  
ENDROOT
BRANCH   2   3
HETATM    3  N   UNL     1      -6.890  18.081  66.215  1.00  0.00    -0.231 N  
HETATM    4  C   UNL     1      -8.030  18.884  65.808  1.00  0.00     0.112 C  
HETATM    5  C   UNL     1      -7.020  17.114  67.214  1.00  0.00    -0.167 C  
HETATM    6  O   UNL     1      -6.063  16.512  67.690  1.00  0.00    -0.115 OA 
BRANCH   5   7
HETATM    7  O   UNL     1      -8.344  16.952  67.616  1.00  0.00    -0.181 OA 
BRANCH   7   8
HETATM    8  C   UNL     1      -9.089  15.924  67.018  1.00  0.00    -0.217 A  
HETATM    9  C   UNL     1     -10.362  16.231  66.546  1.00  0.00    -0.310 A  
HETATM   10  C   UNL     1     -11.167  15.208  66.044  1.00  0.00    -0.275 A  
HETATM   11  C   UNL     1     -10.706  13.885  66.032  1.00  0.00    -0.287 A  
HETATM   12  C   UNL     1      -9.436  13.565  66.536  1.00  0.00    -0.265 A  
HETATM   13  C   UNL     1      -8.633  14.606  67.029  1.00  0.00    -0.249 A  
BRANCH  12  14
HETATM   14  C   UNL     1      -8.903  12.137  66.615  1.00  0.00    -0.182 C  
HETATM   15  C   UNL     1      -9.834  11.145  65.900  1.00  0.00    -0.275 C  
BRANCH  14  16
HETATM   16  N   UNL     1      -8.468  11.689  67.958  1.00  0.00    -0.143 NA 
HETATM   17  C   UNL     1      -8.197  10.252  68.020  1.00  0.00    -0.113 C  
HETATM   18  C   UNL     1      -7.384  12.445  68.569  1.00  0.00    -0.105 C  
ENDBRANCH  14  16
ENDBRANCH  12  14
ENDBRANCH   7   8
ENDBRANCH   5   7
ENDBRANCH   2   3
TORSDOF 5
ENDMDL
MODEL      236
REMARK 921   NORMALIZED FREE ENERGY PREDICTED BY IDOCK:   -1.76 KCAL/MOL
REMARK 922        TOTAL FREE ENERGY PREDICTED BY IDOCK:   -2.88 KCAL/MOL
REMARK 923 INTER-LIGAND FREE ENERGY PREDICTED BY IDOCK:   -2.94 KCAL/MOL
REMARK 924 INTRA-LIGAND FREE ENERGY PREDICTED BY IDOCK:    0.06 KCAL/MOL
REMARK 927      BINDING AFFINITY PREDICTED BY RF-SCORE:    0.00 PKD
ROOT
HETATM    1  C   UNL     1     -10.600   7.915  66.863  1.00  0.00    -0.333 C  
HETATM    2  C   UNL     1      -9.145   8.294  66.614  1.00  0.00    -0.166 C  
ENDROOT
BRANCH   2   3
HETATM    3  N   UNL     1      -8.205   7.419  67.303  1.00  0.00    -0.114 N  
HETATM    4  C   UNL     1      -8.260   5.991  67.042  1.00  0.00    -0.105 C  
HETATM    5  C   UNL     1      -7.475   7.918  68.383  1.00  0.00    -0.100 C  
HETATM    6  O   UNL     1      -7.512   9.095  68.729  1.00  0.00    -0.074 OA 
BRANCH   5   7
HETATM    7  O   UNL     1      -6.743   6.923  69.025  1.00  0.00    -0.052 OA 
BRANCH   7   8
HETATM    8  C   UNL     1      -7.306   6.325  70.162  1.00  0.00    -0.085 A  
HETATM    9  C   UNL     1      -6.944   5.013  70.457  1.00  0.00    -0.045 A  
HETATM   10  C   UNL     1      -7.567   4.357  71.519  1.00  0.00    -0.073 A  
HETATM   11  C   UNL     1      -8.558   5.005  72.268  1.00  0.00    -0.125 A  
HETATM   12  C   UNL     1      -8.949   6.315  71.956  1.00  0.00    -0.142 A  
HETATM   13  C   UNL     1      -8.307   6.967  70.891  1.00  0.00    -0.129 A  
BRANCH  12  14
HETATM   14  C   UNL     1     -10.069   7.052  72.687  1.00  0.00    -0.181 C  
HETATM   15  C   UNL     1     -10.314   6.462  74.085  1.00  0.00    -0.335 C  
BRANCH  14  16
HETATM   16  N   UNL     1     -11.306   7.276  71.906  1.00  0.00    -0.247 NA 
HETATM   17  C   UNL     1     -11.454   8.661  71.456  1.00  0.00    -0.295 C  
HETATM   18  C   UNL     1     -11.553   6.349  70.811  1.00  0.00    -0.338 C  
ENDBRANCH  14  16
ENDBRANCH  12  14
ENDBRANCH   7   8
ENDBRANCH   5   7
ENDBRANCH   2   3
TORSDOF 5
ENDMDL
MODEL      237
REMARK 921   NORMALIZED FREE ENERGY PREDICTED BY IDOCK:   -1.73 KCAL/MOL
REMARK 922        TOTAL FREE ENERGY PREDICTED BY IDOCK:   -2.85 KCAL/MOL
REMARK 923 INTER-LIGAND FREE ENERGY PREDICTED BY IDOCK:   -2.77 KCAL/MOL
REMARK 924 INTRA-LIGAND FREE ENERGY PREDICTED BY IDOCK:   -0.07 KCAL/MOL
REMARK 927      BINDING AFFINITY PREDICTED BY RF-SCORE:    0.00 PKD
ROOT
HETATM    1  C   UNL     1     -11.024   8.496  72.275  1.00  0.00    -0.426 C  
HETATM    2  C   UNL     1     -10.631   7.142  71.696  1.00  0.00    -0.207 C  
ENDROOT
BRANCH   2   3
HETATM    3  N   UNL     1     -10.653   7.121  70.238  1.00  0.00    -0.221 N  
HETATM    4  C   UNL     1     -10.903   8.362  69.526  1.00  0.00    -0.117 C  
HETATM    5  C   UNL     1     -10.709   5.894  69.575  1.00  0.00    -0.343 C  
HETATM    6  O   UNL     1     -10.646   4.816  70.157  1.00  0.00    -0.108 OA 
BRANCH   5   7
HETATM    7  O   UNL     1     -10.878   6.049  68.201  1.00  0.00    -0.275 OA 
BRANCH   7   8
HETATM    8  C   UNL     1      -9.757   5.864  67.378  1.00  0.00    -0.117 A  
HETATM    9  C   UNL     1      -8.809   4.921  67.768  1.00  0.00    -0.109 A  
HETATM   10  C   UNL     1      -7.634   4.791  67.028  1.00  0.00    -0.087 A  
HETATM   11  C   UNL     1      -7.403   5.610  65.915  1.00  0.00    -0.073 A  
HETATM   12  C   UNL     1      -8.340   6.583  65.536  1.00  0.00    -0.146 A  
HETATM   13  C   UNL     1      -9.523   6.698  66.284  1.00  0.00    -0.120 A  
BRANCH  12  14
HETATM   14  C   UNL     1      -8.118   7.554  64.378  1.00  0.00    -0.074 C  
HETATM   15  C   UNL     1      -7.996   6.813  63.037  1.00  0.00    -0.077 C  
BRANCH  14  16
HETATM   16  N   UNL     1      -7.074   8.581  64.593  1.00  0.00    -0.079 NA 
HETATM   17  C   UNL     1      -7.018   9.571  63.517  1.00  0.00    -0.103 C  
HETATM   18  C   UNL     1      -7.070   9.233  65.895  1.00  0.00    -0.090 C  
ENDBRANCH  14  16
ENDBRANCH  12  14
ENDBRANCH   7   8
ENDBRANCH   5   7
ENDBRANCH   2   3
TORSDOF 5
ENDMDL
MODEL      238
REMARK 921   NORMALIZED FREE ENERGY PREDICTED BY IDOCK:   -1.67 KCAL/MOL
REMARK 922        TOTAL FREE ENERGY PREDICTED BY IDOCK:   -2.77 KCAL/MOL
REMARK 923 INTER-LIGAND FREE ENERGY PREDICTED BY IDOCK:   -2.26 KCAL/MOL
REMARK 924 INTRA-LIGAND FREE ENERGY PREDICTED BY IDOCK:   -0.51 KCAL/MOL
REMARK 927      BINDING AFFINITY PREDICTED BY RF-SCORE:    0.00 PKD
ROOT
HETATM    1  C   UNL     1     -10.560  11.842  65.656  1.00  0.00    -0.311 C  
HETATM    2  C   UNL     1     -10.700  11.991  67.166  1.00  0.00    -0.239 C  
ENDROOT
BRANCH   2   3
HETATM    3  N   UNL     1      -9.448  11.764  67.877  1.00  0.00    -0.184 N  
HETATM    4  C   UNL     1      -8.232  12.369  67.361  1.00  0.00    -0.180 C  
HETATM    5  C   UNL     1      -9.389  10.769  68.855  1.00  0.00    -0.175 C  
HETATM    6  O   UNL     1     -10.372  10.131  69.219  1.00  0.00    -0.195 OA 
BRANCH   5   7
HETATM    7  O   UNL     1      -8.094  10.575  69.328  1.00  0.00    -0.146 OA 
BRANCH   7   8
HETATM    8  C   UNL     1      -7.641   9.255  69.477  1.00  0.00    -0.081 A  
HETATM    9  C   UNL     1      -7.119   8.880  70.712  1.00  0.00    -0.078 A  
HETATM   10  C   UNL     1      -6.565   7.609  70.860  1.00  0.00    -0.038 A  
HETATM   11  C   UNL     1      -6.518   6.726  69.773  1.00  0.00    -0.044 A  
HETATM   12  C   UNL     1      -7.015   7.109  68.518  1.00  0.00    -0.079 A  
HETATM   13  C   UNL     1      -7.579   8.389  68.386  1.00  0.00    -0.097 A  
BRANCH  12  14
HETATM   14  C   UNL     1      -6.932   6.223  67.278  1.00  0.00    -0.072 C  
HETATM   15  C   UNL     1      -7.422   6.962  66.022  1.00  0.00    -0.080 C  
BRANCH  14  16
HETATM   16  N   UNL     1      -7.489   4.859  67.426  1.00  0.00    -0.081 NA 
HETATM   17  C   UNL     1      -8.917   4.859  67.748  1.00  0.00    -0.109 C  
HETATM   18  C   UNL     1      -7.204   3.926  66.345  1.00  0.00    -0.064 C  
ENDBRANCH  14  16
ENDBRANCH  12  14
ENDBRANCH   7   8
ENDBRANCH   5   7
ENDBRANCH   2   3
TORSDOF 5
ENDMDL
MODEL      239
REMARK 921   NORMALIZED FREE ENERGY PREDICTED BY IDOCK:   -1.62 KCAL/MOL
REMARK 922        TOTAL FREE ENERGY PREDICTED BY IDOCK:   -2.71 KCAL/MOL
REMARK 923 INTER-LIGAND FREE ENERGY PREDICTED BY IDOCK:   -2.53 KCAL/MOL
REMARK 924 INTRA-LIGAND FREE ENERGY PREDICTED BY IDOCK:   -0.18 KCAL/MOL
REMARK 927      BINDING AFFINITY PREDICTED BY RF-SCORE:    0.00 PKD
ROOT
HETATM    1  C   UNL     1      -8.363   9.150  62.825  1.00  0.00    -0.197 C  
HETATM    2  C   UNL     1      -8.395  10.361  63.750  1.00  0.00    -0.149 C  
ENDROOT
BRANCH   2   3
HETATM    3  N   UNL     1      -8.793  10.025  65.111  1.00  0.00    -0.167 N  
HETATM    4  C   UNL     1     -10.153  10.316  65.532  1.00  0.00    -0.281 C  
HETATM    5  C   UNL     1      -7.811   9.697  66.048  1.00  0.00    -0.102 C  
HETATM    6  O   UNL     1      -6.624   9.582  65.760  1.00  0.00    -0.071 OA 
BRANCH   5   7
HETATM    7  O   UNL     1      -8.337   9.554  67.329  1.00  0.00    -0.123 OA 
BRANCH   7   8
HETATM    8  C   UNL     1      -8.170   8.318  67.972  1.00  0.00    -0.128 A  
HETATM    9  C   UNL     1      -8.213   7.165  67.192  1.00  0.00    -0.118 A  
HETATM   10  C   UNL     1      -8.156   5.919  67.816  1.00  0.00    -0.105 A  
HETATM   11  C   UNL     1      -8.076   5.828  69.212  1.00  0.00    -0.101 A  
HETATM   12  C   UNL     1      -8.065   6.985  70.005  1.00  0.00    -0.128 A  
HETATM   13  C   UNL     1      -8.113   8.234  69.363  1.00  0.00    -0.115 A  
BRANCH  12  14
HETATM   14  C   UNL     1      -8.049   6.954  71.531  1.00  0.00    -0.109 C  
HETATM   15  C   UNL     1      -6.943   6.030  72.065  1.00  0.00    -0.078 C  
BRANCH  14  16
HETATM   16  N   UNL     1      -9.363   6.755  72.182  1.00  0.00    -0.141 NA 
HETATM   17  C   UNL     1      -9.359   7.121  73.599  1.00  0.00    -0.212 C  
HETATM   18  C   UNL     1     -10.513   7.335  71.503  1.00  0.00    -0.202 C  
ENDBRANCH  14  16
ENDBRANCH  12  14
ENDBRANCH   7   8
ENDBRANCH   5   7
ENDBRANCH   2   3
TORSDOF 5
ENDMDL
MODEL      240
REMARK 921   NORMALIZED FREE ENERGY PREDICTED BY IDOCK:   -1.61 KCAL/MOL
REMARK 922        TOTAL FREE ENERGY PREDICTED BY IDOCK:   -2.69 KCAL/MOL
REMARK 923 INTER-LIGAND FREE ENERGY PREDICTED BY IDOCK:   -2.89 KCAL/MOL
REMARK 924 INTRA-LIGAND FREE ENERGY PREDICTED BY IDOCK:    0.20 KCAL/MOL
REMARK 927      BINDING AFFINITY PREDICTED BY RF-SCORE:    0.00 PKD
ROOT
HETATM    1  C   UNL     1      -9.837   8.083  66.712  1.00  0.00    -0.327 C  
HETATM    2  C   UNL     1      -8.401   7.584  66.820  1.00  0.00    -0.126 C  
ENDROOT
BRANCH   2   3
HETATM    3  N   UNL     1      -7.555   8.459  67.622  1.00  0.00    -0.097 N  
HETATM    4  C   UNL     1      -7.819   8.572  69.046  1.00  0.00    -0.104 C  
HETATM    5  C   UNL     1      -6.706   9.363  66.980  1.00  0.00    -0.076 C  
HETATM    6  O   UNL     1      -6.563   9.398  65.763  1.00  0.00    -0.070 OA 
BRANCH   5   7
HETATM    7  O   UNL     1      -6.085  10.226  67.880  1.00  0.00    -0.051 OA 
BRANCH   7   8
HETATM    8  C   UNL     1      -6.345  11.600  67.757  1.00  0.00    -0.067 A  
HETATM    9  C   UNL     1      -5.298  12.487  67.994  1.00  0.00    -0.078 A  
HETATM   10  C   UNL     1      -5.552  13.858  67.984  1.00  0.00    -0.125 A  
HETATM   11  C   UNL     1      -6.849  14.337  67.756  1.00  0.00    -0.189 A  
HETATM   12  C   UNL     1      -7.914  13.448  67.548  1.00  0.00    -0.186 A  
HETATM   13  C   UNL     1      -7.643  12.069  67.551  1.00  0.00    -0.147 A  
BRANCH  12  14
HETATM   14  C   UNL     1      -9.360  13.901  67.362  1.00  0.00    -0.228 C  
HETATM   15  C   UNL     1     -10.128  13.895  68.694  1.00  0.00    -0.203 C  
BRANCH  14  16
HETATM   16  N   UNL     1     -10.093  13.265  66.245  1.00  0.00    -0.288 NA 
HETATM   17  C   UNL     1     -10.258  11.821  66.419  1.00  0.00    -0.215 C  
HETATM   18  C   UNL     1     -11.355  13.885  65.866  1.00  0.00    -0.313 C  
ENDBRANCH  14  16
ENDBRANCH  12  14
ENDBRANCH   7   8
ENDBRANCH   5   7
ENDBRANCH   2   3
TORSDOF 5
ENDMDL
MODEL      241
REMARK 921   NORMALIZED FREE ENERGY PREDICTED BY IDOCK:   -1.58 KCAL/MOL
REMARK 922        TOTAL FREE ENERGY PREDICTED BY IDOCK:   -2.65 KCAL/MOL
REMARK 923 INTER-LIGAND FREE ENERGY PREDICTED BY IDOCK:   -2.74 KCAL/MOL
REMARK 924 INTRA-LIGAND FREE ENERGY PREDICTED BY IDOCK:    0.09 KCAL/MOL
REMARK 927      BINDING AFFINITY PREDICTED BY RF-SCORE:    0.00 PKD
ROOT
HETATM    1  C   UNL     1     -11.717  11.066  69.434  1.00  0.00    -0.394 C  
HETATM    2  C   UNL     1     -10.743  11.000  68.265  1.00  0.00    -0.196 C  
ENDROOT
BRANCH   2   3
HETATM    3  N   UNL     1      -9.857   9.844  68.328  1.00  0.00    -0.144 N  
HETATM    4  C   UNL     1     -10.421   8.521  68.127  1.00  0.00    -0.182 C  
HETATM    5  C   UNL     1      -8.569  10.000  68.843  1.00  0.00    -0.138 C  
HETATM    6  O   UNL     1      -8.103  11.088  69.163  1.00  0.00    -0.135 OA 
BRANCH   5   7
HETATM    7  O   UNL     1      -7.909   8.781  68.978  1.00  0.00    -0.092 OA 
BRANCH   7   8
HETATM    8  C   UNL     1      -8.180   8.011  70.119  1.00  0.00    -0.120 A  
HETATM    9  C   UNL     1      -8.350   8.676  71.331  1.00  0.00    -0.217 A  
HETATM   10  C   UNL     1      -8.516   7.933  72.498  1.00  0.00    -0.197 A  
HETATM   11  C   UNL     1      -8.494   6.532  72.456  1.00  0.00    -0.121 A  
HETATM   12  C   UNL     1      -8.291   5.856  71.244  1.00  0.00    -0.124 A  
HETATM   13  C   UNL     1      -8.135   6.617  70.074  1.00  0.00    -0.121 A  
BRANCH  12  14
HETATM   14  C   UNL     1      -8.187   4.337  71.139  1.00  0.00    -0.077 C  
HETATM   15  C   UNL     1      -6.924   3.909  70.374  1.00  0.00    -0.034 C  
BRANCH  14  16
HETATM   16  N   UNL     1      -9.417   3.638  70.703  1.00  0.00    -0.160 NA 
HETATM   17  C   UNL     1      -9.373   3.230  69.298  1.00  0.00    -0.163 C  
HETATM   18  C   UNL     1      -9.867   2.540  71.545  1.00  0.00    -0.126 C  
ENDBRANCH  14  16
ENDBRANCH  12  14
ENDBRANCH   7   8
ENDBRANCH   5   7
ENDBRANCH   2   3
TORSDOF 5
ENDMDL
MODEL      242
REMARK 921   NORMALIZED FREE ENERGY PREDICTED BY IDOCK:   -1.58 KCAL/MOL
REMARK 922        TOTAL FREE ENERGY PREDICTED BY IDOCK:   -2.65 KCAL/MOL
REMARK 923 INTER-LIGAND FREE ENERGY PREDICTED BY IDOCK:   -2.19 KCAL/MOL
REMARK 924 INTRA-LIGAND FREE ENERGY PREDICTED BY IDOCK:   -0.46 KCAL/MOL
REMARK 927      BINDING AFFINITY PREDICTED BY RF-SCORE:    0.00 PKD
ROOT
HETATM    1  C   UNL     1      -9.352  13.520  67.067  1.00  0.00    -0.247 C  
HETATM    2  C   UNL     1      -9.744  12.106  67.480  1.00  0.00    -0.185 C  
ENDROOT
BRANCH   2   3
HETATM    3  N   UNL     1      -8.722  11.444  68.280  1.00  0.00    -0.154 N  
HETATM    4  C   UNL     1      -7.344  11.886  68.156  1.00  0.00    -0.092 C  
HETATM    5  C   UNL     1      -9.031  10.245  68.924  1.00  0.00    -0.164 C  
HETATM    6  O   UNL     1     -10.157   9.760  68.930  1.00  0.00    -0.169 OA 
BRANCH   5   7
HETATM    7  O   UNL     1      -7.911   9.665  69.515  1.00  0.00    -0.093 OA 
BRANCH   7   8
HETATM    8  C   UNL     1      -7.749   8.276  69.391  1.00  0.00    -0.102 A  
HETATM    9  C   UNL     1      -7.513   7.758  68.120  1.00  0.00    -0.108 A  
HETATM   10  C   UNL     1      -7.454   6.375  67.949  1.00  0.00    -0.094 A  
HETATM   11  C   UNL     1      -7.647   5.517  69.040  1.00  0.00    -0.087 A  
HETATM   12  C   UNL     1      -7.917   6.033  70.316  1.00  0.00    -0.107 A  
HETATM   13  C   UNL     1      -7.964   7.427  70.476  1.00  0.00    -0.099 A  
BRANCH  12  14
HETATM   14  C   UNL     1      -8.206   5.154  71.531  1.00  0.00    -0.116 C  
HETATM   15  C   UNL     1      -9.580   5.470  72.142  1.00  0.00    -0.173 C  
BRANCH  14  16
HETATM   16  N   UNL     1      -7.115   5.059  72.527  1.00  0.00    -0.079 NA 
HETATM   17  C   UNL     1      -7.433   5.732  73.787  1.00  0.00    -0.093 C  
HETATM   18  C   UNL     1      -6.584   3.726  72.775  1.00  0.00    -0.033 C  
ENDBRANCH  14  16
ENDBRANCH  12  14
ENDBRANCH   7   8
ENDBRANCH   5   7
ENDBRANCH   2   3
TORSDOF 5
ENDMDL
MODEL      243
REMARK 921   NORMALIZED FREE ENERGY PREDICTED BY IDOCK:   -1.49 KCAL/MOL
REMARK 922        TOTAL FREE ENERGY PREDICTED BY IDOCK:   -2.53 KCAL/MOL
REMARK 923 INTER-LIGAND FREE ENERGY PREDICTED BY IDOCK:   -2.23 KCAL/MOL
REMARK 924 INTRA-LIGAND FREE ENERGY PREDICTED BY IDOCK:   -0.30 KCAL/MOL
REMARK 927      BINDING AFFINITY PREDICTED BY RF-SCORE:    0.00 PKD
ROOT
HETATM    1  C   UNL     1      -8.767  12.406  66.874  1.00  0.00    -0.191 C  
HETATM    2  C   UNL     1     -10.033  11.564  66.773  1.00  0.00    -0.208 C  
ENDROOT
BRANCH   2   3
HETATM    3  N   UNL     1      -9.767  10.131  66.818  1.00  0.00    -0.180 N  
HETATM    4  C   UNL     1      -9.521   9.428  65.571  1.00  0.00    -0.260 C  
HETATM    5  C   UNL     1     -10.023   9.427  67.996  1.00  0.00    -0.176 C  
HETATM    6  O   UNL     1     -10.375   9.971  69.037  1.00  0.00    -0.184 OA 
BRANCH   5   7
HETATM    7  O   UNL     1      -9.865   8.053  67.828  1.00  0.00    -0.151 OA 
BRANCH   7   8
HETATM    8  C   UNL     1      -8.840   7.419  68.547  1.00  0.00    -0.126 A  
HETATM    9  C   UNL     1      -7.526   7.791  68.276  1.00  0.00    -0.104 A  
HETATM   10  C   UNL     1      -6.483   7.104  68.897  1.00  0.00    -0.032 A  
HETATM   11  C   UNL     1      -6.753   6.042  69.769  1.00  0.00    -0.052 A  
HETATM   12  C   UNL     1      -8.074   5.642  70.021  1.00  0.00    -0.106 A  
HETATM   13  C   UNL     1      -9.116   6.348  69.397  1.00  0.00    -0.140 A  
BRANCH  12  14
HETATM   14  C   UNL     1      -8.434   4.450  70.905  1.00  0.00    -0.088 C  
HETATM   15  C   UNL     1      -7.988   4.671  72.359  1.00  0.00    -0.095 C  
BRANCH  14  16
HETATM   16  N   UNL     1      -8.077   3.119  70.364  1.00  0.00    -0.045 NA 
HETATM   17  C   UNL     1      -8.251   3.028  68.913  1.00  0.00    -0.059 C  
HETATM   18  C   UNL     1      -6.781   2.590  70.762  1.00  0.00    -0.032 C  
ENDBRANCH  14  16
ENDBRANCH  12  14
ENDBRANCH   7   8
ENDBRANCH   5   7
ENDBRANCH   2   3
TORSDOF 5
ENDMDL
MODEL      244
REMARK 921   NORMALIZED FREE ENERGY PREDICTED BY IDOCK:   -1.47 KCAL/MOL
REMARK 922        TOTAL FREE ENERGY PREDICTED BY IDOCK:   -2.51 KCAL/MOL
REMARK 923 INTER-LIGAND FREE ENERGY PREDICTED BY IDOCK:   -2.45 KCAL/MOL
REMARK 924 INTRA-LIGAND FREE ENERGY PREDICTED BY IDOCK:   -0.06 KCAL/MOL
REMARK 927      BINDING AFFINITY PREDICTED BY RF-SCORE:    0.00 PKD
ROOT
HETATM    1  C   UNL     1     -14.405   7.459  71.470  1.00  0.00    -0.594 C  
HETATM    2  C   UNL     1     -12.923   7.105  71.531  1.00  0.00    -0.383 C  
ENDROOT
BRANCH   2   3
HETATM    3  N   UNL     1     -12.056   8.249  71.279  1.00  0.00    -0.288 N  
HETATM    4  C   UNL     1     -12.501   9.271  70.348  1.00  0.00     0.310 C  
HETATM    5  C   UNL     1     -10.728   8.206  71.710  1.00  0.00    -0.251 C  
HETATM    6  O   UNL     1     -10.272   7.285  72.380  1.00  0.00    -0.186 OA 
BRANCH   5   7
HETATM    7  O   UNL     1      -9.997   9.302  71.261  1.00  0.00    -0.296 OA 
BRANCH   7   8
HETATM    8  C   UNL     1      -9.080   9.095  70.219  1.00  0.00    -0.218 A  
HETATM    9  C   UNL     1      -8.172   8.046  70.347  1.00  0.00    -0.118 A  
HETATM   10  C   UNL     1      -7.182   7.882  69.379  1.00  0.00    -0.079 A  
HETATM   11  C   UNL     1      -7.089   8.772  68.301  1.00  0.00    -0.078 A  
HETATM   12  C   UNL     1      -7.980   9.849  68.184  1.00  0.00    -0.100 A  
HETATM   13  C   UNL     1      -8.979   9.998  69.160  1.00  0.00    -0.172 A  
BRANCH  12  14
HETATM   14  C   UNL     1      -7.891  10.894  67.074  1.00  0.00    -0.132 C  
HETATM   15  C   UNL     1      -8.213  10.285  65.699  1.00  0.00    -0.153 C  
BRANCH  14  16
HETATM   16  N   UNL     1      -6.676  11.739  67.085  1.00  0.00    -0.135 NA 
HETATM   17  C   UNL     1      -5.801  11.495  65.937  1.00  0.00     0.414 C  
HETATM   18  C   UNL     1      -6.886  13.166  67.279  1.00  0.00     0.013 C  
ENDBRANCH  14  16
ENDBRANCH  12  14
ENDBRANCH   7   8
ENDBRANCH   5   7
ENDBRANCH   2   3
TORSDOF 5
ENDMDL
MODEL      245
REMARK 921   NORMALIZED FREE ENERGY PREDICTED BY IDOCK:   -1.45 KCAL/MOL
REMARK 922        TOTAL FREE ENERGY PREDICTED BY IDOCK:   -2.48 KCAL/MOL
REMARK 923 INTER-LIGAND FREE ENERGY PREDICTED BY IDOCK:   -2.40 KCAL/MOL
REMARK 924 INTRA-LIGAND FREE ENERGY PREDICTED BY IDOCK:   -0.08 KCAL/MOL
REMARK 927      BINDING AFFINITY PREDICTED BY RF-SCORE:    0.00 PKD
ROOT
HETATM    1  C   UNL     1     -11.348   6.035  69.682  1.00  0.00    -0.328 C  
HETATM    2  C   UNL     1     -11.259   6.555  68.252  1.00  0.00    -0.162 C  
ENDROOT
BRANCH   2   3
HETATM    3  N   UNL     1     -10.160   7.491  68.056  1.00  0.00    -0.175 N  
HETATM    4  C   UNL     1      -8.947   7.019  67.410  1.00  0.00    -0.117 C  
HETATM    5  C   UNL     1     -10.181   8.717  68.723  1.00  0.00    -0.206 C  
HETATM    6  O   UNL     1     -11.131   9.093  69.401  1.00  0.00    -0.148 OA 
BRANCH   5   7
HETATM    7  O   UNL     1      -8.994   9.426  68.553  1.00  0.00    -0.128 OA 
BRANCH   7   8
HETATM    8  C   UNL     1      -8.088   9.455  69.624  1.00  0.00    -0.123 A  
HETATM    9  C   UNL     1      -6.900  10.162  69.456  1.00  0.00    -0.079 A  
HETATM   10  C   UNL     1      -5.935  10.121  70.462  1.00  0.00    -0.099 A  
HETATM   11  C   UNL     1      -6.151   9.363  71.620  1.00  0.00    -0.007 A  
HETATM   12  C   UNL     1      -7.332   8.623  71.782  1.00  0.00    -0.108 A  
HETATM   13  C   UNL     1      -8.300   8.682  70.765  1.00  0.00    -0.172 A  
BRANCH  12  14
HETATM   14  C   UNL     1      -7.599   7.724  72.986  1.00  0.00    -0.111 C  
HETATM   15  C   UNL     1      -6.294   7.323  73.692  1.00  0.00    -0.065 C  
BRANCH  14  16
HETATM   16  N   UNL     1      -8.524   6.592  72.748  1.00  0.00    -0.120 NA 
HETATM   17  C   UNL     1      -7.831   5.364  72.355  1.00  0.00    -0.103 C  
HETATM   18  C   UNL     1      -9.495   6.323  73.798  1.00  0.00    -0.154 C  
ENDBRANCH  14  16
ENDBRANCH  12  14
ENDBRANCH   7   8
ENDBRANCH   5   7
ENDBRANCH   2   3
TORSDOF 5
ENDMDL
MODEL      246
REMARK 921   NORMALIZED FREE ENERGY PREDICTED BY IDOCK:   -1.44 KCAL/MOL
REMARK 922        TOTAL FREE ENERGY PREDICTED BY IDOCK:   -2.46 KCAL/MOL
REMARK 923 INTER-LIGAND FREE ENERGY PREDICTED BY IDOCK:   -3.28 KCAL/MOL
REMARK 924 INTRA-LIGAND FREE ENERGY PREDICTED BY IDOCK:    0.82 KCAL/MOL
REMARK 927      BINDING AFFINITY PREDICTED BY RF-SCORE:    0.00 PKD
ROOT
HETATM    1  C   UNL     1      -9.083  12.177  66.425  1.00  0.00    -0.177 C  
HETATM    2  C   UNL     1     -10.416  11.486  66.685  1.00  0.00    -0.238 C  
ENDROOT
BRANCH   2   3
HETATM    3  N   UNL     1     -10.264  10.165  67.282  1.00  0.00    -0.209 N  
HETATM    4  C   UNL     1     -10.247   9.002  66.412  1.00  0.00    -0.227 C  
HETATM    5  C   UNL     1     -10.413  10.020  68.663  1.00  0.00    -0.204 C  
HETATM    6  O   UNL     1     -10.575  10.970  69.422  1.00  0.00    -0.223 OA 
BRANCH   5   7
HETATM    7  O   UNL     1     -10.391   8.683  69.054  1.00  0.00    -0.208 OA 
BRANCH   7   8
HETATM    8  C   UNL     1      -9.351   8.265  69.898  1.00  0.00    -0.159 A  
HETATM    9  C   UNL     1      -8.081   8.116  69.345  1.00  0.00    -0.116 A  
HETATM   10  C   UNL     1      -7.052   7.600  70.133  1.00  0.00    -0.059 A  
HETATM   11  C   UNL     1      -7.298   7.220  71.459  1.00  0.00    -0.080 A  
HETATM   12  C   UNL     1      -8.582   7.337  72.012  1.00  0.00    -0.117 A  
HETATM   13  C   UNL     1      -9.606   7.867  71.211  1.00  0.00    -0.186 A  
BRANCH  12  14
HETATM   14  C   UNL     1      -8.931   6.877  73.425  1.00  0.00    -0.133 C  
HETATM   15  C   UNL     1      -8.010   5.738  73.891  1.00  0.00    -0.106 C  
BRANCH  14  16
HETATM   16  N   UNL     1     -10.368   6.629  73.681  1.00  0.00    -0.289 NA 
HETATM   17  C   UNL     1     -11.233   7.683  73.147  1.00  0.00    -0.256 C  
HETATM   18  C   UNL     1     -10.870   5.314  73.313  1.00  0.00    -0.297 C  
ENDBRANCH  14  16
ENDBRANCH  12  14
ENDBRANCH   7   8
ENDBRANCH   5   7
ENDBRANCH   2   3
TORSDOF 5
ENDMDL
MODEL      247
REMARK 921   NORMALIZED FREE ENERGY PREDICTED BY IDOCK:   -1.31 KCAL/MOL
REMARK 922        TOTAL FREE ENERGY PREDICTED BY IDOCK:   -2.30 KCAL/MOL
REMARK 923 INTER-LIGAND FREE ENERGY PREDICTED BY IDOCK:   -1.79 KCAL/MOL
REMARK 924 INTRA-LIGAND FREE ENERGY PREDICTED BY IDOCK:   -0.51 KCAL/MOL
REMARK 927      BINDING AFFINITY PREDICTED BY RF-SCORE:    0.00 PKD
ROOT
HETATM    1  C   UNL     1     -12.138   1.467  73.879  1.00  0.00    -0.120 C  
HETATM    2  C   UNL     1     -10.967   1.663  72.923  1.00  0.00    -0.137 C  
ENDROOT
BRANCH   2   3
HETATM    3  N   UNL     1     -10.301   2.948  73.097  1.00  0.00    -0.139 N  
HETATM    4  C   UNL     1     -11.101   4.105  73.461  1.00  0.00    -0.270 C  
HETATM    5  C   UNL     1      -8.987   3.101  72.652  1.00  0.00    -0.087 C  
HETATM    6  O   UNL     1      -8.322   2.174  72.201  1.00  0.00    -0.053 OA 
BRANCH   5   7
HETATM    7  O   UNL     1      -8.551   4.420  72.750  1.00  0.00    -0.107 OA 
BRANCH   7   8
HETATM    8  C   UNL     1      -7.629   4.878  71.797  1.00  0.00    -0.096 A  
HETATM    9  C   UNL     1      -6.337   5.172  72.227  1.00  0.00    -0.032 A  
HETATM   10  C   UNL     1      -5.430   5.729  71.326  1.00  0.00    -0.017 A  
HETATM   11  C   UNL     1      -5.819   6.006  70.009  1.00  0.00    -0.017 A  
HETATM   12  C   UNL     1      -7.128   5.742  69.578  1.00  0.00    -0.065 A  
HETATM   13  C   UNL     1      -8.028   5.172  70.493  1.00  0.00    -0.090 A  
BRANCH  12  14
HETATM   14  C   UNL     1      -7.635   6.083  68.180  1.00  0.00    -0.094 C  
HETATM   15  C   UNL     1      -6.474   6.275  67.190  1.00  0.00    -0.053 C  
BRANCH  14  16
HETATM   16  N   UNL     1      -8.662   7.147  68.112  1.00  0.00    -0.128 NA 
HETATM   17  C   UNL     1      -8.118   8.482  68.366  1.00  0.00    -0.122 C  
HETATM   18  C   UNL     1      -9.507   7.152  66.926  1.00  0.00    -0.159 C  
ENDBRANCH  14  16
ENDBRANCH  12  14
ENDBRANCH   7   8
ENDBRANCH   5   7
ENDBRANCH   2   3
TORSDOF 5
ENDMDL
MODEL      248
REMARK 921   NORMALIZED FREE ENERGY PREDICTED BY IDOCK:   -1.30 KCAL/MOL
REMARK 922        TOTAL FREE ENERGY PREDICTED BY IDOCK:   -2.29 KCAL/MOL
REMARK 923 INTER-LIGAND FREE ENERGY PREDICTED BY IDOCK:   -2.27 KCAL/MOL
REMARK 924 INTRA-LIGAND FREE ENERGY PREDICTED BY IDOCK:   -0.02 KCAL/MOL
REMARK 927      BINDING AFFINITY PREDICTED BY RF-SCORE:    0.00 PKD
ROOT
HETATM    1  C   UNL     1     -11.996   6.856  72.525  1.00  0.00    -0.087 C  
HETATM    2  C   UNL     1     -11.357   5.482  72.687  1.00  0.00    -0.291 C  
ENDROOT
BRANCH   2   3
HETATM    3  N   UNL     1     -10.129   5.333  71.917  1.00  0.00    -0.190 N  
HETATM    4  C   UNL     1      -9.847   6.289  70.860  1.00  0.00    -0.181 C  
HETATM    5  C   UNL     1      -9.400   4.146  72.018  1.00  0.00    -0.130 C  
HETATM    6  O   UNL     1      -9.692   3.247  72.800  1.00  0.00    -0.116 OA 
BRANCH   5   7
HETATM    7  O   UNL     1      -8.345   4.101  71.110  1.00  0.00    -0.080 OA 
BRANCH   7   8
HETATM    8  C   UNL     1      -8.582   3.512  69.858  1.00  0.00    -0.058 A  
HETATM    9  C   UNL     1      -9.313   2.327  69.823  1.00  0.00    -0.161 A  
HETATM   10  C   UNL     1      -9.474   1.663  68.607  1.00  0.00    -0.222 A  
HETATM   11  C   UNL     1      -8.892   2.172  67.439  1.00  0.00    -0.158 A  
HETATM   12  C   UNL     1      -8.128   3.348  67.474  1.00  0.00    -0.081 A  
HETATM   13  C   UNL     1      -7.982   4.012  68.703  1.00  0.00    -0.071 A  
BRANCH  12  14
HETATM   14  C   UNL     1      -7.410   3.918  66.253  1.00  0.00    -0.076 C  
HETATM   15  C   UNL     1      -6.324   4.928  66.657  1.00  0.00    -0.040 C  
BRANCH  14  16
HETATM   16  N   UNL     1      -8.285   4.386  65.155  1.00  0.00    -0.102 NA 
HETATM   17  C   UNL     1      -8.494   5.835  65.171  1.00  0.00    -0.138 C  
HETATM   18  C   UNL     1      -7.939   3.930  63.817  1.00  0.00    -0.088 C  
ENDBRANCH  14  16
ENDBRANCH  12  14
ENDBRANCH   7   8
ENDBRANCH   5   7
ENDBRANCH   2   3
TORSDOF 5
ENDMDL
MODEL      249
REMARK 921   NORMALIZED FREE ENERGY PREDICTED BY IDOCK:   -1.25 KCAL/MOL
REMARK 922        TOTAL FREE ENERGY PREDICTED BY IDOCK:   -2.22 KCAL/MOL
REMARK 923 INTER-LIGAND FREE ENERGY PREDICTED BY IDOCK:   -1.94 KCAL/MOL
REMARK 924 INTRA-LIGAND FREE ENERGY PREDICTED BY IDOCK:   -0.28 KCAL/MOL
REMARK 927      BINDING AFFINITY PREDICTED BY RF-SCORE:    0.00 PKD
ROOT
HETATM    1  C   UNL     1     -10.765   7.567  67.081  1.00  0.00    -0.379 C  
HETATM    2  C   UNL     1      -9.636   8.391  66.473  1.00  0.00    -0.236 C  
ENDROOT
BRANCH   2   3
HETATM    3  N   UNL     1      -8.390   7.645  66.351  1.00  0.00    -0.123 N  
HETATM    4  C   UNL     1      -8.286   6.624  65.323  1.00  0.00    -0.133 C  
HETATM    5  C   UNL     1      -7.443   7.726  67.374  1.00  0.00    -0.093 C  
HETATM    6  O   UNL     1      -7.563   8.474  68.339  1.00  0.00    -0.093 OA 
BRANCH   5   7
HETATM    7  O   UNL     1      -6.385   6.841  67.180  1.00  0.00    -0.038 OA 
BRANCH   7   8
HETATM    8  C   UNL     1      -6.398   5.637  67.900  1.00  0.00    -0.042 A  
HETATM    9  C   UNL     1      -5.393   4.709  67.637  1.00  0.00    -0.012 A  
HETATM   10  C   UNL     1      -5.439   3.462  68.259  1.00  0.00    -0.013 A  
HETATM   11  C   UNL     1      -6.494   3.139  69.124  1.00  0.00    -0.029 A  
HETATM   12  C   UNL     1      -7.525   4.058  69.368  1.00  0.00    -0.053 A  
HETATM   13  C   UNL     1      -7.461   5.314  68.743  1.00  0.00    -0.074 A  
BRANCH  12  14
HETATM   14  C   UNL     1      -8.737   3.745  70.243  1.00  0.00    -0.076 C  
HETATM   15  C   UNL     1      -9.806   4.844  70.140  1.00  0.00    -0.309 C  
BRANCH  14  16
HETATM   16  N   UNL     1      -8.434   3.332  71.632  1.00  0.00    -0.065 NA 
HETATM   17  C   UNL     1      -8.849   4.324  72.625  1.00  0.00    -0.104 C  
HETATM   18  C   UNL     1      -8.877   2.000  72.018  1.00  0.00    -0.069 C  
ENDBRANCH  14  16
ENDBRANCH  12  14
ENDBRANCH   7   8
ENDBRANCH   5   7
ENDBRANCH   2   3
TORSDOF 5
ENDMDL
MODEL      250
REMARK 921   NORMALIZED FREE ENERGY PREDICTED BY IDOCK:   -1.23 KCAL/MOL
REMARK 922        TOTAL FREE ENERGY PREDICTED BY IDOCK:   -2.19 KCAL/MOL
REMARK 923 INTER-LIGAND FREE ENERGY PREDICTED BY IDOCK:   -2.73 KCAL/MOL
REMARK 924 INTRA-LIGAND FREE ENERGY PREDICTED BY IDOCK:    0.54 KCAL/MOL
REMARK 927      BINDING AFFINITY PREDICTED BY RF-SCORE:    0.00 PKD
ROOT
HETATM    1  C   UNL     1      -6.876  11.988  67.194  1.00  0.00    -0.136 C  
HETATM    2  C   UNL     1      -8.399  12.007  67.232  1.00  0.00    -0.176 C  
ENDROOT
BRANCH   2   3
HETATM    3  N   UNL     1      -8.987  10.681  67.091  1.00  0.00    -0.137 N  
HETATM    4  C   UNL     1      -9.188  10.144  65.757  1.00  0.00    -0.178 C  
HETATM    5  C   UNL     1      -9.588  10.080  68.199  1.00  0.00    -0.139 C  
HETATM    6  O   UNL     1      -9.565  10.574  69.322  1.00  0.00    -0.208 OA 
BRANCH   5   7
HETATM    7  O   UNL     1     -10.233   8.892  67.865  1.00  0.00    -0.198 OA 
BRANCH   7   8
HETATM    8  C   UNL     1      -9.659   7.689  68.303  1.00  0.00    -0.153 A  
HETATM    9  C   UNL     1      -8.608   7.761  69.214  1.00  0.00    -0.138 A  
HETATM   10  C   UNL     1      -7.948   6.590  69.587  1.00  0.00    -0.120 A  
HETATM   11  C   UNL     1      -8.327   5.358  69.037  1.00  0.00    -0.100 A  
HETATM   12  C   UNL     1      -9.364   5.283  68.095  1.00  0.00    -0.139 A  
HETATM   13  C   UNL     1     -10.026   6.469  67.737  1.00  0.00    -0.154 A  
BRANCH  12  14
HETATM   14  C   UNL     1      -9.780   3.985  67.408  1.00  0.00    -0.141 C  
HETATM   15  C   UNL     1      -9.418   2.756  68.257  1.00  0.00    -0.216 C  
BRANCH  14  16
HETATM   16  N   UNL     1      -9.396   3.863  65.983  1.00  0.00    -0.161 NA 
HETATM   17  C   UNL     1      -9.130   5.156  65.351  1.00  0.00    -0.140 C  
HETATM   18  C   UNL     1      -8.334   2.914  65.682  1.00  0.00    -0.095 C  
ENDBRANCH  14  16
ENDBRANCH  12  14
ENDBRANCH   7   8
ENDBRANCH   5   7
ENDBRANCH   2   3
TORSDOF 5
ENDMDL
MODEL      251
REMARK 921   NORMALIZED FREE ENERGY PREDICTED BY IDOCK:   -0.89 KCAL/MOL
REMARK 922        TOTAL FREE ENERGY PREDICTED BY IDOCK:   -1.75 KCAL/MOL
REMARK 923 INTER-LIGAND FREE ENERGY PREDICTED BY IDOCK:   -1.62 KCAL/MOL
REMARK 924 INTRA-LIGAND FREE ENERGY PREDICTED BY IDOCK:   -0.14 KCAL/MOL
REMARK 927      BINDING AFFINITY PREDICTED BY RF-SCORE:    0.00 PKD
ROOT
HETATM    1  C   UNL     1      -6.797  12.047  67.153  1.00  0.00    -0.136 C  
HETATM    2  C   UNL     1      -8.258  11.616  67.190  1.00  0.00    -0.165 C  
ENDROOT
BRANCH   2   3
HETATM    3  N   UNL     1      -8.462  10.258  66.701  1.00  0.00    -0.123 N  
HETATM    4  C   UNL     1      -8.784  10.061  65.299  1.00  0.00    -0.163 C  
HETATM    5  C   UNL     1      -8.614   9.218  67.620  1.00  0.00    -0.116 C  
HETATM    6  O   UNL     1      -8.492   9.372  68.831  1.00  0.00    -0.117 OA 
BRANCH   5   7
HETATM    7  O   UNL     1      -8.952   8.017  67.000  1.00  0.00    -0.131 OA 
BRANCH   7   8
HETATM    8  C   UNL     1      -7.994   6.992  66.992  1.00  0.00    -0.116 A  
HETATM    9  C   UNL     1      -6.948   7.069  67.908  1.00  0.00    -0.083 A  
HETATM   10  C   UNL     1      -5.925   6.122  67.853  1.00  0.00    -0.017 A  
HETATM   11  C   UNL     1      -5.940   5.117  66.877  1.00  0.00    -0.026 A  
HETATM   12  C   UNL     1      -6.975   5.054  65.932  1.00  0.00    -0.066 A  
HETATM   13  C   UNL     1      -8.004   6.007  66.004  1.00  0.00    -0.109 A  
BRANCH  12  14
HETATM   14  C   UNL     1      -7.015   4.028  64.802  1.00  0.00    -0.050 C  
HETATM   15  C   UNL     1      -5.617   3.465  64.500  1.00  0.00    -0.010 C  
BRANCH  14  16
HETATM   16  N   UNL     1      -7.771   4.434  63.595  1.00  0.00    -0.069 NA 
HETATM   17  C   UNL     1      -6.921   5.030  62.564  1.00  0.00    -0.030 C  
HETATM   18  C   UNL     1      -8.652   3.428  63.019  1.00  0.00    -0.089 C  
ENDBRANCH  14  16
ENDBRANCH  12  14
ENDBRANCH   7   8
ENDBRANCH   5   7
ENDBRANCH   2   3
TORSDOF 5
ENDMDL
MODEL      252
REMARK 921   NORMALIZED FREE ENERGY PREDICTED BY IDOCK:   -0.29 KCAL/MOL
REMARK 922        TOTAL FREE ENERGY PREDICTED BY IDOCK:   -0.99 KCAL/MOL
REMARK 923 INTER-LIGAND FREE ENERGY PREDICTED BY IDOCK:   -1.37 KCAL/MOL
REMARK 924 INTRA-LIGAND FREE ENERGY PREDICTED BY IDOCK:    0.38 KCAL/MOL
REMARK 927      BINDING AFFINITY PREDICTED BY RF-SCORE:    0.00 PKD
ROOT
HETATM    1  C   UNL     1     -12.137   1.478  73.907  1.00  0.00    -0.120 C  
HETATM    2  C   UNL     1     -10.927   1.713  73.011  1.00  0.00    -0.150 C  
ENDROOT
BRANCH   2   3
HETATM    3  N   UNL     1     -10.284   2.999  73.251  1.00  0.00    -0.127 N  
HETATM    4  C   UNL     1     -11.114   4.142  73.590  1.00  0.00    -0.251 C  
HETATM    5  C   UNL     1      -8.947   3.171  72.889  1.00  0.00    -0.087 C  
HETATM    6  O   UNL     1      -8.248   2.260  72.460  1.00  0.00    -0.053 OA 
BRANCH   5   7
HETATM    7  O   UNL     1      -8.530   4.491  73.040  1.00  0.00    -0.098 OA 
BRANCH   7   8
HETATM    8  C   UNL     1      -7.531   4.966  72.177  1.00  0.00    -0.088 A  
HETATM    9  C   UNL     1      -6.487   4.105  71.850  1.00  0.00    -0.018 A  
HETATM   10  C   UNL     1      -5.426   4.582  71.081  1.00  0.00    -0.011 A  
HETATM   11  C   UNL     1      -5.402   5.917  70.657  1.00  0.00    -0.013 A  
HETATM   12  C   UNL     1      -6.435   6.798  71.010  1.00  0.00    -0.049 A  
HETATM   13  C   UNL     1      -7.502   6.302  71.777  1.00  0.00    -0.094 A  
BRANCH  12  14
HETATM   14  C   UNL     1      -6.436   8.279  70.640  1.00  0.00    -0.036 C  
HETATM   15  C   UNL     1      -6.432   8.481  69.116  1.00  0.00    -0.043 C  
BRANCH  14  16
HETATM   16  N   UNL     1      -5.451   9.120  71.358  1.00  0.00    -0.045 NA 
HETATM   17  C   UNL     1      -5.262  10.432  70.738  1.00  0.00    -0.069 C  
HETATM   18  C   UNL     1      -5.643   9.251  72.795  1.00  0.00    -0.017 C  
ENDBRANCH  14  16
ENDBRANCH  12  14
ENDBRANCH   7   8
ENDBRANCH   5   7
ENDBRANCH   2   3
TORSDOF 5
ENDMDL
MODEL      253
REMARK 921   NORMALIZED FREE ENERGY PREDICTED BY IDOCK:   -0.21 KCAL/MOL
REMARK 922        TOTAL FREE ENERGY PREDICTED BY IDOCK:   -0.88 KCAL/MOL
REMARK 923 INTER-LIGAND FREE ENERGY PREDICTED BY IDOCK:   -0.85 KCAL/MOL
REMARK 924 INTRA-LIGAND FREE ENERGY PREDICTED BY IDOCK:   -0.03 KCAL/MOL
REMARK 927      BINDING AFFINITY PREDICTED BY RF-SCORE:    0.00 PKD
ROOT
HETATM    1  C   UNL     1     -13.532   8.294  71.018  1.00  0.00     0.096 C  
HETATM    2  C   UNL     1     -12.777   6.999  71.293  1.00  0.00    -0.351 C  
ENDROOT
BRANCH   2   3
HETATM    3  N   UNL     1     -11.445   6.983  70.702  1.00  0.00    -0.307 N  
HETATM    4  C   UNL     1     -11.135   7.936  69.651  1.00  0.00    -0.026 C  
HETATM    5  C   UNL     1     -10.601   5.899  70.952  1.00  0.00    -0.256 C  
HETATM    6  O   UNL     1     -10.889   4.993  71.727  1.00  0.00    -0.149 OA 
BRANCH   5   7
HETATM    7  O   UNL     1      -9.433   5.960  70.197  1.00  0.00    -0.156 OA 
BRANCH   7   8
HETATM    8  C   UNL     1      -9.415   5.293  68.962  1.00  0.00    -0.135 A  
HETATM    9  C   UNL     1      -9.996   4.029  68.894  1.00  0.00     0.094 A  
HETATM   10  C   UNL     1      -9.901   3.299  67.710  1.00  0.00     0.190 A  
HETATM   11  C   UNL     1      -9.212   3.822  66.608  1.00  0.00    -0.188 A  
HETATM   12  C   UNL     1      -8.597   5.081  66.681  1.00  0.00    -0.109 A  
HETATM   13  C   UNL     1      -8.709   5.811  67.876  1.00  0.00    -0.103 A  
BRANCH  12  14
HETATM   14  C   UNL     1      -7.773   5.679  65.542  1.00  0.00    -0.089 C  
HETATM   15  C   UNL     1      -6.872   6.821  66.037  1.00  0.00    -0.063 C  
BRANCH  14  16
HETATM   16  N   UNL     1      -8.525   5.999  64.308  1.00  0.00     0.000 NA 
HETATM   17  C   UNL     1      -8.881   7.415  64.208  1.00  0.00     0.802 C  
HETATM   18  C   UNL     1      -7.945   5.524  63.060  1.00  0.00    -0.099 C  
ENDBRANCH  14  16
ENDBRANCH  12  14
ENDBRANCH   7   8
ENDBRANCH   5   7
ENDBRANCH   2   3
TORSDOF 5
ENDMDL
MODEL      254
REMARK 921   NORMALIZED FREE ENERGY PREDICTED BY IDOCK:   -0.18 KCAL/MOL
REMARK 922        TOTAL FREE ENERGY PREDICTED BY IDOCK:   -0.84 KCAL/MOL
REMARK 923 INTER-LIGAND FREE ENERGY PREDICTED BY IDOCK:   -1.26 KCAL/MOL
REMARK 924 INTRA-LIGAND FREE ENERGY PREDICTED BY IDOCK:    0.42 KCAL/MOL
REMARK 927      BINDING AFFINITY PREDICTED BY RF-SCORE:    0.00 PKD
ROOT
HETATM    1  C   UNL     1     -10.555   5.537  71.276  1.00  0.00    -0.304 C  
HETATM    2  C   UNL     1      -9.540   4.402  71.354  1.00  0.00    -0.165 C  
ENDROOT
BRANCH   2   3
HETATM    3  N   UNL     1      -8.387   4.611  70.487  1.00  0.00    -0.088 N  
HETATM    4  C   UNL     1      -8.534   5.468  69.324  1.00  0.00    -0.101 C  
HETATM    5  C   UNL     1      -7.269   3.786  70.629  1.00  0.00    -0.037 C  
HETATM    6  O   UNL     1      -7.167   2.945  71.516  1.00  0.00    -0.031 OA 
BRANCH   5   7
HETATM    7  O   UNL     1      -6.323   4.013  69.632  1.00  0.00    -0.027 OA 
BRANCH   7   8
HETATM    8  C   UNL     1      -6.574   3.483  68.357  1.00  0.00    -0.041 A  
HETATM    9  C   UNL     1      -6.832   2.119  68.256  1.00  0.00    -0.039 A  
HETATM   10  C   UNL     1      -6.981   1.546  66.994  1.00  0.00    -0.038 A  
HETATM   11  C   UNL     1      -6.854   2.331  65.840  1.00  0.00    -0.039 A  
HETATM   12  C   UNL     1      -6.563   3.700  65.934  1.00  0.00    -0.040 A  
HETATM   13  C   UNL     1      -6.426   4.266  67.212  1.00  0.00    -0.042 A  
BRANCH  12  14
HETATM   14  C   UNL     1      -6.344   4.596  64.718  1.00  0.00    -0.034 C  
HETATM   15  C   UNL     1      -6.015   6.039  65.131  1.00  0.00    -0.025 C  
BRANCH  14  16
HETATM   16  N   UNL     1      -7.369   4.496  63.655  1.00  0.00    -0.053 NA 
HETATM   17  C   UNL     1      -8.707   4.869  64.116  1.00  0.00    -0.124 C  
HETATM   18  C   UNL     1      -7.056   5.153  62.394  1.00  0.00    -0.030 C  
ENDBRANCH  14  16
ENDBRANCH  12  14
ENDBRANCH   7   8
ENDBRANCH   5   7
ENDBRANCH   2   3
TORSDOF 5
ENDMDL
MODEL      255
REMARK 921   NORMALIZED FREE ENERGY PREDICTED BY IDOCK:    0.12 KCAL/MOL
REMARK 922        TOTAL FREE ENERGY PREDICTED BY IDOCK:   -0.45 KCAL/MOL
REMARK 923 INTER-LIGAND FREE ENERGY PREDICTED BY IDOCK:   -0.95 KCAL/MOL
REMARK 924 INTRA-LIGAND FREE ENERGY PREDICTED BY IDOCK:    0.50 KCAL/MOL
REMARK 927      BINDING AFFINITY PREDICTED BY RF-SCORE:    0.00 PKD
ROOT
HETATM    1  C   UNL     1      -6.624  12.771  66.756  1.00  0.00     0.769 C  
HETATM    2  C   UNL     1      -7.450  12.961  68.022  1.00  0.00    -0.125 C  
ENDROOT
BRANCH   2   3
HETATM    3  N   UNL     1      -7.387  11.813  68.918  1.00  0.00    -0.111 N  
HETATM    4  C   UNL     1      -8.628  11.176  69.324  1.00  0.00     0.158 C  
HETATM    5  C   UNL     1      -6.190  11.525  69.576  1.00  0.00    -0.110 C  
HETATM    6  O   UNL     1      -5.148  12.138  69.366  1.00  0.00    -0.063 OA 
BRANCH   5   7
HETATM    7  O   UNL     1      -6.337  10.499  70.506  1.00  0.00    -0.175 OA 
BRANCH   7   8
HETATM    8  C   UNL     1      -6.500   9.193  70.020  1.00  0.00    -0.044 A  
HETATM    9  C   UNL     1      -5.819   8.839  68.857  1.00  0.00    -0.040 A  
HETATM   10  C   UNL     1      -6.043   7.584  68.293  1.00  0.00    -0.036 A  
HETATM   11  C   UNL     1      -6.956   6.696  68.878  1.00  0.00    -0.079 A  
HETATM   12  C   UNL     1      -7.667   7.059  70.032  1.00  0.00    -0.104 A  
HETATM   13  C   UNL     1      -7.425   8.322  70.595  1.00  0.00    -0.062 A  
BRANCH  12  14
HETATM   14  C   UNL     1      -8.725   6.167  70.678  1.00  0.00    -0.139 C  
HETATM   15  C   UNL     1      -8.615   4.715  70.188  1.00  0.00    -0.101 C  
BRANCH  14  16
HETATM   16  N   UNL     1     -10.106   6.700  70.669  1.00  0.00    -0.184 NA 
HETATM   17  C   UNL     1     -10.640   6.877  69.318  1.00  0.00    -0.226 C  
HETATM   18  C   UNL     1     -11.067   6.011  71.518  1.00  0.00    -0.276 C  
ENDBRANCH  14  16
ENDBRANCH  12  14
ENDBRANCH   7   8
ENDBRANCH   5   7
ENDBRANCH   2   3
TORSDOF 5
ENDMDL
MODEL      256
REMARK 921   NORMALIZED FREE ENERGY PREDICTED BY IDOCK:    1.63 KCAL/MOL
REMARK 922        TOTAL FREE ENERGY PREDICTED BY IDOCK:    1.50 KCAL/MOL
REMARK 923 INTER-LIGAND FREE ENERGY PREDICTED BY IDOCK:    1.35 KCAL/MOL
REMARK 924 INTRA-LIGAND FREE ENERGY PREDICTED BY IDOCK:    0.15 KCAL/MOL
REMARK 927      BINDING AFFINITY PREDICTED BY RF-SCORE:    0.00 PKD
ROOT
HETATM    1  C   UNL     1     -13.647   1.467  73.892  1.00  0.00     0.246 C  
HETATM    2  C   UNL     1     -12.739   1.681  72.687  1.00  0.00     1.267 C  
ENDROOT
BRANCH   2   3
HETATM    3  N   UNL     1     -11.891   2.859  72.818  1.00  0.00     0.774 N  
HETATM    4  C   UNL     1     -12.491   4.106  73.258  1.00  0.00     0.790 C  
HETATM    5  C   UNL     1     -10.609   2.841  72.266  1.00  0.00     0.149 C  
HETATM    6  O   UNL     1     -10.116   1.842  71.752  1.00  0.00    -0.154 OA 
BRANCH   5   7
HETATM    7  O   UNL     1      -9.989   4.086  72.340  1.00  0.00    -0.151 OA 
BRANCH   7   8
HETATM    8  C   UNL     1      -9.313   4.551  71.202  1.00  0.00    -0.149 A  
HETATM    9  C   UNL     1      -8.422   3.685  70.573  1.00  0.00    -0.102 A  
HETATM   10  C   UNL     1      -7.657   4.153  69.505  1.00  0.00    -0.054 A  
HETATM   11  C   UNL     1      -7.771   5.483  69.081  1.00  0.00    -0.087 A  
HETATM   12  C   UNL     1      -8.643   6.369  69.731  1.00  0.00    -0.138 A  
HETATM   13  C   UNL     1      -9.414   5.883  70.799  1.00  0.00    -0.192 A  
BRANCH  12  14
HETATM   14  C   UNL     1      -8.763   7.847  69.365  1.00  0.00    -0.138 C  
HETATM   15  C   UNL     1      -7.812   8.223  68.217  1.00  0.00    -0.118 C  
BRANCH  14  16
HETATM   16  N   UNL     1      -8.733   8.794  70.503  1.00  0.00    -0.158 NA 
HETATM   17  C   UNL     1      -7.636   9.758  70.413  1.00  0.00    -0.148 C  
HETATM   18  C   UNL     1      -9.986   9.466  70.814  1.00  0.00    -0.289 C  
ENDBRANCH  14  16
ENDBRANCH  12  14
ENDBRANCH   7   8
ENDBRANCH   5   7
ENDBRANCH   2   3
TORSDOF 5
ENDMDL
