MODEL        1
REMARK 921   NORMALIZED FREE ENERGY PREDICTED BY IDOCK:   -7.81 KCAL/MOL
REMARK 922        TOTAL FREE ENERGY PREDICTED BY IDOCK:  -10.65 KCAL/MOL
REMARK 923 INTER-LIGAND FREE ENERGY PREDICTED BY IDOCK:  -10.09 KCAL/MOL
REMARK 924 INTRA-LIGAND FREE ENERGY PREDICTED BY IDOCK:   -0.56 KCAL/MOL
REMARK 927      BINDING AFFINITY PREDICTED BY RF-SCORE:    0.00 PKD
ROOT
HETATM    1 CL   UNL     1      -7.070  20.109  67.999  1.00  0.00    -0.319 Cl 
HETATM    2  C   UNL     1      -8.452  19.453  67.213  1.00  0.00    -0.295 A  
HETATM    3  C   UNL     1      -9.619  20.110  66.934  1.00  0.00    -0.564 A  
HETATM    4  C   UNL     1     -10.547  19.242  66.279  1.00  0.00    -0.545 A  
HETATM    5  C   UNL     1     -10.038  17.967  66.083  1.00  0.00    -0.320 A  
HETATM    6  S   UNL     1      -8.442  17.842  66.709  1.00  0.00    -0.257 SA 
ENDROOT
BRANCH   5   7
HETATM    7  C   UNL     1     -10.714  16.840  65.450  1.00  0.00    -0.189 C  
HETATM    8  N   UNL     1     -10.770  15.678  66.199  1.00  0.00    -0.314 N  
HETATM    9  O   UNL     1     -11.214  16.897  64.331  1.00  0.00    -1.159 OA 
HETATM   10  H   UNL     1     -10.248  15.633  67.074  1.00  0.00     0.000 HD 
BRANCH   8  11
HETATM   11  C   UNL     1     -11.546  14.521  65.786  1.00  0.00    -0.347 C  
BRANCH  11  12
HETATM   12  C   UNL     1     -12.000  13.700  66.986  1.00  0.00    -0.406 C  
HETATM   13  C   UNL     1     -11.023  12.634  67.413  1.00  0.00    -0.254 C  
HETATM   14  N   UNL     1     -11.373  12.487  68.796  1.00  0.00    -0.271 N  
HETATM   15  C   UNL     1     -11.894  13.699  69.237  1.00  0.00    -0.346 C  
HETATM   16  O   UNL     1     -12.092  14.529  68.154  1.00  0.00    -0.294 OA 
HETATM   17  O   UNL     1     -12.156  14.067  70.371  1.00  0.00    -0.313 OA 
BRANCH  14  18
HETATM   18  C   UNL     1     -11.175  11.309  69.557  1.00  0.00    -0.272 A  
HETATM   19  C   UNL     1     -10.057  10.498  69.366  1.00  0.00    -0.233 A  
HETATM   20  C   UNL     1      -9.862   9.334  70.123  1.00  0.00    -0.250 A  
HETATM   21  C   UNL     1     -10.767   8.934  71.112  1.00  0.00    -0.263 A  
HETATM   22  C   UNL     1     -12.072  10.929  70.561  1.00  0.00    -0.464 A  
HETATM   23  C   UNL     1     -11.863   9.773  71.336  1.00  0.00    -0.488 A  
BRANCH  21  24
HETATM   24  N   UNL     1     -10.614   7.673  71.776  1.00  0.00    -0.212 N  
HETATM   25  C   UNL     1      -9.720   7.525  72.926  1.00  0.00    -0.207 C  
HETATM   26  C   UNL     1     -10.373   6.712  74.040  1.00  0.00    -0.351 C  
HETATM   27  O   UNL     1     -10.716   5.419  73.549  1.00  0.00    -0.246 OA 
HETATM   28  C   UNL     1     -11.623   5.530  72.464  1.00  0.00    -0.211 C  
HETATM   29  C   UNL     1     -11.261   6.506  71.330  1.00  0.00    -0.288 C  
HETATM   30  O   UNL     1     -11.635   6.286  70.178  1.00  0.00    -0.413 OA 
ENDBRANCH  21  24
ENDBRANCH  14  18
ENDBRANCH  11  12
ENDBRANCH   8  11
ENDBRANCH   5   7
TORSDOF 5
ENDMDL
MODEL        2
REMARK 921   NORMALIZED FREE ENERGY PREDICTED BY IDOCK:   -7.64 KCAL/MOL
REMARK 922        TOTAL FREE ENERGY PREDICTED BY IDOCK:  -10.43 KCAL/MOL
REMARK 923 INTER-LIGAND FREE ENERGY PREDICTED BY IDOCK:   -9.84 KCAL/MOL
REMARK 924 INTRA-LIGAND FREE ENERGY PREDICTED BY IDOCK:   -0.59 KCAL/MOL
REMARK 927      BINDING AFFINITY PREDICTED BY RF-SCORE:    0.00 PKD
ROOT
HETATM    1 CL   UNL     1      -5.365  21.117  68.294  1.00  0.00    -0.350 Cl 
HETATM    2  C   UNL     1      -6.808  20.217  68.033  1.00  0.00    -0.300 A  
HETATM    3  C   UNL     1      -7.510  19.513  68.972  1.00  0.00    -0.380 A  
HETATM    4  C   UNL     1      -8.654  18.886  68.388  1.00  0.00    -0.381 A  
HETATM    5  C   UNL     1      -8.773  19.150  67.031  1.00  0.00    -0.294 A  
HETATM    6  S   UNL     1      -7.483  20.150  66.488  1.00  0.00    -0.267 SA 
ENDROOT
BRANCH   5   7
HETATM    7  C   UNL     1      -9.816  18.671  66.131  1.00  0.00    -0.287 C  
HETATM    8  N   UNL     1      -9.802  17.312  65.870  1.00  0.00    -0.184 N  
HETATM    9  O   UNL     1     -10.665  19.403  65.634  1.00  0.00    -0.468 OA 
HETATM   10  H   UNL     1      -9.018  16.755  66.209  1.00  0.00     0.000 HD 
BRANCH   8  11
HETATM   11  C   UNL     1     -10.864  16.650  65.130  1.00  0.00    -0.186 C  
BRANCH  11  12
HETATM   12  C   UNL     1     -10.917  15.162  65.449  1.00  0.00    -0.374 C  
HETATM   13  C   UNL     1     -11.154  14.848  66.905  1.00  0.00    -0.337 C  
HETATM   14  N   UNL     1     -11.745  13.545  66.806  1.00  0.00    -0.369 N  
HETATM   15  C   UNL     1     -12.388  13.458  65.575  1.00  0.00    -0.480 C  
HETATM   16  O   UNL     1     -12.049  14.552  64.808  1.00  0.00    -0.418 OA 
HETATM   17  O   UNL     1     -13.151  12.604  65.155  1.00  0.00    -0.726 OA 
BRANCH  14  18
HETATM   18  C   UNL     1     -11.695  12.558  67.820  1.00  0.00    -0.359 A  
HETATM   19  C   UNL     1     -11.324  11.243  67.540  1.00  0.00    -0.360 A  
HETATM   20  C   UNL     1     -11.271  10.268  68.546  1.00  0.00    -0.271 A  
HETATM   21  C   UNL     1     -11.577  10.564  69.879  1.00  0.00    -0.307 A  
HETATM   22  C   UNL     1     -11.978  12.867  69.155  1.00  0.00    -0.308 A  
HETATM   23  C   UNL     1     -11.904  11.893  70.168  1.00  0.00    -0.390 A  
BRANCH  21  24
HETATM   24  N   UNL     1     -11.647   9.523  70.860  1.00  0.00    -0.302 N  
HETATM   25  C   UNL     1     -12.922   9.140  71.469  1.00  0.00    -0.346 C  
HETATM   26  C   UNL     1     -13.073   7.623  71.544  1.00  0.00    -0.338 C  
HETATM   27  O   UNL     1     -12.007   7.074  72.315  1.00  0.00    -0.276 OA 
HETATM   28  C   UNL     1     -10.759   7.388  71.718  1.00  0.00    -0.214 C  
HETATM   29  C   UNL     1     -10.502   8.854  71.332  1.00  0.00    -0.305 C  
HETATM   30  O   UNL     1      -9.358   9.308  71.341  1.00  0.00    -0.263 OA 
ENDBRANCH  21  24
ENDBRANCH  14  18
ENDBRANCH  11  12
ENDBRANCH   8  11
ENDBRANCH   5   7
TORSDOF 5
ENDMDL
MODEL        3
REMARK 921   NORMALIZED FREE ENERGY PREDICTED BY IDOCK:   -7.27 KCAL/MOL
REMARK 922        TOTAL FREE ENERGY PREDICTED BY IDOCK:   -9.96 KCAL/MOL
REMARK 923 INTER-LIGAND FREE ENERGY PREDICTED BY IDOCK:   -9.54 KCAL/MOL
REMARK 924 INTRA-LIGAND FREE ENERGY PREDICTED BY IDOCK:   -0.42 KCAL/MOL
REMARK 927      BINDING AFFINITY PREDICTED BY RF-SCORE:    0.00 PKD
ROOT
HETATM    1 CL   UNL     1      -9.286   4.808  66.871  1.00  0.00    -0.121 Cl 
HETATM    2  C   UNL     1      -9.878   5.232  68.429  1.00  0.00    -0.153 A  
HETATM    3  C   UNL     1      -9.511   4.671  69.622  1.00  0.00    -0.232 A  
HETATM    4  C   UNL     1     -10.218   5.275  70.706  1.00  0.00    -0.317 A  
HETATM    5  C   UNL     1     -11.085   6.274  70.289  1.00  0.00    -0.364 A  
HETATM    6  S   UNL     1     -11.032   6.455  68.580  1.00  0.00    -0.295 SA 
ENDROOT
BRANCH   5   7
HETATM    7  C   UNL     1     -11.955   7.090  71.130  1.00  0.00    -0.356 C  
HETATM    8  N   UNL     1     -12.212   8.367  70.662  1.00  0.00    -0.490 N  
HETATM    9  O   UNL     1     -12.444   6.689  72.181  1.00  0.00    -0.277 OA 
HETATM   10  H   UNL     1     -11.700   8.703  69.847  1.00  0.00     0.000 HD 
BRANCH   8  11
HETATM   11  C   UNL     1     -13.184   9.245  71.292  1.00  0.00    -0.261 C  
BRANCH  11  12
HETATM   12  C   UNL     1     -12.608  10.637  71.520  1.00  0.00    -0.412 C  
HETATM   13  C   UNL     1     -12.477  11.466  70.267  1.00  0.00    -0.232 C  
HETATM   14  N   UNL     1     -12.526  12.790  70.816  1.00  0.00    -0.322 N  
HETATM   15  C   UNL     1     -13.267  12.740  71.992  1.00  0.00    -0.436 C  
HETATM   16  O   UNL     1     -13.500  11.422  72.325  1.00  0.00    -0.351 OA 
HETATM   17  O   UNL     1     -13.696  13.651  72.681  1.00  0.00    -0.668 OA 
BRANCH  14  18
HETATM   18  C   UNL     1     -11.942  13.933  70.217  1.00  0.00    -0.331 A  
HETATM   19  C   UNL     1     -11.775  14.028  68.836  1.00  0.00    -0.375 A  
HETATM   20  C   UNL     1     -11.199  15.162  68.246  1.00  0.00    -0.315 A  
HETATM   21  C   UNL     1     -10.775  16.257  69.006  1.00  0.00    -0.300 A  
HETATM   22  C   UNL     1     -11.543  15.035  70.982  1.00  0.00    -0.367 A  
HETATM   23  C   UNL     1     -10.985  16.181  70.386  1.00  0.00    -0.320 A  
BRANCH  21  24
HETATM   24  N   UNL     1     -10.069  17.342  68.392  1.00  0.00    -0.311 N  
HETATM   25  C   UNL     1     -10.771  18.353  67.601  1.00  0.00    -0.357 C  
HETATM   26  C   UNL     1     -10.288  19.761  67.935  1.00  0.00    -0.433 C  
HETATM   27  O   UNL     1      -8.889  19.860  67.678  1.00  0.00    -0.320 OA 
HETATM   28  C   UNL     1      -8.178  18.923  68.471  1.00  0.00    -0.353 C  
HETATM   29  C   UNL     1      -8.668  17.465  68.466  1.00  0.00    -0.277 C  
HETATM   30  O   UNL     1      -7.873  16.541  68.635  1.00  0.00    -0.201 OA 
ENDBRANCH  21  24
ENDBRANCH  14  18
ENDBRANCH  11  12
ENDBRANCH   8  11
ENDBRANCH   5   7
TORSDOF 5
ENDMDL
MODEL        4
REMARK 921   NORMALIZED FREE ENERGY PREDICTED BY IDOCK:   -7.25 KCAL/MOL
REMARK 922        TOTAL FREE ENERGY PREDICTED BY IDOCK:   -9.93 KCAL/MOL
REMARK 923 INTER-LIGAND FREE ENERGY PREDICTED BY IDOCK:   -9.32 KCAL/MOL
REMARK 924 INTRA-LIGAND FREE ENERGY PREDICTED BY IDOCK:   -0.61 KCAL/MOL
REMARK 927      BINDING AFFINITY PREDICTED BY RF-SCORE:    0.00 PKD
ROOT
HETATM    1 CL   UNL     1      -8.660   6.323  67.687  1.00  0.00    -0.115 Cl 
HETATM    2  C   UNL     1      -9.872   6.674  68.856  1.00  0.00    -0.139 A  
HETATM    3  C   UNL     1     -10.946   5.889  69.178  1.00  0.00    -0.382 A  
HETATM    4  C   UNL     1     -11.742   6.508  70.189  1.00  0.00    -0.419 A  
HETATM    5  C   UNL     1     -11.232   7.732  70.597  1.00  0.00    -0.268 A  
HETATM    6  S   UNL     1      -9.795   8.113  69.733  1.00  0.00    -0.190 SA 
ENDROOT
BRANCH   5   7
HETATM    7  C   UNL     1     -11.792   8.624  71.606  1.00  0.00    -0.323 C  
HETATM    8  N   UNL     1     -12.406   9.765  71.120  1.00  0.00    -0.337 N  
HETATM    9  O   UNL     1     -11.742   8.396  72.810  1.00  0.00    -0.367 OA 
HETATM   10  H   UNL     1     -12.330   9.978  70.125  1.00  0.00     0.000 HD 
BRANCH   8  11
HETATM   11  C   UNL     1     -13.154  10.672  71.975  1.00  0.00    -0.396 C  
BRANCH  11  12
HETATM   12  C   UNL     1     -12.669  12.107  71.821  1.00  0.00    -0.160 C  
HETATM   13  C   UNL     1     -12.278  12.481  70.413  1.00  0.00    -0.286 C  
HETATM   14  N   UNL     1     -12.473  13.901  70.449  1.00  0.00    -0.344 N  
HETATM   15  C   UNL     1     -13.456  14.176  71.394  1.00  0.00    -0.317 C  
HETATM   16  O   UNL     1     -13.733  13.029  72.106  1.00  0.00    -0.506 OA 
HETATM   17  O   UNL     1     -14.045  15.220  71.623  1.00  0.00    -0.473 OA 
BRANCH  14  18
HETATM   18  C   UNL     1     -11.791  14.830  69.623  1.00  0.00    -0.319 A  
HETATM   19  C   UNL     1     -11.115  15.923  70.162  1.00  0.00    -0.369 A  
HETATM   20  C   UNL     1     -10.438  16.839  69.343  1.00  0.00    -0.312 A  
HETATM   21  C   UNL     1     -10.397  16.697  67.952  1.00  0.00    -0.310 A  
HETATM   22  C   UNL     1     -11.734  14.668  68.235  1.00  0.00    -0.359 A  
HETATM   23  C   UNL     1     -11.037  15.575  67.416  1.00  0.00    -0.285 A  
BRANCH  21  24
HETATM   24  N   UNL     1      -9.816  17.718  67.131  1.00  0.00    -0.299 N  
HETATM   25  C   UNL     1     -10.557  18.935  66.796  1.00  0.00    -0.405 C  
HETATM   26  C   UNL     1      -9.683  20.178  66.934  1.00  0.00    -0.445 C  
HETATM   27  O   UNL     1      -8.556  20.068  66.068  1.00  0.00    -0.341 OA 
HETATM   28  C   UNL     1      -7.790  18.922  66.404  1.00  0.00    -0.280 C  
HETATM   29  C   UNL     1      -8.537  17.586  66.560  1.00  0.00    -0.263 C  
HETATM   30  O   UNL     1      -7.970  16.524  66.303  1.00  0.00    -0.308 OA 
ENDBRANCH  21  24
ENDBRANCH  14  18
ENDBRANCH  11  12
ENDBRANCH   8  11
ENDBRANCH   5   7
TORSDOF 5
ENDMDL
MODEL        5
REMARK 921   NORMALIZED FREE ENERGY PREDICTED BY IDOCK:   -7.22 KCAL/MOL
REMARK 922        TOTAL FREE ENERGY PREDICTED BY IDOCK:   -9.89 KCAL/MOL
REMARK 923 INTER-LIGAND FREE ENERGY PREDICTED BY IDOCK:   -9.13 KCAL/MOL
REMARK 924 INTRA-LIGAND FREE ENERGY PREDICTED BY IDOCK:   -0.75 KCAL/MOL
REMARK 927      BINDING AFFINITY PREDICTED BY RF-SCORE:    0.00 PKD
ROOT
HETATM    1 CL   UNL     1     -11.728   5.284  73.050  1.00  0.00    -0.308 Cl 
HETATM    2  C   UNL     1     -11.375   6.735  72.195  1.00  0.00    -0.271 A  
HETATM    3  C   UNL     1     -11.560   8.013  72.647  1.00  0.00    -0.448 A  
HETATM    4  C   UNL     1     -11.159   8.964  71.659  1.00  0.00    -0.420 A  
HETATM    5  C   UNL     1     -10.680   8.365  70.503  1.00  0.00    -0.227 A  
HETATM    6  S   UNL     1     -10.734   6.651  70.636  1.00  0.00    -0.255 SA 
ENDROOT
BRANCH   5   7
HETATM    7  C   UNL     1     -10.191   9.036  69.304  1.00  0.00    -0.205 C  
HETATM    8  N   UNL     1     -11.136   9.267  68.321  1.00  0.00    -0.487 N  
HETATM    9  O   UNL     1      -9.025   9.389  69.158  1.00  0.00    -0.138 OA 
HETATM   10  H   UNL     1     -12.066   8.861  68.429  1.00  0.00     0.000 HD 
BRANCH   8  11
HETATM   11  C   UNL     1     -10.853  10.067  67.140  1.00  0.00    -0.170 C  
BRANCH  11  12
HETATM   12  C   UNL     1     -11.166  11.538  67.379  1.00  0.00    -0.304 C  
HETATM   13  C   UNL     1      -9.996  12.464  67.160  1.00  0.00    -0.207 C  
HETATM   14  N   UNL     1     -10.677  13.687  66.849  1.00  0.00    -0.274 N  
HETATM   15  C   UNL     1     -11.905  13.363  66.282  1.00  0.00    -0.394 C  
HETATM   16  O   UNL     1     -12.124  12.009  66.419  1.00  0.00    -0.610 OA 
HETATM   17  O   UNL     1     -12.718  14.081  65.723  1.00  0.00    -0.516 OA 
BRANCH  14  18
HETATM   18  C   UNL     1     -10.145  14.983  67.063  1.00  0.00    -0.244 A  
HETATM   19  C   UNL     1      -9.227  15.548  66.179  1.00  0.00    -0.379 A  
HETATM   20  C   UNL     1      -8.704  16.832  66.391  1.00  0.00    -0.337 A  
HETATM   21  C   UNL     1      -9.083  17.613  67.488  1.00  0.00    -0.239 A  
HETATM   22  C   UNL     1     -10.547  15.767  68.149  1.00  0.00    -0.275 A  
HETATM   23  C   UNL     1     -10.038  17.064  68.349  1.00  0.00    -0.302 A  
BRANCH  21  24
HETATM   24  N   UNL     1      -8.433  18.862  67.754  1.00  0.00    -0.279 N  
HETATM   25  C   UNL     1      -7.598  19.045  68.942  1.00  0.00    -0.320 C  
HETATM   26  C   UNL     1      -6.299  19.773  68.606  1.00  0.00    -0.272 C  
HETATM   27  O   UNL     1      -6.599  21.050  68.049  1.00  0.00    -0.310 OA 
HETATM   28  C   UNL     1      -7.367  20.901  66.865  1.00  0.00    -0.209 C  
HETATM   29  C   UNL     1      -8.605  19.989  66.929  1.00  0.00    -0.336 C  
HETATM   30  O   UNL     1      -9.578  20.213  66.210  1.00  0.00    -0.398 OA 
ENDBRANCH  21  24
ENDBRANCH  14  18
ENDBRANCH  11  12
ENDBRANCH   8  11
ENDBRANCH   5   7
TORSDOF 5
ENDMDL
MODEL        6
REMARK 921   NORMALIZED FREE ENERGY PREDICTED BY IDOCK:   -7.03 KCAL/MOL
REMARK 922        TOTAL FREE ENERGY PREDICTED BY IDOCK:   -9.64 KCAL/MOL
REMARK 923 INTER-LIGAND FREE ENERGY PREDICTED BY IDOCK:   -9.02 KCAL/MOL
REMARK 924 INTRA-LIGAND FREE ENERGY PREDICTED BY IDOCK:   -0.63 KCAL/MOL
REMARK 927      BINDING AFFINITY PREDICTED BY RF-SCORE:    0.00 PKD
ROOT
HETATM    1 CL   UNL     1      -5.254  19.317  64.609  1.00  0.00    -0.203 Cl 
HETATM    2  C   UNL     1      -6.515  19.476  65.768  1.00  0.00    -0.227 A  
HETATM    3  C   UNL     1      -6.822  20.597  66.491  1.00  0.00    -0.310 A  
HETATM    4  C   UNL     1      -7.929  20.354  67.360  1.00  0.00    -0.361 A  
HETATM    5  C   UNL     1      -8.419  19.061  67.252  1.00  0.00    -0.277 A  
HETATM    6  S   UNL     1      -7.517  18.159  66.100  1.00  0.00    -0.239 SA 
ENDROOT
BRANCH   5   7
HETATM    7  C   UNL     1      -9.536  18.481  67.990  1.00  0.00    -0.303 C  
HETATM    8  N   UNL     1     -10.128  17.374  67.408  1.00  0.00    -0.310 N  
HETATM    9  O   UNL     1      -9.936  18.922  69.062  1.00  0.00    -0.392 OA 
HETATM   10  H   UNL     1      -9.843  17.105  66.466  1.00  0.00     0.000 HD 
BRANCH   8  11
HETATM   11  C   UNL     1     -11.139  16.583  68.088  1.00  0.00    -0.303 C  
BRANCH  11  12
HETATM   12  C   UNL     1     -10.863  15.091  67.947  1.00  0.00    -0.280 C  
HETATM   13  C   UNL     1     -11.237  14.275  69.160  1.00  0.00    -0.270 C  
HETATM   14  N   UNL     1     -11.457  12.991  68.560  1.00  0.00    -0.281 N  
HETATM   15  C   UNL     1     -11.857  13.194  67.244  1.00  0.00    -0.367 C  
HETATM   16  O   UNL     1     -11.690  14.524  66.920  1.00  0.00    -0.372 OA 
HETATM   17  O   UNL     1     -12.305  12.398  66.435  1.00  0.00    -0.539 OA 
BRANCH  14  18
HETATM   18  C   UNL     1     -11.317  11.752  69.234  1.00  0.00    -0.286 A  
HETATM   19  C   UNL     1     -12.139  11.409  70.306  1.00  0.00    -0.459 A  
HETATM   20  C   UNL     1     -12.001  10.181  70.969  1.00  0.00    -0.474 A  
HETATM   21  C   UNL     1     -11.043   9.237  70.585  1.00  0.00    -0.276 A  
HETATM   22  C   UNL     1     -10.373  10.803  68.828  1.00  0.00    -0.209 A  
HETATM   23  C   UNL     1     -10.250   9.562  69.480  1.00  0.00    -0.225 A  
BRANCH  21  24
HETATM   24  N   UNL     1     -10.833   8.052  71.362  1.00  0.00    -0.227 N  
HETATM   25  C   UNL     1      -9.910   8.044  72.498  1.00  0.00    -0.263 C  
HETATM   26  C   UNL     1     -10.510   7.324  73.702  1.00  0.00    -0.344 C  
HETATM   27  O   UNL     1     -10.821   5.979  73.348  1.00  0.00    -0.258 OA 
HETATM   28  C   UNL     1     -11.755   5.956  72.280  1.00  0.00    -0.252 C  
HETATM   29  C   UNL     1     -11.451   6.827  71.048  1.00  0.00    -0.324 C  
HETATM   30  O   UNL     1     -11.844   6.485  69.934  1.00  0.00    -0.381 OA 
ENDBRANCH  21  24
ENDBRANCH  14  18
ENDBRANCH  11  12
ENDBRANCH   8  11
ENDBRANCH   5   7
TORSDOF 5
ENDMDL
MODEL        7
REMARK 921   NORMALIZED FREE ENERGY PREDICTED BY IDOCK:   -6.95 KCAL/MOL
REMARK 922        TOTAL FREE ENERGY PREDICTED BY IDOCK:   -9.54 KCAL/MOL
REMARK 923 INTER-LIGAND FREE ENERGY PREDICTED BY IDOCK:   -8.81 KCAL/MOL
REMARK 924 INTRA-LIGAND FREE ENERGY PREDICTED BY IDOCK:   -0.73 KCAL/MOL
REMARK 927      BINDING AFFINITY PREDICTED BY RF-SCORE:    0.00 PKD
ROOT
HETATM    1 CL   UNL     1     -10.800   4.696  73.836  1.00  0.00    -0.358 Cl 
HETATM    2  C   UNL     1     -11.116   5.495  72.346  1.00  0.00    -0.256 A  
HETATM    3  C   UNL     1     -12.045   6.476  72.128  1.00  0.00    -0.309 A  
HETATM    4  C   UNL     1     -12.027   6.898  70.763  1.00  0.00    -0.424 A  
HETATM    5  C   UNL     1     -11.080   6.224  70.007  1.00  0.00    -0.388 A  
HETATM    6  S   UNL     1     -10.232   5.079  70.970  1.00  0.00    -0.186 SA 
ENDROOT
BRANCH   5   7
HETATM    7  C   UNL     1     -10.797   6.406  68.588  1.00  0.00    -0.314 C  
HETATM    8  N   UNL     1     -10.902   7.704  68.119  1.00  0.00    -0.439 N  
HETATM    9  O   UNL     1     -10.478   5.487  67.841  1.00  0.00    -0.207 OA 
HETATM   10  H   UNL     1     -11.278   8.421  68.740  1.00  0.00     0.000 HD 
BRANCH   8  11
HETATM   11  C   UNL     1     -10.497   8.082  66.775  1.00  0.00    -0.248 C  
BRANCH  11  12
HETATM   12  C   UNL     1      -9.812   9.443  66.765  1.00  0.00    -0.218 C  
HETATM   13  C   UNL     1     -10.747  10.608  66.972  1.00  0.00    -0.259 C  
HETATM   14  N   UNL     1      -9.844  11.583  67.512  1.00  0.00    -0.188 N  
HETATM   15  C   UNL     1      -8.820  10.905  68.164  1.00  0.00    -0.137 C  
HETATM   16  O   UNL     1      -8.912   9.559  67.878  1.00  0.00    -0.123 OA 
HETATM   17  O   UNL     1      -7.945  11.336  68.897  1.00  0.00    -0.141 OA 
BRANCH  14  18
HETATM   18  C   UNL     1     -10.018  12.985  67.410  1.00  0.00    -0.228 A  
HETATM   19  C   UNL     1      -9.033  13.803  66.857  1.00  0.00    -0.234 A  
HETATM   20  C   UNL     1      -9.208  15.191  66.755  1.00  0.00    -0.277 A  
HETATM   21  C   UNL     1     -10.379  15.822  67.190  1.00  0.00    -0.291 A  
HETATM   22  C   UNL     1     -11.201  13.607  67.825  1.00  0.00    -0.310 A  
HETATM   23  C   UNL     1     -11.384  14.996  67.702  1.00  0.00    -0.342 A  
BRANCH  21  24
HETATM   24  N   UNL     1     -10.477  17.251  67.199  1.00  0.00    -0.319 N  
HETATM   25  C   UNL     1     -10.532  18.000  68.456  1.00  0.00    -0.280 C  
HETATM   26  C   UNL     1      -9.624  19.226  68.417  1.00  0.00    -0.385 C  
HETATM   27  O   UNL     1     -10.023  20.082  67.349  1.00  0.00    -0.380 OA 
HETATM   28  C   UNL     1      -9.931  19.397  66.110  1.00  0.00    -0.425 C  
HETATM   29  C   UNL     1     -10.582  18.005  66.015  1.00  0.00    -0.251 C  
HETATM   30  O   UNL     1     -11.029  17.601  64.942  1.00  0.00    -0.886 OA 
ENDBRANCH  21  24
ENDBRANCH  14  18
ENDBRANCH  11  12
ENDBRANCH   8  11
ENDBRANCH   5   7
TORSDOF 5
ENDMDL
MODEL        8
REMARK 921   NORMALIZED FREE ENERGY PREDICTED BY IDOCK:   -6.91 KCAL/MOL
REMARK 922        TOTAL FREE ENERGY PREDICTED BY IDOCK:   -9.48 KCAL/MOL
REMARK 923 INTER-LIGAND FREE ENERGY PREDICTED BY IDOCK:   -9.04 KCAL/MOL
REMARK 924 INTRA-LIGAND FREE ENERGY PREDICTED BY IDOCK:   -0.45 KCAL/MOL
REMARK 927      BINDING AFFINITY PREDICTED BY RF-SCORE:    0.00 PKD
ROOT
HETATM    1 CL   UNL     1      -8.982   3.627  71.738  1.00  0.00    -0.142 Cl 
HETATM    2  C   UNL     1     -10.102   4.829  71.229  1.00  0.00    -0.188 A  
HETATM    3  C   UNL     1     -10.358   5.212  69.940  1.00  0.00    -0.347 A  
HETATM    4  C   UNL     1     -11.345   6.243  69.902  1.00  0.00    -0.504 A  
HETATM    5  C   UNL     1     -11.802   6.592  71.165  1.00  0.00    -0.325 A  
HETATM    6  S   UNL     1     -11.013   5.664  72.378  1.00  0.00    -0.266 SA 
ENDROOT
BRANCH   5   7
HETATM    7  C   UNL     1     -12.804   7.602  71.488  1.00  0.00    -0.344 C  
HETATM    8  N   UNL     1     -12.311   8.863  71.774  1.00  0.00    -0.333 N  
HETATM    9  O   UNL     1     -14.009   7.375  71.503  1.00  0.00    -0.410 OA 
HETATM   10  H   UNL     1     -11.302   8.987  71.862  1.00  0.00     0.000 HD 
BRANCH   8  11
HETATM   11  C   UNL     1     -13.177  10.016  71.954  1.00  0.00    -0.452 C  
BRANCH  11  12
HETATM   12  C   UNL     1     -13.107  10.954  70.756  1.00  0.00    -0.106 C  
HETATM   13  C   UNL     1     -12.199  12.143  70.953  1.00  0.00    -0.211 C  
HETATM   14  N   UNL     1     -11.860  12.449  69.593  1.00  0.00    -0.319 N  
HETATM   15  C   UNL     1     -11.935  11.271  68.857  1.00  0.00    -0.310 C  
HETATM   16  O   UNL     1     -12.513  10.288  69.631  1.00  0.00    -0.040 OA 
HETATM   17  O   UNL     1     -11.568  11.042  67.716  1.00  0.00    -0.510 OA 
BRANCH  14  18
HETATM   18  C   UNL     1     -11.483  13.732  69.125  1.00  0.00    -0.298 A  
HETATM   19  C   UNL     1     -10.414  13.902  68.247  1.00  0.00    -0.252 A  
HETATM   20  C   UNL     1     -10.045  15.172  67.783  1.00  0.00    -0.230 A  
HETATM   21  C   UNL     1     -10.733  16.328  68.166  1.00  0.00    -0.322 A  
HETATM   22  C   UNL     1     -12.192  14.880  69.493  1.00  0.00    -0.268 A  
HETATM   23  C   UNL     1     -11.834  16.153  69.010  1.00  0.00    -0.181 A  
BRANCH  21  24
HETATM   24  N   UNL     1     -10.253  17.624  67.786  1.00  0.00    -0.337 N  
HETATM   25  C   UNL     1     -10.008  18.665  68.785  1.00  0.00    -0.383 C  
HETATM   26  C   UNL     1      -8.687  19.385  68.531  1.00  0.00    -0.367 C  
HETATM   27  O   UNL     1      -8.709  19.980  67.237  1.00  0.00    -0.319 OA 
HETATM   28  C   UNL     1      -8.894  18.986  66.242  1.00  0.00    -0.277 C  
HETATM   29  C   UNL     1     -10.045  17.984  66.441  1.00  0.00    -0.384 C  
HETATM   30  O   UNL     1     -10.613  17.489  65.468  1.00  0.00    -0.612 OA 
ENDBRANCH  21  24
ENDBRANCH  14  18
ENDBRANCH  11  12
ENDBRANCH   8  11
ENDBRANCH   5   7
TORSDOF 5
ENDMDL
MODEL        9
REMARK 921   NORMALIZED FREE ENERGY PREDICTED BY IDOCK:   -6.90 KCAL/MOL
REMARK 922        TOTAL FREE ENERGY PREDICTED BY IDOCK:   -9.48 KCAL/MOL
REMARK 923 INTER-LIGAND FREE ENERGY PREDICTED BY IDOCK:   -9.15 KCAL/MOL
REMARK 924 INTRA-LIGAND FREE ENERGY PREDICTED BY IDOCK:   -0.33 KCAL/MOL
REMARK 927      BINDING AFFINITY PREDICTED BY RF-SCORE:    0.00 PKD
ROOT
HETATM    1 CL   UNL     1      -7.167  20.233  68.624  1.00  0.00    -0.195 Cl 
HETATM    2  C   UNL     1      -8.464  19.594  67.693  1.00  0.00    -0.319 A  
HETATM    3  C   UNL     1      -9.655  20.210  67.423  1.00  0.00    -0.551 A  
HETATM    4  C   UNL     1     -10.492  19.372  66.623  1.00  0.00    -0.568 A  
HETATM    5  C   UNL     1      -9.894  18.159  66.314  1.00  0.00    -0.310 A  
HETATM    6  S   UNL     1      -8.326  18.055  67.012  1.00  0.00    -0.242 SA 
ENDROOT
BRANCH   5   7
HETATM    7  C   UNL     1     -10.465  17.076  65.521  1.00  0.00    -0.166 C  
HETATM    8  N   UNL     1     -10.275  15.802  66.025  1.00  0.00    -0.310 N  
HETATM    9  O   UNL     1     -11.082  17.259  64.477  1.00  0.00    -1.082 OA 
HETATM   10  H   UNL     1      -9.663  15.679  66.832  1.00  0.00     0.000 HD 
BRANCH   8  11
HETATM   11  C   UNL     1     -10.917  14.632  65.448  1.00  0.00    -0.353 C  
BRANCH  11  12
HETATM   12  C   UNL     1     -10.368  13.345  66.049  1.00  0.00    -0.297 C  
HETATM   13  C   UNL     1     -11.173  12.810  67.207  1.00  0.00    -0.295 C  
HETATM   14  N   UNL     1     -10.839  11.417  67.144  1.00  0.00    -0.253 N  
HETATM   15  C   UNL     1     -10.530  11.108  65.823  1.00  0.00    -0.246 C  
HETATM   16  O   UNL     1     -10.441  12.275  65.094  1.00  0.00    -0.271 OA 
HETATM   17  O   UNL     1     -10.360  10.021  65.297  1.00  0.00    -0.236 OA 
BRANCH  14  18
HETATM   18  C   UNL     1     -10.866  10.530  68.249  1.00  0.00    -0.248 A  
HETATM   19  C   UNL     1     -11.623  10.807  69.387  1.00  0.00    -0.380 A  
HETATM   20  C   UNL     1     -11.650   9.927  70.478  1.00  0.00    -0.386 A  
HETATM   21  C   UNL     1     -10.932   8.726  70.477  1.00  0.00    -0.239 A  
HETATM   22  C   UNL     1     -10.165   9.320  68.231  1.00  0.00    -0.236 A  
HETATM   23  C   UNL     1     -10.210   8.427  69.318  1.00  0.00    -0.211 A  
BRANCH  21  24
HETATM   24  N   UNL     1     -10.870   7.913  71.655  1.00  0.00    -0.228 N  
HETATM   25  C   UNL     1     -11.995   7.065  72.052  1.00  0.00    -0.298 C  
HETATM   26  C   UNL     1     -11.527   5.678  72.482  1.00  0.00    -0.279 C  
HETATM   27  O   UNL     1     -10.626   5.797  73.580  1.00  0.00    -0.248 OA 
HETATM   28  C   UNL     1      -9.498   6.573  73.207  1.00  0.00    -0.143 C  
HETATM   29  C   UNL     1      -9.759   7.925  72.519  1.00  0.00    -0.227 C  
HETATM   30  O   UNL     1      -8.965   8.855  72.658  1.00  0.00    -0.337 OA 
ENDBRANCH  21  24
ENDBRANCH  14  18
ENDBRANCH  11  12
ENDBRANCH   8  11
ENDBRANCH   5   7
TORSDOF 5
ENDMDL
MODEL       10
REMARK 921   NORMALIZED FREE ENERGY PREDICTED BY IDOCK:   -6.89 KCAL/MOL
REMARK 922        TOTAL FREE ENERGY PREDICTED BY IDOCK:   -9.46 KCAL/MOL
REMARK 923 INTER-LIGAND FREE ENERGY PREDICTED BY IDOCK:   -9.13 KCAL/MOL
REMARK 924 INTRA-LIGAND FREE ENERGY PREDICTED BY IDOCK:   -0.33 KCAL/MOL
REMARK 927      BINDING AFFINITY PREDICTED BY RF-SCORE:    0.00 PKD
ROOT
HETATM    1 CL   UNL     1      -5.437  20.503  70.641  1.00  0.00    -0.320 Cl 
HETATM    2  C   UNL     1      -6.222  20.087  69.168  1.00  0.00    -0.320 A  
HETATM    3  C   UNL     1      -6.445  20.914  68.101  1.00  0.00    -0.305 A  
HETATM    4  C   UNL     1      -7.131  20.222  67.056  1.00  0.00    -0.309 A  
HETATM    5  C   UNL     1      -7.391  18.897  67.374  1.00  0.00    -0.225 A  
HETATM    6  S   UNL     1      -6.804  18.518  68.945  1.00  0.00    -0.277 SA 
ENDROOT
BRANCH   5   7
HETATM    7  C   UNL     1      -8.071  17.911  66.540  1.00  0.00    -0.272 C  
HETATM    8  N   UNL     1      -9.280  17.448  67.028  1.00  0.00    -0.240 N  
HETATM    9  O   UNL     1      -7.625  17.511  65.470  1.00  0.00    -0.379 OA 
HETATM   10  H   UNL     1      -9.564  17.716  67.971  1.00  0.00     0.000 HD 
BRANCH   8  11
HETATM   11  C   UNL     1     -10.159  16.592  66.248  1.00  0.00    -0.328 C  
BRANCH  11  12
HETATM   12  C   UNL     1     -11.117  15.817  67.143  1.00  0.00    -0.180 C  
HETATM   13  C   UNL     1     -10.561  14.516  67.665  1.00  0.00    -0.251 C  
HETATM   14  N   UNL     1     -11.336  14.353  68.861  1.00  0.00    -0.258 N  
HETATM   15  C   UNL     1     -11.700  15.618  69.311  1.00  0.00    -0.375 C  
HETATM   16  O   UNL     1     -11.381  16.552  68.348  1.00  0.00    -0.348 OA 
HETATM   17  O   UNL     1     -12.210  15.950  70.369  1.00  0.00    -0.372 OA 
BRANCH  14  18
HETATM   18  C   UNL     1     -11.630  13.108  69.468  1.00  0.00    -0.283 A  
HETATM   19  C   UNL     1     -12.319  13.031  70.678  1.00  0.00    -0.391 A  
HETATM   20  C   UNL     1     -12.611  11.797  71.276  1.00  0.00    -0.401 A  
HETATM   21  C   UNL     1     -12.238  10.584  70.688  1.00  0.00    -0.352 A  
HETATM   22  C   UNL     1     -11.276  11.898  68.861  1.00  0.00    -0.310 A  
HETATM   23  C   UNL     1     -11.588  10.659  69.452  1.00  0.00    -0.352 A  
BRANCH  21  24
HETATM   24  N   UNL     1     -12.428   9.346  71.384  1.00  0.00    -0.333 N  
HETATM   25  C   UNL     1     -13.765   8.889  71.766  1.00  0.00    -0.422 C  
HETATM   26  C   UNL     1     -13.956   7.405  71.466  1.00  0.00    -0.396 C  
HETATM   27  O   UNL     1     -12.984   6.645  72.179  1.00  0.00    -0.194 OA 
HETATM   28  C   UNL     1     -11.676   7.033  71.790  1.00  0.00    -0.298 C  
HETATM   29  C   UNL     1     -11.350   8.536  71.786  1.00  0.00    -0.307 C  
HETATM   30  O   UNL     1     -10.203   8.924  72.007  1.00  0.00    -0.334 OA 
ENDBRANCH  21  24
ENDBRANCH  14  18
ENDBRANCH  11  12
ENDBRANCH   8  11
ENDBRANCH   5   7
TORSDOF 5
ENDMDL
MODEL       11
REMARK 921   NORMALIZED FREE ENERGY PREDICTED BY IDOCK:   -6.88 KCAL/MOL
REMARK 922        TOTAL FREE ENERGY PREDICTED BY IDOCK:   -9.45 KCAL/MOL
REMARK 923 INTER-LIGAND FREE ENERGY PREDICTED BY IDOCK:   -8.86 KCAL/MOL
REMARK 924 INTRA-LIGAND FREE ENERGY PREDICTED BY IDOCK:   -0.59 KCAL/MOL
REMARK 927      BINDING AFFINITY PREDICTED BY RF-SCORE:    0.00 PKD
ROOT
HETATM    1 CL   UNL     1     -10.918   4.756  73.749  1.00  0.00    -0.376 Cl 
HETATM    2  C   UNL     1     -11.247   5.601  72.288  1.00  0.00    -0.259 A  
HETATM    3  C   UNL     1     -12.269   6.484  72.069  1.00  0.00    -0.343 A  
HETATM    4  C   UNL     1     -12.231   6.984  70.731  1.00  0.00    -0.343 A  
HETATM    5  C   UNL     1     -11.176   6.464  69.996  1.00  0.00    -0.411 A  
HETATM    6  S   UNL     1     -10.253   5.365  70.944  1.00  0.00    -0.241 SA 
ENDROOT
BRANCH   5   7
HETATM    7  C   UNL     1     -10.845   6.758  68.606  1.00  0.00    -0.224 C  
HETATM    8  N   UNL     1     -10.477   8.066  68.343  1.00  0.00    -0.311 N  
HETATM    9  O   UNL     1     -10.875   5.917  67.714  1.00  0.00    -0.273 OA 
HETATM   10  H   UNL     1     -10.572   8.761  69.084  1.00  0.00     0.000 HD 
BRANCH   8  11
HETATM   11  C   UNL     1      -9.961   8.485  67.050  1.00  0.00    -0.250 C  
BRANCH  11  12
HETATM   12  C   UNL     1     -10.541   9.830  66.632  1.00  0.00    -0.108 C  
HETATM   13  C   UNL     1      -9.796  11.023  67.178  1.00  0.00    -0.184 C  
HETATM   14  N   UNL     1     -10.128  12.016  66.199  1.00  0.00    -0.220 N  
HETATM   15  C   UNL     1     -10.369  11.367  64.992  1.00  0.00    -0.287 C  
HETATM   16  O   UNL     1     -10.421  10.007  65.212  1.00  0.00    -0.139 OA 
HETATM   17  O   UNL     1     -10.513  11.832  63.874  1.00  0.00    -0.313 OA 
BRANCH  14  18
HETATM   18  C   UNL     1     -10.158  13.411  66.444  1.00  0.00    -0.292 A  
HETATM   19  C   UNL     1     -11.146  13.990  67.240  1.00  0.00    -0.314 A  
HETATM   20  C   UNL     1     -11.172  15.370  67.485  1.00  0.00    -0.302 A  
HETATM   21  C   UNL     1     -10.207  16.233  66.954  1.00  0.00    -0.288 A  
HETATM   22  C   UNL     1      -9.176  14.265  65.930  1.00  0.00     0.060 A  
HETATM   23  C   UNL     1      -9.190  15.647  66.194  1.00  0.00    -0.378 A  
BRANCH  21  24
HETATM   24  N   UNL     1     -10.334  17.652  67.107  1.00  0.00    -0.340 N  
HETATM   25  C   UNL     1     -10.339  18.275  68.432  1.00  0.00    -0.343 C  
HETATM   26  C   UNL     1      -9.461  19.522  68.467  1.00  0.00    -0.386 C  
HETATM   27  O   UNL     1      -9.933  20.466  67.509  1.00  0.00    -0.420 OA 
HETATM   28  C   UNL     1      -9.892  19.905  66.206  1.00  0.00    -0.461 C  
HETATM   29  C   UNL     1     -10.517  18.513  66.009  1.00  0.00    -0.400 C  
HETATM   30  O   UNL     1     -11.011  18.202  64.925  1.00  0.00    -0.718 OA 
ENDBRANCH  21  24
ENDBRANCH  14  18
ENDBRANCH  11  12
ENDBRANCH   8  11
ENDBRANCH   5   7
TORSDOF 5
ENDMDL
MODEL       12
REMARK 921   NORMALIZED FREE ENERGY PREDICTED BY IDOCK:   -6.85 KCAL/MOL
REMARK 922        TOTAL FREE ENERGY PREDICTED BY IDOCK:   -9.41 KCAL/MOL
REMARK 923 INTER-LIGAND FREE ENERGY PREDICTED BY IDOCK:   -8.93 KCAL/MOL
REMARK 924 INTRA-LIGAND FREE ENERGY PREDICTED BY IDOCK:   -0.47 KCAL/MOL
REMARK 927      BINDING AFFINITY PREDICTED BY RF-SCORE:    0.00 PKD
ROOT
HETATM    1 CL   UNL     1      -8.923   1.840  66.497  1.00  0.00    -0.124 Cl 
HETATM    2  C   UNL     1      -9.358   3.145  67.530  1.00  0.00    -0.198 A  
HETATM    3  C   UNL     1      -9.812   4.376  67.142  1.00  0.00    -0.217 A  
HETATM    4  C   UNL     1     -10.067   5.205  68.277  1.00  0.00    -0.199 A  
HETATM    5  C   UNL     1      -9.803   4.563  69.478  1.00  0.00    -0.207 A  
HETATM    6  S   UNL     1      -9.239   2.962  69.204  1.00  0.00    -0.148 SA 
ENDROOT
BRANCH   5   7
HETATM    7  C   UNL     1      -9.954   5.114  70.820  1.00  0.00    -0.215 C  
HETATM    8  N   UNL     1     -10.162   6.480  70.885  1.00  0.00    -0.189 N  
HETATM    9  O   UNL     1      -9.910   4.431  71.838  1.00  0.00    -0.164 OA 
HETATM   10  H   UNL     1     -10.080   7.031  70.030  1.00  0.00     0.000 HD 
BRANCH   8  11
HETATM   11  C   UNL     1     -10.494   7.160  72.126  1.00  0.00    -0.206 C  
BRANCH  11  12
HETATM   12  C   UNL     1     -10.780   8.637  71.891  1.00  0.00    -0.344 C  
HETATM   13  C   UNL     1     -10.764   9.048  70.440  1.00  0.00    -0.227 C  
HETATM   14  N   UNL     1     -11.615  10.202  70.479  1.00  0.00    -0.304 N  
HETATM   15  C   UNL     1     -12.506  10.043  71.536  1.00  0.00    -0.419 C  
HETATM   16  O   UNL     1     -12.120   8.959  72.294  1.00  0.00    -0.358 OA 
HETATM   17  O   UNL     1     -13.497  10.694  71.822  1.00  0.00    -0.329 OA 
BRANCH  14  18
HETATM   18  C   UNL     1     -11.554  11.279  69.561  1.00  0.00    -0.328 A  
HETATM   19  C   UNL     1     -11.931  12.571  69.927  1.00  0.00    -0.371 A  
HETATM   20  C   UNL     1     -11.867  13.636  69.018  1.00  0.00    -0.393 A  
HETATM   21  C   UNL     1     -11.414  13.462  67.706  1.00  0.00    -0.316 A  
HETATM   22  C   UNL     1     -11.076  11.102  68.258  1.00  0.00    -0.310 A  
HETATM   23  C   UNL     1     -10.992  12.177  67.353  1.00  0.00    -0.308 A  
BRANCH  21  24
HETATM   24  N   UNL     1     -11.487  14.536  66.760  1.00  0.00    -0.357 N  
HETATM   25  C   UNL     1     -10.801  15.807  67.002  1.00  0.00    -0.273 C  
HETATM   26  C   UNL     1     -10.083  16.303  65.750  1.00  0.00    -0.347 C  
HETATM   27  O   UNL     1     -11.027  16.477  64.696  1.00  0.00    -0.732 OA 
HETATM   28  C   UNL     1     -11.671  15.247  64.406  1.00  0.00    -0.285 C  
HETATM   29  C   UNL     1     -12.258  14.453  65.586  1.00  0.00    -0.344 C  
HETATM   30  O   UNL     1     -13.245  13.737  65.423  1.00  0.00    -0.722 OA 
ENDBRANCH  21  24
ENDBRANCH  14  18
ENDBRANCH  11  12
ENDBRANCH   8  11
ENDBRANCH   5   7
TORSDOF 5
ENDMDL
MODEL       13
REMARK 921   NORMALIZED FREE ENERGY PREDICTED BY IDOCK:   -6.77 KCAL/MOL
REMARK 922        TOTAL FREE ENERGY PREDICTED BY IDOCK:   -9.31 KCAL/MOL
REMARK 923 INTER-LIGAND FREE ENERGY PREDICTED BY IDOCK:   -8.62 KCAL/MOL
REMARK 924 INTRA-LIGAND FREE ENERGY PREDICTED BY IDOCK:   -0.69 KCAL/MOL
REMARK 927      BINDING AFFINITY PREDICTED BY RF-SCORE:    0.00 PKD
ROOT
HETATM    1 CL   UNL     1      -8.740   3.385  70.718  1.00  0.00    -0.116 Cl 
HETATM    2  C   UNL     1      -9.764   4.761  70.593  1.00  0.00    -0.200 A  
HETATM    3  C   UNL     1     -10.432   5.182  69.475  1.00  0.00    -0.233 A  
HETATM    4  C   UNL     1     -11.182   6.367  69.747  1.00  0.00    -0.484 A  
HETATM    5  C   UNL     1     -11.056   6.789  71.062  1.00  0.00    -0.273 A  
HETATM    6  S   UNL     1     -10.018   5.740  71.944  1.00  0.00    -0.180 SA 
ENDROOT
BRANCH   5   7
HETATM    7  C   UNL     1     -11.682   7.956  71.674  1.00  0.00    -0.281 C  
HETATM    8  N   UNL     1     -12.117   8.931  70.793  1.00  0.00    -0.476 N  
HETATM    9  O   UNL     1     -11.833   8.083  72.884  1.00  0.00    -0.337 OA 
HETATM   10  H   UNL     1     -11.875   8.844  69.806  1.00  0.00     0.000 HD 
BRANCH   8  11
HETATM   11  C   UNL     1     -12.905  10.074  71.224  1.00  0.00    -0.402 C  
BRANCH  11  12
HETATM   12  C   UNL     1     -12.876  11.190  70.187  1.00  0.00    -0.004 C  
HETATM   13  C   UNL     1     -11.839  12.254  70.451  1.00  0.00    -0.170 C  
HETATM   14  N   UNL     1     -11.625  12.753  69.124  1.00  0.00    -0.301 N  
HETATM   15  C   UNL     1     -11.896  11.724  68.229  1.00  0.00    -0.271 C  
HETATM   16  O   UNL     1     -12.478  10.675  68.907  1.00  0.00    -0.297 OA 
HETATM   17  O   UNL     1     -11.682  11.659  67.029  1.00  0.00    -0.564 OA 
BRANCH  14  18
HETATM   18  C   UNL     1     -11.177  14.062  68.818  1.00  0.00    -0.271 A  
HETATM   19  C   UNL     1     -11.921  15.188  69.170  1.00  0.00    -0.304 A  
HETATM   20  C   UNL     1     -11.475  16.482  68.869  1.00  0.00    -0.131 A  
HETATM   21  C   UNL     1     -10.261  16.712  68.212  1.00  0.00    -0.281 A  
HETATM   22  C   UNL     1      -9.950  14.285  68.184  1.00  0.00    -0.230 A  
HETATM   23  C   UNL     1      -9.493  15.585  67.901  1.00  0.00    -0.201 A  
BRANCH  21  24
HETATM   24  N   UNL     1      -9.894  18.033  67.797  1.00  0.00    -0.293 N  
HETATM   25  C   UNL     1      -9.525  19.060  68.773  1.00  0.00    -0.382 C  
HETATM   26  C   UNL     1      -8.289  19.836  68.328  1.00  0.00    -0.274 C  
HETATM   27  O   UNL     1      -8.543  20.460  67.072  1.00  0.00    -0.328 OA 
HETATM   28  C   UNL     1      -8.855  19.482  66.093  1.00  0.00    -0.309 C  
HETATM   29  C   UNL     1      -9.922  18.432  66.448  1.00  0.00    -0.386 C  
HETATM   30  O   UNL     1     -10.625  17.938  65.566  1.00  0.00    -0.638 OA 
ENDBRANCH  21  24
ENDBRANCH  14  18
ENDBRANCH  11  12
ENDBRANCH   8  11
ENDBRANCH   5   7
TORSDOF 5
ENDMDL
MODEL       14
REMARK 921   NORMALIZED FREE ENERGY PREDICTED BY IDOCK:   -6.75 KCAL/MOL
REMARK 922        TOTAL FREE ENERGY PREDICTED BY IDOCK:   -9.28 KCAL/MOL
REMARK 923 INTER-LIGAND FREE ENERGY PREDICTED BY IDOCK:   -8.51 KCAL/MOL
REMARK 924 INTRA-LIGAND FREE ENERGY PREDICTED BY IDOCK:   -0.77 KCAL/MOL
REMARK 927      BINDING AFFINITY PREDICTED BY RF-SCORE:    0.00 PKD
ROOT
HETATM    1 CL   UNL     1     -11.246   5.981  71.260  1.00  0.00    -0.343 Cl 
HETATM    2  C   UNL     1     -11.253   7.684  71.017  1.00  0.00    -0.267 A  
HETATM    3  C   UNL     1     -10.350   8.407  70.287  1.00  0.00    -0.212 A  
HETATM    4  C   UNL     1     -10.671   9.799  70.315  1.00  0.00    -0.358 A  
HETATM    5  C   UNL     1     -11.809  10.070  71.060  1.00  0.00    -0.386 A  
HETATM    6  S   UNL     1     -12.465   8.624  71.721  1.00  0.00    -0.368 SA 
ENDROOT
BRANCH   5   7
HETATM    7  C   UNL     1     -12.414  11.376  71.295  1.00  0.00    -0.318 C  
HETATM    8  N   UNL     1     -11.930  12.409  70.512  1.00  0.00    -0.520 N  
HETATM    9  O   UNL     1     -13.301  11.569  72.121  1.00  0.00    -0.477 OA 
HETATM   10  H   UNL     1     -11.118  12.236  69.919  1.00  0.00     0.000 HD 
BRANCH   8  11
HETATM   11  C   UNL     1     -12.535  13.731  70.505  1.00  0.00    -0.339 C  
BRANCH  11  12
HETATM   12  C   UNL     1     -12.101  14.532  69.285  1.00  0.00    -0.290 C  
HETATM   13  C   UNL     1     -10.714  15.115  69.387  1.00  0.00    -0.265 C  
HETATM   14  N   UNL     1     -10.371  15.236  68.000  1.00  0.00    -0.241 N  
HETATM   15  C   UNL     1     -11.072  14.262  67.298  1.00  0.00    -0.306 C  
HETATM   16  O   UNL     1     -12.000  13.679  68.135  1.00  0.00    -0.362 OA 
HETATM   17  O   UNL     1     -10.953  13.901  66.138  1.00  0.00    -0.291 OA 
BRANCH  14  18
HETATM   18  C   UNL     1      -9.447  16.174  67.477  1.00  0.00    -0.223 A  
HETATM   19  C   UNL     1      -8.121  15.825  67.221  1.00  0.00    -0.217 A  
HETATM   20  C   UNL     1      -7.209  16.754  66.701  1.00  0.00    -0.289 A  
HETATM   21  C   UNL     1      -7.582  18.069  66.402  1.00  0.00    -0.262 A  
HETATM   22  C   UNL     1      -9.833  17.480  67.158  1.00  0.00    -0.297 A  
HETATM   23  C   UNL     1      -8.922  18.405  66.615  1.00  0.00    -0.295 A  
BRANCH  21  24
HETATM   24  N   UNL     1      -6.600  19.033  66.000  1.00  0.00    -0.213 N  
HETATM   25  C   UNL     1      -6.135  19.108  64.614  1.00  0.00    -0.237 C  
HETATM   26  C   UNL     1      -6.056  20.553  64.129  1.00  0.00    -0.293 C  
HETATM   27  O   UNL     1      -5.161  21.288  64.960  1.00  0.00    -0.201 OA 
HETATM   28  C   UNL     1      -5.616  21.274  66.303  1.00  0.00    -0.260 C  
HETATM   29  C   UNL     1      -5.992  19.913  66.915  1.00  0.00    -0.171 C  
HETATM   30  O   UNL     1      -5.859  19.716  68.122  1.00  0.00    -0.211 OA 
ENDBRANCH  21  24
ENDBRANCH  14  18
ENDBRANCH  11  12
ENDBRANCH   8  11
ENDBRANCH   5   7
TORSDOF 5
ENDMDL
MODEL       15
REMARK 921   NORMALIZED FREE ENERGY PREDICTED BY IDOCK:   -6.71 KCAL/MOL
REMARK 922        TOTAL FREE ENERGY PREDICTED BY IDOCK:   -9.23 KCAL/MOL
REMARK 923 INTER-LIGAND FREE ENERGY PREDICTED BY IDOCK:   -8.66 KCAL/MOL
REMARK 924 INTRA-LIGAND FREE ENERGY PREDICTED BY IDOCK:   -0.57 KCAL/MOL
REMARK 927      BINDING AFFINITY PREDICTED BY RF-SCORE:    0.00 PKD
ROOT
HETATM    1 CL   UNL     1      -7.901  20.938  67.291  1.00  0.00    -0.320 Cl 
HETATM    2  C   UNL     1      -8.325  19.374  66.713  1.00  0.00    -0.296 A  
HETATM    3  C   UNL     1      -7.509  18.278  66.652  1.00  0.00    -0.253 A  
HETATM    4  C   UNL     1      -8.205  17.155  66.109  1.00  0.00    -0.269 A  
HETATM    5  C   UNL     1      -9.523  17.447  65.789  1.00  0.00     0.144 A  
HETATM    6  S   UNL     1      -9.889  19.089  66.146  1.00  0.00    -0.265 SA 
ENDROOT
BRANCH   5   7
HETATM    7  C   UNL     1     -10.510  16.537  65.218  1.00  0.00    -0.213 C  
HETATM    8  N   UNL     1     -10.586  15.289  65.810  1.00  0.00    -0.326 N  
HETATM    9  O   UNL     1     -11.242  16.839  64.281  1.00  0.00    -1.163 OA 
HETATM   10  H   UNL     1      -9.888  15.034  66.509  1.00  0.00     0.000 HD 
BRANCH   8  11
HETATM   11  C   UNL     1     -11.622  14.328  65.472  1.00  0.00    -0.338 C  
BRANCH  11  12
HETATM   12  C   UNL     1     -12.127  13.598  66.710  1.00  0.00    -0.399 C  
HETATM   13  C   UNL     1     -11.173  12.564  67.252  1.00  0.00    -0.295 C  
HETATM   14  N   UNL     1     -11.578  12.520  68.627  1.00  0.00    -0.292 N  
HETATM   15  C   UNL     1     -12.109  13.763  68.958  1.00  0.00    -0.322 C  
HETATM   16  O   UNL     1     -12.259  14.511  67.811  1.00  0.00    -0.287 OA 
HETATM   17  O   UNL     1     -12.412  14.213  70.051  1.00  0.00    -0.340 OA 
BRANCH  14  18
HETATM   18  C   UNL     1     -11.416  11.400  69.480  1.00  0.00    -0.312 A  
HETATM   19  C   UNL     1     -10.249  10.638  69.468  1.00  0.00    -0.190 A  
HETATM   20  C   UNL     1     -10.089   9.532  70.315  1.00  0.00    -0.314 A  
HETATM   21  C   UNL     1     -11.083   9.145  71.220  1.00  0.00    -0.335 A  
HETATM   22  C   UNL     1     -12.404  11.034  70.400  1.00  0.00    -0.442 A  
HETATM   23  C   UNL     1     -12.235   9.937  71.265  1.00  0.00    -0.480 A  
BRANCH  21  24
HETATM   24  N   UNL     1     -10.951   7.935  71.976  1.00  0.00    -0.257 N  
HETATM   25  C   UNL     1     -11.969   6.885  71.910  1.00  0.00    -0.327 C  
HETATM   26  C   UNL     1     -11.338   5.501  71.785  1.00  0.00    -0.034 C  
HETATM   27  O   UNL     1     -10.493   5.258  72.907  1.00  0.00    -0.188 OA 
HETATM   28  C   UNL     1      -9.465   6.234  72.966  1.00  0.00    -0.142 C  
HETATM   29  C   UNL     1      -9.877   7.712  72.858  1.00  0.00    -0.242 C  
HETATM   30  O   UNL     1      -9.216   8.585  73.420  1.00  0.00    -0.161 OA 
ENDBRANCH  21  24
ENDBRANCH  14  18
ENDBRANCH  11  12
ENDBRANCH   8  11
ENDBRANCH   5   7
TORSDOF 5
ENDMDL
MODEL       16
REMARK 921   NORMALIZED FREE ENERGY PREDICTED BY IDOCK:   -6.69 KCAL/MOL
REMARK 922        TOTAL FREE ENERGY PREDICTED BY IDOCK:   -9.21 KCAL/MOL
REMARK 923 INTER-LIGAND FREE ENERGY PREDICTED BY IDOCK:   -8.58 KCAL/MOL
REMARK 924 INTRA-LIGAND FREE ENERGY PREDICTED BY IDOCK:   -0.63 KCAL/MOL
REMARK 927      BINDING AFFINITY PREDICTED BY RF-SCORE:    0.00 PKD
ROOT
HETATM    1 CL   UNL     1      -9.648   4.168  68.225  1.00  0.00    -0.210 Cl 
HETATM    2  C   UNL     1     -10.226   5.077  69.565  1.00  0.00    -0.216 A  
HETATM    3  C   UNL     1     -10.263   4.671  70.871  1.00  0.00    -0.213 A  
HETATM    4  C   UNL     1     -10.815   5.691  71.705  1.00  0.00    -0.301 A  
HETATM    5  C   UNL     1     -11.166   6.830  70.995  1.00  0.00    -0.290 A  
HETATM    6  S   UNL     1     -10.826   6.636  69.321  1.00  0.00    -0.301 SA 
ENDROOT
BRANCH   5   7
HETATM    7  C   UNL     1     -11.753   8.053  71.532  1.00  0.00    -0.284 C  
HETATM    8  N   UNL     1     -12.142   8.991  70.593  1.00  0.00    -0.477 N  
HETATM    9  O   UNL     1     -11.909   8.255  72.732  1.00  0.00    -0.388 OA 
HETATM   10  H   UNL     1     -11.895   8.839  69.615  1.00  0.00     0.000 HD 
BRANCH   8  11
HETATM   11  C   UNL     1     -12.890  10.186  70.949  1.00  0.00    -0.355 C  
BRANCH  11  12
HETATM   12  C   UNL     1     -12.765  11.259  69.875  1.00  0.00     0.030 C  
HETATM   13  C   UNL     1     -11.790  12.360  70.210  1.00  0.00    -0.232 C  
HETATM   14  N   UNL     1     -11.433  12.810  68.896  1.00  0.00    -0.285 N  
HETATM   15  C   UNL     1     -11.576  11.738  68.021  1.00  0.00    -0.316 C  
HETATM   16  O   UNL     1     -12.210  10.703  68.673  1.00  0.00    -0.386 OA 
HETATM   17  O   UNL     1     -11.223  11.631  66.858  1.00  0.00    -0.294 OA 
BRANCH  14  18
HETATM   18  C   UNL     1     -10.981  14.117  68.587  1.00  0.00    -0.258 A  
HETATM   19  C   UNL     1      -9.817  14.330  67.849  1.00  0.00    -0.226 A  
HETATM   20  C   UNL     1      -9.374  15.625  67.542  1.00  0.00    -0.206 A  
HETATM   21  C   UNL     1     -10.078  16.763  67.948  1.00  0.00    -0.284 A  
HETATM   22  C   UNL     1     -11.704  15.250  68.976  1.00  0.00    -0.368 A  
HETATM   23  C   UNL     1     -11.270  16.548  68.648  1.00  0.00    -0.297 A  
BRANCH  21  24
HETATM   24  N   UNL     1      -9.533  18.072  67.739  1.00  0.00    -0.260 N  
HETATM   25  C   UNL     1      -8.927  18.825  68.837  1.00  0.00    -0.204 C  
HETATM   26  C   UNL     1      -7.618  19.483  68.409  1.00  0.00    -0.330 C  
HETATM   27  O   UNL     1      -7.863  20.368  67.319  1.00  0.00    -0.311 OA 
HETATM   28  C   UNL     1      -8.406  19.654  66.219  1.00  0.00    -0.352 C  
HETATM   29  C   UNL     1      -9.600  18.724  66.493  1.00  0.00    -0.348 C  
HETATM   30  O   UNL     1     -10.441  18.518  65.618  1.00  0.00    -0.615 OA 
ENDBRANCH  21  24
ENDBRANCH  14  18
ENDBRANCH  11  12
ENDBRANCH   8  11
ENDBRANCH   5   7
TORSDOF 5
ENDMDL
MODEL       17
REMARK 921   NORMALIZED FREE ENERGY PREDICTED BY IDOCK:   -6.66 KCAL/MOL
REMARK 922        TOTAL FREE ENERGY PREDICTED BY IDOCK:   -9.16 KCAL/MOL
REMARK 923 INTER-LIGAND FREE ENERGY PREDICTED BY IDOCK:   -8.51 KCAL/MOL
REMARK 924 INTRA-LIGAND FREE ENERGY PREDICTED BY IDOCK:   -0.65 KCAL/MOL
REMARK 927      BINDING AFFINITY PREDICTED BY RF-SCORE:    0.00 PKD
ROOT
HETATM    1 CL   UNL     1      -9.985  19.818  69.452  1.00  0.00    -0.364 Cl 
HETATM    2  C   UNL     1     -10.280  19.221  67.867  1.00  0.00    -0.411 A  
HETATM    3  C   UNL     1     -10.368  19.961  66.720  1.00  0.00    -0.599 A  
HETATM    4  C   UNL     1     -10.629  19.123  65.592  1.00  0.00    -0.303 A  
HETATM    5  C   UNL     1     -10.719  17.782  65.933  1.00  0.00    -0.116 A  
HETATM    6  S   UNL     1     -10.494  17.564  67.624  1.00  0.00    -0.358 SA 
ENDROOT
BRANCH   5   7
HETATM    7  C   UNL     1     -10.975  16.662  65.034  1.00  0.00    -0.162 C  
HETATM    8  N   UNL     1     -10.419  15.453  65.411  1.00  0.00    -0.372 N  
HETATM    9  O   UNL     1     -11.643  16.761  64.009  1.00  0.00    -1.195 OA 
HETATM   10  H   UNL     1      -9.779  15.433  66.205  1.00  0.00     0.000 HD 
BRANCH   8  11
HETATM   11  C   UNL     1     -10.714  14.210  64.717  1.00  0.00    -0.419 C  
BRANCH  11  12
HETATM   12  C   UNL     1     -11.199  13.137  65.684  1.00  0.00    -0.283 C  
HETATM   13  C   UNL     1     -10.107  12.244  66.217  1.00  0.00    -0.234 C  
HETATM   14  N   UNL     1     -10.691  11.816  67.454  1.00  0.00    -0.226 N  
HETATM   15  C   UNL     1     -11.564  12.810  67.884  1.00  0.00    -0.351 C  
HETATM   16  O   UNL     1     -11.724  13.738  66.877  1.00  0.00    -0.351 OA 
HETATM   17  O   UNL     1     -12.135  12.935  68.955  1.00  0.00    -0.270 OA 
BRANCH  14  18
HETATM   18  C   UNL     1     -10.382  10.601  68.115  1.00  0.00    -0.176 A  
HETATM   19  C   UNL     1     -10.655   9.364  67.531  1.00  0.00    -0.333 A  
HETATM   20  C   UNL     1     -10.344   8.164  68.185  1.00  0.00    -0.251 A  
HETATM   21  C   UNL     1      -9.737   8.144  69.446  1.00  0.00    -0.170 A  
HETATM   22  C   UNL     1      -9.752  10.589  69.364  1.00  0.00    -0.188 A  
HETATM   23  C   UNL     1      -9.421   9.384  70.010  1.00  0.00    -0.257 A  
BRANCH  21  24
HETATM   24  N   UNL     1      -9.555   6.908  70.149  1.00  0.00    -0.162 N  
HETATM   25  C   UNL     1      -9.983   6.758  71.541  1.00  0.00    -0.177 C  
HETATM   26  C   UNL     1     -10.704   5.432  71.764  1.00  0.00    -0.204 C  
HETATM   27  O   UNL     1      -9.836   4.353  71.426  1.00  0.00    -0.174 OA 
HETATM   28  C   UNL     1      -9.445   4.446  70.065  1.00  0.00    -0.181 C  
HETATM   29  C   UNL     1      -8.911   5.800  69.568  1.00  0.00    -0.124 C  
HETATM   30  O   UNL     1      -8.083   5.845  68.658  1.00  0.00    -0.101 OA 
ENDBRANCH  21  24
ENDBRANCH  14  18
ENDBRANCH  11  12
ENDBRANCH   8  11
ENDBRANCH   5   7
TORSDOF 5
ENDMDL
MODEL       18
REMARK 921   NORMALIZED FREE ENERGY PREDICTED BY IDOCK:   -6.66 KCAL/MOL
REMARK 922        TOTAL FREE ENERGY PREDICTED BY IDOCK:   -9.16 KCAL/MOL
REMARK 923 INTER-LIGAND FREE ENERGY PREDICTED BY IDOCK:   -8.40 KCAL/MOL
REMARK 924 INTRA-LIGAND FREE ENERGY PREDICTED BY IDOCK:   -0.76 KCAL/MOL
REMARK 927      BINDING AFFINITY PREDICTED BY RF-SCORE:    0.00 PKD
ROOT
HETATM    1 CL   UNL     1      -9.089   3.214  66.911  1.00  0.00    -0.179 Cl 
HETATM    2  C   UNL     1      -9.886   4.640  67.449  1.00  0.00    -0.165 A  
HETATM    3  C   UNL     1     -10.648   5.485  66.688  1.00  0.00    -0.365 A  
HETATM    4  C   UNL     1     -11.145   6.569  67.475  1.00  0.00    -0.396 A  
HETATM    5  C   UNL     1     -10.745   6.494  68.802  1.00  0.00    -0.272 A  
HETATM    6  S   UNL     1      -9.761   5.109  69.066  1.00  0.00    -0.176 SA 
ENDROOT
BRANCH   5   7
HETATM    7  C   UNL     1     -11.070   7.431  69.871  1.00  0.00    -0.190 C  
HETATM    8  N   UNL     1     -11.149   8.760  69.498  1.00  0.00    -0.434 N  
HETATM    9  O   UNL     1     -11.273   7.085  71.031  1.00  0.00    -0.254 OA 
HETATM   10  H   UNL     1     -10.864   9.023  68.554  1.00  0.00     0.000 HD 
BRANCH   8  11
HETATM   11  C   UNL     1     -11.622   9.797  70.401  1.00  0.00    -0.258 C  
BRANCH  11  12
HETATM   12  C   UNL     1     -11.962  11.076  69.648  1.00  0.00    -0.353 C  
HETATM   13  C   UNL     1     -10.865  12.111  69.657  1.00  0.00     0.246 C  
HETATM   14  N   UNL     1     -11.175  12.840  68.461  1.00  0.00    -0.259 N  
HETATM   15  C   UNL     1     -11.821  11.974  67.585  1.00  0.00    -0.224 C  
HETATM   16  O   UNL     1     -12.127  10.804  68.248  1.00  0.00    -0.496 OA 
HETATM   17  O   UNL     1     -12.104  12.126  66.408  1.00  0.00    -0.630 OA 
BRANCH  14  18
HETATM   18  C   UNL     1     -10.835  14.196  68.233  1.00  0.00    -0.247 A  
HETATM   19  C   UNL     1      -9.720  14.550  67.474  1.00  0.00    -0.211 A  
HETATM   20  C   UNL     1      -9.386  15.892  67.247  1.00  0.00    -0.218 A  
HETATM   21  C   UNL     1     -10.157  16.942  67.758  1.00  0.00    -0.292 A  
HETATM   22  C   UNL     1     -11.624  15.240  68.726  1.00  0.00    -0.379 A  
HETATM   23  C   UNL     1     -11.301  16.587  68.479  1.00  0.00    -0.231 A  
BRANCH  21  24
HETATM   24  N   UNL     1      -9.720  18.300  67.625  1.00  0.00    -0.292 N  
HETATM   25  C   UNL     1      -9.101  19.010  68.746  1.00  0.00    -0.333 C  
HETATM   26  C   UNL     1      -7.871  19.796  68.301  1.00  0.00    -0.299 C  
HETATM   27  O   UNL     1      -8.245  20.741  67.302  1.00  0.00    -0.314 OA 
HETATM   28  C   UNL     1      -8.802  20.076  66.180  1.00  0.00    -0.258 C  
HETATM   29  C   UNL     1      -9.909  19.040  66.443  1.00  0.00    -0.378 C  
HETATM   30  O   UNL     1     -10.785  18.839  65.602  1.00  0.00    -0.543 OA 
ENDBRANCH  21  24
ENDBRANCH  14  18
ENDBRANCH  11  12
ENDBRANCH   8  11
ENDBRANCH   5   7
TORSDOF 5
ENDMDL
MODEL       19
REMARK 921   NORMALIZED FREE ENERGY PREDICTED BY IDOCK:   -6.60 KCAL/MOL
REMARK 922        TOTAL FREE ENERGY PREDICTED BY IDOCK:   -9.10 KCAL/MOL
REMARK 923 INTER-LIGAND FREE ENERGY PREDICTED BY IDOCK:   -8.51 KCAL/MOL
REMARK 924 INTRA-LIGAND FREE ENERGY PREDICTED BY IDOCK:   -0.59 KCAL/MOL
REMARK 927      BINDING AFFINITY PREDICTED BY RF-SCORE:    0.00 PKD
ROOT
HETATM    1 CL   UNL     1      -5.846  18.941  64.999  1.00  0.00    -0.278 Cl 
HETATM    2  C   UNL     1      -7.291  18.975  65.931  1.00  0.00    -0.239 A  
HETATM    3  C   UNL     1      -8.091  20.062  66.156  1.00  0.00    -0.307 A  
HETATM    4  C   UNL     1      -9.202  19.713  66.983  1.00  0.00    -0.425 A  
HETATM    5  C   UNL     1      -9.200  18.374  67.344  1.00  0.00    -0.271 A  
HETATM    6  S   UNL     1      -7.839  17.563  66.676  1.00  0.00    -0.274 SA 
ENDROOT
BRANCH   5   7
HETATM    7  C   UNL     1     -10.181  17.687  68.177  1.00  0.00    -0.371 C  
HETATM    8  N   UNL     1     -10.889  16.673  67.555  1.00  0.00    -0.271 N  
HETATM    9  O   UNL     1     -10.378  17.967  69.355  1.00  0.00    -0.220 OA 
HETATM   10  H   UNL     1     -10.780  16.544  66.549  1.00  0.00     0.000 HD 
BRANCH   8  11
HETATM   11  C   UNL     1     -11.781  15.786  68.284  1.00  0.00    -0.222 C  
BRANCH  11  12
HETATM   12  C   UNL     1     -11.226  14.369  68.345  1.00  0.00    -0.273 C  
HETATM   13  C   UNL     1     -11.687  13.574  69.540  1.00  0.00    -0.322 C  
HETATM   14  N   UNL     1     -11.553  12.237  69.040  1.00  0.00    -0.293 N  
HETATM   15  C   UNL     1     -11.709  12.277  67.658  1.00  0.00    -0.334 C  
HETATM   16  O   UNL     1     -11.716  13.591  67.242  1.00  0.00    -0.340 OA 
HETATM   17  O   UNL     1     -11.838  11.362  66.863  1.00  0.00    -0.489 OA 
BRANCH  14  18
HETATM   18  C   UNL     1     -11.337  11.092  69.847  1.00  0.00    -0.287 A  
HETATM   19  C   UNL     1     -12.265  10.692  70.808  1.00  0.00    -0.474 A  
HETATM   20  C   UNL     1     -12.051   9.557  71.603  1.00  0.00    -0.474 A  
HETATM   21  C   UNL     1     -10.906   8.764  71.466  1.00  0.00    -0.304 A  
HETATM   22  C   UNL     1     -10.202  10.290  69.687  1.00  0.00    -0.268 A  
HETATM   23  C   UNL     1      -9.998   9.139  70.471  1.00  0.00    -0.288 A  
BRANCH  21  24
HETATM   24  N   UNL     1     -10.648   7.692  72.380  1.00  0.00    -0.239 N  
HETATM   25  C   UNL     1     -11.603   6.596  72.553  1.00  0.00    -0.205 C  
HETATM   26  C   UNL     1     -10.901   5.242  72.586  1.00  0.00    -0.253 C  
HETATM   27  O   UNL     1      -9.965   5.215  73.660  1.00  0.00    -0.156 OA 
HETATM   28  C   UNL     1      -8.996   6.237  73.492  1.00  0.00    -0.124 C  
HETATM   29  C   UNL     1      -9.503   7.659  73.198  1.00  0.00    -0.243 C  
HETATM   30  O   UNL     1      -8.856   8.639  73.569  1.00  0.00    -0.265 OA 
ENDBRANCH  21  24
ENDBRANCH  14  18
ENDBRANCH  11  12
ENDBRANCH   8  11
ENDBRANCH   5   7
TORSDOF 5
ENDMDL
MODEL       20
REMARK 921   NORMALIZED FREE ENERGY PREDICTED BY IDOCK:   -6.60 KCAL/MOL
REMARK 922        TOTAL FREE ENERGY PREDICTED BY IDOCK:   -9.09 KCAL/MOL
REMARK 923 INTER-LIGAND FREE ENERGY PREDICTED BY IDOCK:   -8.71 KCAL/MOL
REMARK 924 INTRA-LIGAND FREE ENERGY PREDICTED BY IDOCK:   -0.37 KCAL/MOL
REMARK 927      BINDING AFFINITY PREDICTED BY RF-SCORE:    0.00 PKD
ROOT
HETATM    1 CL   UNL     1      -8.714   3.248  73.752  1.00  0.00    -0.077 Cl 
HETATM    2  C   UNL     1      -9.634   4.676  73.479  1.00  0.00    -0.124 A  
HETATM    3  C   UNL     1      -9.754   5.743  74.326  1.00  0.00    -0.195 A  
HETATM    4  C   UNL     1     -10.606   6.744  73.766  1.00  0.00    -0.323 A  
HETATM    5  C   UNL     1     -11.089   6.394  72.513  1.00  0.00    -0.263 A  
HETATM    6  S   UNL     1     -10.504   4.847  72.043  1.00  0.00    -0.138 SA 
ENDROOT
BRANCH   5   7
HETATM    7  C   UNL     1     -11.978   7.179  71.664  1.00  0.00    -0.318 C  
HETATM    8  N   UNL     1     -12.645   8.215  72.295  1.00  0.00    -0.485 N  
HETATM    9  O   UNL     1     -12.134   6.960  70.468  1.00  0.00    -0.353 OA 
HETATM   10  H   UNL     1     -12.579   8.296  73.309  1.00  0.00     0.000 HD 
BRANCH   8  11
HETATM   11  C   UNL     1     -13.438   9.190  71.564  1.00  0.00    -0.356 C  
BRANCH  11  12
HETATM   12  C   UNL     1     -12.892  10.599  71.749  1.00  0.00    -0.444 C  
HETATM   13  C   UNL     1     -12.619  11.332  70.459  1.00  0.00    -0.246 C  
HETATM   14  N   UNL     1     -12.731  12.694  70.896  1.00  0.00    -0.246 N  
HETATM   15  C   UNL     1     -13.601  12.726  71.981  1.00  0.00    -0.367 C  
HETATM   16  O   UNL     1     -13.870  11.436  72.385  1.00  0.00     0.077 OA 
HETATM   17  O   UNL     1     -14.106  13.683  72.544  1.00  0.00    -0.712 OA 
BRANCH  14  18
HETATM   18  C   UNL     1     -12.082  13.793  70.282  1.00  0.00    -0.355 A  
HETATM   19  C   UNL     1     -11.621  13.726  68.968  1.00  0.00    -0.356 A  
HETATM   20  C   UNL     1     -10.982  14.817  68.361  1.00  0.00    -0.259 A  
HETATM   21  C   UNL     1     -10.785  16.027  69.036  1.00  0.00    -0.274 A  
HETATM   22  C   UNL     1     -11.911  15.008  70.954  1.00  0.00    -0.376 A  
HETATM   23  C   UNL     1     -11.289  16.110  70.337  1.00  0.00    -0.377 A  
BRANCH  21  24
HETATM   24  N   UNL     1     -10.011  17.076  68.441  1.00  0.00    -0.273 N  
HETATM   25  C   UNL     1     -10.580  17.948  67.411  1.00  0.00    -0.360 C  
HETATM   26  C   UNL     1     -10.224  19.411  67.658  1.00  0.00    -0.415 C  
HETATM   27  O   UNL     1      -8.807  19.563  67.664  1.00  0.00    -0.300 OA 
HETATM   28  C   UNL     1      -8.232  18.767  68.688  1.00  0.00    -0.329 C  
HETATM   29  C   UNL     1      -8.659  17.291  68.767  1.00  0.00    -0.230 C  
HETATM   30  O   UNL     1      -7.879  16.441  69.197  1.00  0.00    -0.238 OA 
ENDBRANCH  21  24
ENDBRANCH  14  18
ENDBRANCH  11  12
ENDBRANCH   8  11
ENDBRANCH   5   7
TORSDOF 5
ENDMDL
MODEL       21
REMARK 921   NORMALIZED FREE ENERGY PREDICTED BY IDOCK:   -6.59 KCAL/MOL
REMARK 922        TOTAL FREE ENERGY PREDICTED BY IDOCK:   -9.08 KCAL/MOL
REMARK 923 INTER-LIGAND FREE ENERGY PREDICTED BY IDOCK:   -9.05 KCAL/MOL
REMARK 924 INTRA-LIGAND FREE ENERGY PREDICTED BY IDOCK:   -0.02 KCAL/MOL
REMARK 927      BINDING AFFINITY PREDICTED BY RF-SCORE:    0.00 PKD
ROOT
HETATM    1 CL   UNL     1      -9.829   4.640  65.734  1.00  0.00    -0.207 Cl 
HETATM    2  C   UNL     1      -9.906   4.950  67.424  1.00  0.00    -0.178 A  
HETATM    3  C   UNL     1      -9.430   4.145  68.423  1.00  0.00    -0.212 A  
HETATM    4  C   UNL     1      -9.678   4.726  69.705  1.00  0.00    -0.272 A  
HETATM    5  C   UNL     1     -10.325   5.950  69.621  1.00  0.00    -0.247 A  
HETATM    6  S   UNL     1     -10.629   6.370  67.982  1.00  0.00    -0.286 SA 
ENDROOT
BRANCH   5   7
HETATM    7  C   UNL     1     -10.727   6.809  70.730  1.00  0.00    -0.233 C  
HETATM    8  N   UNL     1     -11.987   7.371  70.624  1.00  0.00    -0.498 N  
HETATM    9  O   UNL     1     -10.016   7.026  71.706  1.00  0.00    -0.177 OA 
HETATM   10  H   UNL     1     -12.502   7.260  69.751  1.00  0.00     0.000 HD 
BRANCH   8  11
HETATM   11  C   UNL     1     -12.602   8.114  71.712  1.00  0.00    -0.330 C  
BRANCH  11  12
HETATM   12  C   UNL     1     -12.190   9.580  71.684  1.00  0.00    -0.398 C  
HETATM   13  C   UNL     1     -12.087  10.169  70.299  1.00  0.00    -0.204 C  
HETATM   14  N   UNL     1     -12.305  11.558  70.583  1.00  0.00    -0.373 N  
HETATM   15  C   UNL     1     -13.093  11.645  71.726  1.00  0.00    -0.382 C  
HETATM   16  O   UNL     1     -13.199  10.396  72.299  1.00  0.00    -0.400 OA 
HETATM   17  O   UNL     1     -13.650  12.614  72.215  1.00  0.00    -0.547 OA 
BRANCH  14  18
HETATM   18  C   UNL     1     -11.818  12.628  69.792  1.00  0.00    -0.309 A  
HETATM   19  C   UNL     1     -12.218  13.944  70.021  1.00  0.00    -0.408 A  
HETATM   20  C   UNL     1     -11.732  15.001  69.239  1.00  0.00    -0.349 A  
HETATM   21  C   UNL     1     -10.817  14.794  68.200  1.00  0.00    -0.254 A  
HETATM   22  C   UNL     1     -10.885  12.416  68.771  1.00  0.00    -0.263 A  
HETATM   23  C   UNL     1     -10.381  13.480  68.001  1.00  0.00    -0.241 A  
BRANCH  21  24
HETATM   24  N   UNL     1     -10.442  15.870  67.332  1.00  0.00    -0.300 N  
HETATM   25  C   UNL     1     -10.084  15.626  65.934  1.00  0.00    -0.353 C  
HETATM   26  C   UNL     1     -10.732  16.648  65.004  1.00  0.00    -0.152 C  
HETATM   27  O   UNL     1     -10.312  17.960  65.369  1.00  0.00    -0.580 OA 
HETATM   28  C   UNL     1     -10.692  18.243  66.706  1.00  0.00    -0.218 C  
HETATM   29  C   UNL     1     -10.343  17.200  67.782  1.00  0.00    -0.347 C  
HETATM   30  O   UNL     1     -10.123  17.552  68.941  1.00  0.00    -0.338 OA 
ENDBRANCH  21  24
ENDBRANCH  14  18
ENDBRANCH  11  12
ENDBRANCH   8  11
ENDBRANCH   5   7
TORSDOF 5
ENDMDL
MODEL       22
REMARK 921   NORMALIZED FREE ENERGY PREDICTED BY IDOCK:   -6.58 KCAL/MOL
REMARK 922        TOTAL FREE ENERGY PREDICTED BY IDOCK:   -9.06 KCAL/MOL
REMARK 923 INTER-LIGAND FREE ENERGY PREDICTED BY IDOCK:   -8.42 KCAL/MOL
REMARK 924 INTRA-LIGAND FREE ENERGY PREDICTED BY IDOCK:   -0.64 KCAL/MOL
REMARK 927      BINDING AFFINITY PREDICTED BY RF-SCORE:    0.00 PKD
ROOT
HETATM    1 CL   UNL     1      -5.214  20.996  68.606  1.00  0.00    -0.346 Cl 
HETATM    2  C   UNL     1      -6.658  20.117  68.288  1.00  0.00    -0.294 A  
HETATM    3  C   UNL     1      -7.296  19.260  69.143  1.00  0.00    -0.341 A  
HETATM    4  C   UNL     1      -8.463  18.707  68.531  1.00  0.00    -0.367 A  
HETATM    5  C   UNL     1      -8.663  19.176  67.241  1.00  0.00    -0.286 A  
HETATM    6  S   UNL     1      -7.420  20.275  66.791  1.00  0.00    -0.280 SA 
ENDROOT
BRANCH   5   7
HETATM    7  C   UNL     1      -9.750  18.820  66.337  1.00  0.00    -0.353 C  
HETATM    8  N   UNL     1      -9.934  17.465  66.127  1.00  0.00    -0.292 N  
HETATM    9  O   UNL     1     -10.473  19.649  65.792  1.00  0.00    -0.495 OA 
HETATM   10  H   UNL     1      -9.247  16.812  66.505  1.00  0.00     0.000 HD 
BRANCH   8  11
HETATM   11  C   UNL     1     -11.070  16.937  65.389  1.00  0.00     0.089 C  
BRANCH  11  12
HETATM   12  C   UNL     1     -10.884  15.460  65.066  1.00  0.00    -0.444 C  
HETATM   13  C   UNL     1     -10.951  14.550  66.267  1.00  0.00    -0.323 C  
HETATM   14  N   UNL     1     -11.358  13.321  65.650  1.00  0.00    -0.300 N  
HETATM   15  C   UNL     1     -12.081  13.635  64.504  1.00  0.00    -0.419 C  
HETATM   16  O   UNL     1     -11.966  14.985  64.251  1.00  0.00    -0.418 OA 
HETATM   17  O   UNL     1     -12.748  12.912  63.782  1.00  0.00    -0.685 OA 
BRANCH  14  18
HETATM   18  C   UNL     1     -11.083  12.031  66.166  1.00  0.00    -0.322 A  
HETATM   19  C   UNL     1     -10.206  11.160  65.522  1.00  0.00    -0.319 A  
HETATM   20  C   UNL     1      -9.933   9.884  66.036  1.00  0.00    -0.338 A  
HETATM   21  C   UNL     1     -10.516   9.426  67.223  1.00  0.00    -0.264 A  
HETATM   22  C   UNL     1     -11.650  11.589  67.366  1.00  0.00    -0.307 A  
HETATM   23  C   UNL     1     -11.359  10.317  67.893  1.00  0.00    -0.181 A  
BRANCH  21  24
HETATM   24  N   UNL     1     -10.326   8.072  67.653  1.00  0.00    -0.233 N  
HETATM   25  C   UNL     1     -11.229   7.005  67.218  1.00  0.00    -0.085 C  
HETATM   26  C   UNL     1     -10.459   5.753  66.808  1.00  0.00    -0.287 C  
HETATM   27  O   UNL     1      -9.685   5.286  67.910  1.00  0.00    -0.129 OA 
HETATM   28  C   UNL     1      -8.764   6.284  68.320  1.00  0.00    -0.115 C  
HETATM   29  C   UNL     1      -9.308   7.704  68.552  1.00  0.00    -0.147 C  
HETATM   30  O   UNL     1      -8.781   8.444  69.382  1.00  0.00    -0.135 OA 
ENDBRANCH  21  24
ENDBRANCH  14  18
ENDBRANCH  11  12
ENDBRANCH   8  11
ENDBRANCH   5   7
TORSDOF 5
ENDMDL
MODEL       23
REMARK 921   NORMALIZED FREE ENERGY PREDICTED BY IDOCK:   -6.56 KCAL/MOL
REMARK 922        TOTAL FREE ENERGY PREDICTED BY IDOCK:   -9.03 KCAL/MOL
REMARK 923 INTER-LIGAND FREE ENERGY PREDICTED BY IDOCK:   -8.97 KCAL/MOL
REMARK 924 INTRA-LIGAND FREE ENERGY PREDICTED BY IDOCK:   -0.06 KCAL/MOL
REMARK 927      BINDING AFFINITY PREDICTED BY RF-SCORE:    0.00 PKD
ROOT
HETATM    1 CL   UNL     1      -7.082  20.341  68.459  1.00  0.00    -0.259 Cl 
HETATM    2  C   UNL     1      -8.450  19.690  67.644  1.00  0.00    -0.319 A  
HETATM    3  C   UNL     1      -9.726  20.184  67.671  1.00  0.00    -0.551 A  
HETATM    4  C   UNL     1     -10.600  19.377  66.880  1.00  0.00    -0.581 A  
HETATM    5  C   UNL     1      -9.946  18.311  66.280  1.00  0.00    -0.357 A  
HETATM    6  S   UNL     1      -8.279  18.303  66.699  1.00  0.00    -0.269 SA 
ENDROOT
BRANCH   5   7
HETATM    7  C   UNL     1     -10.534  17.296  65.412  1.00  0.00    -0.035 C  
HETATM    8  N   UNL     1     -10.217  15.986  65.723  1.00  0.00    -0.356 N  
HETATM    9  O   UNL     1     -11.270  17.563  64.467  1.00  0.00    -0.926 OA 
HETATM   10  H   UNL     1      -9.515  15.809  66.442  1.00  0.00     0.000 HD 
BRANCH   8  11
HETATM   11  C   UNL     1     -10.847  14.854  65.064  1.00  0.00    -0.423 C  
BRANCH  11  12
HETATM   12  C   UNL     1     -10.251  13.535  65.537  1.00  0.00    -0.295 C  
HETATM   13  C   UNL     1     -10.992  12.897  66.685  1.00  0.00    -0.276 C  
HETATM   14  N   UNL     1     -10.640  11.519  66.498  1.00  0.00    -0.248 N  
HETATM   15  C   UNL     1     -10.390  11.320  65.144  1.00  0.00    -0.295 C  
HETATM   16  O   UNL     1     -10.353  12.541  64.506  1.00  0.00    -0.313 OA 
HETATM   17  O   UNL     1     -10.228  10.279  64.528  1.00  0.00    -0.314 OA 
BRANCH  14  18
HETATM   18  C   UNL     1     -10.601  10.550  67.531  1.00  0.00    -0.259 A  
HETATM   19  C   UNL     1     -10.841  10.892  68.861  1.00  0.00    -0.262 A  
HETATM   20  C   UNL     1     -10.805   9.930  69.881  1.00  0.00    -0.316 A  
HETATM   21  C   UNL     1     -10.539   8.582  69.617  1.00  0.00    -0.220 A  
HETATM   22  C   UNL     1     -10.359   9.200  67.256  1.00  0.00    -0.338 A  
HETATM   23  C   UNL     1     -10.344   8.232  68.277  1.00  0.00    -0.242 A  
BRANCH  21  24
HETATM   24  N   UNL     1     -10.374   7.647  70.690  1.00  0.00    -0.204 N  
HETATM   25  C   UNL     1      -9.319   6.634  70.657  1.00  0.00    -0.162 C  
HETATM   26  C   UNL     1      -8.607   6.524  72.003  1.00  0.00    -0.125 C  
HETATM   27  O   UNL     1      -9.550   6.180  73.015  1.00  0.00    -0.150 OA 
HETATM   28  C   UNL     1     -10.559   7.173  73.103  1.00  0.00    -0.336 C  
HETATM   29  C   UNL     1     -11.243   7.613  71.797  1.00  0.00    -0.247 C  
HETATM   30  O   UNL     1     -12.410   8.001  71.808  1.00  0.00    -0.295 OA 
ENDBRANCH  21  24
ENDBRANCH  14  18
ENDBRANCH  11  12
ENDBRANCH   8  11
ENDBRANCH   5   7
TORSDOF 5
ENDMDL
MODEL       24
REMARK 921   NORMALIZED FREE ENERGY PREDICTED BY IDOCK:   -6.51 KCAL/MOL
REMARK 922        TOTAL FREE ENERGY PREDICTED BY IDOCK:   -8.97 KCAL/MOL
REMARK 923 INTER-LIGAND FREE ENERGY PREDICTED BY IDOCK:   -8.19 KCAL/MOL
REMARK 924 INTRA-LIGAND FREE ENERGY PREDICTED BY IDOCK:   -0.79 KCAL/MOL
REMARK 927      BINDING AFFINITY PREDICTED BY RF-SCORE:    0.00 PKD
ROOT
HETATM    1 CL   UNL     1     -13.574   8.871  72.942  1.00  0.00    -0.275 Cl 
HETATM    2  C   UNL     1     -12.554   8.059  71.820  1.00  0.00    -0.325 A  
HETATM    3  C   UNL     1     -12.293   6.717  71.779  1.00  0.00    -0.385 A  
HETATM    4  C   UNL     1     -11.394   6.406  70.713  1.00  0.00    -0.411 A  
HETATM    5  C   UNL     1     -11.019   7.526  69.987  1.00  0.00    -0.240 A  
HETATM    6  S   UNL     1     -11.760   8.942  70.621  1.00  0.00    -0.113 SA 
ENDROOT
BRANCH   5   7
HETATM    7  C   UNL     1     -10.118   7.568  68.840  1.00  0.00    -0.192 C  
HETATM    8  N   UNL     1     -10.539   8.349  67.778  1.00  0.00    -0.416 N  
HETATM    9  O   UNL     1      -9.050   6.966  68.800  1.00  0.00    -0.134 OA 
HETATM   10  H   UNL     1     -11.480   8.742  67.799  1.00  0.00     0.000 HD 
BRANCH   8  11
HETATM   11  C   UNL     1      -9.688   8.628  66.632  1.00  0.00    -0.247 C  
BRANCH  11  12
HETATM   12  C   UNL     1      -9.086  10.025  66.717  1.00  0.00    -0.139 C  
HETATM   13  C   UNL     1     -10.104  11.133  66.825  1.00  0.00    -0.218 C  
HETATM   14  N   UNL     1      -9.327  12.147  67.477  1.00  0.00    -0.177 N  
HETATM   15  C   UNL     1      -8.348  11.515  68.238  1.00  0.00    -0.154 C  
HETATM   16  O   UNL     1      -8.330  10.172  67.929  1.00  0.00    -0.116 OA 
HETATM   17  O   UNL     1      -7.591  11.981  69.073  1.00  0.00    -0.062 OA 
BRANCH  14  18
HETATM   18  C   UNL     1      -9.567  13.539  67.371  1.00  0.00    -0.227 A  
HETATM   19  C   UNL     1      -8.575  14.419  66.937  1.00  0.00    -0.191 A  
HETATM   20  C   UNL     1      -8.816  15.796  66.830  1.00  0.00    -0.299 A  
HETATM   21  C   UNL     1     -10.060  16.355  67.140  1.00  0.00    -0.271 A  
HETATM   22  C   UNL     1     -10.821  14.088  67.659  1.00  0.00    -0.270 A  
HETATM   23  C   UNL     1     -11.068  15.467  67.530  1.00  0.00    -0.305 A  
BRANCH  21  24
HETATM   24  N   UNL     1     -10.239  17.777  67.152  1.00  0.00    -0.339 N  
HETATM   25  C   UNL     1     -10.178  18.538  68.401  1.00  0.00    -0.372 C  
HETATM   26  C   UNL     1      -9.355  19.813  68.239  1.00  0.00    -0.329 C  
HETATM   27  O   UNL     1      -9.935  20.630  67.225  1.00  0.00    -0.448 OA 
HETATM   28  C   UNL     1      -9.960  19.934  65.989  1.00  0.00    -0.458 C  
HETATM   29  C   UNL     1     -10.536  18.507  65.986  1.00  0.00    -0.400 C  
HETATM   30  O   UNL     1     -11.090  18.063  64.981  1.00  0.00    -0.678 OA 
ENDBRANCH  21  24
ENDBRANCH  14  18
ENDBRANCH  11  12
ENDBRANCH   8  11
ENDBRANCH   5   7
TORSDOF 5
ENDMDL
MODEL       25
REMARK 921   NORMALIZED FREE ENERGY PREDICTED BY IDOCK:   -6.51 KCAL/MOL
REMARK 922        TOTAL FREE ENERGY PREDICTED BY IDOCK:   -8.97 KCAL/MOL
REMARK 923 INTER-LIGAND FREE ENERGY PREDICTED BY IDOCK:   -8.40 KCAL/MOL
REMARK 924 INTRA-LIGAND FREE ENERGY PREDICTED BY IDOCK:   -0.57 KCAL/MOL
REMARK 927      BINDING AFFINITY PREDICTED BY RF-SCORE:    0.00 PKD
ROOT
HETATM    1 CL   UNL     1      -9.713   3.729  71.726  1.00  0.00    -0.236 Cl 
HETATM    2  C   UNL     1     -10.285   5.093  70.848  1.00  0.00    -0.229 A  
HETATM    3  C   UNL     1     -11.064   6.107  71.335  1.00  0.00    -0.346 A  
HETATM    4  C   UNL     1     -11.349   7.065  70.313  1.00  0.00    -0.339 A  
HETATM    5  C   UNL     1     -10.765   6.739  69.098  1.00  0.00    -0.253 A  
HETATM    6  S   UNL     1      -9.887   5.265  69.217  1.00  0.00    -0.205 SA 
ENDROOT
BRANCH   5   7
HETATM    7  C   UNL     1     -10.851   7.492  67.852  1.00  0.00    -0.058 C  
HETATM    8  N   UNL     1     -10.796   8.869  67.981  1.00  0.00    -0.477 N  
HETATM    9  O   UNL     1     -10.958   6.963  66.750  1.00  0.00    -0.329 OA 
HETATM   10  H   UNL     1     -10.821   9.276  68.916  1.00  0.00     0.000 HD 
BRANCH   8  11
HETATM   11  C   UNL     1     -10.704   9.756  66.833  1.00  0.00    -0.122 C  
BRANCH  11  12
HETATM   12  C   UNL     1     -10.959  11.204  67.230  1.00  0.00    -0.296 C  
HETATM   13  C   UNL     1      -9.842  12.152  66.867  1.00  0.00    -0.203 C  
HETATM   14  N   UNL     1     -10.561  13.389  66.774  1.00  0.00    -0.276 N  
HETATM   15  C   UNL     1     -11.874  13.098  66.418  1.00  0.00    -0.400 C  
HETATM   16  O   UNL     1     -12.073  11.736  66.496  1.00  0.00    -0.498 OA 
HETATM   17  O   UNL     1     -12.770  13.848  66.070  1.00  0.00    -0.463 OA 
BRANCH  14  18
HETATM   18  C   UNL     1      -9.991  14.670  66.980  1.00  0.00    -0.246 A  
HETATM   19  C   UNL     1     -10.320  15.444  68.091  1.00  0.00    -0.239 A  
HETATM   20  C   UNL     1      -9.752  16.710  68.294  1.00  0.00    -0.244 A  
HETATM   21  C   UNL     1      -8.821  17.254  67.402  1.00  0.00    -0.218 A  
HETATM   22  C   UNL     1      -9.042  15.197  66.097  1.00  0.00    -0.276 A  
HETATM   23  C   UNL     1      -8.456  16.458  66.313  1.00  0.00    -0.372 A  
BRANCH  21  24
HETATM   24  N   UNL     1      -8.360  18.602  67.561  1.00  0.00    -0.263 N  
HETATM   25  C   UNL     1      -7.696  19.036  68.791  1.00  0.00    -0.347 C  
HETATM   26  C   UNL     1      -6.464  19.885  68.492  1.00  0.00    -0.285 C  
HETATM   27  O   UNL     1      -6.846  21.034  67.740  1.00  0.00    -0.325 OA 
HETATM   28  C   UNL     1      -7.448  20.642  66.517  1.00  0.00    -0.117 C  
HETATM   29  C   UNL     1      -8.568  19.588  66.579  1.00  0.00    -0.348 C  
HETATM   30  O   UNL     1      -9.471  19.592  65.743  1.00  0.00    -0.392 OA 
ENDBRANCH  21  24
ENDBRANCH  14  18
ENDBRANCH  11  12
ENDBRANCH   8  11
ENDBRANCH   5   7
TORSDOF 5
ENDMDL
MODEL       26
REMARK 921   NORMALIZED FREE ENERGY PREDICTED BY IDOCK:   -6.49 KCAL/MOL
REMARK 922        TOTAL FREE ENERGY PREDICTED BY IDOCK:   -8.95 KCAL/MOL
REMARK 923 INTER-LIGAND FREE ENERGY PREDICTED BY IDOCK:   -8.58 KCAL/MOL
REMARK 924 INTRA-LIGAND FREE ENERGY PREDICTED BY IDOCK:   -0.37 KCAL/MOL
REMARK 927      BINDING AFFINITY PREDICTED BY RF-SCORE:    0.00 PKD
ROOT
HETATM    1 CL   UNL     1      -5.848  20.351  68.884  1.00  0.00    -0.334 Cl 
HETATM    2  C   UNL     1      -7.253  19.879  68.013  1.00  0.00    -0.292 A  
HETATM    3  C   UNL     1      -7.907  20.612  67.060  1.00  0.00    -0.307 A  
HETATM    4  C   UNL     1      -9.039  19.900  66.558  1.00  0.00    -0.464 A  
HETATM    5  C   UNL     1      -9.190  18.653  67.147  1.00  0.00    -0.287 A  
HETATM    6  S   UNL     1      -7.955  18.373  68.311  1.00  0.00    -0.308 SA 
ENDROOT
BRANCH   5   7
HETATM    7  C   UNL     1     -10.233  17.672  66.871  1.00  0.00    -0.334 C  
HETATM    8  N   UNL     1     -10.143  17.032  65.648  1.00  0.00    -0.179 N  
HETATM    9  O   UNL     1     -11.137  17.409  67.658  1.00  0.00    -0.214 OA 
HETATM   10  H   UNL     1      -9.448  17.355  64.974  1.00  0.00     0.000 HD 
BRANCH   8  11
HETATM   11  C   UNL     1     -11.002  15.916  65.287  1.00  0.00    -0.324 C  
BRANCH  11  12
HETATM   12  C   UNL     1     -10.485  14.607  65.870  1.00  0.00    -0.314 C  
HETATM   13  C   UNL     1     -11.319  14.062  67.003  1.00  0.00    -0.330 C  
HETATM   14  N   UNL     1     -11.007  12.665  66.916  1.00  0.00    -0.254 N  
HETATM   15  C   UNL     1     -10.682  12.379  65.595  1.00  0.00    -0.264 C  
HETATM   16  O   UNL     1     -10.560  13.558  64.892  1.00  0.00    -0.349 OA 
HETATM   17  O   UNL     1     -10.520  11.299  65.049  1.00  0.00    -0.278 OA 
BRANCH  14  18
HETATM   18  C   UNL     1     -11.068  11.757  68.002  1.00  0.00    -0.242 A  
HETATM   19  C   UNL     1     -10.327  10.576  68.006  1.00  0.00    -0.212 A  
HETATM   20  C   UNL     1     -10.387   9.680  69.084  1.00  0.00    -0.219 A  
HETATM   21  C   UNL     1     -11.179   9.928  70.209  1.00  0.00    -0.301 A  
HETATM   22  C   UNL     1     -11.844  12.024  69.135  1.00  0.00    -0.369 A  
HETATM   23  C   UNL     1     -11.886  11.135  70.225  1.00  0.00    -0.455 A  
BRANCH  21  24
HETATM   24  N   UNL     1     -11.326   8.936  71.232  1.00  0.00    -0.277 N  
HETATM   25  C   UNL     1     -12.647   8.440  71.623  1.00  0.00    -0.332 C  
HETATM   26  C   UNL     1     -12.652   6.921  71.775  1.00  0.00    -0.344 C  
HETATM   27  O   UNL     1     -11.700   6.538  72.765  1.00  0.00    -0.148 OA 
HETATM   28  C   UNL     1     -10.401   6.963  72.386  1.00  0.00    -0.202 C  
HETATM   29  C   UNL     1     -10.228   8.428  71.951  1.00  0.00    -0.270 C  
HETATM   30  O   UNL     1      -9.160   9.010  72.137  1.00  0.00    -0.372 OA 
ENDBRANCH  21  24
ENDBRANCH  14  18
ENDBRANCH  11  12
ENDBRANCH   8  11
ENDBRANCH   5   7
TORSDOF 5
ENDMDL
MODEL       27
REMARK 921   NORMALIZED FREE ENERGY PREDICTED BY IDOCK:   -6.44 KCAL/MOL
REMARK 922        TOTAL FREE ENERGY PREDICTED BY IDOCK:   -8.88 KCAL/MOL
REMARK 923 INTER-LIGAND FREE ENERGY PREDICTED BY IDOCK:   -8.31 KCAL/MOL
REMARK 924 INTRA-LIGAND FREE ENERGY PREDICTED BY IDOCK:   -0.57 KCAL/MOL
REMARK 927      BINDING AFFINITY PREDICTED BY RF-SCORE:    0.00 PKD
ROOT
HETATM    1 CL   UNL     1      -7.009  19.220  65.691  1.00  0.00    -0.307 Cl 
HETATM    2  C   UNL     1      -8.481  18.693  66.409  1.00  0.00    -0.272 A  
HETATM    3  C   UNL     1      -9.470  19.489  66.920  1.00  0.00    -0.429 A  
HETATM    4  C   UNL     1     -10.540  18.699  67.440  1.00  0.00    -0.490 A  
HETATM    5  C   UNL     1     -10.319  17.337  67.294  1.00  0.00    -0.331 A  
HETATM    6  S   UNL     1      -8.806  17.042  66.533  1.00  0.00    -0.273 SA 
ENDROOT
BRANCH   5   7
HETATM    7  C   UNL     1     -11.203  16.254  67.712  1.00  0.00    -0.163 C  
HETATM    8  N   UNL     1     -11.486  15.306  66.745  1.00  0.00    -0.199 N  
HETATM    9  O   UNL     1     -11.669  16.165  68.844  1.00  0.00    -0.357 OA 
HETATM   10  H   UNL     1     -11.174  15.473  65.788  1.00  0.00     0.000 HD 
BRANCH   8  11
HETATM   11  C   UNL     1     -12.212  14.083  67.043  1.00  0.00    -0.352 C  
BRANCH  11  12
HETATM   12  C   UNL     1     -11.273  12.985  67.527  1.00  0.00    -0.284 C  
HETATM   13  C   UNL     1     -11.692  12.338  68.824  1.00  0.00    -0.340 C  
HETATM   14  N   UNL     1     -11.062  11.056  68.699  1.00  0.00    -0.218 N  
HETATM   15  C   UNL     1     -10.952  10.761  67.344  1.00  0.00    -0.300 C  
HETATM   16  O   UNL     1     -11.278  11.881  66.609  1.00  0.00    -0.298 OA 
HETATM   17  O   UNL     1     -10.638   9.716  66.798  1.00  0.00    -0.209 OA 
BRANCH  14  18
HETATM   18  C   UNL     1     -10.668  10.242  69.790  1.00  0.00    -0.285 A  
HETATM   19  C   UNL     1      -9.349   9.818  69.943  1.00  0.00    -0.262 A  
HETATM   20  C   UNL     1      -8.960   9.015  71.025  1.00  0.00    -0.304 A  
HETATM   21  C   UNL     1      -9.869   8.610  72.009  1.00  0.00    -0.325 A  
HETATM   22  C   UNL     1     -11.577   9.861  70.783  1.00  0.00    -0.430 A  
HETATM   23  C   UNL     1     -11.182   9.074  71.880  1.00  0.00    -0.438 A  
BRANCH  21  24
HETATM   24  N   UNL     1      -9.476   7.681  73.027  1.00  0.00    -0.201 N  
HETATM   25  C   UNL     1     -10.301   6.515  73.348  1.00  0.00    -0.260 C  
HETATM   26  C   UNL     1      -9.453   5.256  73.507  1.00  0.00    -0.133 C  
HETATM   27  O   UNL     1      -8.499   5.451  74.548  1.00  0.00    -0.108 OA 
HETATM   28  C   UNL     1      -7.652   6.546  74.238  1.00  0.00    -0.098 C  
HETATM   29  C   UNL     1      -8.319   7.864  73.806  1.00  0.00    -0.237 C  
HETATM   30  O   UNL     1      -7.777   8.942  74.047  1.00  0.00    -0.402 OA 
ENDBRANCH  21  24
ENDBRANCH  14  18
ENDBRANCH  11  12
ENDBRANCH   8  11
ENDBRANCH   5   7
TORSDOF 5
ENDMDL
MODEL       28
REMARK 921   NORMALIZED FREE ENERGY PREDICTED BY IDOCK:   -6.35 KCAL/MOL
REMARK 922        TOTAL FREE ENERGY PREDICTED BY IDOCK:   -8.76 KCAL/MOL
REMARK 923 INTER-LIGAND FREE ENERGY PREDICTED BY IDOCK:   -8.15 KCAL/MOL
REMARK 924 INTRA-LIGAND FREE ENERGY PREDICTED BY IDOCK:   -0.62 KCAL/MOL
REMARK 927      BINDING AFFINITY PREDICTED BY RF-SCORE:    0.00 PKD
ROOT
HETATM    1 CL   UNL     1      -9.120  19.620  67.354  1.00  0.00    -0.371 Cl 
HETATM    2  C   UNL     1      -9.856  18.065  67.348  1.00  0.00    -0.309 A  
HETATM    3  C   UNL     1     -10.406  17.419  68.422  1.00  0.00    -0.379 A  
HETATM    4  C   UNL     1     -10.917  16.141  68.039  1.00  0.00    -0.338 A  
HETATM    5  C   UNL     1     -10.739  15.877  66.688  1.00  0.00    -0.270 A  
HETATM    6  S   UNL     1      -9.942  17.187  65.910  1.00  0.00    -0.131 SA 
ENDROOT
BRANCH   5   7
HETATM    7  C   UNL     1     -11.140  14.673  65.969  1.00  0.00    -0.332 C  
HETATM    8  N   UNL     1     -10.158  14.087  65.190  1.00  0.00    -0.544 N  
HETATM    9  O   UNL     1     -12.265  14.189  66.040  1.00  0.00    -0.419 OA 
HETATM   10  H   UNL     1      -9.272  14.578  65.066  1.00  0.00     0.000 HD 
BRANCH   8  11
HETATM   11  C   UNL     1     -10.342  12.799  64.543  1.00  0.00    -0.349 C  
BRANCH  11  12
HETATM   12  C   UNL     1      -9.758  11.669  65.381  1.00  0.00    -0.229 C  
HETATM   13  C   UNL     1     -10.784  10.880  66.157  1.00  0.00    -0.159 C  
HETATM   14  N   UNL     1     -10.100   9.628  66.307  1.00  0.00    -0.263 N  
HETATM   15  C   UNL     1      -9.229   9.483  65.232  1.00  0.00    -0.247 C  
HETATM   16  O   UNL     1      -9.168  10.670  64.535  1.00  0.00    -0.203 OA 
HETATM   17  O   UNL     1      -8.588   8.508  64.876  1.00  0.00    -0.171 OA 
BRANCH  14  18
HETATM   18  C   UNL     1     -10.327   8.707  67.359  1.00  0.00    -0.284 A  
HETATM   19  C   UNL     1     -10.184   9.078  68.696  1.00  0.00    -0.226 A  
HETATM   20  C   UNL     1     -10.412   8.165  69.736  1.00  0.00    -0.227 A  
HETATM   21  C   UNL     1     -10.803   6.845  69.488  1.00  0.00    -0.252 A  
HETATM   22  C   UNL     1     -10.742   7.395  67.105  1.00  0.00    -0.400 A  
HETATM   23  C   UNL     1     -10.992   6.486  68.150  1.00  0.00    -0.365 A  
BRANCH  21  24
HETATM   24  N   UNL     1     -10.897   5.899  70.560  1.00  0.00    -0.291 N  
HETATM   25  C   UNL     1     -10.158   4.636  70.523  1.00  0.00    -0.192 C  
HETATM   26  C   UNL     1      -9.500   4.333  71.867  1.00  0.00    -0.142 C  
HETATM   27  O   UNL     1     -10.498   4.258  72.881  1.00  0.00    -0.165 OA 
HETATM   28  C   UNL     1     -11.198   5.488  72.973  1.00  0.00    -0.293 C  
HETATM   29  C   UNL     1     -11.739   6.100  71.670  1.00  0.00    -0.228 C  
HETATM   30  O   UNL     1     -12.757   6.792  71.684  1.00  0.00    -0.366 OA 
ENDBRANCH  21  24
ENDBRANCH  14  18
ENDBRANCH  11  12
ENDBRANCH   8  11
ENDBRANCH   5   7
TORSDOF 5
ENDMDL
MODEL       29
REMARK 921   NORMALIZED FREE ENERGY PREDICTED BY IDOCK:   -6.29 KCAL/MOL
REMARK 922        TOTAL FREE ENERGY PREDICTED BY IDOCK:   -8.69 KCAL/MOL
REMARK 923 INTER-LIGAND FREE ENERGY PREDICTED BY IDOCK:   -8.24 KCAL/MOL
REMARK 924 INTRA-LIGAND FREE ENERGY PREDICTED BY IDOCK:   -0.45 KCAL/MOL
REMARK 927      BINDING AFFINITY PREDICTED BY RF-SCORE:    0.00 PKD
ROOT
HETATM    1 CL   UNL     1      -7.141  20.504  67.767  1.00  0.00    -0.340 Cl 
HETATM    2  C   UNL     1      -8.529  19.740  67.098  1.00  0.00    -0.317 A  
HETATM    3  C   UNL     1      -9.728  20.334  66.811  1.00  0.00    -0.571 A  
HETATM    4  C   UNL     1     -10.649  19.385  66.271  1.00  0.00    -0.569 A  
HETATM    5  C   UNL     1     -10.105  18.113  66.165  1.00  0.00    -0.336 A  
HETATM    6  S   UNL     1      -8.483  18.093  66.734  1.00  0.00    -0.266 SA 
ENDROOT
BRANCH   5   7
HETATM    7  C   UNL     1     -10.766  16.915  65.659  1.00  0.00    -0.167 C  
HETATM    8  N   UNL     1     -10.853  15.859  66.549  1.00  0.00    -0.253 N  
HETATM    9  O   UNL     1     -11.228  16.829  64.526  1.00  0.00    -0.997 OA 
HETATM   10  H   UNL     1     -10.360  15.926  67.439  1.00  0.00     0.000 HD 
BRANCH   8  11
HETATM   11  C   UNL     1     -11.621  14.659  66.261  1.00  0.00    -0.342 C  
BRANCH  11  12
HETATM   12  C   UNL     1     -10.711  13.491  65.904  1.00  0.00    -0.277 C  
HETATM   13  C   UNL     1     -11.128  12.174  66.509  1.00  0.00    -0.307 C  
HETATM   14  N   UNL     1     -10.544  11.254  65.577  1.00  0.00    -0.262 N  
HETATM   15  C   UNL     1     -10.468  11.886  64.340  1.00  0.00    -0.311 C  
HETATM   16  O   UNL     1     -10.770  13.222  64.495  1.00  0.00    -0.368 OA 
HETATM   17  O   UNL     1     -10.199  11.422  63.244  1.00  0.00    -0.360 OA 
BRANCH  14  18
HETATM   18  C   UNL     1     -10.158   9.927  65.888  1.00  0.00    -0.245 A  
HETATM   19  C   UNL     1      -9.186   9.257  65.146  1.00  0.00    -0.264 A  
HETATM   20  C   UNL     1      -8.803   7.945  65.458  1.00  0.00    -0.070 A  
HETATM   21  C   UNL     1      -9.365   7.246  66.532  1.00  0.00    -0.170 A  
HETATM   22  C   UNL     1     -10.706   9.244  66.979  1.00  0.00    -0.199 A  
HETATM   23  C   UNL     1     -10.306   7.935  67.305  1.00  0.00    -0.377 A  
BRANCH  21  24
HETATM   24  N   UNL     1      -9.056   5.864  66.745  1.00  0.00    -0.125 N  
HETATM   25  C   UNL     1     -10.004   4.810  66.381  1.00  0.00    -0.241 C  
HETATM   26  C   UNL     1      -9.308   3.652  65.670  1.00  0.00    -0.162 C  
HETATM   27  O   UNL     1      -8.307   3.102  66.522  1.00  0.00    -0.094 OA 
HETATM   28  C   UNL     1      -7.345   4.091  66.851  1.00  0.00    -0.072 C  
HETATM   29  C   UNL     1      -7.862   5.447  67.362  1.00  0.00    -0.101 C  
HETATM   30  O   UNL     1      -7.188   6.112  68.149  1.00  0.00    -0.079 OA 
ENDBRANCH  21  24
ENDBRANCH  14  18
ENDBRANCH  11  12
ENDBRANCH   8  11
ENDBRANCH   5   7
TORSDOF 5
ENDMDL
MODEL       30
REMARK 921   NORMALIZED FREE ENERGY PREDICTED BY IDOCK:   -6.28 KCAL/MOL
REMARK 922        TOTAL FREE ENERGY PREDICTED BY IDOCK:   -8.67 KCAL/MOL
REMARK 923 INTER-LIGAND FREE ENERGY PREDICTED BY IDOCK:   -8.20 KCAL/MOL
REMARK 924 INTRA-LIGAND FREE ENERGY PREDICTED BY IDOCK:   -0.47 KCAL/MOL
REMARK 927      BINDING AFFINITY PREDICTED BY RF-SCORE:    0.00 PKD
ROOT
HETATM    1 CL   UNL     1      -9.645  20.934  67.106  1.00  0.00    -0.493 Cl 
HETATM    2  C   UNL     1      -9.856  19.342  67.720  1.00  0.00    -0.340 A  
HETATM    3  C   UNL     1     -10.124  18.996  69.017  1.00  0.00    -0.335 A  
HETATM    4  C   UNL     1     -10.227  17.578  69.154  1.00  0.00    -0.256 A  
HETATM    5  C   UNL     1     -10.040  16.910  67.953  1.00  0.00    -0.288 A  
HETATM    6  S   UNL     1      -9.732  18.020  66.677  1.00  0.00    -0.347 SA 
ENDROOT
BRANCH   5   7
HETATM    7  C   UNL     1     -10.078  15.468  67.736  1.00  0.00    -0.232 C  
HETATM    8  N   UNL     1     -11.254  14.974  67.201  1.00  0.00    -0.337 N  
HETATM    9  O   UNL     1      -9.138  14.723  67.995  1.00  0.00    -0.172 OA 
HETATM   10  H   UNL     1     -12.051  15.604  67.104  1.00  0.00     0.000 HD 
BRANCH   8  11
HETATM   11  C   UNL     1     -11.396  13.593  66.772  1.00  0.00    -0.328 C  
BRANCH  11  12
HETATM   12  C   UNL     1     -11.950  12.719  67.889  1.00  0.00    -0.266 C  
HETATM   13  C   UNL     1     -10.965  11.719  68.441  1.00  0.00    -0.231 C  
HETATM   14  N   UNL     1     -11.493  11.522  69.759  1.00  0.00    -0.294 N  
HETATM   15  C   UNL     1     -12.158  12.685  70.133  1.00  0.00    -0.294 C  
HETATM   16  O   UNL     1     -12.264  13.518  69.041  1.00  0.00    -0.320 OA 
HETATM   17  O   UNL     1     -12.602  13.011  71.222  1.00  0.00    -0.360 OA 
BRANCH  14  18
HETATM   18  C   UNL     1     -11.315  10.347  70.531  1.00  0.00    -0.341 A  
HETATM   19  C   UNL     1     -12.347   9.824  71.310  1.00  0.00    -0.465 A  
HETATM   20  C   UNL     1     -12.170   8.660  72.071  1.00  0.00    -0.439 A  
HETATM   21  C   UNL     1     -10.959   7.959  72.080  1.00  0.00    -0.274 A  
HETATM   22  C   UNL     1     -10.109   9.638  70.515  1.00  0.00    -0.338 A  
HETATM   23  C   UNL     1      -9.939   8.458  71.262  1.00  0.00    -0.261 A  
BRANCH  21  24
HETATM   24  N   UNL     1     -10.762   6.853  72.969  1.00  0.00    -0.274 N  
HETATM   25  C   UNL     1     -11.725   5.752  73.033  1.00  0.00     0.022 C  
HETATM   26  C   UNL     1     -11.024   4.397  73.063  1.00  0.00    -0.204 C  
HETATM   27  O   UNL     1     -10.164   4.329  74.198  1.00  0.00    -0.162 OA 
HETATM   28  C   UNL     1      -9.187   5.355  74.135  1.00  0.00    -0.122 C  
HETATM   29  C   UNL     1      -9.675   6.789  73.860  1.00  0.00    -0.258 C  
HETATM   30  O   UNL     1      -9.057   7.753  74.312  1.00  0.00    -0.193 OA 
ENDBRANCH  21  24
ENDBRANCH  14  18
ENDBRANCH  11  12
ENDBRANCH   8  11
ENDBRANCH   5   7
TORSDOF 5
ENDMDL
MODEL       31
REMARK 921   NORMALIZED FREE ENERGY PREDICTED BY IDOCK:   -6.27 KCAL/MOL
REMARK 922        TOTAL FREE ENERGY PREDICTED BY IDOCK:   -8.66 KCAL/MOL
REMARK 923 INTER-LIGAND FREE ENERGY PREDICTED BY IDOCK:   -8.00 KCAL/MOL
REMARK 924 INTRA-LIGAND FREE ENERGY PREDICTED BY IDOCK:   -0.66 KCAL/MOL
REMARK 927      BINDING AFFINITY PREDICTED BY RF-SCORE:    0.00 PKD
ROOT
HETATM    1 CL   UNL     1      -9.016   5.159  71.245  1.00  0.00    -0.152 Cl 
HETATM    2  C   UNL     1     -10.322   6.254  71.476  1.00  0.00    -0.204 A  
HETATM    3  C   UNL     1     -11.432   6.048  72.249  1.00  0.00    -0.364 A  
HETATM    4  C   UNL     1     -12.306   7.176  72.195  1.00  0.00    -0.228 A  
HETATM    5  C   UNL     1     -11.816   8.194  71.390  1.00  0.00    -0.295 A  
HETATM    6  S   UNL     1     -10.302   7.755  70.703  1.00  0.00    -0.204 SA 
ENDROOT
BRANCH   5   7
HETATM    7  C   UNL     1     -12.450   9.478  71.114  1.00  0.00    -0.315 C  
HETATM    8  N   UNL     1     -11.898  10.208  70.076  1.00  0.00    -0.413 N  
HETATM    9  O   UNL     1     -13.415   9.902  71.742  1.00  0.00    -0.382 OA 
HETATM   10  H   UNL     1     -11.030   9.878  69.652  1.00  0.00     0.000 HD 
BRANCH   8  11
HETATM   11  C   UNL     1     -12.508  11.425  69.568  1.00  0.00    -0.035 C  
BRANCH  11  12
HETATM   12  C   UNL     1     -11.697  12.655  69.954  1.00  0.00    -0.250 C  
HETATM   13  C   UNL     1     -11.210  13.469  68.782  1.00  0.00    -0.274 C  
HETATM   14  N   UNL     1     -11.065  14.759  69.392  1.00  0.00    -0.271 N  
HETATM   15  C   UNL     1     -11.969  14.838  70.447  1.00  0.00    -0.309 C  
HETATM   16  O   UNL     1     -12.517  13.592  70.669  1.00  0.00    -0.344 OA 
HETATM   17  O   UNL     1     -12.298  15.801  71.119  1.00  0.00    -0.394 OA 
BRANCH  14  18
HETATM   18  C   UNL     1     -10.173  15.766  68.948  1.00  0.00    -0.219 A  
HETATM   19  C   UNL     1     -10.637  16.941  68.358  1.00  0.00    -0.365 A  
HETATM   20  C   UNL     1      -9.752  17.937  67.922  1.00  0.00    -0.288 A  
HETATM   21  C   UNL     1      -8.366  17.811  68.066  1.00  0.00    -0.249 A  
HETATM   22  C   UNL     1      -8.790  15.643  69.119  1.00  0.00    -0.251 A  
HETATM   23  C   UNL     1      -7.905  16.653  68.701  1.00  0.00    -0.234 A  
BRANCH  21  24
HETATM   24  N   UNL     1      -7.481  18.780  67.491  1.00  0.00    -0.227 N  
HETATM   25  C   UNL     1      -6.966  18.623  66.130  1.00  0.00    -0.254 C  
HETATM   26  C   UNL     1      -7.027  19.935  65.354  1.00  0.00    -0.293 C  
HETATM   27  O   UNL     1      -6.257  20.926  66.030  1.00  0.00    -0.236 OA 
HETATM   28  C   UNL     1      -6.767  21.135  67.338  1.00  0.00    -0.363 C  
HETATM   29  C   UNL     1      -7.016  19.895  68.213  1.00  0.00    -0.297 C  
HETATM   30  O   UNL     1      -6.915  19.968  69.437  1.00  0.00    -0.291 OA 
ENDBRANCH  21  24
ENDBRANCH  14  18
ENDBRANCH  11  12
ENDBRANCH   8  11
ENDBRANCH   5   7
TORSDOF 5
ENDMDL
MODEL       32
REMARK 921   NORMALIZED FREE ENERGY PREDICTED BY IDOCK:   -6.27 KCAL/MOL
REMARK 922        TOTAL FREE ENERGY PREDICTED BY IDOCK:   -8.66 KCAL/MOL
REMARK 923 INTER-LIGAND FREE ENERGY PREDICTED BY IDOCK:   -7.87 KCAL/MOL
REMARK 924 INTRA-LIGAND FREE ENERGY PREDICTED BY IDOCK:   -0.79 KCAL/MOL
REMARK 927      BINDING AFFINITY PREDICTED BY RF-SCORE:    0.00 PKD
ROOT
HETATM    1 CL   UNL     1     -13.503  13.154  72.464  1.00  0.00    -0.646 Cl 
HETATM    2  C   UNL     1     -12.660  14.318  71.520  1.00  0.00    -0.354 A  
HETATM    3  C   UNL     1     -12.142  15.505  71.961  1.00  0.00    -0.502 A  
HETATM    4  C   UNL     1     -11.516  16.215  70.891  1.00  0.00    -0.421 A  
HETATM    5  C   UNL     1     -11.579  15.531  69.686  1.00  0.00    -0.348 A  
HETATM    6  S   UNL     1     -12.410  14.038  69.875  1.00  0.00    -0.252 SA 
ENDROOT
BRANCH   5   7
HETATM    7  C   UNL     1     -11.043  15.965  68.401  1.00  0.00    -0.345 C  
HETATM    8  N   UNL     1     -11.277  15.112  67.337  1.00  0.00    -0.327 N  
HETATM    9  O   UNL     1     -10.431  17.017  68.247  1.00  0.00    -0.324 OA 
HETATM   10  H   UNL     1     -11.689  14.197  67.523  1.00  0.00     0.000 HD 
BRANCH   8  11
HETATM   11  C   UNL     1     -10.956  15.471  65.965  1.00  0.00    -0.251 C  
BRANCH  11  12
HETATM   12  C   UNL     1     -10.566  14.246  65.148  1.00  0.00    -0.406 C  
HETATM   13  C   UNL     1     -10.200  13.040  65.976  1.00  0.00    -0.287 C  
HETATM   14  N   UNL     1     -10.487  11.983  65.051  1.00  0.00    -0.276 N  
HETATM   15  C   UNL     1     -11.487  12.425  64.191  1.00  0.00    -0.381 C  
HETATM   16  O   UNL     1     -11.688  13.775  64.386  1.00  0.00    -0.382 OA 
HETATM   17  O   UNL     1     -12.142  11.800  63.373  1.00  0.00    -0.491 OA 
BRANCH  14  18
HETATM   18  C   UNL     1      -9.867  10.709  65.065  1.00  0.00    -0.293 A  
HETATM   19  C   UNL     1     -10.113   9.790  66.084  1.00  0.00    -0.315 A  
HETATM   20  C   UNL     1      -9.501   8.528  66.094  1.00  0.00    -0.286 A  
HETATM   21  C   UNL     1      -8.625   8.124  65.081  1.00  0.00    -0.071 A  
HETATM   22  C   UNL     1      -9.012  10.302  64.035  1.00  0.00    -0.261 A  
HETATM   23  C   UNL     1      -8.415   9.027  64.034  1.00  0.00    -0.175 A  
BRANCH  21  24
HETATM   24  N   UNL     1      -7.910   6.886  65.185  1.00  0.00    -0.113 N  
HETATM   25  C   UNL     1      -8.608   5.600  65.124  1.00  0.00    -0.130 C  
HETATM   26  C   UNL     1      -7.870   4.606  64.231  1.00  0.00    -0.087 C  
HETATM   27  O   UNL     1      -6.554   4.397  64.735  1.00  0.00    -0.041 OA 
HETATM   28  C   UNL     1      -5.837   5.621  64.758  1.00  0.00    -0.021 C  
HETATM   29  C   UNL     1      -6.521   6.836  65.407  1.00  0.00    -0.046 C  
HETATM   30  O   UNL     1      -5.849   7.711  65.953  1.00  0.00    -0.036 OA 
ENDBRANCH  21  24
ENDBRANCH  14  18
ENDBRANCH  11  12
ENDBRANCH   8  11
ENDBRANCH   5   7
TORSDOF 5
ENDMDL
MODEL       33
REMARK 921   NORMALIZED FREE ENERGY PREDICTED BY IDOCK:   -6.25 KCAL/MOL
REMARK 922        TOTAL FREE ENERGY PREDICTED BY IDOCK:   -8.63 KCAL/MOL
REMARK 923 INTER-LIGAND FREE ENERGY PREDICTED BY IDOCK:   -7.86 KCAL/MOL
REMARK 924 INTRA-LIGAND FREE ENERGY PREDICTED BY IDOCK:   -0.78 KCAL/MOL
REMARK 927      BINDING AFFINITY PREDICTED BY RF-SCORE:    0.00 PKD
ROOT
HETATM    1 CL   UNL     1      -5.478  19.927  71.377  1.00  0.00    -0.343 Cl 
HETATM    2  C   UNL     1      -6.098  19.891  69.773  1.00  0.00    -0.341 A  
HETATM    3  C   UNL     1      -6.041  20.904  68.854  1.00  0.00    -0.225 A  
HETATM    4  C   UNL     1      -6.666  20.515  67.629  1.00  0.00    -0.350 A  
HETATM    5  C   UNL     1      -7.162  19.220  67.671  1.00  0.00    -0.227 A  
HETATM    6  S   UNL     1      -6.868  18.501  69.205  1.00  0.00    -0.209 SA 
ENDROOT
BRANCH   5   7
HETATM    7  C   UNL     1      -7.854  18.510  66.600  1.00  0.00    -0.252 C  
HETATM    8  N   UNL     1      -9.048  17.908  66.957  1.00  0.00    -0.248 N  
HETATM    9  O   UNL     1      -7.431  18.446  65.451  1.00  0.00    -0.494 OA 
HETATM   10  H   UNL     1      -9.311  17.886  67.943  1.00  0.00     0.000 HD 
BRANCH   8  11
HETATM   11  C   UNL     1      -9.939  17.305  65.980  1.00  0.00    -0.233 C  
BRANCH  11  12
HETATM   12  C   UNL     1     -10.657  16.093  66.558  1.00  0.00    -0.268 C  
HETATM   13  C   UNL     1      -9.785  14.872  66.717  1.00  0.00    -0.251 C  
HETATM   14  N   UNL     1     -10.476  14.184  67.769  1.00  0.00    -0.244 N  
HETATM   15  C   UNL     1     -11.138  15.134  68.541  1.00  0.00    -0.276 C  
HETATM   16  O   UNL     1     -11.079  16.356  67.906  1.00  0.00    -0.326 OA 
HETATM   17  O   UNL     1     -11.697  15.008  69.617  1.00  0.00    -0.284 OA 
BRANCH  14  18
HETATM   18  C   UNL     1     -10.439  12.783  67.976  1.00  0.00    -0.226 A  
HETATM   19  C   UNL     1     -11.575  11.992  67.813  1.00  0.00    -0.400 A  
HETATM   20  C   UNL     1     -11.534  10.605  68.016  1.00  0.00    -0.289 A  
HETATM   21  C   UNL     1     -10.355   9.945  68.379  1.00  0.00    -0.198 A  
HETATM   22  C   UNL     1      -9.250  12.127  68.315  1.00  0.00    -0.192 A  
HETATM   23  C   UNL     1      -9.206  10.732  68.497  1.00  0.00    -0.174 A  
BRANCH  21  24
HETATM   24  N   UNL     1     -10.372   8.551  68.711  1.00  0.00    -0.217 N  
HETATM   25  C   UNL     1     -10.406   8.104  70.105  1.00  0.00    -0.215 C  
HETATM   26  C   UNL     1     -11.407   6.970  70.304  1.00  0.00    -0.295 C  
HETATM   27  O   UNL     1     -11.052   5.868  69.472  1.00  0.00    -0.381 OA 
HETATM   28  C   UNL     1     -11.061   6.261  68.109  1.00  0.00    -0.266 C  
HETATM   29  C   UNL     1     -10.299   7.543  67.731  1.00  0.00    -0.216 C  
HETATM   30  O   UNL     1      -9.796   7.662  66.614  1.00  0.00    -0.216 OA 
ENDBRANCH  21  24
ENDBRANCH  14  18
ENDBRANCH  11  12
ENDBRANCH   8  11
ENDBRANCH   5   7
TORSDOF 5
ENDMDL
MODEL       34
REMARK 921   NORMALIZED FREE ENERGY PREDICTED BY IDOCK:   -6.22 KCAL/MOL
REMARK 922        TOTAL FREE ENERGY PREDICTED BY IDOCK:   -8.59 KCAL/MOL
REMARK 923 INTER-LIGAND FREE ENERGY PREDICTED BY IDOCK:   -7.83 KCAL/MOL
REMARK 924 INTRA-LIGAND FREE ENERGY PREDICTED BY IDOCK:   -0.76 KCAL/MOL
REMARK 927      BINDING AFFINITY PREDICTED BY RF-SCORE:    0.00 PKD
ROOT
HETATM    1 CL   UNL     1     -13.790  11.820  72.427  1.00  0.00     0.097 Cl 
HETATM    2  C   UNL     1     -12.871  10.603  71.634  1.00  0.00    -0.465 A  
HETATM    3  C   UNL     1     -12.750   9.294  72.015  1.00  0.00    -0.479 A  
HETATM    4  C   UNL     1     -11.898   8.580  71.117  1.00  0.00    -0.322 A  
HETATM    5  C   UNL     1     -11.418   9.377  70.088  1.00  0.00    -0.138 A  
HETATM    6  S   UNL     1     -12.003  10.987  70.238  1.00  0.00    -0.391 SA 
ENDROOT
BRANCH   5   7
HETATM    7  C   UNL     1     -10.530   8.971  69.005  1.00  0.00    -0.218 C  
HETATM    8  N   UNL     1     -10.995   9.219  67.725  1.00  0.00    -0.493 N  
HETATM    9  O   UNL     1      -9.434   8.450  69.191  1.00  0.00    -0.154 OA 
HETATM   10  H   UNL     1     -11.954   9.547  67.607  1.00  0.00     0.000 HD 
BRANCH   8  11
HETATM   11  C   UNL     1     -10.169   9.027  66.545  1.00  0.00    -0.248 C  
BRANCH  11  12
HETATM   12  C   UNL     1      -9.474  10.321  66.139  1.00  0.00    -0.181 C  
HETATM   13  C   UNL     1     -10.086  11.565  66.732  1.00  0.00    -0.215 C  
HETATM   14  N   UNL     1      -8.960  12.453  66.711  1.00  0.00    -0.211 N  
HETATM   15  C   UNL     1      -7.804  11.683  66.799  1.00  0.00    -0.130 C  
HETATM   16  O   UNL     1      -8.134  10.353  66.654  1.00  0.00    -0.117 OA 
HETATM   17  O   UNL     1      -6.650  12.031  66.984  1.00  0.00    -0.148 OA 
BRANCH  14  18
HETATM   18  C   UNL     1      -9.048  13.866  66.649  1.00  0.00    -0.190 A  
HETATM   19  C   UNL     1      -8.346  14.680  67.537  1.00  0.00    -0.203 A  
HETATM   20  C   UNL     1      -8.433  16.078  67.471  1.00  0.00    -0.178 A  
HETATM   21  C   UNL     1      -9.215  16.725  66.509  1.00  0.00    -0.268 A  
HETATM   22  C   UNL     1      -9.813  14.507  65.668  1.00  0.00    -0.337 A  
HETATM   23  C   UNL     1      -9.882  15.910  65.590  1.00  0.00    -0.337 A  
BRANCH  21  24
HETATM   24  N   UNL     1      -9.392  18.147  66.549  1.00  0.00    -0.296 N  
HETATM   25  C   UNL     1     -10.685  18.740  66.895  1.00  0.00    -0.337 C  
HETATM   26  C   UNL     1     -10.525  19.903  67.870  1.00  0.00    -0.364 C  
HETATM   27  O   UNL     1      -9.696  20.905  67.285  1.00  0.00    -0.458 OA 
HETATM   28  C   UNL     1      -8.417  20.369  66.986  1.00  0.00    -0.279 C  
HETATM   29  C   UNL     1      -8.363  19.043  66.208  1.00  0.00    -0.283 C  
HETATM   30  O   UNL     1      -7.416  18.800  65.460  1.00  0.00    -0.493 OA 
ENDBRANCH  21  24
ENDBRANCH  14  18
ENDBRANCH  11  12
ENDBRANCH   8  11
ENDBRANCH   5   7
TORSDOF 5
ENDMDL
MODEL       35
REMARK 921   NORMALIZED FREE ENERGY PREDICTED BY IDOCK:   -6.21 KCAL/MOL
REMARK 922        TOTAL FREE ENERGY PREDICTED BY IDOCK:   -8.59 KCAL/MOL
REMARK 923 INTER-LIGAND FREE ENERGY PREDICTED BY IDOCK:   -8.42 KCAL/MOL
REMARK 924 INTRA-LIGAND FREE ENERGY PREDICTED BY IDOCK:   -0.17 KCAL/MOL
REMARK 927      BINDING AFFINITY PREDICTED BY RF-SCORE:    0.00 PKD
ROOT
HETATM    1 CL   UNL     1      -9.329   4.153  67.756  1.00  0.00    -0.191 Cl 
HETATM    2  C   UNL     1      -8.640   5.299  66.675  1.00  0.00    -0.110 A  
HETATM    3  C   UNL     1      -7.613   5.079  65.798  1.00  0.00    -0.086 A  
HETATM    4  C   UNL     1      -7.304   6.267  65.067  1.00  0.00    -0.078 A  
HETATM    5  C   UNL     1      -8.118   7.335  65.416  1.00  0.00    -0.133 A  
HETATM    6  S   UNL     1      -9.239   6.877  66.636  1.00  0.00    -0.160 SA 
ENDROOT
BRANCH   5   7
HETATM    7  C   UNL     1      -8.075   8.687  64.869  1.00  0.00    -0.146 C  
HETATM    8  N   UNL     1      -9.029   8.974  63.909  1.00  0.00    -0.421 N  
HETATM    9  O   UNL     1      -7.261   9.532  65.226  1.00  0.00    -0.097 OA 
HETATM   10  H   UNL     1      -9.615   8.216  63.557  1.00  0.00     0.000 HD 
BRANCH   8  11
HETATM   11  C   UNL     1      -9.228  10.315  63.385  1.00  0.00    -0.292 C  
BRANCH  11  12
HETATM   12  C   UNL     1     -10.311  11.058  64.158  1.00  0.00    -0.369 C  
HETATM   13  C   UNL     1      -9.845  11.646  65.467  1.00  0.00    -0.234 C  
HETATM   14  N   UNL     1     -10.786  12.715  65.630  1.00  0.00    -0.269 N  
HETATM   15  C   UNL     1     -11.203  13.117  64.365  1.00  0.00    -0.371 C  
HETATM   16  O   UNL     1     -10.742  12.216  63.429  1.00  0.00    -0.430 OA 
HETATM   17  O   UNL     1     -11.858  14.092  64.035  1.00  0.00    -0.390 OA 
BRANCH  14  18
HETATM   18  C   UNL     1     -11.173  13.266  66.877  1.00  0.00    -0.305 A  
HETATM   19  C   UNL     1     -11.387  12.460  67.994  1.00  0.00    -0.340 A  
HETATM   20  C   UNL     1     -11.766  13.008  69.228  1.00  0.00    -0.375 A  
HETATM   21  C   UNL     1     -11.938  14.385  69.404  1.00  0.00    -0.328 A  
HETATM   22  C   UNL     1     -11.319  14.646  67.051  1.00  0.00    -0.362 A  
HETATM   23  C   UNL     1     -11.679  15.197  68.295  1.00  0.00    -0.336 A  
BRANCH  21  24
HETATM   24  N   UNL     1     -12.457  14.904  70.635  1.00  0.00    -0.328 N  
HETATM   25  C   UNL     1     -13.712  14.406  71.199  1.00  0.00    -0.235 C  
HETATM   26  C   UNL     1     -13.594  14.167  72.702  1.00  0.00    -0.515 C  
HETATM   27  O   UNL     1     -13.244  15.385  73.353  1.00  0.00    -0.488 OA 
HETATM   28  C   UNL     1     -12.003  15.865  72.860  1.00  0.00    -0.504 C  
HETATM   29  C   UNL     1     -11.827  15.950  71.334  1.00  0.00    -0.463 C  
HETATM   30  O   UNL     1     -11.093  16.806  70.841  1.00  0.00    -0.066 OA 
ENDBRANCH  21  24
ENDBRANCH  14  18
ENDBRANCH  11  12
ENDBRANCH   8  11
ENDBRANCH   5   7
TORSDOF 5
ENDMDL
MODEL       36
REMARK 921   NORMALIZED FREE ENERGY PREDICTED BY IDOCK:   -6.15 KCAL/MOL
REMARK 922        TOTAL FREE ENERGY PREDICTED BY IDOCK:   -8.50 KCAL/MOL
REMARK 923 INTER-LIGAND FREE ENERGY PREDICTED BY IDOCK:   -8.10 KCAL/MOL
REMARK 924 INTRA-LIGAND FREE ENERGY PREDICTED BY IDOCK:   -0.40 KCAL/MOL
REMARK 927      BINDING AFFINITY PREDICTED BY RF-SCORE:    0.00 PKD
ROOT
HETATM    1 CL   UNL     1      -9.025  20.826  67.345  1.00  0.00    -0.369 Cl 
HETATM    2  C   UNL     1      -9.208  19.235  66.718  1.00  0.00    -0.323 A  
HETATM    3  C   UNL     1      -8.277  18.233  66.752  1.00  0.00    -0.269 A  
HETATM    4  C   UNL     1      -8.780  17.050  66.128  1.00  0.00    -0.254 A  
HETATM    5  C   UNL     1     -10.075  17.205  65.656  1.00  0.00    -0.079 A  
HETATM    6  S   UNL     1     -10.655  18.792  65.971  1.00  0.00    -0.259 SA 
ENDROOT
BRANCH   5   7
HETATM    7  C   UNL     1     -10.885  16.203  64.972  1.00  0.00    -0.363 C  
HETATM    8  N   UNL     1     -10.698  14.897  65.388  1.00  0.00    -0.349 N  
HETATM    9  O   UNL     1     -11.691  16.477  64.089  1.00  0.00    -0.998 OA 
HETATM   10  H   UNL     1      -9.942  14.693  66.042  1.00  0.00     0.000 HD 
BRANCH   8  11
HETATM   11  C   UNL     1     -11.539  13.804  64.927  1.00  0.00    -0.351 C  
BRANCH  11  12
HETATM   12  C   UNL     1     -11.916  12.874  66.072  1.00  0.00    -0.446 C  
HETATM   13  C   UNL     1     -10.814  11.936  66.497  1.00  0.00    -0.278 C  
HETATM   14  N   UNL     1     -11.191  11.678  67.857  1.00  0.00    -0.247 N  
HETATM   15  C   UNL     1     -11.893  12.784  68.324  1.00  0.00    -0.312 C  
HETATM   16  O   UNL     1     -12.166  13.627  67.269  1.00  0.00    -0.366 OA 
HETATM   17  O   UNL     1     -12.246  13.058  69.460  1.00  0.00    -0.248 OA 
BRANCH  14  18
HETATM   18  C   UNL     1     -10.856  10.505  68.578  1.00  0.00    -0.234 A  
HETATM   19  C   UNL     1      -9.934   9.584  68.083  1.00  0.00    -0.191 A  
HETATM   20  C   UNL     1      -9.602   8.425  68.800  1.00  0.00    -0.150 A  
HETATM   21  C   UNL     1     -10.167   8.141  70.048  1.00  0.00    -0.202 A  
HETATM   22  C   UNL     1     -11.406  10.240  69.837  1.00  0.00    -0.354 A  
HETATM   23  C   UNL     1     -11.056   9.088  70.565  1.00  0.00    -0.297 A  
BRANCH  21  24
HETATM   24  N   UNL     1      -9.914   6.888  70.695  1.00  0.00    -0.187 N  
HETATM   25  C   UNL     1     -10.702   5.696  70.375  1.00  0.00    -0.282 C  
HETATM   26  C   UNL     1      -9.814   4.465  70.214  1.00  0.00    -0.214 C  
HETATM   27  O   UNL     1      -9.094   4.235  71.423  1.00  0.00    -0.117 OA 
HETATM   28  C   UNL     1      -8.282   5.356  71.731  1.00  0.00    -0.119 C  
HETATM   29  C   UNL     1      -8.943   6.745  71.704  1.00  0.00    -0.136 C  
HETATM   30  O   UNL     1      -8.535   7.642  72.441  1.00  0.00    -0.106 OA 
ENDBRANCH  21  24
ENDBRANCH  14  18
ENDBRANCH  11  12
ENDBRANCH   8  11
ENDBRANCH   5   7
TORSDOF 5
ENDMDL
MODEL       37
REMARK 921   NORMALIZED FREE ENERGY PREDICTED BY IDOCK:   -6.15 KCAL/MOL
REMARK 922        TOTAL FREE ENERGY PREDICTED BY IDOCK:   -8.50 KCAL/MOL
REMARK 923 INTER-LIGAND FREE ENERGY PREDICTED BY IDOCK:   -7.87 KCAL/MOL
REMARK 924 INTRA-LIGAND FREE ENERGY PREDICTED BY IDOCK:   -0.63 KCAL/MOL
REMARK 927      BINDING AFFINITY PREDICTED BY RF-SCORE:    0.00 PKD
ROOT
HETATM    1 CL   UNL     1     -10.255  17.824  68.970  1.00  0.00    -0.352 Cl 
HETATM    2  C   UNL     1     -11.079  16.349  69.289  1.00  0.00    -0.297 A  
HETATM    3  C   UNL     1     -11.478  15.421  68.365  1.00  0.00    -0.365 A  
HETATM    4  C   UNL     1     -12.141  14.325  68.999  1.00  0.00    -0.320 A  
HETATM    5  C   UNL     1     -12.207  14.466  70.377  1.00  0.00    -0.338 A  
HETATM    6  S   UNL     1     -11.470  15.936  70.878  1.00  0.00    -0.418 SA 
ENDROOT
BRANCH   5   7
HETATM    7  C   UNL     1     -12.811  13.537  71.326  1.00  0.00    -0.338 C  
HETATM    8  N   UNL     1     -12.655  12.194  71.030  1.00  0.00    -0.330 N  
HETATM    9  O   UNL     1     -13.415  13.898  72.331  1.00  0.00    -0.468 OA 
HETATM   10  H   UNL     1     -12.247  11.934  70.132  1.00  0.00     0.000 HD 
BRANCH   8  11
HETATM   11  C   UNL     1     -13.051  11.142  71.952  1.00  0.00    -0.408 C  
BRANCH  11  12
HETATM   12  C   UNL     1     -13.060   9.781  71.269  1.00  0.00    -0.381 C  
HETATM   13  C   UNL     1     -11.725   9.078  71.271  1.00  0.00    -0.313 C  
HETATM   14  N   UNL     1     -12.143   7.710  71.164  1.00  0.00    -0.310 N  
HETATM   15  C   UNL     1     -13.409   7.603  71.730  1.00  0.00    -0.315 C  
HETATM   16  O   UNL     1     -13.899   8.865  71.989  1.00  0.00    -0.409 OA 
HETATM   17  O   UNL     1     -14.058   6.606  72.002  1.00  0.00    -0.162 OA 
BRANCH  14  18
HETATM   18  C   UNL     1     -11.360   6.669  70.606  1.00  0.00    -0.347 A  
HETATM   19  C   UNL     1     -10.789   5.680  71.404  1.00  0.00    -0.290 A  
HETATM   20  C   UNL     1     -10.017   4.649  70.850  1.00  0.00    -0.273 A  
HETATM   21  C   UNL     1      -9.791   4.554  69.472  1.00  0.00    -0.207 A  
HETATM   22  C   UNL     1     -11.160   6.567  69.225  1.00  0.00    -0.393 A  
HETATM   23  C   UNL     1     -10.403   5.520  68.668  1.00  0.00    -0.255 A  
BRANCH  21  24
HETATM   24  N   UNL     1      -8.890   3.572  68.947  1.00  0.00    -0.099 N  
HETATM   25  C   UNL     1      -9.280   2.165  68.837  1.00  0.00    -0.154 C  
HETATM   26  C   UNL     1      -8.864   1.572  67.495  1.00  0.00    -0.114 C  
HETATM   27  O   UNL     1      -7.450   1.673  67.345  1.00  0.00    -0.056 OA 
HETATM   28  C   UNL     1      -7.048   3.033  67.397  1.00  0.00    -0.053 C  
HETATM   29  C   UNL     1      -7.573   3.888  68.563  1.00  0.00    -0.058 C  
HETATM   30  O   UNL     1      -6.903   4.825  68.998  1.00  0.00    -0.048 OA 
ENDBRANCH  21  24
ENDBRANCH  14  18
ENDBRANCH  11  12
ENDBRANCH   8  11
ENDBRANCH   5   7
TORSDOF 5
ENDMDL
MODEL       38
REMARK 921   NORMALIZED FREE ENERGY PREDICTED BY IDOCK:   -6.11 KCAL/MOL
REMARK 922        TOTAL FREE ENERGY PREDICTED BY IDOCK:   -8.45 KCAL/MOL
REMARK 923 INTER-LIGAND FREE ENERGY PREDICTED BY IDOCK:   -7.76 KCAL/MOL
REMARK 924 INTRA-LIGAND FREE ENERGY PREDICTED BY IDOCK:   -0.69 KCAL/MOL
REMARK 927      BINDING AFFINITY PREDICTED BY RF-SCORE:    0.00 PKD
ROOT
HETATM    1 CL   UNL     1     -10.759  19.637  66.926  1.00  0.00    -0.592 Cl 
HETATM    2  C   UNL     1     -10.474  18.021  67.441  1.00  0.00    -0.387 A  
HETATM    3  C   UNL     1     -10.398  17.579  68.733  1.00  0.00    -0.358 A  
HETATM    4  C   UNL     1     -10.142  16.174  68.775  1.00  0.00    -0.237 A  
HETATM    5  C   UNL     1     -10.043  15.611  67.511  1.00  0.00    -0.253 A  
HETATM    6  S   UNL     1     -10.253  16.805  66.292  1.00  0.00    -0.328 SA 
ENDROOT
BRANCH   5   7
HETATM    7  C   UNL     1      -9.788  14.210  67.191  1.00  0.00    -0.253 C  
HETATM    8  N   UNL     1     -10.911  13.410  67.075  1.00  0.00    -0.283 N  
HETATM    9  O   UNL     1      -8.663  13.752  67.024  1.00  0.00    -0.224 OA 
HETATM   10  H   UNL     1     -11.819  13.798  67.331  1.00  0.00     0.000 HD 
BRANCH   8  11
HETATM   11  C   UNL     1     -10.844  12.037  66.602  1.00  0.00    -0.272 C  
BRANCH  11  12
HETATM   12  C   UNL     1     -11.409  11.067  67.631  1.00  0.00    -0.281 C  
HETATM   13  C   UNL     1     -10.364  10.272  68.373  1.00  0.00    -0.177 C  
HETATM   14  N   UNL     1     -11.067   9.971  69.585  1.00  0.00    -0.252 N  
HETATM   15  C   UNL     1     -11.997  10.982  69.805  1.00  0.00    -0.356 C  
HETATM   16  O   UNL     1     -12.067  11.785  68.687  1.00  0.00    -0.406 OA 
HETATM   17  O   UNL     1     -12.679  11.211  70.791  1.00  0.00    -0.330 OA 
BRANCH  14  18
HETATM   18  C   UNL     1     -10.808   8.848  70.410  1.00  0.00    -0.236 A  
HETATM   19  C   UNL     1     -10.441   8.995  71.747  1.00  0.00    -0.418 A  
HETATM   20  C   UNL     1     -10.188   7.883  72.562  1.00  0.00    -0.342 A  
HETATM   21  C   UNL     1     -10.301   6.574  72.082  1.00  0.00    -0.198 A  
HETATM   22  C   UNL     1     -10.947   7.542  69.930  1.00  0.00    -0.223 A  
HETATM   23  C   UNL     1     -10.714   6.425  70.754  1.00  0.00    -0.302 A  
BRANCH  21  24
HETATM   24  N   UNL     1      -9.906   5.462  72.895  1.00  0.00    -0.158 N  
HETATM   25  C   UNL     1     -10.867   4.778  73.762  1.00  0.00    -0.310 C  
HETATM   26  C   UNL     1     -10.726   3.261  73.666  1.00  0.00    -0.212 C  
HETATM   27  O   UNL     1      -9.406   2.879  74.044  1.00  0.00    -0.081 OA 
HETATM   28  C   UNL     1      -8.454   3.489  73.186  1.00  0.00    -0.082 C  
HETATM   29  C   UNL     1      -8.576   5.004  72.949  1.00  0.00    -0.118 C  
HETATM   30  O   UNL     1      -7.574   5.679  72.716  1.00  0.00    -0.095 OA 
ENDBRANCH  21  24
ENDBRANCH  14  18
ENDBRANCH  11  12
ENDBRANCH   8  11
ENDBRANCH   5   7
TORSDOF 5
ENDMDL
MODEL       39
REMARK 921   NORMALIZED FREE ENERGY PREDICTED BY IDOCK:   -6.08 KCAL/MOL
REMARK 922        TOTAL FREE ENERGY PREDICTED BY IDOCK:   -8.42 KCAL/MOL
REMARK 923 INTER-LIGAND FREE ENERGY PREDICTED BY IDOCK:   -7.53 KCAL/MOL
REMARK 924 INTRA-LIGAND FREE ENERGY PREDICTED BY IDOCK:   -0.89 KCAL/MOL
REMARK 927      BINDING AFFINITY PREDICTED BY RF-SCORE:    0.00 PKD
ROOT
HETATM    1 CL   UNL     1      -7.293   5.012  66.930  1.00  0.00    -0.084 Cl 
HETATM    2  C   UNL     1      -8.508   6.193  67.224  1.00  0.00    -0.104 A  
HETATM    3  C   UNL     1      -9.741   6.260  66.634  1.00  0.00    -0.195 A  
HETATM    4  C   UNL     1     -10.478   7.383  67.122  1.00  0.00    -0.403 A  
HETATM    5  C   UNL     1      -9.774   8.114  68.068  1.00  0.00    -0.161 A  
HETATM    6  S   UNL     1      -8.221   7.427  68.340  1.00  0.00    -0.126 SA 
ENDROOT
BRANCH   5   7
HETATM    7  C   UNL     1     -10.226   9.312  68.765  1.00  0.00    -0.205 C  
HETATM    8  N   UNL     1     -11.296   9.972  68.188  1.00  0.00    -0.530 N  
HETATM    9  O   UNL     1      -9.713   9.723  69.801  1.00  0.00    -0.202 OA 
HETATM   10  H   UNL     1     -11.624   9.668  67.271  1.00  0.00     0.000 HD 
BRANCH   8  11
HETATM   11  C   UNL     1     -11.971  11.082  68.840  1.00  0.00    -0.262 C  
BRANCH  11  12
HETATM   12  C   UNL     1     -11.742  12.388  68.090  1.00  0.00    -0.353 C  
HETATM   13  C   UNL     1     -10.397  13.022  68.346  1.00  0.00    -0.252 C  
HETATM   14  N   UNL     1     -10.229  13.787  67.145  1.00  0.00    -0.242 N  
HETATM   15  C   UNL     1     -10.936  13.153  66.129  1.00  0.00    -0.283 C  
HETATM   16  O   UNL     1     -11.715  12.154  66.674  1.00  0.00    -0.493 OA 
HETATM   17  O   UNL     1     -10.929  13.363  64.927  1.00  0.00    -0.311 OA 
BRANCH  14  18
HETATM   18  C   UNL     1      -9.442  14.961  67.040  1.00  0.00    -0.229 A  
HETATM   19  C   UNL     1     -10.025  16.221  66.923  1.00  0.00    -0.263 A  
HETATM   20  C   UNL     1      -9.244  17.381  66.822  1.00  0.00    -0.274 A  
HETATM   21  C   UNL     1      -7.846  17.335  66.846  1.00  0.00    -0.218 A  
HETATM   22  C   UNL     1      -8.045  14.909  67.090  1.00  0.00    -0.239 A  
HETATM   23  C   UNL     1      -7.262  16.076  67.011  1.00  0.00    -0.249 A  
BRANCH  21  24
HETATM   24  N   UNL     1      -7.073  18.518  66.606  1.00  0.00    -0.201 N  
HETATM   25  C   UNL     1      -6.328  18.697  65.358  1.00  0.00    -0.279 C  
HETATM   26  C   UNL     1      -6.504  20.106  64.799  1.00  0.00    -0.270 C  
HETATM   27  O   UNL     1      -6.045  21.059  65.754  1.00  0.00    -0.244 OA 
HETATM   28  C   UNL     1      -6.785  20.942  66.959  1.00  0.00    -0.330 C  
HETATM   29  C   UNL     1      -6.939  19.537  67.568  1.00  0.00    -0.213 C  
HETATM   30  O   UNL     1      -7.050  19.396  68.785  1.00  0.00    -0.316 OA 
ENDBRANCH  21  24
ENDBRANCH  14  18
ENDBRANCH  11  12
ENDBRANCH   8  11
ENDBRANCH   5   7
TORSDOF 5
ENDMDL
MODEL       40
REMARK 921   NORMALIZED FREE ENERGY PREDICTED BY IDOCK:   -6.08 KCAL/MOL
REMARK 922        TOTAL FREE ENERGY PREDICTED BY IDOCK:   -8.41 KCAL/MOL
REMARK 923 INTER-LIGAND FREE ENERGY PREDICTED BY IDOCK:   -7.88 KCAL/MOL
REMARK 924 INTRA-LIGAND FREE ENERGY PREDICTED BY IDOCK:   -0.53 KCAL/MOL
REMARK 927      BINDING AFFINITY PREDICTED BY RF-SCORE:    0.00 PKD
ROOT
HETATM    1 CL   UNL     1      -8.073   3.422  73.911  1.00  0.00    -0.073 Cl 
HETATM    2  C   UNL     1      -9.371   4.351  73.271  1.00  0.00    -0.119 A  
HETATM    3  C   UNL     1     -10.670   4.342  73.700  1.00  0.00    -0.339 A  
HETATM    4  C   UNL     1     -11.468   5.238  72.925  1.00  0.00    -0.339 A  
HETATM    5  C   UNL     1     -10.737   5.895  71.947  1.00  0.00    -0.239 A  
HETATM    6  S   UNL     1      -9.090   5.402  71.980  1.00  0.00    -0.137 SA 
ENDROOT
BRANCH   5   7
HETATM    7  C   UNL     1     -11.236   6.872  70.985  1.00  0.00    -0.282 C  
HETATM    8  N   UNL     1     -10.281   7.705  70.429  1.00  0.00    -0.201 N  
HETATM    9  O   UNL     1     -12.417   6.963  70.669  1.00  0.00    -0.321 OA 
HETATM   10  H   UNL     1      -9.330   7.677  70.798  1.00  0.00     0.000 HD 
BRANCH   8  11
HETATM   11  C   UNL     1     -10.583   8.618  69.339  1.00  0.00    -0.199 C  
BRANCH  11  12
HETATM   12  C   UNL     1     -10.537  10.069  69.802  1.00  0.00    -0.267 C  
HETATM   13  C   UNL     1     -10.541  11.077  68.681  1.00  0.00    -0.196 C  
HETATM   14  N   UNL     1     -11.095  12.219  69.349  1.00  0.00    -0.157 N  
HETATM   15  C   UNL     1     -11.912  11.759  70.377  1.00  0.00    -0.332 C  
HETATM   16  O   UNL     1     -11.730  10.401  70.528  1.00  0.00    -0.291 OA 
HETATM   17  O   UNL     1     -12.700  12.373  71.077  1.00  0.00    -0.326 OA 
BRANCH  14  18
HETATM   18  C   UNL     1     -10.859  13.565  68.976  1.00  0.00    -0.192 A  
HETATM   19  C   UNL     1     -11.886  14.507  68.959  1.00  0.00    -0.354 A  
HETATM   20  C   UNL     1     -11.649  15.840  68.592  1.00  0.00    -0.392 A  
HETATM   21  C   UNL     1     -10.374  16.293  68.237  1.00  0.00    -0.272 A  
HETATM   22  C   UNL     1      -9.576  14.017  68.646  1.00  0.00    -0.159 A  
HETATM   23  C   UNL     1      -9.335  15.359  68.299  1.00  0.00    -0.193 A  
BRANCH  21  24
HETATM   24  N   UNL     1     -10.185  17.623  67.737  1.00  0.00    -0.337 N  
HETATM   25  C   UNL     1     -10.214  18.781  68.633  1.00  0.00    -0.313 C  
HETATM   26  C   UNL     1      -9.081  19.755  68.324  1.00  0.00    -0.297 C  
HETATM   27  O   UNL     1      -9.194  20.207  66.977  1.00  0.00    -0.345 OA 
HETATM   28  C   UNL     1      -9.119  19.109  66.083  1.00  0.00    -0.224 C  
HETATM   29  C   UNL     1     -10.021  17.895  66.366  1.00  0.00    -0.358 C  
HETATM   30  O   UNL     1     -10.431  17.196  65.441  1.00  0.00    -0.633 OA 
ENDBRANCH  21  24
ENDBRANCH  14  18
ENDBRANCH  11  12
ENDBRANCH   8  11
ENDBRANCH   5   7
TORSDOF 5
ENDMDL
MODEL       41
REMARK 921   NORMALIZED FREE ENERGY PREDICTED BY IDOCK:   -6.07 KCAL/MOL
REMARK 922        TOTAL FREE ENERGY PREDICTED BY IDOCK:   -8.41 KCAL/MOL
REMARK 923 INTER-LIGAND FREE ENERGY PREDICTED BY IDOCK:   -7.86 KCAL/MOL
REMARK 924 INTRA-LIGAND FREE ENERGY PREDICTED BY IDOCK:   -0.55 KCAL/MOL
REMARK 927      BINDING AFFINITY PREDICTED BY RF-SCORE:    0.00 PKD
ROOT
HETATM    1 CL   UNL     1     -10.221  16.149  65.759  1.00  0.00    -0.379 Cl 
HETATM    2  C   UNL     1     -10.683  15.802  67.379  1.00  0.00    -0.317 A  
HETATM    3  C   UNL     1     -10.246  16.442  68.507  1.00  0.00    -0.257 A  
HETATM    4  C   UNL     1     -10.843  15.876  69.676  1.00  0.00    -0.314 A  
HETATM    5  C   UNL     1     -11.713  14.837  69.382  1.00  0.00    -0.323 A  
HETATM    6  S   UNL     1     -11.783  14.559  67.687  1.00  0.00    -0.370 SA 
ENDROOT
BRANCH   5   7
HETATM    7  C   UNL     1     -12.486  14.044  70.332  1.00  0.00    -0.350 C  
HETATM    8  N   UNL     1     -12.122  12.713  70.434  1.00  0.00    -0.469 N  
HETATM    9  O   UNL     1     -13.396  14.506  71.012  1.00  0.00    -0.369 OA 
HETATM   10  H   UNL     1     -11.440  12.338  69.775  1.00  0.00     0.000 HD 
BRANCH   8  11
HETATM   11  C   UNL     1     -12.677  11.829  71.446  1.00  0.00    -0.308 C  
BRANCH  11  12
HETATM   12  C   UNL     1     -12.688  10.381  70.972  1.00  0.00    -0.394 C  
HETATM   13  C   UNL     1     -11.574   9.536  71.539  1.00  0.00    -0.395 C  
HETATM   14  N   UNL     1     -12.159   8.230  71.452  1.00  0.00    -0.296 N  
HETATM   15  C   UNL     1     -13.541   8.371  71.531  1.00  0.00    -0.297 C  
HETATM   16  O   UNL     1     -13.865   9.708  71.444  1.00  0.00    -0.273 OA 
HETATM   17  O   UNL     1     -14.404   7.519  71.667  1.00  0.00    -0.432 OA 
BRANCH  14  18
HETATM   18  C   UNL     1     -11.424   7.023  71.342  1.00  0.00    -0.276 A  
HETATM   19  C   UNL     1     -10.954   6.351  72.469  1.00  0.00    -0.283 A  
HETATM   20  C   UNL     1     -10.230   5.155  72.358  1.00  0.00    -0.249 A  
HETATM   21  C   UNL     1      -9.952   4.572  71.117  1.00  0.00    -0.187 A  
HETATM   22  C   UNL     1     -11.171   6.433  70.099  1.00  0.00    -0.454 A  
HETATM   23  C   UNL     1     -10.463   5.222  69.990  1.00  0.00    -0.351 A  
BRANCH  21  24
HETATM   24  N   UNL     1      -9.096   3.426  71.025  1.00  0.00    -0.101 N  
HETATM   25  C   UNL     1      -7.956   3.404  70.107  1.00  0.00    -0.046 C  
HETATM   26  C   UNL     1      -6.711   2.827  70.776  1.00  0.00    -0.032 C  
HETATM   27  O   UNL     1      -6.978   1.499  71.217  1.00  0.00    -0.030 OA 
HETATM   28  C   UNL     1      -8.049   1.497  72.148  1.00  0.00    -0.045 C  
HETATM   29  C   UNL     1      -9.333   2.250  71.760  1.00  0.00    -0.108 C  
HETATM   30  O   UNL     1     -10.426   1.874  72.184  1.00  0.00    -0.157 OA 
ENDBRANCH  21  24
ENDBRANCH  14  18
ENDBRANCH  11  12
ENDBRANCH   8  11
ENDBRANCH   5   7
TORSDOF 5
ENDMDL
MODEL       42
REMARK 921   NORMALIZED FREE ENERGY PREDICTED BY IDOCK:   -6.07 KCAL/MOL
REMARK 922        TOTAL FREE ENERGY PREDICTED BY IDOCK:   -8.40 KCAL/MOL
REMARK 923 INTER-LIGAND FREE ENERGY PREDICTED BY IDOCK:   -7.92 KCAL/MOL
REMARK 924 INTRA-LIGAND FREE ENERGY PREDICTED BY IDOCK:   -0.48 KCAL/MOL
REMARK 927      BINDING AFFINITY PREDICTED BY RF-SCORE:    0.00 PKD
ROOT
HETATM    1 CL   UNL     1      -8.545  20.812  67.378  1.00  0.00    -0.314 Cl 
HETATM    2  C   UNL     1      -8.909  19.249  66.760  1.00  0.00    -0.317 A  
HETATM    3  C   UNL     1      -8.101  18.146  66.805  1.00  0.00    -0.266 A  
HETATM    4  C   UNL     1      -8.736  17.025  66.185  1.00  0.00    -0.254 A  
HETATM    5  C   UNL     1     -10.002  17.326  65.706  1.00  0.00    -0.084 A  
HETATM    6  S   UNL     1     -10.395  18.973  66.007  1.00  0.00    -0.379 SA 
ENDROOT
BRANCH   5   7
HETATM    7  C   UNL     1     -10.920  16.421  65.023  1.00  0.00    -0.252 C  
HETATM    8  N   UNL     1     -10.960  15.128  65.513  1.00  0.00    -0.349 N  
HETATM    9  O   UNL     1     -11.626  16.763  64.080  1.00  0.00    -1.195 OA 
HETATM   10  H   UNL     1     -10.280  14.850  66.221  1.00  0.00     0.000 HD 
BRANCH   8  11
HETATM   11  C   UNL     1     -11.934  14.151  65.055  1.00  0.00    -0.408 C  
BRANCH  11  12
HETATM   12  C   UNL     1     -12.095  13.017  66.059  1.00  0.00    -0.432 C  
HETATM   13  C   UNL     1     -10.920  12.074  66.122  1.00  0.00    -0.302 C  
HETATM   14  N   UNL     1     -11.057  11.564  67.455  1.00  0.00    -0.254 N  
HETATM   15  C   UNL     1     -11.691  12.535  68.223  1.00  0.00    -0.340 C  
HETATM   16  O   UNL     1     -12.154  13.536  67.397  1.00  0.00    -0.369 OA 
HETATM   17  O   UNL     1     -11.852  12.589  69.432  1.00  0.00    -0.305 OA 
BRANCH  14  18
HETATM   18  C   UNL     1     -10.584  10.300  67.888  1.00  0.00    -0.239 A  
HETATM   19  C   UNL     1     -10.035  10.123  69.157  1.00  0.00    -0.221 A  
HETATM   20  C   UNL     1      -9.570   8.871  69.584  1.00  0.00    -0.170 A  
HETATM   21  C   UNL     1      -9.642   7.738  68.767  1.00  0.00    -0.154 A  
HETATM   22  C   UNL     1     -10.682   9.166  67.075  1.00  0.00    -0.189 A  
HETATM   23  C   UNL     1     -10.235   7.906  67.512  1.00  0.00    -0.308 A  
BRANCH  21  24
HETATM   24  N   UNL     1      -9.038   6.504  69.175  1.00  0.00    -0.136 N  
HETATM   25  C   UNL     1      -9.527   5.771  70.344  1.00  0.00    -0.166 C  
HETATM   26  C   UNL     1      -9.635   4.275  70.061  1.00  0.00    -0.204 C  
HETATM   27  O   UNL     1      -8.355   3.765  69.694  1.00  0.00    -0.053 OA 
HETATM   28  C   UNL     1      -7.879   4.424  68.532  1.00  0.00    -0.074 C  
HETATM   29  C   UNL     1      -7.917   5.963  68.519  1.00  0.00    -0.102 C  
HETATM   30  O   UNL     1      -7.083   6.599  67.876  1.00  0.00    -0.079 OA 
ENDBRANCH  21  24
ENDBRANCH  14  18
ENDBRANCH  11  12
ENDBRANCH   8  11
ENDBRANCH   5   7
TORSDOF 5
ENDMDL
MODEL       43
REMARK 921   NORMALIZED FREE ENERGY PREDICTED BY IDOCK:   -6.02 KCAL/MOL
REMARK 922        TOTAL FREE ENERGY PREDICTED BY IDOCK:   -8.34 KCAL/MOL
REMARK 923 INTER-LIGAND FREE ENERGY PREDICTED BY IDOCK:   -7.69 KCAL/MOL
REMARK 924 INTRA-LIGAND FREE ENERGY PREDICTED BY IDOCK:   -0.65 KCAL/MOL
REMARK 927      BINDING AFFINITY PREDICTED BY RF-SCORE:    0.00 PKD
ROOT
HETATM    1 CL   UNL     1     -10.855   3.526  73.719  1.00  0.00    -0.301 Cl 
HETATM    2  C   UNL     1     -10.741   5.044  72.917  1.00  0.00    -0.242 A  
HETATM    3  C   UNL     1     -11.778   5.878  72.598  1.00  0.00    -0.247 A  
HETATM    4  C   UNL     1     -11.303   7.047  71.929  1.00  0.00    -0.291 A  
HETATM    5  C   UNL     1      -9.924   7.052  71.777  1.00  0.00    -0.176 A  
HETATM    6  S   UNL     1      -9.230   5.627  72.443  1.00  0.00    -0.143 SA 
ENDROOT
BRANCH   5   7
HETATM    7  C   UNL     1      -9.115   8.087  71.143  1.00  0.00    -0.149 C  
HETATM    8  N   UNL     1      -8.920   7.942  69.781  1.00  0.00    -0.145 N  
HETATM    9  O   UNL     1      -8.635   9.036  71.754  1.00  0.00    -0.353 OA 
HETATM   10  H   UNL     1      -9.238   7.085  69.328  1.00  0.00     0.000 HD 
BRANCH   8  11
HETATM   11  C   UNL     1      -8.281   8.967  68.972  1.00  0.00    -0.119 C  
BRANCH  11  12
HETATM   12  C   UNL     1      -9.247  10.098  68.645  1.00  0.00    -0.157 C  
HETATM   13  C   UNL     1      -8.586  11.439  68.444  1.00  0.00    -0.156 C  
HETATM   14  N   UNL     1      -9.547  12.088  67.601  1.00  0.00    -0.184 N  
HETATM   15  C   UNL     1     -10.215  11.106  66.876  1.00  0.00    -0.222 C  
HETATM   16  O   UNL     1      -9.879   9.867  67.376  1.00  0.00    -0.166 OA 
HETATM   17  O   UNL     1     -10.980  11.221  65.933  1.00  0.00    -0.247 OA 
BRANCH  14  18
HETATM   18  C   UNL     1      -9.730  13.491  67.518  1.00  0.00    -0.228 A  
HETATM   19  C   UNL     1     -10.921  14.094  67.920  1.00  0.00    -0.264 A  
HETATM   20  C   UNL     1     -11.100  15.483  67.841  1.00  0.00    -0.321 A  
HETATM   21  C   UNL     1     -10.093  16.332  67.368  1.00  0.00    -0.260 A  
HETATM   22  C   UNL     1      -8.710  14.335  67.068  1.00  0.00    -0.231 A  
HETATM   23  C   UNL     1      -8.882  15.731  67.009  1.00  0.00    -0.241 A  
BRANCH  21  24
HETATM   24  N   UNL     1     -10.349  17.728  67.170  1.00  0.00    -0.347 N  
HETATM   25  C   UNL     1     -10.486  18.641  68.305  1.00  0.00    -0.270 C  
HETATM   26  C   UNL     1      -9.720  19.941  68.073  1.00  0.00    -0.393 C  
HETATM   27  O   UNL     1     -10.213  20.582  66.899  1.00  0.00    -0.373 OA 
HETATM   28  C   UNL     1     -10.045  19.737  65.772  1.00  0.00    -0.332 C  
HETATM   29  C   UNL     1     -10.537  18.284  65.891  1.00  0.00    -0.254 C  
HETATM   30  O   UNL     1     -10.937  17.680  64.896  1.00  0.00    -0.886 OA 
ENDBRANCH  21  24
ENDBRANCH  14  18
ENDBRANCH  11  12
ENDBRANCH   8  11
ENDBRANCH   5   7
TORSDOF 5
ENDMDL
MODEL       44
REMARK 921   NORMALIZED FREE ENERGY PREDICTED BY IDOCK:   -6.00 KCAL/MOL
REMARK 922        TOTAL FREE ENERGY PREDICTED BY IDOCK:   -8.31 KCAL/MOL
REMARK 923 INTER-LIGAND FREE ENERGY PREDICTED BY IDOCK:   -7.66 KCAL/MOL
REMARK 924 INTRA-LIGAND FREE ENERGY PREDICTED BY IDOCK:   -0.66 KCAL/MOL
REMARK 927      BINDING AFFINITY PREDICTED BY RF-SCORE:    0.00 PKD
ROOT
HETATM    1 CL   UNL     1     -10.485  16.231  68.066  1.00  0.00    -0.283 Cl 
HETATM    2  C   UNL     1     -11.258  15.642  69.485  1.00  0.00    -0.313 A  
HETATM    3  C   UNL     1     -11.361  16.290  70.686  1.00  0.00    -0.321 A  
HETATM    4  C   UNL     1     -12.065  15.489  71.637  1.00  0.00    -0.471 A  
HETATM    5  C   UNL     1     -12.473  14.271  71.112  1.00  0.00    -0.362 A  
HETATM    6  S   UNL     1     -11.983  14.118  69.471  1.00  0.00    -0.349 SA 
ENDROOT
BRANCH   5   7
HETATM    7  C   UNL     1     -13.211  13.220  71.804  1.00  0.00    -0.405 C  
HETATM    8  N   UNL     1     -12.849  11.924  71.481  1.00  0.00    -0.367 N  
HETATM    9  O   UNL     1     -14.092  13.445  72.627  1.00  0.00    -0.767 OA 
HETATM   10  H   UNL     1     -12.194  11.774  70.713  1.00  0.00     0.000 HD 
BRANCH   8  11
HETATM   11  C   UNL     1     -13.367  10.770  72.196  1.00  0.00    -0.209 C  
BRANCH  11  12
HETATM   12  C   UNL     1     -13.112   9.480  71.427  1.00  0.00    -0.370 C  
HETATM   13  C   UNL     1     -11.723   9.369  70.847  1.00  0.00    -0.308 C  
HETATM   14  N   UNL     1     -11.582   7.945  70.761  1.00  0.00    -0.276 N  
HETATM   15  C   UNL     1     -12.377   7.374  71.750  1.00  0.00    -0.333 C  
HETATM   16  O   UNL     1     -13.175   8.349  72.309  1.00  0.00    -0.321 OA 
HETATM   17  O   UNL     1     -12.425   6.219  72.139  1.00  0.00    -0.291 OA 
BRANCH  14  18
HETATM   18  C   UNL     1     -10.742   7.272  69.840  1.00  0.00    -0.242 A  
HETATM   19  C   UNL     1     -11.254   6.361  68.917  1.00  0.00    -0.385 A  
HETATM   20  C   UNL     1     -10.420   5.699  68.004  1.00  0.00    -0.264 A  
HETATM   21  C   UNL     1      -9.040   5.925  67.965  1.00  0.00    -0.117 A  
HETATM   22  C   UNL     1      -9.366   7.522  69.790  1.00  0.00    -0.150 A  
HETATM   23  C   UNL     1      -8.534   6.873  68.859  1.00  0.00    -0.125 A  
BRANCH  21  24
HETATM   24  N   UNL     1      -8.196   5.137  67.117  1.00  0.00    -0.107 N  
HETATM   25  C   UNL     1      -7.236   4.184  67.677  1.00  0.00    -0.067 C  
HETATM   26  C   UNL     1      -7.260   2.857  66.923  1.00  0.00    -0.058 C  
HETATM   27  O   UNL     1      -6.945   3.082  65.551  1.00  0.00    -0.047 OA 
HETATM   28  C   UNL     1      -7.890   3.965  64.969  1.00  0.00    -0.086 C  
HETATM   29  C   UNL     1      -8.199   5.274  65.716  1.00  0.00    -0.119 C  
HETATM   30  O   UNL     1      -8.528   6.282  65.093  1.00  0.00    -0.145 OA 
ENDBRANCH  21  24
ENDBRANCH  14  18
ENDBRANCH  11  12
ENDBRANCH   8  11
ENDBRANCH   5   7
TORSDOF 5
ENDMDL
MODEL       45
REMARK 921   NORMALIZED FREE ENERGY PREDICTED BY IDOCK:   -5.99 KCAL/MOL
REMARK 922        TOTAL FREE ENERGY PREDICTED BY IDOCK:   -8.30 KCAL/MOL
REMARK 923 INTER-LIGAND FREE ENERGY PREDICTED BY IDOCK:   -7.82 KCAL/MOL
REMARK 924 INTRA-LIGAND FREE ENERGY PREDICTED BY IDOCK:   -0.47 KCAL/MOL
REMARK 927      BINDING AFFINITY PREDICTED BY RF-SCORE:    0.00 PKD
ROOT
HETATM    1 CL   UNL     1      -7.181  20.819  67.242  1.00  0.00    -0.400 Cl 
HETATM    2  C   UNL     1      -8.569  19.841  67.512  1.00  0.00    -0.326 A  
HETATM    3  C   UNL     1      -9.845  20.102  67.090  1.00  0.00    -0.586 A  
HETATM    4  C   UNL     1     -10.739  19.068  67.505  1.00  0.00    -0.532 A  
HETATM    5  C   UNL     1     -10.100  18.063  68.217  1.00  0.00    -0.385 A  
HETATM    6  S   UNL     1      -8.422  18.400  68.378  1.00  0.00    -0.326 SA 
ENDROOT
BRANCH   5   7
HETATM    7  C   UNL     1     -10.710  16.866  68.785  1.00  0.00    -0.333 C  
HETATM    8  N   UNL     1     -11.133  15.919  67.870  1.00  0.00    -0.333 N  
HETATM    9  O   UNL     1     -10.842  16.685  69.991  1.00  0.00    -0.329 OA 
HETATM   10  H   UNL     1     -11.110  16.151  66.877  1.00  0.00     0.000 HD 
BRANCH   8  11
HETATM   11  C   UNL     1     -11.609  14.605  68.272  1.00  0.00    -0.326 C  
BRANCH  11  12
HETATM   12  C   UNL     1     -10.865  13.497  67.537  1.00  0.00    -0.264 C  
HETATM   13  C   UNL     1     -11.093  12.117  68.102  1.00  0.00    -0.248 C  
HETATM   14  N   UNL     1     -10.833  11.309  66.946  1.00  0.00    -0.270 N  
HETATM   15  C   UNL     1     -11.131  12.065  65.817  1.00  0.00    -0.324 C  
HETATM   16  O   UNL     1     -11.355  13.372  66.193  1.00  0.00    -0.294 OA 
HETATM   17  O   UNL     1     -11.215  11.719  64.650  1.00  0.00    -0.315 OA 
BRANCH  14  18
HETATM   18  C   UNL     1     -10.386   9.965  66.987  1.00  0.00    -0.239 A  
HETATM   19  C   UNL     1     -10.891   9.057  67.916  1.00  0.00    -0.118 A  
HETATM   20  C   UNL     1     -10.450   7.726  67.953  1.00  0.00    -0.263 A  
HETATM   21  C   UNL     1      -9.492   7.241  67.056  1.00  0.00    -0.156 A  
HETATM   22  C   UNL     1      -9.446   9.480  66.071  1.00  0.00    -0.294 A  
HETATM   23  C   UNL     1      -9.019   8.139  66.095  1.00  0.00    -0.218 A  
BRANCH  21  24
HETATM   24  N   UNL     1      -8.960   5.918  67.202  1.00  0.00    -0.114 N  
HETATM   25  C   UNL     1      -7.546   5.699  67.510  1.00  0.00    -0.089 C  
HETATM   26  C   UNL     1      -7.367   4.631  68.586  1.00  0.00    -0.061 C  
HETATM   27  O   UNL     1      -7.941   3.405  68.141  1.00  0.00    -0.073 OA 
HETATM   28  C   UNL     1      -9.325   3.576  67.883  1.00  0.00    -0.187 C  
HETATM   29  C   UNL     1      -9.744   4.766  67.003  1.00  0.00    -0.186 C  
HETATM   30  O   UNL     1     -10.752   4.695  66.300  1.00  0.00    -0.236 OA 
ENDBRANCH  21  24
ENDBRANCH  14  18
ENDBRANCH  11  12
ENDBRANCH   8  11
ENDBRANCH   5   7
TORSDOF 5
ENDMDL
MODEL       46
REMARK 921   NORMALIZED FREE ENERGY PREDICTED BY IDOCK:   -5.97 KCAL/MOL
REMARK 922        TOTAL FREE ENERGY PREDICTED BY IDOCK:   -8.28 KCAL/MOL
REMARK 923 INTER-LIGAND FREE ENERGY PREDICTED BY IDOCK:   -7.44 KCAL/MOL
REMARK 924 INTRA-LIGAND FREE ENERGY PREDICTED BY IDOCK:   -0.84 KCAL/MOL
REMARK 927      BINDING AFFINITY PREDICTED BY RF-SCORE:    0.00 PKD
ROOT
HETATM    1 CL   UNL     1      -5.164  19.220  71.512  1.00  0.00    -0.337 Cl 
HETATM    2  C   UNL     1      -5.861  19.572  69.979  1.00  0.00    -0.269 A  
HETATM    3  C   UNL     1      -5.748  20.744  69.282  1.00  0.00    -0.390 A  
HETATM    4  C   UNL     1      -6.467  20.673  68.049  1.00  0.00    -0.355 A  
HETATM    5  C   UNL     1      -7.086  19.446  67.862  1.00  0.00    -0.256 A  
HETATM    6  S   UNL     1      -6.791  18.402  69.196  1.00  0.00    -0.203 SA 
ENDROOT
BRANCH   5   7
HETATM    7  C   UNL     1      -7.897  19.037  66.720  1.00  0.00    -0.251 C  
HETATM    8  N   UNL     1      -9.182  18.620  67.018  1.00  0.00    -0.284 N  
HETATM    9  O   UNL     1      -7.490  19.060  65.563  1.00  0.00    -0.476 OA 
HETATM   10  H   UNL     1      -9.447  18.507  67.996  1.00  0.00     0.000 HD 
BRANCH   8  11
HETATM   11  C   UNL     1     -10.168  18.337  65.987  1.00  0.00    -0.323 C  
BRANCH  11  12
HETATM   12  C   UNL     1     -10.717  16.922  66.118  1.00  0.00    -0.109 C  
HETATM   13  C   UNL     1      -9.698  15.838  65.871  1.00  0.00    -0.354 C  
HETATM   14  N   UNL     1     -10.269  14.758  66.623  1.00  0.00    -0.264 N  
HETATM   15  C   UNL     1     -11.018  15.306  67.659  1.00  0.00    -0.311 C  
HETATM   16  O   UNL     1     -11.127  16.667  67.470  1.00  0.00    -0.207 OA 
HETATM   17  O   UNL     1     -11.527  14.760  68.624  1.00  0.00    -0.274 OA 
BRANCH  14  18
HETATM   18  C   UNL     1     -10.055  13.384  66.351  1.00  0.00    -0.292 A  
HETATM   19  C   UNL     1      -9.222  12.604  67.151  1.00  0.00    -0.214 A  
HETATM   20  C   UNL     1      -9.014  11.244  66.881  1.00  0.00    -0.163 A  
HETATM   21  C   UNL     1      -9.638  10.599  65.807  1.00  0.00    -0.210 A  
HETATM   22  C   UNL     1     -10.702  12.741  65.290  1.00  0.00    -0.319 A  
HETATM   23  C   UNL     1     -10.510  11.371  65.033  1.00  0.00    -0.361 A  
BRANCH  21  24
HETATM   24  N   UNL     1      -9.304   9.246  65.475  1.00  0.00    -0.241 N  
HETATM   25  C   UNL     1      -8.523   8.931  64.277  1.00  0.00    -0.149 C  
HETATM   26  C   UNL     1      -7.441   7.896  64.572  1.00  0.00    -0.099 C  
HETATM   27  O   UNL     1      -8.044   6.701  65.061  1.00  0.00    -0.124 OA 
HETATM   28  C   UNL     1      -8.768   6.968  66.252  1.00  0.00    -0.146 C  
HETATM   29  C   UNL     1      -9.750   8.152  66.238  1.00  0.00    -0.153 C  
HETATM   30  O   UNL     1     -10.757   8.131  66.945  1.00  0.00    -0.309 OA 
ENDBRANCH  21  24
ENDBRANCH  14  18
ENDBRANCH  11  12
ENDBRANCH   8  11
ENDBRANCH   5   7
TORSDOF 5
ENDMDL
MODEL       47
REMARK 921   NORMALIZED FREE ENERGY PREDICTED BY IDOCK:   -5.97 KCAL/MOL
REMARK 922        TOTAL FREE ENERGY PREDICTED BY IDOCK:   -8.27 KCAL/MOL
REMARK 923 INTER-LIGAND FREE ENERGY PREDICTED BY IDOCK:   -7.47 KCAL/MOL
REMARK 924 INTRA-LIGAND FREE ENERGY PREDICTED BY IDOCK:   -0.80 KCAL/MOL
REMARK 927      BINDING AFFINITY PREDICTED BY RF-SCORE:    0.00 PKD
ROOT
HETATM    1 CL   UNL     1     -14.197  13.764  72.425  1.00  0.00    -0.594 Cl 
HETATM    2  C   UNL     1     -12.955  14.653  71.634  1.00  0.00    -0.335 A  
HETATM    3  C   UNL     1     -12.440  15.859  72.024  1.00  0.00    -0.534 A  
HETATM    4  C   UNL     1     -11.426  16.296  71.118  1.00  0.00    -0.364 A  
HETATM    5  C   UNL     1     -11.209  15.396  70.085  1.00  0.00    -0.302 A  
HETATM    6  S   UNL     1     -12.252  14.037  70.228  1.00  0.00    -0.372 SA 
ENDROOT
BRANCH   5   7
HETATM    7  C   UNL     1     -10.251  15.528  68.992  1.00  0.00    -0.229 C  
HETATM    8  N   UNL     1     -10.606  14.908  67.808  1.00  0.00    -0.258 N  
HETATM    9  O   UNL     1      -9.198  16.150  69.091  1.00  0.00    -0.241 OA 
HETATM   10  H   UNL     1     -11.431  14.308  67.796  1.00  0.00     0.000 HD 
BRANCH   8  11
HETATM   11  C   UNL     1      -9.847  15.080  66.580  1.00  0.00    -0.254 C  
BRANCH  11  12
HETATM   12  C   UNL     1      -9.579  13.742  65.902  1.00  0.00    -0.128 C  
HETATM   13  C   UNL     1      -9.777  12.544  66.796  1.00  0.00    -0.234 C  
HETATM   14  N   UNL     1     -10.064  11.529  65.824  1.00  0.00    -0.227 N  
HETATM   15  C   UNL     1     -10.641  12.146  64.718  1.00  0.00    -0.296 C  
HETATM   16  O   UNL     1     -10.532  13.513  64.852  1.00  0.00    -0.360 OA 
HETATM   17  O   UNL     1     -11.186  11.648  63.746  1.00  0.00    -0.388 OA 
BRANCH  14  18
HETATM   18  C   UNL     1      -9.823  10.145  66.008  1.00  0.00    -0.246 A  
HETATM   19  C   UNL     1     -10.474   9.418  67.003  1.00  0.00    -0.302 A  
HETATM   20  C   UNL     1     -10.237   8.048  67.181  1.00  0.00    -0.362 A  
HETATM   21  C   UNL     1      -9.347   7.340  66.366  1.00  0.00    -0.150 A  
HETATM   22  C   UNL     1      -8.951   9.439  65.173  1.00  0.00    -0.258 A  
HETATM   23  C   UNL     1      -8.729   8.059  65.338  1.00  0.00    -0.101 A  
BRANCH  21  24
HETATM   24  N   UNL     1      -9.021   5.975  66.655  1.00  0.00    -0.124 N  
HETATM   25  C   UNL     1      -7.695   5.600  67.150  1.00  0.00    -0.101 C  
HETATM   26  C   UNL     1      -7.789   4.602  68.300  1.00  0.00    -0.081 C  
HETATM   27  O   UNL     1      -8.469   3.429  67.861  1.00  0.00    -0.086 OA 
HETATM   28  C   UNL     1      -9.778   3.756  67.422  1.00  0.00    -0.093 C  
HETATM   29  C   UNL     1      -9.926   4.921  66.428  1.00  0.00    -0.234 C  
HETATM   30  O   UNL     1     -10.846   4.927  65.610  1.00  0.00    -0.223 OA 
ENDBRANCH  21  24
ENDBRANCH  14  18
ENDBRANCH  11  12
ENDBRANCH   8  11
ENDBRANCH   5   7
TORSDOF 5
ENDMDL
MODEL       48
REMARK 921   NORMALIZED FREE ENERGY PREDICTED BY IDOCK:   -5.96 KCAL/MOL
REMARK 922        TOTAL FREE ENERGY PREDICTED BY IDOCK:   -8.26 KCAL/MOL
REMARK 923 INTER-LIGAND FREE ENERGY PREDICTED BY IDOCK:   -7.53 KCAL/MOL
REMARK 924 INTRA-LIGAND FREE ENERGY PREDICTED BY IDOCK:   -0.73 KCAL/MOL
REMARK 927      BINDING AFFINITY PREDICTED BY RF-SCORE:    0.00 PKD
ROOT
HETATM    1 CL   UNL     1      -6.317   3.449  69.515  1.00  0.00    -0.028 Cl 
HETATM    2  C   UNL     1      -7.661   4.100  68.663  1.00  0.00    -0.062 A  
HETATM    3  C   UNL     1      -8.746   3.406  68.199  1.00  0.00    -0.136 A  
HETATM    4  C   UNL     1      -9.660   4.279  67.533  1.00  0.00    -0.217 A  
HETATM    5  C   UNL     1      -9.233   5.599  67.529  1.00  0.00    -0.109 A  
HETATM    6  S   UNL     1      -7.718   5.753  68.328  1.00  0.00    -0.093 SA 
ENDROOT
BRANCH   5   7
HETATM    7  C   UNL     1      -9.920   6.742  66.939  1.00  0.00    -0.191 C  
HETATM    8  N   UNL     1      -9.100   7.732  66.426  1.00  0.00    -0.168 N  
HETATM    9  O   UNL     1     -11.141   6.839  66.883  1.00  0.00    -0.397 OA 
HETATM   10  H   UNL     1      -8.095   7.672  66.590  1.00  0.00     0.000 HD 
BRANCH   8  11
HETATM   11  C   UNL     1      -9.619   8.854  65.661  1.00  0.00    -0.105 C  
BRANCH  11  12
HETATM   12  C   UNL     1      -9.718  10.110  66.517  1.00  0.00    -0.200 C  
HETATM   13  C   UNL     1      -9.713  11.398  65.730  1.00  0.00    -0.233 C  
HETATM   14  N   UNL     1     -10.401  12.269  66.638  1.00  0.00    -0.213 N  
HETATM   15  C   UNL     1     -11.257  11.492  67.413  1.00  0.00    -0.304 C  
HETATM   16  O   UNL     1     -10.984  10.159  67.191  1.00  0.00    -0.235 OA 
HETATM   17  O   UNL     1     -12.140  11.837  68.180  1.00  0.00    -0.556 OA 
BRANCH  14  18
HETATM   18  C   UNL     1     -10.239  13.675  66.685  1.00  0.00    -0.276 A  
HETATM   19  C   UNL     1     -10.677  14.494  65.644  1.00  0.00    -0.335 A  
HETATM   20  C   UNL     1     -10.519  15.886  65.694  1.00  0.00    -0.411 A  
HETATM   21  C   UNL     1      -9.927  16.524  66.789  1.00  0.00    -0.276 A  
HETATM   22  C   UNL     1      -9.668  14.309  67.794  1.00  0.00    -0.222 A  
HETATM   23  C   UNL     1      -9.530  15.708  67.852  1.00  0.00    -0.204 A  
BRANCH  21  24
HETATM   24  N   UNL     1      -9.655  17.931  66.754  1.00  0.00    -0.293 N  
HETATM   25  C   UNL     1     -10.693  18.911  67.079  1.00  0.00    -0.402 C  
HETATM   26  C   UNL     1     -10.156  20.013  67.988  1.00  0.00    -0.420 C  
HETATM   27  O   UNL     1      -9.073  20.679  67.344  1.00  0.00    -0.358 OA 
HETATM   28  C   UNL     1      -8.030  19.760  67.063  1.00  0.00    -0.289 C  
HETATM   29  C   UNL     1      -8.408  18.446  66.357  1.00  0.00    -0.251 C  
HETATM   30  O   UNL     1      -7.601  17.886  65.615  1.00  0.00    -0.546 OA 
ENDBRANCH  21  24
ENDBRANCH  14  18
ENDBRANCH  11  12
ENDBRANCH   8  11
ENDBRANCH   5   7
TORSDOF 5
ENDMDL
MODEL       49
REMARK 921   NORMALIZED FREE ENERGY PREDICTED BY IDOCK:   -5.94 KCAL/MOL
REMARK 922        TOTAL FREE ENERGY PREDICTED BY IDOCK:   -8.23 KCAL/MOL
REMARK 923 INTER-LIGAND FREE ENERGY PREDICTED BY IDOCK:   -7.52 KCAL/MOL
REMARK 924 INTRA-LIGAND FREE ENERGY PREDICTED BY IDOCK:   -0.71 KCAL/MOL
REMARK 927      BINDING AFFINITY PREDICTED BY RF-SCORE:    0.00 PKD
ROOT
HETATM    1 CL   UNL     1      -6.743   5.627  74.029  1.00  0.00    -0.079 Cl 
HETATM    2  C   UNL     1      -7.914   6.418  73.049  1.00  0.00    -0.106 A  
HETATM    3  C   UNL     1      -8.383   7.694  73.208  1.00  0.00    -0.193 A  
HETATM    4  C   UNL     1      -9.355   8.007  72.208  1.00  0.00    -0.259 A  
HETATM    5  C   UNL     1      -9.574   6.956  71.329  1.00  0.00    -0.165 A  
HETATM    6  S   UNL     1      -8.600   5.601  71.741  1.00  0.00    -0.136 SA 
ENDROOT
BRANCH   5   7
HETATM    7  C   UNL     1     -10.495   6.936  70.198  1.00  0.00    -0.209 C  
HETATM    8  N   UNL     1      -9.930   7.198  68.962  1.00  0.00    -0.170 N  
HETATM    9  O   UNL     1     -11.693   6.697  70.309  1.00  0.00    -0.389 OA 
HETATM   10  H   UNL     1      -8.958   7.503  68.922  1.00  0.00     0.000 HD 
BRANCH   8  11
HETATM   11  C   UNL     1     -10.672   7.056  67.721  1.00  0.00    -0.231 C  
BRANCH  11  12
HETATM   12  C   UNL     1     -10.607   8.329  66.886  1.00  0.00    -0.232 C  
HETATM   13  C   UNL     1     -10.654   9.602  67.694  1.00  0.00    -0.275 C  
HETATM   14  N   UNL     1      -9.987  10.508  66.804  1.00  0.00    -0.196 N  
HETATM   15  C   UNL     1      -9.105   9.770  66.022  1.00  0.00    -0.162 C  
HETATM   16  O   UNL     1      -9.339   8.426  66.220  1.00  0.00    -0.196 OA 
HETATM   17  O   UNL     1      -8.228  10.154  65.265  1.00  0.00    -0.144 OA 
BRANCH  14  18
HETATM   18  C   UNL     1     -10.190  11.910  66.780  1.00  0.00    -0.206 A  
HETATM   19  C   UNL     1      -9.158  12.801  67.069  1.00  0.00    -0.220 A  
HETATM   20  C   UNL     1      -9.360  14.188  67.042  1.00  0.00    -0.253 A  
HETATM   21  C   UNL     1     -10.600  14.748  66.714  1.00  0.00    -0.302 A  
HETATM   22  C   UNL     1     -11.426  12.463  66.427  1.00  0.00    -0.427 A  
HETATM   23  C   UNL     1     -11.623  13.855  66.379  1.00  0.00    -0.382 A  
BRANCH  21  24
HETATM   24  N   UNL     1     -10.815  16.160  66.825  1.00  0.00    -0.228 N  
HETATM   25  C   UNL     1     -11.121  16.781  68.115  1.00  0.00    -0.254 C  
HETATM   26  C   UNL     1     -10.322  18.064  68.322  1.00  0.00    -0.380 C  
HETATM   27  O   UNL     1     -10.624  18.988  67.279  1.00  0.00    -0.425 OA 
HETATM   28  C   UNL     1     -10.290  18.431  66.018  1.00  0.00    -0.375 C  
HETATM   29  C   UNL     1     -10.801  17.014  65.706  1.00  0.00    -0.046 C  
HETATM   30  O   UNL     1     -11.046  16.683  64.547  1.00  0.00    -0.886 OA 
ENDBRANCH  21  24
ENDBRANCH  14  18
ENDBRANCH  11  12
ENDBRANCH   8  11
ENDBRANCH   5   7
TORSDOF 5
ENDMDL
MODEL       50
REMARK 921   NORMALIZED FREE ENERGY PREDICTED BY IDOCK:   -5.93 KCAL/MOL
REMARK 922        TOTAL FREE ENERGY PREDICTED BY IDOCK:   -8.22 KCAL/MOL
REMARK 923 INTER-LIGAND FREE ENERGY PREDICTED BY IDOCK:   -7.85 KCAL/MOL
REMARK 924 INTRA-LIGAND FREE ENERGY PREDICTED BY IDOCK:   -0.37 KCAL/MOL
REMARK 927      BINDING AFFINITY PREDICTED BY RF-SCORE:    0.00 PKD
ROOT
HETATM    1 CL   UNL     1     -10.496   3.501  62.757  1.00  0.00    -0.185 Cl 
HETATM    2  C   UNL     1      -9.929   3.241  64.360  1.00  0.00    -0.145 A  
HETATM    3  C   UNL     1      -9.292   2.125  64.829  1.00  0.00    -0.108 A  
HETATM    4  C   UNL     1      -8.975   2.264  66.215  1.00  0.00    -0.114 A  
HETATM    5  C   UNL     1      -9.379   3.485  66.735  1.00  0.00    -0.182 A  
HETATM    6  S   UNL     1     -10.148   4.439  65.529  1.00  0.00    -0.209 SA 
ENDROOT
BRANCH   5   7
HETATM    7  C   UNL     1      -9.213   3.953  68.107  1.00  0.00    -0.156 C  
HETATM    8  N   UNL     1     -10.013   5.020  68.475  1.00  0.00    -0.156 N  
HETATM    9  O   UNL     1      -8.429   3.445  68.902  1.00  0.00    -0.070 OA 
HETATM   10  H   UNL     1     -10.569   5.488  67.758  1.00  0.00     0.000 HD 
BRANCH   8  11
HETATM   11  C   UNL     1     -10.091   5.499  69.845  1.00  0.00    -0.235 C  
BRANCH  11  12
HETATM   12  C   UNL     1      -9.954   7.015  69.911  1.00  0.00    -0.177 C  
HETATM   13  C   UNL     1     -10.652   7.749  68.794  1.00  0.00    -0.135 C  
HETATM   14  N   UNL     1     -10.882   9.022  69.413  1.00  0.00    -0.186 N  
HETATM   15  C   UNL     1     -10.981   8.820  70.786  1.00  0.00    -0.247 C  
HETATM   16  O   UNL     1     -10.610   7.527  71.082  1.00  0.00    -0.220 OA 
HETATM   17  O   UNL     1     -11.338   9.591  71.662  1.00  0.00    -0.383 OA 
BRANCH  14  18
HETATM   18  C   UNL     1     -11.017  10.247  68.713  1.00  0.00    -0.243 A  
HETATM   19  C   UNL     1     -10.591  10.381  67.392  1.00  0.00    -0.321 A  
HETATM   20  C   UNL     1     -10.729  11.593  66.700  1.00  0.00    -0.310 A  
HETATM   21  C   UNL     1     -11.307  12.721  67.292  1.00  0.00    -0.314 A  
HETATM   22  C   UNL     1     -11.618  11.363  69.303  1.00  0.00    -0.384 A  
HETATM   23  C   UNL     1     -11.775  12.572  68.601  1.00  0.00    -0.368 A  
BRANCH  21  24
HETATM   24  N   UNL     1     -11.311  13.981  66.610  1.00  0.00    -0.324 N  
HETATM   25  C   UNL     1     -10.482  15.096  67.072  1.00  0.00    -0.282 C  
HETATM   26  C   UNL     1      -9.779  15.789  65.909  1.00  0.00    -0.354 C  
HETATM   27  O   UNL     1     -10.750  16.283  64.989  1.00  0.00    -0.600 OA 
HETATM   28  C   UNL     1     -11.537  15.215  64.486  1.00  0.00    -0.329 C  
HETATM   29  C   UNL     1     -12.145  14.236  65.505  1.00  0.00    -0.394 C  
HETATM   30  O   UNL     1     -13.210  13.670  65.263  1.00  0.00    -0.724 OA 
ENDBRANCH  21  24
ENDBRANCH  14  18
ENDBRANCH  11  12
ENDBRANCH   8  11
ENDBRANCH   5   7
TORSDOF 5
ENDMDL
MODEL       51
REMARK 921   NORMALIZED FREE ENERGY PREDICTED BY IDOCK:   -5.92 KCAL/MOL
REMARK 922        TOTAL FREE ENERGY PREDICTED BY IDOCK:   -8.21 KCAL/MOL
REMARK 923 INTER-LIGAND FREE ENERGY PREDICTED BY IDOCK:   -7.70 KCAL/MOL
REMARK 924 INTRA-LIGAND FREE ENERGY PREDICTED BY IDOCK:   -0.50 KCAL/MOL
REMARK 927      BINDING AFFINITY PREDICTED BY RF-SCORE:    0.00 PKD
ROOT
HETATM    1 CL   UNL     1     -10.796   4.575  73.751  1.00  0.00    -0.340 Cl 
HETATM    2  C   UNL     1     -10.473   5.837  72.628  1.00  0.00    -0.208 A  
HETATM    3  C   UNL     1      -9.243   6.236  72.181  1.00  0.00    -0.144 A  
HETATM    4  C   UNL     1      -9.364   7.320  71.258  1.00  0.00    -0.155 A  
HETATM    5  C   UNL     1     -10.683   7.691  71.040  1.00  0.00    -0.228 A  
HETATM    6  S   UNL     1     -11.753   6.719  71.970  1.00  0.00    -0.310 SA 
ENDROOT
BRANCH   5   7
HETATM    7  C   UNL     1     -11.162   8.753  70.163  1.00  0.00    -0.152 C  
HETATM    8  N   UNL     1     -12.264   9.454  70.621  1.00  0.00    -0.478 N  
HETATM    9  O   UNL     1     -10.635   9.031  69.091  1.00  0.00    -0.227 OA 
HETATM   10  H   UNL     1     -12.743   9.123  71.458  1.00  0.00     0.000 HD 
BRANCH   8  11
HETATM   11  C   UNL     1     -12.764  10.643  69.951  1.00  0.00    -0.015 C  
BRANCH  11  12
HETATM   12  C   UNL     1     -11.948  11.874  70.324  1.00  0.00    -0.330 C  
HETATM   13  C   UNL     1     -11.603  12.766  69.157  1.00  0.00    -0.319 C  
HETATM   14  N   UNL     1     -11.429  14.023  69.823  1.00  0.00    -0.251 N  
HETATM   15  C   UNL     1     -12.221  14.017  70.966  1.00  0.00    -0.353 C  
HETATM   16  O   UNL     1     -12.714  12.746  71.170  1.00  0.00    -0.359 OA 
HETATM   17  O   UNL     1     -12.503  14.932  71.722  1.00  0.00    -0.309 OA 
BRANCH  14  18
HETATM   18  C   UNL     1     -10.611  15.080  69.350  1.00  0.00    -0.256 A  
HETATM   19  C   UNL     1      -9.281  14.867  68.992  1.00  0.00    -0.176 A  
HETATM   20  C   UNL     1      -8.475  15.914  68.521  1.00  0.00    -0.184 A  
HETATM   21  C   UNL     1      -8.965  17.216  68.376  1.00  0.00    -0.259 A  
HETATM   22  C   UNL     1     -11.115  16.374  69.185  1.00  0.00    -0.303 A  
HETATM   23  C   UNL     1     -10.312  17.419  68.692  1.00  0.00    -0.364 A  
BRANCH  21  24
HETATM   24  N   UNL     1      -8.085  18.291  68.023  1.00  0.00    -0.262 N  
HETATM   25  C   UNL     1      -7.983  19.491  68.856  1.00  0.00    -0.294 C  
HETATM   26  C   UNL     1      -6.529  19.914  69.050  1.00  0.00    -0.321 C  
HETATM   27  O   UNL     1      -5.935  20.177  67.782  1.00  0.00    -0.199 OA 
HETATM   28  C   UNL     1      -5.975  19.014  66.971  1.00  0.00    -0.169 C  
HETATM   29  C   UNL     1      -7.322  18.281  66.841  1.00  0.00    -0.208 C  
HETATM   30  O   UNL     1      -7.596  17.662  65.814  1.00  0.00    -0.530 OA 
ENDBRANCH  21  24
ENDBRANCH  14  18
ENDBRANCH  11  12
ENDBRANCH   8  11
ENDBRANCH   5   7
TORSDOF 5
ENDMDL
MODEL       52
REMARK 921   NORMALIZED FREE ENERGY PREDICTED BY IDOCK:   -5.91 KCAL/MOL
REMARK 922        TOTAL FREE ENERGY PREDICTED BY IDOCK:   -8.20 KCAL/MOL
REMARK 923 INTER-LIGAND FREE ENERGY PREDICTED BY IDOCK:   -7.61 KCAL/MOL
REMARK 924 INTRA-LIGAND FREE ENERGY PREDICTED BY IDOCK:   -0.59 KCAL/MOL
REMARK 927      BINDING AFFINITY PREDICTED BY RF-SCORE:    0.00 PKD
ROOT
HETATM    1 CL   UNL     1     -12.841  16.152  74.072  1.00  0.00    -0.608 Cl 
HETATM    2  C   UNL     1     -12.724  15.116  72.704  1.00  0.00    -0.380 A  
HETATM    3  C   UNL     1     -13.352  13.912  72.537  1.00  0.00    -0.656 A  
HETATM    4  C   UNL     1     -13.013  13.332  71.276  1.00  0.00    -0.353 A  
HETATM    5  C   UNL     1     -12.148  14.126  70.538  1.00  0.00    -0.350 A  
HETATM    6  S   UNL     1     -11.755  15.563  71.397  1.00  0.00    -0.454 SA 
ENDROOT
BRANCH   5   7
HETATM    7  C   UNL     1     -11.604  13.838  69.216  1.00  0.00    -0.312 C  
HETATM    8  N   UNL     1     -10.541  12.953  69.187  1.00  0.00    -0.441 N  
HETATM    9  O   UNL     1     -12.048  14.329  68.183  1.00  0.00    -0.323 OA 
HETATM   10  H   UNL     1     -10.128  12.653  70.070  1.00  0.00     0.000 HD 
BRANCH   8  11
HETATM   11  C   UNL     1      -9.993  12.435  67.944  1.00  0.00    -0.204 C  
BRANCH  11  12
HETATM   12  C   UNL     1      -9.617  10.964  68.075  1.00  0.00    -0.162 C  
HETATM   13  C   UNL     1     -10.211  10.277  69.280  1.00  0.00    -0.227 C  
HETATM   14  N   UNL     1     -10.225   8.915  68.831  1.00  0.00    -0.202 N  
HETATM   15  C   UNL     1     -10.329   8.921  67.444  1.00  0.00    -0.269 C  
HETATM   16  O   UNL     1     -10.162  10.209  66.982  1.00  0.00    -0.211 OA 
HETATM   17  O   UNL     1     -10.543   7.997  66.676  1.00  0.00    -0.277 OA 
BRANCH  14  18
HETATM   18  C   UNL     1     -10.177   7.785  69.684  1.00  0.00    -0.206 A  
HETATM   19  C   UNL     1      -9.022   7.454  70.391  1.00  0.00    -0.150 A  
HETATM   20  C   UNL     1      -8.978   6.337  71.237  1.00  0.00    -0.139 A  
HETATM   21  C   UNL     1     -10.089   5.507  71.425  1.00  0.00    -0.201 A  
HETATM   22  C   UNL     1     -11.300   6.975  69.886  1.00  0.00    -0.260 A  
HETATM   23  C   UNL     1     -11.261   5.867  70.752  1.00  0.00    -0.281 A  
BRANCH  21  24
HETATM   24  N   UNL     1      -9.977   4.299  72.187  1.00  0.00    -0.173 N  
HETATM   25  C   UNL     1     -10.599   4.174  73.506  1.00  0.00    -0.207 C  
HETATM   26  C   UNL     1     -11.308   2.832  73.665  1.00  0.00    -0.169 C  
HETATM   27  O   UNL     1     -10.369   1.773  73.492  1.00  0.00    -0.091 OA 
HETATM   28  C   UNL     1      -9.787   1.840  72.201  1.00  0.00    -0.127 C  
HETATM   29  C   UNL     1      -9.224   3.196  71.742  1.00  0.00    -0.113 C  
HETATM   30  O   UNL     1      -8.274   3.243  70.961  1.00  0.00    -0.060 OA 
ENDBRANCH  21  24
ENDBRANCH  14  18
ENDBRANCH  11  12
ENDBRANCH   8  11
ENDBRANCH   5   7
TORSDOF 5
ENDMDL
MODEL       53
REMARK 921   NORMALIZED FREE ENERGY PREDICTED BY IDOCK:   -5.90 KCAL/MOL
REMARK 922        TOTAL FREE ENERGY PREDICTED BY IDOCK:   -8.19 KCAL/MOL
REMARK 923 INTER-LIGAND FREE ENERGY PREDICTED BY IDOCK:   -7.40 KCAL/MOL
REMARK 924 INTRA-LIGAND FREE ENERGY PREDICTED BY IDOCK:   -0.78 KCAL/MOL
REMARK 927      BINDING AFFINITY PREDICTED BY RF-SCORE:    0.00 PKD
ROOT
HETATM    1 CL   UNL     1     -10.085   4.825  72.562  1.00  0.00    -0.224 Cl 
HETATM    2  C   UNL     1     -10.603   6.425  72.202  1.00  0.00    -0.220 A  
HETATM    3  C   UNL     1     -11.011   7.372  73.102  1.00  0.00    -0.408 A  
HETATM    4  C   UNL     1     -11.375   8.583  72.436  1.00  0.00    -0.412 A  
HETATM    5  C   UNL     1     -11.218   8.504  71.060  1.00  0.00    -0.268 A  
HETATM    6  S   UNL     1     -10.640   6.952  70.599  1.00  0.00    -0.228 SA 
ENDROOT
BRANCH   5   7
HETATM    7  C   UNL     1     -11.496   9.551  70.084  1.00  0.00    -0.162 C  
HETATM    8  N   UNL     1     -10.906   9.383  68.843  1.00  0.00    -0.383 N  
HETATM    9  O   UNL     1     -12.207  10.522  70.321  1.00  0.00    -0.294 OA 
HETATM   10  H   UNL     1     -10.233   8.627  68.718  1.00  0.00     0.000 HD 
BRANCH   8  11
HETATM   11  C   UNL     1     -11.212  10.244  67.713  1.00  0.00    -0.190 C  
BRANCH  11  12
HETATM   12  C   UNL     1     -10.102  11.260  67.474  1.00  0.00    -0.183 C  
HETATM   13  C   UNL     1     -10.425  12.654  67.953  1.00  0.00    -0.218 C  
HETATM   14  N   UNL     1      -9.106  13.174  68.171  1.00  0.00    -0.198 N  
HETATM   15  C   UNL     1      -8.269  12.106  68.476  1.00  0.00    -0.104 C  
HETATM   16  O   UNL     1      -8.940  10.924  68.246  1.00  0.00    -0.138 OA 
HETATM   17  O   UNL     1      -7.122  12.111  68.892  1.00  0.00    -0.107 OA 
BRANCH  14  18
HETATM   18  C   UNL     1      -8.762  14.547  68.115  1.00  0.00    -0.171 A  
HETATM   19  C   UNL     1      -9.465  15.505  68.845  1.00  0.00    -0.223 A  
HETATM   20  C   UNL     1      -9.120  16.863  68.790  1.00  0.00    -0.254 A  
HETATM   21  C   UNL     1      -8.051  17.324  68.014  1.00  0.00    -0.221 A  
HETATM   22  C   UNL     1      -7.676  14.997  67.356  1.00  0.00    -0.227 A  
HETATM   23  C   UNL     1      -7.317  16.357  67.319  1.00  0.00    -0.209 A  
BRANCH  21  24
HETATM   24  N   UNL     1      -7.806  18.728  67.870  1.00  0.00    -0.257 N  
HETATM   25  C   UNL     1      -7.243  19.516  68.968  1.00  0.00    -0.362 C  
HETATM   26  C   UNL     1      -6.149  20.459  68.476  1.00  0.00    -0.307 C  
HETATM   27  O   UNL     1      -6.687  21.345  67.497  1.00  0.00    -0.546 OA 
HETATM   28  C   UNL     1      -7.195  20.609  66.396  1.00  0.00    -0.150 C  
HETATM   29  C   UNL     1      -8.141  19.434  66.700  1.00  0.00    -0.295 C  
HETATM   30  O   UNL     1      -9.016  19.117  65.894  1.00  0.00    -0.441 OA 
ENDBRANCH  21  24
ENDBRANCH  14  18
ENDBRANCH  11  12
ENDBRANCH   8  11
ENDBRANCH   5   7
TORSDOF 5
ENDMDL
MODEL       54
REMARK 921   NORMALIZED FREE ENERGY PREDICTED BY IDOCK:   -5.84 KCAL/MOL
REMARK 922        TOTAL FREE ENERGY PREDICTED BY IDOCK:   -8.10 KCAL/MOL
REMARK 923 INTER-LIGAND FREE ENERGY PREDICTED BY IDOCK:   -7.42 KCAL/MOL
REMARK 924 INTRA-LIGAND FREE ENERGY PREDICTED BY IDOCK:   -0.69 KCAL/MOL
REMARK 927      BINDING AFFINITY PREDICTED BY RF-SCORE:    0.00 PKD
ROOT
HETATM    1 CL   UNL     1      -7.646   3.125  64.385  1.00  0.00    -0.075 Cl 
HETATM    2  C   UNL     1      -8.374   3.716  65.827  1.00  0.00    -0.106 A  
HETATM    3  C   UNL     1      -9.246   3.040  66.636  1.00  0.00    -0.152 A  
HETATM    4  C   UNL     1      -9.647   3.853  67.741  1.00  0.00    -0.199 A  
HETATM    5  C   UNL     1      -9.055   5.107  67.725  1.00  0.00    -0.111 A  
HETATM    6  S   UNL     1      -8.026   5.280  66.359  1.00  0.00    -0.105 SA 
ENDROOT
BRANCH   5   7
HETATM    7  C   UNL     1      -9.243   6.179  68.697  1.00  0.00    -0.123 C  
HETATM    8  N   UNL     1      -9.876   7.313  68.220  1.00  0.00    -0.151 N  
HETATM    9  O   UNL     1      -8.880   6.099  69.866  1.00  0.00    -0.137 OA 
HETATM   10  H   UNL     1     -10.061   7.388  67.220  1.00  0.00     0.000 HD 
BRANCH   8  11
HETATM   11  C   UNL     1     -10.285   8.401  69.093  1.00  0.00    -0.211 C  
BRANCH  11  12
HETATM   12  C   UNL     1     -10.778   9.599  68.292  1.00  0.00    -0.217 C  
HETATM   13  C   UNL     1     -10.121  10.905  68.662  1.00  0.00    -0.191 C  
HETATM   14  N   UNL     1     -10.282  11.641  67.442  1.00  0.00    -0.201 N  
HETATM   15  C   UNL     1     -10.331  10.729  66.393  1.00  0.00    -0.248 C  
HETATM   16  O   UNL     1     -10.429   9.453  66.907  1.00  0.00    -0.245 OA 
HETATM   17  O   UNL     1     -10.289  10.924  65.190  1.00  0.00    -0.279 OA 
BRANCH  14  18
HETATM   18  C   UNL     1     -10.339  13.054  67.355  1.00  0.00    -0.234 A  
HETATM   19  C   UNL     1      -9.283  13.796  66.828  1.00  0.00    -0.255 A  
HETATM   20  C   UNL     1      -9.343  15.194  66.739  1.00  0.00    -0.268 A  
HETATM   21  C   UNL     1     -10.466  15.913  67.163  1.00  0.00    -0.313 A  
HETATM   22  C   UNL     1     -11.475  13.765  67.758  1.00  0.00    -0.354 A  
HETATM   23  C   UNL     1     -11.544  15.166  67.649  1.00  0.00    -0.290 A  
BRANCH  21  24
HETATM   24  N   UNL     1     -10.448  17.346  67.187  1.00  0.00    -0.327 N  
HETATM   25  C   UNL     1     -10.415  18.082  68.452  1.00  0.00    -0.315 C  
HETATM   26  C   UNL     1      -9.413  19.232  68.404  1.00  0.00    -0.376 C  
HETATM   27  O   UNL     1      -9.765  20.129  67.354  1.00  0.00    -0.375 OA 
HETATM   28  C   UNL     1      -9.755  19.452  66.107  1.00  0.00    -0.359 C  
HETATM   29  C   UNL     1     -10.517  18.119  66.013  1.00  0.00    -0.335 C  
HETATM   30  O   UNL     1     -11.019  17.764  64.947  1.00  0.00    -0.866 OA 
ENDBRANCH  21  24
ENDBRANCH  14  18
ENDBRANCH  11  12
ENDBRANCH   8  11
ENDBRANCH   5   7
TORSDOF 5
ENDMDL
MODEL       55
REMARK 921   NORMALIZED FREE ENERGY PREDICTED BY IDOCK:   -5.80 KCAL/MOL
REMARK 922        TOTAL FREE ENERGY PREDICTED BY IDOCK:   -8.06 KCAL/MOL
REMARK 923 INTER-LIGAND FREE ENERGY PREDICTED BY IDOCK:   -7.43 KCAL/MOL
REMARK 924 INTRA-LIGAND FREE ENERGY PREDICTED BY IDOCK:   -0.63 KCAL/MOL
REMARK 927      BINDING AFFINITY PREDICTED BY RF-SCORE:    0.00 PKD
ROOT
HETATM    1 CL   UNL     1     -10.187   3.831  63.797  1.00  0.00    -0.202 Cl 
HETATM    2  C   UNL     1      -9.755   3.796  65.462  1.00  0.00    -0.151 A  
HETATM    3  C   UNL     1      -9.030   2.824  66.095  1.00  0.00    -0.145 A  
HETATM    4  C   UNL     1      -8.874   3.129  67.482  1.00  0.00    -0.160 A  
HETATM    5  C   UNL     1      -9.481   4.324  67.838  1.00  0.00    -0.165 A  
HETATM    6  S   UNL     1     -10.241   5.052  66.479  1.00  0.00    -0.280 SA 
ENDROOT
BRANCH   5   7
HETATM    7  C   UNL     1      -9.515   4.931  69.164  1.00  0.00    -0.141 C  
HETATM    8  N   UNL     1     -10.679   5.609  69.482  1.00  0.00    -0.320 N  
HETATM    9  O   UNL     1      -8.589   4.853  69.965  1.00  0.00    -0.088 OA 
HETATM   10  H   UNL     1     -11.379   5.749  68.754  1.00  0.00     0.000 HD 
BRANCH   8  11
HETATM   11  C   UNL     1     -10.939   6.127  70.815  1.00  0.00    -0.302 C  
BRANCH  11  12
HETATM   12  C   UNL     1     -10.756   7.638  70.868  1.00  0.00    -0.235 C  
HETATM   13  C   UNL     1     -10.862   8.322  69.528  1.00  0.00    -0.116 C  
HETATM   14  N   UNL     1     -11.261   9.640  69.930  1.00  0.00    -0.233 N  
HETATM   15  C   UNL     1     -11.952   9.530  71.132  1.00  0.00    -0.348 C  
HETATM   16  O   UNL     1     -11.820   8.246  71.616  1.00  0.00    -0.273 OA 
HETATM   17  O   UNL     1     -12.605  10.367  71.733  1.00  0.00    -0.408 OA 
BRANCH  14  18
HETATM   18  C   UNL     1     -11.009  10.820  69.188  1.00  0.00    -0.244 A  
HETATM   19  C   UNL     1      -9.751  11.089  68.651  1.00  0.00    -0.198 A  
HETATM   20  C   UNL     1      -9.506  12.256  67.914  1.00  0.00    -0.200 A  
HETATM   21  C   UNL     1     -10.508  13.202  67.671  1.00  0.00    -0.221 A  
HETATM   22  C   UNL     1     -12.023  11.749  68.929  1.00  0.00    -0.332 A  
HETATM   23  C   UNL     1     -11.781  12.910  68.171  1.00  0.00    -0.395 A  
BRANCH  21  24
HETATM   24  N   UNL     1     -10.197  14.447  67.034  1.00  0.00    -0.260 N  
HETATM   25  C   UNL     1     -10.013  14.531  65.584  1.00  0.00    -0.347 C  
HETATM   26  C   UNL     1     -10.727  15.746  64.999  1.00  0.00    -0.421 C  
HETATM   27  O   UNL     1     -10.220  16.934  65.601  1.00  0.00    -0.542 OA 
HETATM   28  C   UNL     1     -10.431  16.902  67.004  1.00  0.00    -0.281 C  
HETATM   29  C   UNL     1      -9.997  15.635  67.761  1.00  0.00    -0.223 C  
HETATM   30  O   UNL     1      -9.631  15.707  68.934  1.00  0.00    -0.198 OA 
ENDBRANCH  21  24
ENDBRANCH  14  18
ENDBRANCH  11  12
ENDBRANCH   8  11
ENDBRANCH   5   7
TORSDOF 5
ENDMDL
MODEL       56
REMARK 921   NORMALIZED FREE ENERGY PREDICTED BY IDOCK:   -5.80 KCAL/MOL
REMARK 922        TOTAL FREE ENERGY PREDICTED BY IDOCK:   -8.06 KCAL/MOL
REMARK 923 INTER-LIGAND FREE ENERGY PREDICTED BY IDOCK:   -7.50 KCAL/MOL
REMARK 924 INTRA-LIGAND FREE ENERGY PREDICTED BY IDOCK:   -0.56 KCAL/MOL
REMARK 927      BINDING AFFINITY PREDICTED BY RF-SCORE:    0.00 PKD
ROOT
HETATM    1 CL   UNL     1     -11.521   5.281  73.019  1.00  0.00    -0.372 Cl 
HETATM    2  C   UNL     1     -10.926   5.656  71.449  1.00  0.00    -0.190 A  
HETATM    3  C   UNL     1     -10.033   4.921  70.718  1.00  0.00    -0.292 A  
HETATM    4  C   UNL     1      -9.768   5.546  69.462  1.00  0.00    -0.218 A  
HETATM    5  C   UNL     1     -10.479   6.725  69.291  1.00  0.00    -0.215 A  
HETATM    6  S   UNL     1     -11.451   7.058  70.669  1.00  0.00    -0.332 SA 
ENDROOT
BRANCH   5   7
HETATM    7  C   UNL     1     -10.445   7.611  68.133  1.00  0.00    -0.181 C  
HETATM    8  N   UNL     1     -10.832   8.918  68.368  1.00  0.00    -0.451 N  
HETATM    9  O   UNL     1     -10.091   7.247  67.016  1.00  0.00    -0.200 OA 
HETATM   10  H   UNL     1     -11.226   9.157  69.278  1.00  0.00     0.000 HD 
BRANCH   8  11
HETATM   11  C   UNL     1     -10.700   9.963  67.366  1.00  0.00    -0.260 C  
BRANCH  11  12
HETATM   12  C   UNL     1     -10.454  11.321  68.010  1.00  0.00    -0.188 C  
HETATM   13  C   UNL     1      -9.752  12.313  67.116  1.00  0.00    -0.201 C  
HETATM   14  N   UNL     1     -10.199  13.551  67.686  1.00  0.00    -0.236 N  
HETATM   15  C   UNL     1     -11.443  13.330  68.270  1.00  0.00    -0.316 C  
HETATM   16  O   UNL     1     -11.701  11.977  68.288  1.00  0.00    -0.310 OA 
HETATM   17  O   UNL     1     -12.248  14.133  68.711  1.00  0.00    -0.319 OA 
BRANCH  14  18
HETATM   18  C   UNL     1      -9.488  14.774  67.616  1.00  0.00    -0.204 A  
HETATM   19  C   UNL     1      -9.082  15.448  68.766  1.00  0.00    -0.207 A  
HETATM   20  C   UNL     1      -8.375  16.657  68.694  1.00  0.00    -0.246 A  
HETATM   21  C   UNL     1      -8.032  17.241  67.470  1.00  0.00    -0.182 A  
HETATM   22  C   UNL     1      -9.127  15.339  66.388  1.00  0.00    -0.347 A  
HETATM   23  C   UNL     1      -8.399  16.541  66.316  1.00  0.00    -0.364 A  
BRANCH  21  24
HETATM   24  N   UNL     1      -7.431  18.541  67.424  1.00  0.00    -0.218 N  
HETATM   25  C   UNL     1      -8.053  19.638  66.681  1.00  0.00    -0.309 C  
HETATM   26  C   UNL     1      -8.034  20.937  67.481  1.00  0.00    -0.092 C  
HETATM   27  O   UNL     1      -6.687  21.289  67.788  1.00  0.00    -0.401 OA 
HETATM   28  C   UNL     1      -6.074  20.263  68.553  1.00  0.00    -0.292 C  
HETATM   29  C   UNL     1      -6.194  18.819  68.035  1.00  0.00    -0.204 C  
HETATM   30  O   UNL     1      -5.308  17.999  68.270  1.00  0.00    -0.156 OA 
ENDBRANCH  21  24
ENDBRANCH  14  18
ENDBRANCH  11  12
ENDBRANCH   8  11
ENDBRANCH   5   7
TORSDOF 5
ENDMDL
MODEL       57
REMARK 921   NORMALIZED FREE ENERGY PREDICTED BY IDOCK:   -5.77 KCAL/MOL
REMARK 922        TOTAL FREE ENERGY PREDICTED BY IDOCK:   -8.02 KCAL/MOL
REMARK 923 INTER-LIGAND FREE ENERGY PREDICTED BY IDOCK:   -7.65 KCAL/MOL
REMARK 924 INTRA-LIGAND FREE ENERGY PREDICTED BY IDOCK:   -0.36 KCAL/MOL
REMARK 927      BINDING AFFINITY PREDICTED BY RF-SCORE:    0.00 PKD
ROOT
HETATM    1 CL   UNL     1      -6.919  21.179  67.388  1.00  0.00    -0.419 Cl 
HETATM    2  C   UNL     1      -8.316  20.246  67.018  1.00  0.00    -0.315 A  
HETATM    3  C   UNL     1      -9.618  20.663  67.093  1.00  0.00    -0.534 A  
HETATM    4  C   UNL     1     -10.510  19.612  66.716  1.00  0.00    -0.605 A  
HETATM    5  C   UNL     1      -9.845  18.448  66.362  1.00  0.00    -0.360 A  
HETATM    6  S   UNL     1      -8.143  18.648  66.505  1.00  0.00    -0.284 SA 
ENDROOT
BRANCH   5   7
HETATM    7  C   UNL     1     -10.445  17.191  65.929  1.00  0.00    -0.258 C  
HETATM    8  N   UNL     1     -10.500  16.193  66.886  1.00  0.00    -0.302 N  
HETATM    9  O   UNL     1     -10.886  17.009  64.799  1.00  0.00    -0.820 OA 
HETATM   10  H   UNL     1     -10.023  16.340  67.776  1.00  0.00     0.000 HD 
BRANCH   8  11
HETATM   11  C   UNL     1     -11.211  14.944  66.670  1.00  0.00    -0.340 C  
BRANCH  11  12
HETATM   12  C   UNL     1     -10.440  13.761  67.241  1.00  0.00    -0.264 C  
HETATM   13  C   UNL     1     -10.707  12.451  66.542  1.00  0.00    -0.236 C  
HETATM   14  N   UNL     1      -9.495  11.742  66.830  1.00  0.00    -0.188 N  
HETATM   15  C   UNL     1      -8.479  12.678  66.997  1.00  0.00    -0.150 C  
HETATM   16  O   UNL     1      -9.029  13.940  67.045  1.00  0.00    -0.227 OA 
HETATM   17  O   UNL     1      -7.273  12.510  67.085  1.00  0.00    -0.136 OA 
BRANCH  14  18
HETATM   18  C   UNL     1      -9.381  10.331  66.890  1.00  0.00    -0.158 A  
HETATM   19  C   UNL     1     -10.424   9.536  67.364  1.00  0.00    -0.336 A  
HETATM   20  C   UNL     1     -10.311   8.139  67.419  1.00  0.00    -0.351 A  
HETATM   21  C   UNL     1      -9.156   7.474  66.994  1.00  0.00    -0.135 A  
HETATM   22  C   UNL     1      -8.233   9.671  66.441  1.00  0.00    -0.119 A  
HETATM   23  C   UNL     1      -8.128   8.268  66.476  1.00  0.00    -0.105 A  
BRANCH  21  24
HETATM   24  N   UNL     1      -9.014   6.061  67.188  1.00  0.00    -0.114 N  
HETATM   25  C   UNL     1      -8.760   5.499  68.515  1.00  0.00    -0.105 C  
HETATM   26  C   UNL     1      -9.626   4.271  68.779  1.00  0.00    -0.149 C  
HETATM   27  O   UNL     1      -9.356   3.276  67.794  1.00  0.00    -0.181 OA 
HETATM   28  C   UNL     1      -9.643   3.778  66.499  1.00  0.00    -0.169 C  
HETATM   29  C   UNL     1      -9.055   5.147  66.118  1.00  0.00    -0.144 C  
HETATM   30  O   UNL     1      -8.776   5.400  64.946  1.00  0.00    -0.149 OA 
ENDBRANCH  21  24
ENDBRANCH  14  18
ENDBRANCH  11  12
ENDBRANCH   8  11
ENDBRANCH   5   7
TORSDOF 5
ENDMDL
MODEL       58
REMARK 921   NORMALIZED FREE ENERGY PREDICTED BY IDOCK:   -5.77 KCAL/MOL
REMARK 922        TOTAL FREE ENERGY PREDICTED BY IDOCK:   -8.02 KCAL/MOL
REMARK 923 INTER-LIGAND FREE ENERGY PREDICTED BY IDOCK:   -7.35 KCAL/MOL
REMARK 924 INTRA-LIGAND FREE ENERGY PREDICTED BY IDOCK:   -0.67 KCAL/MOL
REMARK 927      BINDING AFFINITY PREDICTED BY RF-SCORE:    0.00 PKD
ROOT
HETATM    1 CL   UNL     1      -5.473  18.787  64.734  1.00  0.00    -0.245 Cl 
HETATM    2  C   UNL     1      -6.922  18.926  65.649  1.00  0.00    -0.232 A  
HETATM    3  C   UNL     1      -7.631  20.072  65.885  1.00  0.00    -0.316 A  
HETATM    4  C   UNL     1      -8.779  19.803  66.692  1.00  0.00    -0.406 A  
HETATM    5  C   UNL     1      -8.894  18.461  67.026  1.00  0.00    -0.271 A  
HETATM    6  S   UNL     1      -7.597  17.551  66.359  1.00  0.00    -0.310 SA 
ENDROOT
BRANCH   5   7
HETATM    7  C   UNL     1      -9.941  17.845  67.834  1.00  0.00    -0.329 C  
HETATM    8  N   UNL     1     -10.453  16.657  67.343  1.00  0.00    -0.315 N  
HETATM    9  O   UNL     1     -10.350  18.324  68.886  1.00  0.00    -0.345 OA 
HETATM   10  H   UNL     1     -10.170  16.347  66.413  1.00  0.00     0.000 HD 
BRANCH   8  11
HETATM   11  C   UNL     1     -11.379  15.834  68.104  1.00  0.00    -0.337 C  
BRANCH  11  12
HETATM   12  C   UNL     1     -10.698  14.578  68.634  1.00  0.00    -0.253 C  
HETATM   13  C   UNL     1     -11.210  13.294  68.030  1.00  0.00    -0.276 C  
HETATM   14  N   UNL     1     -10.070  12.442  68.206  1.00  0.00    -0.223 N  
HETATM   15  C   UNL     1      -8.932  13.243  68.210  1.00  0.00    -0.176 C  
HETATM   16  O   UNL     1      -9.310  14.567  68.266  1.00  0.00    -0.190 OA 
HETATM   17  O   UNL     1      -7.756  12.923  68.164  1.00  0.00    -0.117 OA 
BRANCH  14  18
HETATM   18  C   UNL     1     -10.127  11.031  68.315  1.00  0.00    -0.177 A  
HETATM   19  C   UNL     1      -9.915  10.385  69.532  1.00  0.00    -0.229 A  
HETATM   20  C   UNL     1      -9.976   8.988  69.638  1.00  0.00    -0.196 A  
HETATM   21  C   UNL     1     -10.262   8.175  68.537  1.00  0.00    -0.208 A  
HETATM   22  C   UNL     1     -10.439  10.226  67.214  1.00  0.00    -0.307 A  
HETATM   23  C   UNL     1     -10.521   8.825  67.326  1.00  0.00    -0.353 A  
BRANCH  21  24
HETATM   24  N   UNL     1     -10.184   6.748  68.644  1.00  0.00    -0.166 N  
HETATM   25  C   UNL     1      -9.470   5.951  67.644  1.00  0.00    -0.110 C  
HETATM   26  C   UNL     1      -8.601   4.881  68.299  1.00  0.00    -0.101 C  
HETATM   27  O   UNL     1      -9.418   4.017  69.085  1.00  0.00    -0.158 OA 
HETATM   28  C   UNL     1     -10.084   4.757  70.096  1.00  0.00    -0.240 C  
HETATM   29  C   UNL     1     -10.829   6.034  69.671  1.00  0.00    -0.369 C  
HETATM   30  O   UNL     1     -11.826   6.408  70.289  1.00  0.00    -0.396 OA 
ENDBRANCH  21  24
ENDBRANCH  14  18
ENDBRANCH  11  12
ENDBRANCH   8  11
ENDBRANCH   5   7
TORSDOF 5
ENDMDL
MODEL       59
REMARK 921   NORMALIZED FREE ENERGY PREDICTED BY IDOCK:   -5.77 KCAL/MOL
REMARK 922        TOTAL FREE ENERGY PREDICTED BY IDOCK:   -8.01 KCAL/MOL
REMARK 923 INTER-LIGAND FREE ENERGY PREDICTED BY IDOCK:   -7.32 KCAL/MOL
REMARK 924 INTRA-LIGAND FREE ENERGY PREDICTED BY IDOCK:   -0.69 KCAL/MOL
REMARK 927      BINDING AFFINITY PREDICTED BY RF-SCORE:    0.00 PKD
ROOT
HETATM    1 CL   UNL     1     -11.166   5.351  73.250  1.00  0.00    -0.345 Cl 
HETATM    2  C   UNL     1     -10.776   5.500  71.582  1.00  0.00    -0.231 A  
HETATM    3  C   UNL     1      -9.877   4.740  70.883  1.00  0.00    -0.279 A  
HETATM    4  C   UNL     1      -9.813   5.156  69.518  1.00  0.00    -0.278 A  
HETATM    5  C   UNL     1     -10.673   6.209  69.239  1.00  0.00    -0.318 A  
HETATM    6  S   UNL     1     -11.538   6.681  70.647  1.00  0.00    -0.387 SA 
ENDROOT
BRANCH   5   7
HETATM    7  C   UNL     1     -10.858   6.874  67.954  1.00  0.00    -0.218 C  
HETATM    8  N   UNL     1     -10.763   8.254  67.975  1.00  0.00    -0.447 N  
HETATM    9  O   UNL     1     -11.077   6.270  66.908  1.00  0.00    -0.361 OA 
HETATM   10  H   UNL     1     -10.693   8.727  68.877  1.00  0.00     0.000 HD 
BRANCH   8  11
HETATM   11  C   UNL     1     -10.759   9.054  66.762  1.00  0.00    -0.033 C  
BRANCH  11  12
HETATM   12  C   UNL     1      -9.801  10.233  66.878  1.00  0.00    -0.197 C  
HETATM   13  C   UNL     1     -10.475  11.553  67.154  1.00  0.00    -0.224 C  
HETATM   14  N   UNL     1      -9.410  12.269  67.793  1.00  0.00    -0.187 N  
HETATM   15  C   UNL     1      -8.581  11.341  68.414  1.00  0.00    -0.155 C  
HETATM   16  O   UNL     1      -8.945  10.072  68.019  1.00  0.00    -0.128 OA 
HETATM   17  O   UNL     1      -7.666  11.519  69.201  1.00  0.00    -0.080 OA 
BRANCH  14  18
HETATM   18  C   UNL     1      -9.277  13.680  67.800  1.00  0.00    -0.214 A  
HETATM   19  C   UNL     1      -8.373  14.331  66.961  1.00  0.00    -0.156 A  
HETATM   20  C   UNL     1      -8.246  15.727  66.968  1.00  0.00    -0.262 A  
HETATM   21  C   UNL     1      -9.023  16.537  67.803  1.00  0.00    -0.202 A  
HETATM   22  C   UNL     1     -10.075  14.484  68.620  1.00  0.00    -0.244 A  
HETATM   23  C   UNL     1      -9.962  15.887  68.610  1.00  0.00    -0.214 A  
BRANCH  21  24
HETATM   24  N   UNL     1      -8.778  17.946  67.888  1.00  0.00    -0.247 N  
HETATM   25  C   UNL     1      -7.625  18.472  68.620  1.00  0.00    -0.307 C  
HETATM   26  C   UNL     1      -6.923  19.578  67.836  1.00  0.00    -0.253 C  
HETATM   27  O   UNL     1      -7.838  20.641  67.586  1.00  0.00    -0.282 OA 
HETATM   28  C   UNL     1      -8.944  20.169  66.833  1.00  0.00    -0.344 C  
HETATM   29  C   UNL     1      -9.652  18.896  67.327  1.00  0.00    -0.307 C  
HETATM   30  O   UNL     1     -10.853  18.731  67.116  1.00  0.00    -0.421 OA 
ENDBRANCH  21  24
ENDBRANCH  14  18
ENDBRANCH  11  12
ENDBRANCH   8  11
ENDBRANCH   5   7
TORSDOF 5
ENDMDL
MODEL       60
REMARK 921   NORMALIZED FREE ENERGY PREDICTED BY IDOCK:   -5.72 KCAL/MOL
REMARK 922        TOTAL FREE ENERGY PREDICTED BY IDOCK:   -7.95 KCAL/MOL
REMARK 923 INTER-LIGAND FREE ENERGY PREDICTED BY IDOCK:   -7.64 KCAL/MOL
REMARK 924 INTRA-LIGAND FREE ENERGY PREDICTED BY IDOCK:   -0.31 KCAL/MOL
REMARK 927      BINDING AFFINITY PREDICTED BY RF-SCORE:    0.00 PKD
ROOT
HETATM    1 CL   UNL     1      -9.410  16.300  66.073  1.00  0.00    -0.369 Cl 
HETATM    2  C   UNL     1     -10.149  16.095  67.613  1.00  0.00    -0.248 A  
HETATM    3  C   UNL     1     -10.003  16.910  68.702  1.00  0.00    -0.279 A  
HETATM    4  C   UNL     1     -10.763  16.421  69.809  1.00  0.00    -0.324 A  
HETATM    5  C   UNL     1     -11.460  15.260  69.506  1.00  0.00    -0.305 A  
HETATM    6  S   UNL     1     -11.169  14.777  67.882  1.00  0.00    -0.319 SA 
ENDROOT
BRANCH   5   7
HETATM    7  C   UNL     1     -12.328  14.500  70.399  1.00  0.00    -0.338 C  
HETATM    8  N   UNL     1     -12.042  13.151  70.505  1.00  0.00    -0.489 N  
HETATM    9  O   UNL     1     -13.252  15.003  71.029  1.00  0.00    -0.387 OA 
HETATM   10  H   UNL     1     -11.342  12.747  69.883  1.00  0.00     0.000 HD 
BRANCH   8  11
HETATM   11  C   UNL     1     -12.702  12.288  71.471  1.00  0.00    -0.233 C  
BRANCH  11  12
HETATM   12  C   UNL     1     -12.719  10.839  71.001  1.00  0.00    -0.415 C  
HETATM   13  C   UNL     1     -11.394  10.343  70.476  1.00  0.00    -0.341 C  
HETATM   14  N   UNL     1     -11.529   8.933  70.700  1.00  0.00    -0.263 N  
HETATM   15  C   UNL     1     -12.387   8.750  71.780  1.00  0.00    -0.351 C  
HETATM   16  O   UNL     1     -12.970   9.957  72.105  1.00  0.00    -0.411 OA 
HETATM   17  O   UNL     1     -12.642   7.736  72.408  1.00  0.00    -0.199 OA 
BRANCH  14  18
HETATM   18  C   UNL     1     -10.858   7.931  69.957  1.00  0.00    -0.238 A  
HETATM   19  C   UNL     1      -9.882   8.253  69.015  1.00  0.00    -0.176 A  
HETATM   20  C   UNL     1      -9.218   7.259  68.282  1.00  0.00    -0.133 A  
HETATM   21  C   UNL     1      -9.490   5.899  68.465  1.00  0.00    -0.121 A  
HETATM   22  C   UNL     1     -11.118   6.572  70.163  1.00  0.00    -0.410 A  
HETATM   23  C   UNL     1     -10.436   5.574  69.443  1.00  0.00    -0.360 A  
BRANCH  21  24
HETATM   24  N   UNL     1      -8.896   4.914  67.610  1.00  0.00    -0.103 N  
HETATM   25  C   UNL     1      -7.478   4.569  67.721  1.00  0.00    -0.073 C  
HETATM   26  C   UNL     1      -7.263   3.060  67.663  1.00  0.00    -0.054 C  
HETATM   27  O   UNL     1      -7.769   2.553  66.430  1.00  0.00    -0.071 OA 
HETATM   28  C   UNL     1      -9.156   2.829  66.318  1.00  0.00    -0.119 C  
HETATM   29  C   UNL     1      -9.620   4.271  66.588  1.00  0.00    -0.201 C  
HETATM   30  O   UNL     1     -10.612   4.722  66.017  1.00  0.00    -0.311 OA 
ENDBRANCH  21  24
ENDBRANCH  14  18
ENDBRANCH  11  12
ENDBRANCH   8  11
ENDBRANCH   5   7
TORSDOF 5
ENDMDL
MODEL       61
REMARK 921   NORMALIZED FREE ENERGY PREDICTED BY IDOCK:   -5.67 KCAL/MOL
REMARK 922        TOTAL FREE ENERGY PREDICTED BY IDOCK:   -7.89 KCAL/MOL
REMARK 923 INTER-LIGAND FREE ENERGY PREDICTED BY IDOCK:   -7.60 KCAL/MOL
REMARK 924 INTRA-LIGAND FREE ENERGY PREDICTED BY IDOCK:   -0.29 KCAL/MOL
REMARK 927      BINDING AFFINITY PREDICTED BY RF-SCORE:    0.00 PKD
ROOT
HETATM    1 CL   UNL     1     -10.513   3.878  63.862  1.00  0.00    -0.241 Cl 
HETATM    2  C   UNL     1      -9.856   3.751  65.446  1.00  0.00    -0.130 A  
HETATM    3  C   UNL     1      -9.256   2.651  65.994  1.00  0.00    -0.062 A  
HETATM    4  C   UNL     1      -8.839   2.914  67.335  1.00  0.00    -0.160 A  
HETATM    5  C   UNL     1      -9.133   4.207  67.743  1.00  0.00    -0.136 A  
HETATM    6  S   UNL     1      -9.924   5.077  66.488  1.00  0.00    -0.251 SA 
ENDROOT
BRANCH   5   7
HETATM    7  C   UNL     1      -8.848   4.804  69.042  1.00  0.00    -0.093 C  
HETATM    8  N   UNL     1      -9.808   4.601  70.017  1.00  0.00    -0.211 N  
HETATM    9  O   UNL     1      -7.828   5.442  69.281  1.00  0.00    -0.086 OA 
HETATM   10  H   UNL     1     -10.692   4.165  69.753  1.00  0.00     0.000 HD 
BRANCH   8  11
HETATM   11  C   UNL     1      -9.604   4.986  71.404  1.00  0.00    -0.164 C  
BRANCH  11  12
HETATM   12  C   UNL     1     -10.496   6.159  71.791  1.00  0.00    -0.216 C  
HETATM   13  C   UNL     1     -10.271   7.405  70.971  1.00  0.00    -0.191 C  
HETATM   14  N   UNL     1     -11.548   8.045  71.101  1.00  0.00    -0.280 N  
HETATM   15  C   UNL     1     -12.505   7.055  71.302  1.00  0.00    -0.386 C  
HETATM   16  O   UNL     1     -11.873   5.851  71.524  1.00  0.00    -0.129 OA 
HETATM   17  O   UNL     1     -13.722   7.137  71.292  1.00  0.00    -0.343 OA 
BRANCH  14  18
HETATM   18  C   UNL     1     -11.764   9.441  70.998  1.00  0.00    -0.323 A  
HETATM   19  C   UNL     1     -11.092  10.215  70.053  1.00  0.00    -0.368 A  
HETATM   20  C   UNL     1     -11.310  11.596  69.951  1.00  0.00    -0.230 A  
HETATM   21  C   UNL     1     -12.217  12.265  70.782  1.00  0.00    -0.260 A  
HETATM   22  C   UNL     1     -12.690  10.098  71.816  1.00  0.00    -0.534 A  
HETATM   23  C   UNL     1     -12.924  11.481  71.698  1.00  0.00    -0.499 A  
BRANCH  21  24
HETATM   24  N   UNL     1     -12.320  13.694  70.748  1.00  0.00    -0.361 N  
HETATM   25  C   UNL     1     -12.760  14.449  71.922  1.00  0.00    -0.349 C  
HETATM   26  C   UNL     1     -11.890  15.682  72.152  1.00  0.00    -0.474 C  
HETATM   27  O   UNL     1     -11.949  16.528  71.006  1.00  0.00    -0.085 OA 
HETATM   28  C   UNL     1     -11.479  15.836  69.861  1.00  0.00    -0.346 C  
HETATM   29  C   UNL     1     -12.062  14.439  69.583  1.00  0.00    -0.334 C  
HETATM   30  O   UNL     1     -12.159  14.025  68.428  1.00  0.00    -0.354 OA 
ENDBRANCH  21  24
ENDBRANCH  14  18
ENDBRANCH  11  12
ENDBRANCH   8  11
ENDBRANCH   5   7
TORSDOF 5
ENDMDL
MODEL       62
REMARK 921   NORMALIZED FREE ENERGY PREDICTED BY IDOCK:   -5.67 KCAL/MOL
REMARK 922        TOTAL FREE ENERGY PREDICTED BY IDOCK:   -7.88 KCAL/MOL
REMARK 923 INTER-LIGAND FREE ENERGY PREDICTED BY IDOCK:   -7.25 KCAL/MOL
REMARK 924 INTRA-LIGAND FREE ENERGY PREDICTED BY IDOCK:   -0.63 KCAL/MOL
REMARK 927      BINDING AFFINITY PREDICTED BY RF-SCORE:    0.00 PKD
ROOT
HETATM    1 CL   UNL     1     -10.562  19.284  67.122  1.00  0.00    -0.543 Cl 
HETATM    2  C   UNL     1     -10.395  17.677  66.532  1.00  0.00    -0.337 A  
HETATM    3  C   UNL     1     -10.846  17.198  65.333  1.00  0.00    -0.051 A  
HETATM    4  C   UNL     1     -10.531  15.811  65.188  1.00  0.00    -0.394 A  
HETATM    5  C   UNL     1      -9.847  15.302  66.282  1.00  0.00    -0.294 A  
HETATM    6  S   UNL     1      -9.608  16.518  67.474  1.00  0.00    -0.233 SA 
ENDROOT
BRANCH   5   7
HETATM    7  C   UNL     1      -9.377  13.933  66.464  1.00  0.00    -0.247 C  
HETATM    8  N   UNL     1      -9.966  12.985  65.646  1.00  0.00    -0.378 N  
HETATM    9  O   UNL     1      -8.512  13.620  67.275  1.00  0.00    -0.188 OA 
HETATM   10  H   UNL     1     -10.758  13.261  65.066  1.00  0.00     0.000 HD 
BRANCH   8  11
HETATM   11  C   UNL     1      -9.498  11.610  65.584  1.00  0.00    -0.209 C  
BRANCH  11  12
HETATM   12  C   UNL     1     -10.276  10.716  66.541  1.00  0.00    -0.233 C  
HETATM   13  C   UNL     1      -9.470  10.213  67.713  1.00  0.00    -0.144 C  
HETATM   14  N   UNL     1     -10.510   9.974  68.671  1.00  0.00    -0.195 N  
HETATM   15  C   UNL     1     -11.560  10.842  68.389  1.00  0.00    -0.276 C  
HETATM   16  O   UNL     1     -11.327  11.458  67.178  1.00  0.00    -0.354 OA 
HETATM   17  O   UNL     1     -12.558  11.094  69.044  1.00  0.00    -0.370 OA 
BRANCH  14  18
HETATM   18  C   UNL     1     -10.431   9.036  69.729  1.00  0.00    -0.218 A  
HETATM   19  C   UNL     1     -10.264   7.674  69.484  1.00  0.00    -0.209 A  
HETATM   20  C   UNL     1     -10.184   6.747  70.533  1.00  0.00    -0.212 A  
HETATM   21  C   UNL     1     -10.254   7.140  71.874  1.00  0.00    -0.190 A  
HETATM   22  C   UNL     1     -10.478   9.440  71.068  1.00  0.00    -0.392 A  
HETATM   23  C   UNL     1     -10.375   8.511  72.120  1.00  0.00    -0.409 A  
BRANCH  21  24
HETATM   24  N   UNL     1     -10.306   6.162  72.920  1.00  0.00    -0.190 N  
HETATM   25  C   UNL     1     -11.506   5.355  73.144  1.00  0.00    -0.208 C  
HETATM   26  C   UNL     1     -11.157   3.888  73.381  1.00  0.00    -0.232 C  
HETATM   27  O   UNL     1     -10.304   3.777  74.517  1.00  0.00    -0.186 OA 
HETATM   28  C   UNL     1      -9.108   4.510  74.305  1.00  0.00    -0.107 C  
HETATM   29  C   UNL     1      -9.239   5.963  73.817  1.00  0.00    -0.127 C  
HETATM   30  O   UNL     1      -8.390   6.800  74.121  1.00  0.00    -0.125 OA 
ENDBRANCH  21  24
ENDBRANCH  14  18
ENDBRANCH  11  12
ENDBRANCH   8  11
ENDBRANCH   5   7
TORSDOF 5
ENDMDL
MODEL       63
REMARK 921   NORMALIZED FREE ENERGY PREDICTED BY IDOCK:   -5.65 KCAL/MOL
REMARK 922        TOTAL FREE ENERGY PREDICTED BY IDOCK:   -7.87 KCAL/MOL
REMARK 923 INTER-LIGAND FREE ENERGY PREDICTED BY IDOCK:   -7.17 KCAL/MOL
REMARK 924 INTRA-LIGAND FREE ENERGY PREDICTED BY IDOCK:   -0.70 KCAL/MOL
REMARK 927      BINDING AFFINITY PREDICTED BY RF-SCORE:    0.00 PKD
ROOT
HETATM    1 CL   UNL     1      -5.183  18.404  64.914  1.00  0.00    -0.187 Cl 
HETATM    2  C   UNL     1      -6.666  18.755  65.711  1.00  0.00    -0.271 A  
HETATM    3  C   UNL     1      -7.203  19.995  65.925  1.00  0.00    -0.327 A  
HETATM    4  C   UNL     1      -8.445  19.897  66.625  1.00  0.00    -0.381 A  
HETATM    5  C   UNL     1      -8.799  18.585  66.904  1.00  0.00    -0.283 A  
HETATM    6  S   UNL     1      -7.608  17.493  66.318  1.00  0.00    -0.299 SA 
ENDROOT
BRANCH   5   7
HETATM    7  C   UNL     1      -9.996  18.129  67.602  1.00  0.00    -0.337 C  
HETATM    8  N   UNL     1      -9.791  17.158  68.567  1.00  0.00    -0.282 N  
HETATM    9  O   UNL     1     -11.118  18.567  67.373  1.00  0.00    -0.278 OA 
HETATM   10  H   UNL     1      -8.866  16.737  68.652  1.00  0.00     0.000 HD 
BRANCH   8  11
HETATM   11  C   UNL     1     -10.847  16.715  69.463  1.00  0.00    -0.285 C  
BRANCH  11  12
HETATM   12  C   UNL     1     -11.375  15.343  69.063  1.00  0.00    -0.316 C  
HETATM   13  C   UNL     1     -10.301  14.351  68.692  1.00  0.00    -0.245 C  
HETATM   14  N   UNL     1     -10.973  13.114  68.971  1.00  0.00    -0.228 N  
HETATM   15  C   UNL     1     -11.911  13.351  69.970  1.00  0.00    -0.337 C  
HETATM   16  O   UNL     1     -12.018  14.709  70.179  1.00  0.00    -0.275 OA 
HETATM   17  O   UNL     1     -12.573  12.558  70.619  1.00  0.00    -0.258 OA 
BRANCH  14  18
HETATM   18  C   UNL     1     -10.678  11.878  68.344  1.00  0.00    -0.220 A  
HETATM   19  C   UNL     1     -10.124  10.815  69.055  1.00  0.00    -0.225 A  
HETATM   20  C   UNL     1      -9.836   9.591  68.433  1.00  0.00    -0.175 A  
HETATM   21  C   UNL     1     -10.100   9.371  67.077  1.00  0.00    -0.240 A  
HETATM   22  C   UNL     1     -10.968  11.658  66.993  1.00  0.00    -0.338 A  
HETATM   23  C   UNL     1     -10.699  10.422  66.375  1.00  0.00    -0.134 A  
BRANCH  21  24
HETATM   24  N   UNL     1      -9.673   8.163  66.437  1.00  0.00    -0.226 N  
HETATM   25  C   UNL     1      -8.654   8.180  65.386  1.00  0.00    -0.129 C  
HETATM   26  C   UNL     1      -7.632   7.063  65.578  1.00  0.00    -0.091 C  
HETATM   27  O   UNL     1      -8.295   5.801  65.561  1.00  0.00    -0.128 OA 
HETATM   28  C   UNL     1      -9.255   5.737  66.604  1.00  0.00    -0.137 C  
HETATM   29  C   UNL     1     -10.241   6.911  66.738  1.00  0.00    -0.206 C  
HETATM   30  O   UNL     1     -11.372   6.724  67.187  1.00  0.00    -0.330 OA 
ENDBRANCH  21  24
ENDBRANCH  14  18
ENDBRANCH  11  12
ENDBRANCH   8  11
ENDBRANCH   5   7
TORSDOF 5
ENDMDL
MODEL       64
REMARK 921   NORMALIZED FREE ENERGY PREDICTED BY IDOCK:   -5.61 KCAL/MOL
REMARK 922        TOTAL FREE ENERGY PREDICTED BY IDOCK:   -7.81 KCAL/MOL
REMARK 923 INTER-LIGAND FREE ENERGY PREDICTED BY IDOCK:   -7.30 KCAL/MOL
REMARK 924 INTRA-LIGAND FREE ENERGY PREDICTED BY IDOCK:   -0.51 KCAL/MOL
REMARK 927      BINDING AFFINITY PREDICTED BY RF-SCORE:    0.00 PKD
ROOT
HETATM    1 CL   UNL     1      -5.701  19.270  70.800  1.00  0.00    -0.224 Cl 
HETATM    2  C   UNL     1      -6.618  19.065  69.359  1.00  0.00    -0.288 A  
HETATM    3  C   UNL     1      -6.922  20.033  68.441  1.00  0.00    -0.330 A  
HETATM    4  C   UNL     1      -7.706  19.495  67.375  1.00  0.00    -0.284 A  
HETATM    5  C   UNL     1      -7.955  18.138  67.527  1.00  0.00    -0.227 A  
HETATM    6  S   UNL     1      -7.238  17.543  68.972  1.00  0.00    -0.168 SA 
ENDROOT
BRANCH   5   7
HETATM    7  C   UNL     1      -8.718  17.280  66.628  1.00  0.00    -0.257 C  
HETATM    8  N   UNL     1      -9.769  16.591  67.208  1.00  0.00    -0.243 N  
HETATM    9  O   UNL     1      -8.469  17.166  65.432  1.00  0.00     0.077 OA 
HETATM   10  H   UNL     1      -9.876  16.622  68.222  1.00  0.00     0.000 HD 
BRANCH   8  11
HETATM   11  C   UNL     1     -10.725  15.826  66.425  1.00  0.00    -0.277 C  
BRANCH  11  12
HETATM   12  C   UNL     1     -11.374  14.729  67.260  1.00  0.00    -0.357 C  
HETATM   13  C   UNL     1     -10.431  13.629  67.677  1.00  0.00    -0.238 C  
HETATM   14  N   UNL     1     -11.087  13.148  68.858  1.00  0.00    -0.264 N  
HETATM   15  C   UNL     1     -11.810  14.202  69.407  1.00  0.00    -0.330 C  
HETATM   16  O   UNL     1     -11.820  15.256  68.519  1.00  0.00    -0.338 OA 
HETATM   17  O   UNL     1     -12.369  14.282  70.489  1.00  0.00    -0.316 OA 
BRANCH  14  18
HETATM   18  C   UNL     1     -10.966  11.831  69.368  1.00  0.00    -0.125 A  
HETATM   19  C   UNL     1      -9.840  11.051  69.113  1.00  0.00    -0.117 A  
HETATM   20  C   UNL     1      -9.721   9.750  69.621  1.00  0.00    -0.242 A  
HETATM   21  C   UNL     1     -10.718   9.173  70.417  1.00  0.00    -0.238 A  
HETATM   22  C   UNL     1     -11.956  11.271  70.184  1.00  0.00    -0.452 A  
HETATM   23  C   UNL     1     -11.826   9.973  70.711  1.00  0.00    -0.435 A  
BRANCH  21  24
HETATM   24  N   UNL     1     -10.633   7.798  70.809  1.00  0.00    -0.215 N  
HETATM   25  C   UNL     1     -11.360   6.756  70.081  1.00  0.00    -0.350 C  
HETATM   26  C   UNL     1     -10.485   5.530  69.837  1.00  0.00    -0.316 C  
HETATM   27  O   UNL     1     -10.042   5.003  71.085  1.00  0.00    -0.204 OA 
HETATM   28  C   UNL     1      -9.290   5.977  71.791  1.00  0.00    -0.148 C  
HETATM   29  C   UNL     1      -9.902   7.381  71.937  1.00  0.00    -0.162 C  
HETATM   30  O   UNL     1      -9.640   8.073  72.920  1.00  0.00    -0.233 OA 
ENDBRANCH  21  24
ENDBRANCH  14  18
ENDBRANCH  11  12
ENDBRANCH   8  11
ENDBRANCH   5   7
TORSDOF 5
ENDMDL
MODEL       65
REMARK 921   NORMALIZED FREE ENERGY PREDICTED BY IDOCK:   -5.57 KCAL/MOL
REMARK 922        TOTAL FREE ENERGY PREDICTED BY IDOCK:   -7.76 KCAL/MOL
REMARK 923 INTER-LIGAND FREE ENERGY PREDICTED BY IDOCK:   -7.36 KCAL/MOL
REMARK 924 INTRA-LIGAND FREE ENERGY PREDICTED BY IDOCK:   -0.39 KCAL/MOL
REMARK 927      BINDING AFFINITY PREDICTED BY RF-SCORE:    0.00 PKD
ROOT
HETATM    1 CL   UNL     1     -10.349   4.057  62.847  1.00  0.00    -0.173 Cl 
HETATM    2  C   UNL     1      -9.726   3.467  64.338  1.00  0.00    -0.172 A  
HETATM    3  C   UNL     1      -9.017   2.312  64.526  1.00  0.00    -0.118 A  
HETATM    4  C   UNL     1      -8.671   2.146  65.902  1.00  0.00    -0.120 A  
HETATM    5  C   UNL     1      -9.125   3.188  66.697  1.00  0.00    -0.162 A  
HETATM    6  S   UNL     1      -9.977   4.348  65.756  1.00  0.00    -0.236 SA 
ENDROOT
BRANCH   5   7
HETATM    7  C   UNL     1      -8.948   3.336  68.138  1.00  0.00    -0.142 C  
HETATM    8  N   UNL     1      -9.843   4.183  68.766  1.00  0.00    -0.088 N  
HETATM    9  O   UNL     1      -8.076   2.751  68.772  1.00  0.00    -0.055 OA 
HETATM   10  H   UNL     1     -10.480   4.737  68.193  1.00  0.00     0.000 HD 
BRANCH   8  11
HETATM   11  C   UNL     1      -9.908   4.313  70.213  1.00  0.00    -0.193 C  
BRANCH  11  12
HETATM   12  C   UNL     1      -9.783   5.768  70.645  1.00  0.00    -0.178 C  
HETATM   13  C   UNL     1     -10.725   6.708  69.937  1.00  0.00    -0.250 C  
HETATM   14  N   UNL     1     -10.829   7.762  70.904  1.00  0.00    -0.233 N  
HETATM   15  C   UNL     1     -10.613   7.212  72.163  1.00  0.00    -0.210 C  
HETATM   16  O   UNL     1     -10.166   5.916  72.021  1.00  0.00    -0.190 OA 
HETATM   17  O   UNL     1     -10.775   7.708  73.266  1.00  0.00    -0.386 OA 
BRANCH  14  18
HETATM   18  C   UNL     1     -11.136   9.111  70.596  1.00  0.00    -0.265 A  
HETATM   19  C   UNL     1     -10.425   9.817  69.627  1.00  0.00    -0.263 A  
HETATM   20  C   UNL     1     -10.733  11.151  69.322  1.00  0.00    -0.241 A  
HETATM   21  C   UNL     1     -11.771  11.835  69.964  1.00  0.00    -0.305 A  
HETATM   22  C   UNL     1     -12.192   9.781  71.224  1.00  0.00    -0.465 A  
HETATM   23  C   UNL     1     -12.514  11.112  70.902  1.00  0.00    -0.509 A  
BRANCH  21  24
HETATM   24  N   UNL     1     -11.976  13.234  69.731  1.00  0.00    -0.327 N  
HETATM   25  C   UNL     1     -12.308  14.144  70.829  1.00  0.00    -0.369 C  
HETATM   26  C   UNL     1     -11.503  15.438  70.746  1.00  0.00    -0.355 C  
HETATM   27  O   UNL     1     -11.770  16.089  69.506  1.00  0.00    -0.325 OA 
HETATM   28  C   UNL     1     -11.410  15.247  68.423  1.00  0.00    -0.329 C  
HETATM   29  C   UNL     1     -11.927  13.798  68.443  1.00  0.00    -0.360 C  
HETATM   30  O   UNL     1     -12.146  13.202  67.388  1.00  0.00    -0.348 OA 
ENDBRANCH  21  24
ENDBRANCH  14  18
ENDBRANCH  11  12
ENDBRANCH   8  11
ENDBRANCH   5   7
TORSDOF 5
ENDMDL
MODEL       66
REMARK 921   NORMALIZED FREE ENERGY PREDICTED BY IDOCK:   -5.51 KCAL/MOL
REMARK 922        TOTAL FREE ENERGY PREDICTED BY IDOCK:   -7.68 KCAL/MOL
REMARK 923 INTER-LIGAND FREE ENERGY PREDICTED BY IDOCK:   -7.01 KCAL/MOL
REMARK 924 INTRA-LIGAND FREE ENERGY PREDICTED BY IDOCK:   -0.67 KCAL/MOL
REMARK 927      BINDING AFFINITY PREDICTED BY RF-SCORE:    0.00 PKD
ROOT
HETATM    1 CL   UNL     1      -5.821   7.659  72.785  1.00  0.00    -0.043 Cl 
HETATM    2  C   UNL     1      -7.265   7.702  71.852  1.00  0.00    -0.065 A  
HETATM    3  C   UNL     1      -7.426   7.235  70.576  1.00  0.00    -0.083 A  
HETATM    4  C   UNL     1      -8.764   7.448  70.122  1.00  0.00    -0.143 A  
HETATM    5  C   UNL     1      -9.562   8.059  71.078  1.00  0.00    -0.160 A  
HETATM    6  S   UNL     1      -8.666   8.375  72.511  1.00  0.00    -0.174 SA 
ENDROOT
BRANCH   5   7
HETATM    7  C   UNL     1     -10.969   8.420  70.947  1.00  0.00    -0.243 C  
HETATM    8  N   UNL     1     -11.254   9.769  71.062  1.00  0.00    -0.358 N  
HETATM    9  O   UNL     1     -11.858   7.600  70.740  1.00  0.00    -0.279 OA 
HETATM   10  H   UNL     1     -10.509  10.406  71.345  1.00  0.00     0.000 HD 
BRANCH   8  11
HETATM   11  C   UNL     1     -12.576  10.312  70.794  1.00  0.00    -0.352 C  
BRANCH  11  12
HETATM   12  C   UNL     1     -12.500  11.531  69.884  1.00  0.00    -0.094 C  
HETATM   13  C   UNL     1     -11.351  12.460  70.187  1.00  0.00     0.238 C  
HETATM   14  N   UNL     1     -11.169  13.086  68.910  1.00  0.00    -0.266 N  
HETATM   15  C   UNL     1     -11.593  12.194  67.930  1.00  0.00    -0.347 C  
HETATM   16  O   UNL     1     -12.233  11.131  68.531  1.00  0.00    -0.600 OA 
HETATM   17  O   UNL     1     -11.459  12.248  66.719  1.00  0.00    -0.323 OA 
BRANCH  14  18
HETATM   18  C   UNL     1     -10.615  14.376  68.716  1.00  0.00    -0.254 A  
HETATM   19  C   UNL     1     -11.090  15.485  69.415  1.00  0.00    -0.291 A  
HETATM   20  C   UNL     1     -10.538  16.760  69.223  1.00  0.00    -0.336 A  
HETATM   21  C   UNL     1      -9.481  16.982  68.334  1.00  0.00    -0.269 A  
HETATM   22  C   UNL     1      -9.542  14.586  67.844  1.00  0.00    -0.217 A  
HETATM   23  C   UNL     1      -8.975  15.862  67.668  1.00  0.00    -0.193 A  
BRANCH  21  24
HETATM   24  N   UNL     1      -9.027  18.313  68.058  1.00  0.00    -0.283 N  
HETATM   25  C   UNL     1      -8.000  18.951  68.883  1.00  0.00    -0.265 C  
HETATM   26  C   UNL     1      -6.961  19.669  68.026  1.00  0.00    -0.264 C  
HETATM   27  O   UNL     1      -7.602  20.664  67.232  1.00  0.00    -0.329 OA 
HETATM   28  C   UNL     1      -8.570  20.066  66.384  1.00  0.00    -0.298 C  
HETATM   29  C   UNL     1      -9.577  19.095  67.025  1.00  0.00    -0.322 C  
HETATM   30  O   UNL     1     -10.708  18.974  66.555  1.00  0.00    -0.398 OA 
ENDBRANCH  21  24
ENDBRANCH  14  18
ENDBRANCH  11  12
ENDBRANCH   8  11
ENDBRANCH   5   7
TORSDOF 5
ENDMDL
MODEL       67
REMARK 921   NORMALIZED FREE ENERGY PREDICTED BY IDOCK:   -5.49 KCAL/MOL
REMARK 922        TOTAL FREE ENERGY PREDICTED BY IDOCK:   -7.65 KCAL/MOL
REMARK 923 INTER-LIGAND FREE ENERGY PREDICTED BY IDOCK:   -7.09 KCAL/MOL
REMARK 924 INTRA-LIGAND FREE ENERGY PREDICTED BY IDOCK:   -0.56 KCAL/MOL
REMARK 927      BINDING AFFINITY PREDICTED BY RF-SCORE:    0.00 PKD
ROOT
HETATM    1 CL   UNL     1      -7.352   2.771  74.058  1.00  0.00    -0.041 Cl 
HETATM    2  C   UNL     1      -8.653   3.480  73.185  1.00  0.00    -0.085 A  
HETATM    3  C   UNL     1      -9.955   3.573  73.596  1.00  0.00    -0.170 A  
HETATM    4  C   UNL     1     -10.756   4.219  72.604  1.00  0.00    -0.172 A  
HETATM    5  C   UNL     1     -10.023   4.595  71.488  1.00  0.00    -0.195 A  
HETATM    6  S   UNL     1      -8.372   4.146  71.660  1.00  0.00    -0.093 SA 
ENDROOT
BRANCH   5   7
HETATM    7  C   UNL     1     -10.523   5.272  70.296  1.00  0.00    -0.261 C  
HETATM    8  N   UNL     1      -9.919   4.910  69.105  1.00  0.00    -0.193 N  
HETATM    9  O   UNL     1     -11.424   6.104  70.322  1.00  0.00    -0.375 OA 
HETATM   10  H   UNL     1      -9.100   4.302  69.135  1.00  0.00     0.000 HD 
BRANCH   8  11
HETATM   11  C   UNL     1     -10.408   5.365  67.814  1.00  0.00    -0.166 C  
BRANCH  11  12
HETATM   12  C   UNL     1      -9.856   6.742  67.466  1.00  0.00    -0.132 C  
HETATM   13  C   UNL     1     -10.892   7.838  67.449  1.00  0.00    -0.137 C  
HETATM   14  N   UNL     1     -10.073   8.985  67.713  1.00  0.00    -0.195 N  
HETATM   15  C   UNL     1      -8.972   8.565  68.453  1.00  0.00    -0.139 C  
HETATM   16  O   UNL     1      -8.944   7.187  68.481  1.00  0.00    -0.128 OA 
HETATM   17  O   UNL     1      -8.124   9.226  69.029  1.00  0.00    -0.101 OA 
BRANCH  14  18
HETATM   18  C   UNL     1     -10.381  10.307  67.307  1.00  0.00    -0.232 A  
HETATM   19  C   UNL     1      -9.812  10.870  66.166  1.00  0.00    -0.268 A  
HETATM   20  C   UNL     1     -10.121  12.178  65.764  1.00  0.00    -0.272 A  
HETATM   21  C   UNL     1     -11.021  12.977  66.478  1.00  0.00    -0.285 A  
HETATM   22  C   UNL     1     -11.301  11.091  68.011  1.00  0.00    -0.374 A  
HETATM   23  C   UNL     1     -11.628  12.395  67.595  1.00  0.00    -0.421 A  
BRANCH  21  24
HETATM   24  N   UNL     1     -11.216  14.351  66.124  1.00  0.00    -0.330 N  
HETATM   25  C   UNL     1     -10.873  15.429  67.053  1.00  0.00    -0.320 C  
HETATM   26  C   UNL     1     -10.133  16.562  66.347  1.00  0.00    -0.312 C  
HETATM   27  O   UNL     1     -10.951  17.090  65.305  1.00  0.00    -0.434 OA 
HETATM   28  C   UNL     1     -11.257  16.076  64.361  1.00  0.00    -0.205 C  
HETATM   29  C   UNL     1     -11.793  14.739  64.900  1.00  0.00    -0.377 C  
HETATM   30  O   UNL     1     -12.563  14.059  64.221  1.00  0.00    -0.670 OA 
ENDBRANCH  21  24
ENDBRANCH  14  18
ENDBRANCH  11  12
ENDBRANCH   8  11
ENDBRANCH   5   7
TORSDOF 5
ENDMDL
MODEL       68
REMARK 921   NORMALIZED FREE ENERGY PREDICTED BY IDOCK:   -5.48 KCAL/MOL
REMARK 922        TOTAL FREE ENERGY PREDICTED BY IDOCK:   -7.65 KCAL/MOL
REMARK 923 INTER-LIGAND FREE ENERGY PREDICTED BY IDOCK:   -7.00 KCAL/MOL
REMARK 924 INTRA-LIGAND FREE ENERGY PREDICTED BY IDOCK:   -0.64 KCAL/MOL
REMARK 927      BINDING AFFINITY PREDICTED BY RF-SCORE:    0.00 PKD
ROOT
HETATM    1 CL   UNL     1      -7.659   6.507  66.981  1.00  0.00    -0.094 Cl 
HETATM    2  C   UNL     1      -8.808   6.929  68.189  1.00  0.00    -0.125 A  
HETATM    3  C   UNL     1      -9.324   6.101  69.149  1.00  0.00    -0.132 A  
HETATM    4  C   UNL     1     -10.258   6.800  69.974  1.00  0.00    -0.211 A  
HETATM    5  C   UNL     1     -10.403   8.130  69.609  1.00  0.00    -0.221 A  
HETATM    6  S   UNL     1      -9.407   8.506  68.259  1.00  0.00    -0.138 SA 
ENDROOT
BRANCH   5   7
HETATM    7  C   UNL     1     -11.270   9.123  70.235  1.00  0.00    -0.218 C  
HETATM    8  N   UNL     1     -11.450  10.294  69.521  1.00  0.00    -0.362 N  
HETATM    9  O   UNL     1     -11.820   8.950  71.318  1.00  0.00    -0.285 OA 
HETATM   10  H   UNL     1     -10.891  10.449  68.682  1.00  0.00     0.000 HD 
BRANCH   8  11
HETATM   11  C   UNL     1     -12.408  11.311  69.923  1.00  0.00    -0.233 C  
BRANCH  11  12
HETATM   12  C   UNL     1     -11.721  12.645  70.189  1.00  0.00    -0.168 C  
HETATM   13  C   UNL     1     -11.259  13.363  68.946  1.00  0.00    -0.276 C  
HETATM   14  N   UNL     1     -11.250  14.720  69.409  1.00  0.00    -0.271 N  
HETATM   15  C   UNL     1     -12.199  14.835  70.420  1.00  0.00    -0.336 C  
HETATM   16  O   UNL     1     -12.647  13.579  70.766  1.00  0.00    -0.337 OA 
HETATM   17  O   UNL     1     -12.636  15.835  70.966  1.00  0.00    -0.451 OA 
BRANCH  14  18
HETATM   18  C   UNL     1     -10.431  15.747  68.879  1.00  0.00    -0.223 A  
HETATM   19  C   UNL     1     -10.883  16.590  67.864  1.00  0.00    -0.326 A  
HETATM   20  C   UNL     1     -10.071  17.608  67.343  1.00  0.00    -0.331 A  
HETATM   21  C   UNL     1      -8.776  17.837  67.820  1.00  0.00    -0.241 A  
HETATM   22  C   UNL     1      -9.146  15.987  69.378  1.00  0.00    -0.189 A  
HETATM   23  C   UNL     1      -8.340  17.023  68.869  1.00  0.00    -0.196 A  
BRANCH  21  24
HETATM   24  N   UNL     1      -7.922  18.793  67.180  1.00  0.00    -0.242 N  
HETATM   25  C   UNL     1      -8.291  20.207  67.100  1.00  0.00    -0.337 C  
HETATM   26  C   UNL     1      -7.109  21.113  67.431  1.00  0.00    -0.259 C  
HETATM   27  O   UNL     1      -6.043  20.860  66.520  1.00  0.00    -0.218 OA 
HETATM   28  C   UNL     1      -5.630  19.506  66.612  1.00  0.00    -0.165 C  
HETATM   29  C   UNL     1      -6.720  18.422  66.548  1.00  0.00    -0.203 C  
HETATM   30  O   UNL     1      -6.465  17.312  66.081  1.00  0.00    -0.214 OA 
ENDBRANCH  21  24
ENDBRANCH  14  18
ENDBRANCH  11  12
ENDBRANCH   8  11
ENDBRANCH   5   7
TORSDOF 5
ENDMDL
MODEL       69
REMARK 921   NORMALIZED FREE ENERGY PREDICTED BY IDOCK:   -5.41 KCAL/MOL
REMARK 922        TOTAL FREE ENERGY PREDICTED BY IDOCK:   -7.55 KCAL/MOL
REMARK 923 INTER-LIGAND FREE ENERGY PREDICTED BY IDOCK:   -7.03 KCAL/MOL
REMARK 924 INTRA-LIGAND FREE ENERGY PREDICTED BY IDOCK:   -0.52 KCAL/MOL
REMARK 927      BINDING AFFINITY PREDICTED BY RF-SCORE:    0.00 PKD
ROOT
HETATM    1 CL   UNL     1      -5.211  18.480  71.271  1.00  0.00    -0.301 Cl 
HETATM    2  C   UNL     1      -6.116  18.694  69.824  1.00  0.00    -0.234 A  
HETATM    3  C   UNL     1      -6.463  19.886  69.249  1.00  0.00    -0.380 A  
HETATM    4  C   UNL     1      -7.221  19.674  68.057  1.00  0.00    -0.321 A  
HETATM    5  C   UNL     1      -7.407  18.328  67.775  1.00  0.00    -0.216 A  
HETATM    6  S   UNL     1      -6.665  17.344  68.974  1.00  0.00    -0.244 SA 
ENDROOT
BRANCH   5   7
HETATM    7  C   UNL     1      -8.130  17.760  66.642  1.00  0.00    -0.258 C  
HETATM    8  N   UNL     1      -9.301  17.092  66.954  1.00  0.00    -0.243 N  
HETATM    9  O   UNL     1      -7.749  17.862  65.481  1.00  0.00    -0.505 OA 
HETATM   10  H   UNL     1      -9.527  16.930  67.936  1.00  0.00     0.000 HD 
BRANCH   8  11
HETATM   11  C   UNL     1     -10.219  16.613  65.935  1.00  0.00    -0.340 C  
BRANCH  11  12
HETATM   12  C   UNL     1     -10.817  15.265  66.317  1.00  0.00    -0.312 C  
HETATM   13  C   UNL     1      -9.797  14.181  66.562  1.00  0.00    -0.290 C  
HETATM   14  N   UNL     1     -10.530  13.317  67.441  1.00  0.00    -0.242 N  
HETATM   15  C   UNL     1     -11.454  14.093  68.134  1.00  0.00    -0.310 C  
HETATM   16  O   UNL     1     -11.490  15.355  67.582  1.00  0.00    -0.326 OA 
HETATM   17  O   UNL     1     -12.154  13.800  69.089  1.00  0.00    -0.346 OA 
BRANCH  14  18
HETATM   18  C   UNL     1     -10.300  11.926  67.579  1.00  0.00    -0.200 A  
HETATM   19  C   UNL     1      -9.018  11.386  67.488  1.00  0.00    -0.150 A  
HETATM   20  C   UNL     1      -8.792  10.010  67.628  1.00  0.00    -0.121 A  
HETATM   21  C   UNL     1      -9.835   9.112  67.879  1.00  0.00    -0.169 A  
HETATM   22  C   UNL     1     -11.345  11.037  67.854  1.00  0.00    -0.381 A  
HETATM   23  C   UNL     1     -11.115   9.659  68.017  1.00  0.00    -0.108 A  
BRANCH  21  24
HETATM   24  N   UNL     1      -9.597   7.699  67.883  1.00  0.00    -0.142 N  
HETATM   25  C   UNL     1     -10.376   6.795  67.035  1.00  0.00    -0.268 C  
HETATM   26  C   UNL     1      -9.485   5.766  66.346  1.00  0.00    -0.156 C  
HETATM   27  O   UNL     1      -8.793   4.999  67.329  1.00  0.00    -0.104 OA 
HETATM   28  C   UNL     1      -7.989   5.845  68.135  1.00  0.00    -0.109 C  
HETATM   29  C   UNL     1      -8.650   7.099  68.734  1.00  0.00    -0.125 C  
HETATM   30  O   UNL     1      -8.259   7.553  69.809  1.00  0.00    -0.124 OA 
ENDBRANCH  21  24
ENDBRANCH  14  18
ENDBRANCH  11  12
ENDBRANCH   8  11
ENDBRANCH   5   7
TORSDOF 5
ENDMDL
MODEL       70
REMARK 921   NORMALIZED FREE ENERGY PREDICTED BY IDOCK:   -5.41 KCAL/MOL
REMARK 922        TOTAL FREE ENERGY PREDICTED BY IDOCK:   -7.55 KCAL/MOL
REMARK 923 INTER-LIGAND FREE ENERGY PREDICTED BY IDOCK:   -6.95 KCAL/MOL
REMARK 924 INTRA-LIGAND FREE ENERGY PREDICTED BY IDOCK:   -0.60 KCAL/MOL
REMARK 927      BINDING AFFINITY PREDICTED BY RF-SCORE:    0.00 PKD
ROOT
HETATM    1 CL   UNL     1      -9.838  17.571  68.749  1.00  0.00    -0.324 Cl 
HETATM    2  C   UNL     1     -10.108  16.593  67.361  1.00  0.00    -0.274 A  
HETATM    3  C   UNL     1     -10.257  17.029  66.072  1.00  0.00    -0.337 A  
HETATM    4  C   UNL     1     -10.472  15.930  65.185  1.00  0.00    -0.363 A  
HETATM    5  C   UNL     1     -10.468  14.707  65.840  1.00  0.00    -0.314 A  
HETATM    6  S   UNL     1     -10.213  14.917  67.527  1.00  0.00    -0.233 SA 
ENDROOT
BRANCH   5   7
HETATM    7  C   UNL     1     -10.658  13.390  65.241  1.00  0.00    -0.325 C  
HETATM    8  N   UNL     1      -9.666  12.463  65.508  1.00  0.00    -0.395 N  
HETATM    9  O   UNL     1     -11.628  13.098  64.549  1.00  0.00    -0.334 OA 
HETATM   10  H   UNL     1      -8.822  12.773  65.990  1.00  0.00     0.000 HD 
BRANCH   8  11
HETATM   11  C   UNL     1      -9.783  11.066  65.126  1.00  0.00    -0.254 C  
BRANCH  11  12
HETATM   12  C   UNL     1     -10.479  10.251  66.209  1.00  0.00    -0.144 C  
HETATM   13  C   UNL     1      -9.578   9.281  66.930  1.00  0.00    -0.174 C  
HETATM   14  N   UNL     1     -10.269   9.153  68.181  1.00  0.00    -0.198 N  
HETATM   15  C   UNL     1     -10.968  10.334  68.408  1.00  0.00    -0.260 C  
HETATM   16  O   UNL     1     -10.930  11.109  67.269  1.00  0.00    -0.263 OA 
HETATM   17  O   UNL     1     -11.542  10.716  69.414  1.00  0.00    -0.259 OA 
BRANCH  14  18
HETATM   18  C   UNL     1     -10.198   8.020  69.028  1.00  0.00    -0.210 A  
HETATM   19  C   UNL     1     -10.825   6.820  68.695  1.00  0.00    -0.277 A  
HETATM   20  C   UNL     1     -10.750   5.699  69.534  1.00  0.00    -0.380 A  
HETATM   21  C   UNL     1     -10.038   5.723  70.738  1.00  0.00    -0.202 A  
HETATM   22  C   UNL     1      -9.463   8.043  70.218  1.00  0.00    -0.167 A  
HETATM   23  C   UNL     1      -9.371   6.911  71.049  1.00  0.00    -0.156 A  
BRANCH  21  24
HETATM   24  N   UNL     1     -10.091   4.610  71.639  1.00  0.00    -0.194 N  
HETATM   25  C   UNL     1      -9.465   3.330  71.301  1.00  0.00    -0.152 C  
HETATM   26  C   UNL     1      -8.691   2.756  72.485  1.00  0.00    -0.075 C  
HETATM   27  O   UNL     1      -9.575   2.564  73.586  1.00  0.00    -0.086 OA 
HETATM   28  C   UNL     1     -10.158   3.800  73.968  1.00  0.00    -0.144 C  
HETATM   29  C   UNL     1     -10.787   4.664  72.861  1.00  0.00    -0.221 C  
HETATM   30  O   UNL     1     -11.737   5.404  73.115  1.00  0.00    -0.233 OA 
ENDBRANCH  21  24
ENDBRANCH  14  18
ENDBRANCH  11  12
ENDBRANCH   8  11
ENDBRANCH   5   7
TORSDOF 5
ENDMDL
MODEL       71
REMARK 921   NORMALIZED FREE ENERGY PREDICTED BY IDOCK:   -5.37 KCAL/MOL
REMARK 922        TOTAL FREE ENERGY PREDICTED BY IDOCK:   -7.50 KCAL/MOL
REMARK 923 INTER-LIGAND FREE ENERGY PREDICTED BY IDOCK:   -6.78 KCAL/MOL
REMARK 924 INTRA-LIGAND FREE ENERGY PREDICTED BY IDOCK:   -0.73 KCAL/MOL
REMARK 927      BINDING AFFINITY PREDICTED BY RF-SCORE:    0.00 PKD
ROOT
HETATM    1 CL   UNL     1      -9.075  20.237  66.938  1.00  0.00    -0.453 Cl 
HETATM    2  C   UNL     1      -9.709  18.746  67.514  1.00  0.00    -0.307 A  
HETATM    3  C   UNL     1      -9.751  18.326  68.816  1.00  0.00    -0.348 A  
HETATM    4  C   UNL     1     -10.343  17.030  68.913  1.00  0.00    -0.337 A  
HETATM    5  C   UNL     1     -10.731  16.526  67.680  1.00  0.00    -0.311 A  
HETATM    6  S   UNL     1     -10.359  17.636  66.421  1.00  0.00    -0.311 SA 
ENDROOT
BRANCH   5   7
HETATM    7  C   UNL     1     -11.363  15.237  67.419  1.00  0.00    -0.284 C  
HETATM    8  N   UNL     1     -11.391  14.844  66.092  1.00  0.00    -0.335 N  
HETATM    9  O   UNL     1     -11.838  14.528  68.300  1.00  0.00    -0.323 OA 
HETATM   10  H   UNL     1     -11.090  15.506  65.377  1.00  0.00     0.000 HD 
BRANCH   8  11
HETATM   11  C   UNL     1     -11.834  13.522  65.681  1.00  0.00    -0.369 C  
BRANCH  11  12
HETATM   12  C   UNL     1     -10.743  12.480  65.896  1.00  0.00    -0.264 C  
HETATM   13  C   UNL     1     -11.157  11.321  66.769  1.00  0.00    -0.250 C  
HETATM   14  N   UNL     1     -10.259  10.303  66.305  1.00  0.00    -0.233 N  
HETATM   15  C   UNL     1      -9.940  10.584  64.980  1.00  0.00    -0.322 C  
HETATM   16  O   UNL     1     -10.413  11.837  64.655  1.00  0.00    -0.269 OA 
HETATM   17  O   UNL     1      -9.353   9.898  64.159  1.00  0.00    -0.266 OA 
BRANCH  14  18
HETATM   18  C   UNL     1      -9.825   9.198  67.077  1.00  0.00    -0.207 A  
HETATM   19  C   UNL     1      -8.702   9.280  67.899  1.00  0.00    -0.124 A  
HETATM   20  C   UNL     1      -8.275   8.186  68.665  1.00  0.00    -0.125 A  
HETATM   21  C   UNL     1      -8.959   6.965  68.655  1.00  0.00    -0.129 A  
HETATM   22  C   UNL     1     -10.528   7.988  67.081  1.00  0.00    -0.408 A  
HETATM   23  C   UNL     1     -10.112   6.898  67.867  1.00  0.00    -0.195 A  
BRANCH  21  24
HETATM   24  N   UNL     1      -8.426   5.825  69.340  1.00  0.00    -0.111 N  
HETATM   25  C   UNL     1      -7.648   4.808  68.629  1.00  0.00    -0.069 C  
HETATM   26  C   UNL     1      -6.406   4.403  69.417  1.00  0.00    -0.028 C  
HETATM   27  O   UNL     1      -6.793   3.886  70.688  1.00  0.00    -0.032 OA 
HETATM   28  C   UNL     1      -7.507   4.869  71.420  1.00  0.00    -0.078 C  
HETATM   29  C   UNL     1      -8.665   5.589  70.707  1.00  0.00    -0.130 C  
HETATM   30  O   UNL     1      -9.630   6.001  71.349  1.00  0.00    -0.159 OA 
ENDBRANCH  21  24
ENDBRANCH  14  18
ENDBRANCH  11  12
ENDBRANCH   8  11
ENDBRANCH   5   7
TORSDOF 5
ENDMDL
MODEL       72
REMARK 921   NORMALIZED FREE ENERGY PREDICTED BY IDOCK:   -5.36 KCAL/MOL
REMARK 922        TOTAL FREE ENERGY PREDICTED BY IDOCK:   -7.48 KCAL/MOL
REMARK 923 INTER-LIGAND FREE ENERGY PREDICTED BY IDOCK:   -6.77 KCAL/MOL
REMARK 924 INTRA-LIGAND FREE ENERGY PREDICTED BY IDOCK:   -0.71 KCAL/MOL
REMARK 927      BINDING AFFINITY PREDICTED BY RF-SCORE:    0.00 PKD
ROOT
HETATM    1 CL   UNL     1     -10.771  19.550  65.816  1.00  0.00    -0.566 Cl 
HETATM    2  C   UNL     1      -9.605  19.201  67.031  1.00  0.00    -0.322 A  
HETATM    3  C   UNL     1      -9.472  19.830  68.239  1.00  0.00    -0.440 A  
HETATM    4  C   UNL     1      -8.388  19.275  68.985  1.00  0.00    -0.268 A  
HETATM    5  C   UNL     1      -7.751  18.242  68.313  1.00  0.00    -0.291 A  
HETATM    6  S   UNL     1      -8.477  17.971  66.778  1.00  0.00    -0.265 SA 
ENDROOT
BRANCH   5   7
HETATM    7  C   UNL     1      -6.612  17.460  68.782  1.00  0.00    -0.206 C  
HETATM    8  N   UNL     1      -6.351  16.300  68.074  1.00  0.00    -0.125 N  
HETATM    9  O   UNL     1      -5.913  17.792  69.734  1.00  0.00    -0.236 OA 
HETATM   10  H   UNL     1      -7.018  15.998  67.363  1.00  0.00     0.000 HD 
BRANCH   8  11
HETATM   11  C   UNL     1      -5.162  15.497  68.306  1.00  0.00    -0.107 C  
BRANCH  11  12
HETATM   12  C   UNL     1      -5.510  14.021  68.453  1.00  0.00    -0.106 C  
HETATM   13  C   UNL     1      -6.935  13.759  68.871  1.00  0.00    -0.111 C  
HETATM   14  N   UNL     1      -7.130  12.439  68.346  1.00  0.00    -0.098 N  
HETATM   15  C   UNL     1      -6.293  12.287  67.245  1.00  0.00    -0.150 C  
HETATM   16  O   UNL     1      -5.428  13.358  67.182  1.00  0.00    -0.312 OA 
HETATM   17  O   UNL     1      -6.259  11.398  66.410  1.00  0.00    -0.136 OA 
BRANCH  14  18
HETATM   18  C   UNL     1      -8.050  11.494  68.862  1.00  0.00    -0.035 A  
HETATM   19  C   UNL     1      -7.644  10.477  69.725  1.00  0.00    -0.102 A  
HETATM   20  C   UNL     1      -8.557   9.545  70.238  1.00  0.00    -0.258 A  
HETATM   21  C   UNL     1      -9.919   9.592  69.920  1.00  0.00    -0.241 A  
HETATM   22  C   UNL     1      -9.414  11.562  68.559  1.00  0.00    -0.175 A  
HETATM   23  C   UNL     1     -10.334  10.639  69.091  1.00  0.00    -0.242 A  
BRANCH  21  24
HETATM   24  N   UNL     1     -10.805   8.550  70.346  1.00  0.00    -0.232 N  
HETATM   25  C   UNL     1     -10.740   7.212  69.757  1.00  0.00    -0.239 C  
HETATM   26  C   UNL     1     -10.826   6.125  70.825  1.00  0.00    -0.288 C  
HETATM   27  O   UNL     1     -12.049   6.257  71.544  1.00  0.00    -0.286 OA 
HETATM   28  C   UNL     1     -12.116   7.529  72.169  1.00  0.00    -0.269 C  
HETATM   29  C   UNL     1     -11.813   8.765  71.305  1.00  0.00    -0.303 C  
HETATM   30  O   UNL     1     -12.348   9.845  71.555  1.00  0.00    -0.359 OA 
ENDBRANCH  21  24
ENDBRANCH  14  18
ENDBRANCH  11  12
ENDBRANCH   8  11
ENDBRANCH   5   7
TORSDOF 5
ENDMDL
MODEL       73
REMARK 921   NORMALIZED FREE ENERGY PREDICTED BY IDOCK:   -5.33 KCAL/MOL
REMARK 922        TOTAL FREE ENERGY PREDICTED BY IDOCK:   -7.44 KCAL/MOL
REMARK 923 INTER-LIGAND FREE ENERGY PREDICTED BY IDOCK:   -6.77 KCAL/MOL
REMARK 924 INTRA-LIGAND FREE ENERGY PREDICTED BY IDOCK:   -0.68 KCAL/MOL
REMARK 927      BINDING AFFINITY PREDICTED BY RF-SCORE:    0.00 PKD
ROOT
HETATM    1 CL   UNL     1     -11.841  16.301  70.992  1.00  0.00    -0.346 Cl 
HETATM    2  C   UNL     1     -12.484  14.767  71.431  1.00  0.00    -0.336 A  
HETATM    3  C   UNL     1     -13.265  14.492  72.521  1.00  0.00    -0.538 A  
HETATM    4  C   UNL     1     -13.606  13.105  72.564  1.00  0.00    -0.595 A  
HETATM    5  C   UNL     1     -13.076  12.391  71.500  1.00  0.00    -0.264 A  
HETATM    6  S   UNL     1     -12.161  13.419  70.469  1.00  0.00    -0.300 SA 
ENDROOT
BRANCH   5   7
HETATM    7  C   UNL     1     -13.227  10.964  71.238  1.00  0.00    -0.193 C  
HETATM    8  N   UNL     1     -13.465  10.174  72.349  1.00  0.00    -0.594 N  
HETATM    9  O   UNL     1     -13.160  10.474  70.116  1.00  0.00    -0.166 OA 
HETATM   10  H   UNL     1     -13.402  10.598  73.275  1.00  0.00     0.000 HD 
BRANCH   8  11
HETATM   11  C   UNL     1     -13.801   8.764  72.245  1.00  0.00    -0.447 C  
BRANCH  11  12
HETATM   12  C   UNL     1     -12.549   7.898  72.190  1.00  0.00    -0.249 C  
HETATM   13  C   UNL     1     -12.283   7.278  70.841  1.00  0.00    -0.270 C  
HETATM   14  N   UNL     1     -10.863   7.087  70.910  1.00  0.00    -0.236 N  
HETATM   15  C   UNL     1     -10.341   8.052  71.764  1.00  0.00    -0.217 C  
HETATM   16  O   UNL     1     -11.376   8.699  72.405  1.00  0.00    -0.359 OA 
HETATM   17  O   UNL     1      -9.179   8.359  71.973  1.00  0.00    -0.187 OA 
BRANCH  14  18
HETATM   18  C   UNL     1     -10.147   6.100  70.189  1.00  0.00    -0.184 A  
HETATM   19  C   UNL     1      -9.389   6.425  69.065  1.00  0.00    -0.127 A  
HETATM   20  C   UNL     1      -8.678   5.447  68.355  1.00  0.00    -0.098 A  
HETATM   21  C   UNL     1      -8.684   4.102  68.742  1.00  0.00    -0.096 A  
HETATM   22  C   UNL     1     -10.137   4.761  70.596  1.00  0.00    -0.288 A  
HETATM   23  C   UNL     1      -9.407   3.784  69.895  1.00  0.00    -0.248 A  
BRANCH  21  24
HETATM   24  N   UNL     1      -8.062   3.105  67.922  1.00  0.00    -0.077 N  
HETATM   25  C   UNL     1      -8.860   2.138  67.167  1.00  0.00    -0.132 C  
HETATM   26  C   UNL     1      -8.332   1.967  65.745  1.00  0.00    -0.094 C  
HETATM   27  O   UNL     1      -6.980   1.519  65.788  1.00  0.00    -0.040 OA 
HETATM   28  C   UNL     1      -6.172   2.463  66.473  1.00  0.00    -0.024 C  
HETATM   29  C   UNL     1      -6.664   2.962  67.843  1.00  0.00    -0.040 C  
HETATM   30  O   UNL     1      -5.856   3.302  68.706  1.00  0.00    -0.022 OA 
ENDBRANCH  21  24
ENDBRANCH  14  18
ENDBRANCH  11  12
ENDBRANCH   8  11
ENDBRANCH   5   7
TORSDOF 5
ENDMDL
MODEL       74
REMARK 921   NORMALIZED FREE ENERGY PREDICTED BY IDOCK:   -5.31 KCAL/MOL
REMARK 922        TOTAL FREE ENERGY PREDICTED BY IDOCK:   -7.42 KCAL/MOL
REMARK 923 INTER-LIGAND FREE ENERGY PREDICTED BY IDOCK:   -6.65 KCAL/MOL
REMARK 924 INTRA-LIGAND FREE ENERGY PREDICTED BY IDOCK:   -0.78 KCAL/MOL
REMARK 927      BINDING AFFINITY PREDICTED BY RF-SCORE:    0.00 PKD
ROOT
HETATM    1 CL   UNL     1      -6.644   6.900  72.934  1.00  0.00    -0.062 Cl 
HETATM    2  C   UNL     1      -7.984   7.240  71.910  1.00  0.00    -0.091 A  
HETATM    3  C   UNL     1      -8.284   6.621  70.727  1.00  0.00    -0.121 A  
HETATM    4  C   UNL     1      -9.469   7.173  70.151  1.00  0.00    -0.161 A  
HETATM    5  C   UNL     1     -10.022   8.180  70.928  1.00  0.00    -0.187 A  
HETATM    6  S   UNL     1      -9.082   8.447  72.342  1.00  0.00    -0.244 SA 
ENDROOT
BRANCH   5   7
HETATM    7  C   UNL     1     -11.225   8.952  70.638  1.00  0.00    -0.266 C  
HETATM    8  N   UNL     1     -11.040  10.076  69.852  1.00  0.00    -0.270 N  
HETATM    9  O   UNL     1     -12.339   8.641  71.046  1.00  0.00    -0.257 OA 
HETATM   10  H   UNL     1     -10.088  10.365  69.626  1.00  0.00     0.000 HD 
BRANCH   8  11
HETATM   11  C   UNL     1     -12.151  10.858  69.337  1.00  0.00    -0.290 C  
BRANCH  11  12
HETATM   12  C   UNL     1     -11.690  11.840  68.268  1.00  0.00    -0.310 C  
HETATM   13  C   UNL     1     -10.626  12.805  68.730  1.00  0.00    -0.189 C  
HETATM   14  N   UNL     1      -9.995  13.125  67.483  1.00  0.00    -0.220 N  
HETATM   15  C   UNL     1     -10.155  12.038  66.629  1.00  0.00    -0.198 C  
HETATM   16  O   UNL     1     -11.038  11.143  67.195  1.00  0.00    -0.282 OA 
HETATM   17  O   UNL     1      -9.637  11.815  65.547  1.00  0.00    -0.228 OA 
BRANCH  14  18
HETATM   18  C   UNL     1      -9.305  14.333  67.215  1.00  0.00    -0.213 A  
HETATM   19  C   UNL     1      -7.950  14.479  67.509  1.00  0.00    -0.208 A  
HETATM   20  C   UNL     1      -7.268  15.674  67.240  1.00  0.00    -0.252 A  
HETATM   21  C   UNL     1      -7.906  16.773  66.655  1.00  0.00    -0.272 A  
HETATM   22  C   UNL     1      -9.944  15.419  66.607  1.00  0.00    -0.271 A  
HETATM   23  C   UNL     1      -9.254  16.611  66.318  1.00  0.00    -0.328 A  
BRANCH  21  24
HETATM   24  N   UNL     1      -7.223  18.025  66.516  1.00  0.00    -0.217 N  
HETATM   25  C   UNL     1      -6.207  18.223  65.481  1.00  0.00    -0.247 C  
HETATM   26  C   UNL     1      -6.378  19.568  64.781  1.00  0.00    -0.222 C  
HETATM   27  O   UNL     1      -6.278  20.621  65.737  1.00  0.00    -0.217 OA 
HETATM   28  C   UNL     1      -7.285  20.482  66.726  1.00  0.00    -0.275 C  
HETATM   29  C   UNL     1      -7.445  19.104  67.392  1.00  0.00    -0.233 C  
HETATM   30  O   UNL     1      -7.847  19.018  68.552  1.00  0.00    -0.314 OA 
ENDBRANCH  21  24
ENDBRANCH  14  18
ENDBRANCH  11  12
ENDBRANCH   8  11
ENDBRANCH   5   7
TORSDOF 5
ENDMDL
MODEL       75
REMARK 921   NORMALIZED FREE ENERGY PREDICTED BY IDOCK:   -5.30 KCAL/MOL
REMARK 922        TOTAL FREE ENERGY PREDICTED BY IDOCK:   -7.40 KCAL/MOL
REMARK 923 INTER-LIGAND FREE ENERGY PREDICTED BY IDOCK:   -6.69 KCAL/MOL
REMARK 924 INTRA-LIGAND FREE ENERGY PREDICTED BY IDOCK:   -0.71 KCAL/MOL
REMARK 927      BINDING AFFINITY PREDICTED BY RF-SCORE:    0.00 PKD
ROOT
HETATM    1 CL   UNL     1      -9.773  20.901  67.023  1.00  0.00    -0.420 Cl 
HETATM    2  C   UNL     1      -9.555  19.216  66.758  1.00  0.00    -0.331 A  
HETATM    3  C   UNL     1     -10.412  18.376  66.100  1.00  0.00    -0.422 A  
HETATM    4  C   UNL     1      -9.902  17.042  66.082  1.00  0.00    -0.297 A  
HETATM    5  C   UNL     1      -8.675  16.930  66.720  1.00  0.00    -0.232 A  
HETATM    6  S   UNL     1      -8.169  18.451  67.342  1.00  0.00    -0.246 SA 
ENDROOT
BRANCH   5   7
HETATM    7  C   UNL     1      -7.879  15.719  66.885  1.00  0.00    -0.236 C  
HETATM    8  N   UNL     1      -8.596  14.539  66.979  1.00  0.00    -0.263 N  
HETATM    9  O   UNL     1      -6.653  15.720  66.932  1.00  0.00    -0.276 OA 
HETATM   10  H   UNL     1      -9.613  14.588  67.049  1.00  0.00     0.000 HD 
BRANCH   8  11
HETATM   11  C   UNL     1      -7.955  13.235  66.980  1.00  0.00     0.029 C  
BRANCH  11  12
HETATM   12  C   UNL     1      -8.941  12.132  67.341  1.00  0.00    -0.180 C  
HETATM   13  C   UNL     1      -8.431  11.157  68.372  1.00  0.00    -0.151 C  
HETATM   14  N   UNL     1      -9.665  10.685  68.929  1.00  0.00    -0.195 N  
HETATM   15  C   UNL     1     -10.613  11.694  68.788  1.00  0.00    -0.212 C  
HETATM   16  O   UNL     1     -10.102  12.687  67.979  1.00  0.00    -0.215 OA 
HETATM   17  O   UNL     1     -11.731  11.783  69.267  1.00  0.00    -0.283 OA 
BRANCH  14  18
HETATM   18  C   UNL     1      -9.842   9.420  69.541  1.00  0.00    -0.183 A  
HETATM   19  C   UNL     1     -10.391   8.344  68.845  1.00  0.00    -0.231 A  
HETATM   20  C   UNL     1     -10.562   7.092  69.453  1.00  0.00    -0.248 A  
HETATM   21  C   UNL     1     -10.183   6.855  70.779  1.00  0.00    -0.195 A  
HETATM   22  C   UNL     1      -9.438   9.185  70.860  1.00  0.00    -0.343 A  
HETATM   23  C   UNL     1      -9.590   7.922  71.462  1.00  0.00    -0.189 A  
BRANCH  21  24
HETATM   24  N   UNL     1     -10.492   5.609  71.415  1.00  0.00    -0.231 N  
HETATM   25  C   UNL     1      -9.779   4.381  71.064  1.00  0.00    -0.190 C  
HETATM   26  C   UNL     1      -9.392   3.584  72.306  1.00  0.00    -0.115 C  
HETATM   27  O   UNL     1     -10.565   3.245  73.041  1.00  0.00    -0.158 OA 
HETATM   28  C   UNL     1     -11.252   4.421  73.439  1.00  0.00    -0.295 C  
HETATM   29  C   UNL     1     -11.526   5.485  72.362  1.00  0.00    -0.204 C  
HETATM   30  O   UNL     1     -12.518   6.210  72.443  1.00  0.00    -0.180 OA 
ENDBRANCH  21  24
ENDBRANCH  14  18
ENDBRANCH  11  12
ENDBRANCH   8  11
ENDBRANCH   5   7
TORSDOF 5
ENDMDL
MODEL       76
REMARK 921   NORMALIZED FREE ENERGY PREDICTED BY IDOCK:   -5.26 KCAL/MOL
REMARK 922        TOTAL FREE ENERGY PREDICTED BY IDOCK:   -7.36 KCAL/MOL
REMARK 923 INTER-LIGAND FREE ENERGY PREDICTED BY IDOCK:   -6.59 KCAL/MOL
REMARK 924 INTRA-LIGAND FREE ENERGY PREDICTED BY IDOCK:   -0.76 KCAL/MOL
REMARK 927      BINDING AFFINITY PREDICTED BY RF-SCORE:    0.00 PKD
ROOT
HETATM    1 CL   UNL     1     -13.614   9.544  72.309  1.00  0.00    -0.515 Cl 
HETATM    2  C   UNL     1     -12.526   8.521  71.455  1.00  0.00    -0.317 A  
HETATM    3  C   UNL     1     -12.653   7.172  71.266  1.00  0.00    -0.421 A  
HETATM    4  C   UNL     1     -11.553   6.658  70.514  1.00  0.00    -0.448 A  
HETATM    5  C   UNL     1     -10.643   7.643  70.158  1.00  0.00    -0.236 A  
HETATM    6  S   UNL     1     -11.138   9.177  70.755  1.00  0.00    -0.297 SA 
ENDROOT
BRANCH   5   7
HETATM    7  C   UNL     1      -9.413   7.467  69.392  1.00  0.00    -0.155 C  
HETATM    8  N   UNL     1      -9.044   8.538  68.599  1.00  0.00    -0.139 N  
HETATM    9  O   UNL     1      -8.731   6.449  69.440  1.00  0.00    -0.128 OA 
HETATM   10  H   UNL     1      -9.692   9.320  68.498  1.00  0.00     0.000 HD 
BRANCH   8  11
HETATM   11  C   UNL     1      -7.769   8.590  67.904  1.00  0.00    -0.103 C  
BRANCH  11  12
HETATM   12  C   UNL     1      -7.118   9.961  68.041  1.00  0.00    -0.082 C  
HETATM   13  C   UNL     1      -8.082  11.117  67.940  1.00  0.00    -0.119 C  
HETATM   14  N   UNL     1      -7.373  12.122  68.678  1.00  0.00    -0.109 N  
HETATM   15  C   UNL     1      -6.568  11.480  69.613  1.00  0.00    -0.112 C  
HETATM   16  O   UNL     1      -6.567  10.125  69.357  1.00  0.00    -0.046 OA 
HETATM   17  O   UNL     1      -5.937  11.946  70.547  1.00  0.00    -0.223 OA 
BRANCH  14  18
HETATM   18  C   UNL     1      -7.521  13.518  68.486  1.00  0.00    -0.122 A  
HETATM   19  C   UNL     1      -8.744  14.156  68.691  1.00  0.00    -0.126 A  
HETATM   20  C   UNL     1      -8.887  15.538  68.503  1.00  0.00    -0.186 A  
HETATM   21  C   UNL     1      -7.813  16.346  68.114  1.00  0.00    -0.158 A  
HETATM   22  C   UNL     1      -6.437  14.323  68.121  1.00  0.00    -0.135 A  
HETATM   23  C   UNL     1      -6.577  15.713  67.954  1.00  0.00    -0.171 A  
BRANCH  21  24
HETATM   24  N   UNL     1      -8.018  17.729  67.798  1.00  0.00    -0.221 N  
HETATM   25  C   UNL     1      -7.819  18.774  68.805  1.00  0.00    -0.310 C  
HETATM   26  C   UNL     1      -7.048  19.961  68.234  1.00  0.00    -0.301 C  
HETATM   27  O   UNL     1      -7.765  20.509  67.130  1.00  0.00    -0.317 OA 
HETATM   28  C   UNL     1      -7.929  19.531  66.116  1.00  0.00    -0.330 C  
HETATM   29  C   UNL     1      -8.471  18.153  66.535  1.00  0.00    -0.262 C  
HETATM   30  O   UNL     1      -9.137  17.482  65.748  1.00  0.00    -0.509 OA 
ENDBRANCH  21  24
ENDBRANCH  14  18
ENDBRANCH  11  12
ENDBRANCH   8  11
ENDBRANCH   5   7
TORSDOF 5
ENDMDL
MODEL       77
REMARK 921   NORMALIZED FREE ENERGY PREDICTED BY IDOCK:   -5.25 KCAL/MOL
REMARK 922        TOTAL FREE ENERGY PREDICTED BY IDOCK:   -7.34 KCAL/MOL
REMARK 923 INTER-LIGAND FREE ENERGY PREDICTED BY IDOCK:   -6.63 KCAL/MOL
REMARK 924 INTRA-LIGAND FREE ENERGY PREDICTED BY IDOCK:   -0.71 KCAL/MOL
REMARK 927      BINDING AFFINITY PREDICTED BY RF-SCORE:    0.00 PKD
ROOT
HETATM    1 CL   UNL     1     -10.789  20.181  65.336  1.00  0.00    -0.257 Cl 
HETATM    2  C   UNL     1     -10.418  19.210  66.706  1.00  0.00    -0.436 A  
HETATM    3  C   UNL     1     -10.297  19.637  68.000  1.00  0.00    -0.579 A  
HETATM    4  C   UNL     1      -9.975  18.548  68.867  1.00  0.00    -0.383 A  
HETATM    5  C   UNL     1      -9.875  17.340  68.193  1.00  0.00    -0.290 A  
HETATM    6  S   UNL     1     -10.164  17.553  66.512  1.00  0.00    -0.331 SA 
ENDROOT
BRANCH   5   7
HETATM    7  C   UNL     1      -9.562  16.037  68.769  1.00  0.00    -0.221 C  
HETATM    8  N   UNL     1      -8.846  15.179  67.952  1.00  0.00    -0.164 N  
HETATM    9  O   UNL     1      -9.893  15.704  69.902  1.00  0.00    -0.290 OA 
HETATM   10  H   UNL     1      -8.687  15.445  66.980  1.00  0.00     0.000 HD 
BRANCH   8  11
HETATM   11  C   UNL     1      -8.314  13.913  68.429  1.00  0.00    -0.157 C  
BRANCH  11  12
HETATM   12  C   UNL     1      -8.542  12.799  67.415  1.00  0.00    -0.194 C  
HETATM   13  C   UNL     1      -8.724  11.432  68.027  1.00  0.00    -0.148 C  
HETATM   14  N   UNL     1      -9.486  10.780  67.002  1.00  0.00    -0.163 N  
HETATM   15  C   UNL     1     -10.212  11.753  66.321  1.00  0.00    -0.221 C  
HETATM   16  O   UNL     1      -9.781  13.000  66.719  1.00  0.00    -0.234 OA 
HETATM   17  O   UNL     1     -11.106  11.625  65.501  1.00  0.00    -0.292 OA 
BRANCH  14  18
HETATM   18  C   UNL     1      -9.502   9.382  66.775  1.00  0.00    -0.165 A  
HETATM   19  C   UNL     1      -8.545   8.763  65.972  1.00  0.00    -0.166 A  
HETATM   20  C   UNL     1      -8.560   7.378  65.752  1.00  0.00    -0.150 A  
HETATM   21  C   UNL     1      -9.525   6.548  66.333  1.00  0.00    -0.126 A  
HETATM   22  C   UNL     1     -10.455   8.555  67.379  1.00  0.00    -0.351 A  
HETATM   23  C   UNL     1     -10.457   7.162  67.175  1.00  0.00    -0.389 A  
BRANCH  21  24
HETATM   24  N   UNL     1      -9.599   5.160  65.984  1.00  0.00    -0.159 N  
HETATM   25  C   UNL     1     -10.767   4.614  65.291  1.00  0.00    -0.065 C  
HETATM   26  C   UNL     1     -10.359   3.679  64.157  1.00  0.00    -0.246 C  
HETATM   27  O   UNL     1      -9.584   2.603  64.681  1.00  0.00    -0.151 OA 
HETATM   28  C   UNL     1      -8.417   3.101  65.315  1.00  0.00    -0.101 C  
HETATM   29  C   UNL     1      -8.591   4.242  66.332  1.00  0.00    -0.112 C  
HETATM   30  O   UNL     1      -7.812   4.355  67.279  1.00  0.00    -0.094 OA 
ENDBRANCH  21  24
ENDBRANCH  14  18
ENDBRANCH  11  12
ENDBRANCH   8  11
ENDBRANCH   5   7
TORSDOF 5
ENDMDL
MODEL       78
REMARK 921   NORMALIZED FREE ENERGY PREDICTED BY IDOCK:   -5.22 KCAL/MOL
REMARK 922        TOTAL FREE ENERGY PREDICTED BY IDOCK:   -7.31 KCAL/MOL
REMARK 923 INTER-LIGAND FREE ENERGY PREDICTED BY IDOCK:   -6.99 KCAL/MOL
REMARK 924 INTRA-LIGAND FREE ENERGY PREDICTED BY IDOCK:   -0.32 KCAL/MOL
REMARK 927      BINDING AFFINITY PREDICTED BY RF-SCORE:    0.00 PKD
ROOT
HETATM    1 CL   UNL     1      -5.866  20.510  69.331  1.00  0.00    -0.384 Cl 
HETATM    2  C   UNL     1      -6.760  19.148  68.781  1.00  0.00    -0.296 A  
HETATM    3  C   UNL     1      -6.310  17.860  68.688  1.00  0.00    -0.209 A  
HETATM    4  C   UNL     1      -7.331  16.998  68.182  1.00  0.00    -0.192 A  
HETATM    5  C   UNL     1      -8.516  17.671  67.921  1.00  0.00    -0.233 A  
HETATM    6  S   UNL     1      -8.362  19.344  68.286  1.00  0.00    -0.351 SA 
ENDROOT
BRANCH   5   7
HETATM    7  C   UNL     1      -9.753  17.101  67.399  1.00  0.00    -0.253 C  
HETATM    8  N   UNL     1      -9.744  16.785  66.052  1.00  0.00    -0.283 N  
HETATM    9  O   UNL     1     -10.745  16.897  68.092  1.00  0.00    -0.352 OA 
HETATM   10  H   UNL     1      -8.946  17.072  65.486  1.00  0.00     0.000 HD 
BRANCH   8  11
HETATM   11  C   UNL     1     -10.832  16.062  65.415  1.00  0.00    -0.328 C  
BRANCH  11  12
HETATM   12  C   UNL     1     -10.606  14.556  65.474  1.00  0.00    -0.351 C  
HETATM   13  C   UNL     1     -10.501  14.000  66.872  1.00  0.00    -0.276 C  
HETATM   14  N   UNL     1     -10.907  12.643  66.652  1.00  0.00    -0.254 N  
HETATM   15  C   UNL     1     -11.762  12.623  65.555  1.00  0.00    -0.402 C  
HETATM   16  O   UNL     1     -11.743  13.858  64.943  1.00  0.00    -0.337 OA 
HETATM   17  O   UNL     1     -12.463  11.719  65.131  1.00  0.00    -0.172 OA 
BRANCH  14  18
HETATM   18  C   UNL     1     -10.514  11.543  67.455  1.00  0.00    -0.209 A  
HETATM   19  C   UNL     1      -9.409  10.760  67.128  1.00  0.00    -0.171 A  
HETATM   20  C   UNL     1      -9.020   9.674  67.926  1.00  0.00    -0.120 A  
HETATM   21  C   UNL     1      -9.712   9.330  69.092  1.00  0.00    -0.164 A  
HETATM   22  C   UNL     1     -11.196  11.220  68.633  1.00  0.00    -0.310 A  
HETATM   23  C   UNL     1     -10.792  10.144  69.445  1.00  0.00    -0.274 A  
BRANCH  21  24
HETATM   24  N   UNL     1      -9.377   8.138  69.814  1.00  0.00    -0.159 N  
HETATM   25  C   UNL     1      -8.406   8.162  70.909  1.00  0.00    -0.121 C  
HETATM   26  C   UNL     1      -8.895   7.354  72.108  1.00  0.00    -0.124 C  
HETATM   27  O   UNL     1      -9.117   6.002  71.714  1.00  0.00    -0.145 OA 
HETATM   28  C   UNL     1     -10.093   5.945  70.686  1.00  0.00    -0.197 C  
HETATM   29  C   UNL     1      -9.912   6.880  69.478  1.00  0.00    -0.164 C  
HETATM   30  O   UNL     1     -10.326   6.548  68.368  1.00  0.00    -0.159 OA 
ENDBRANCH  21  24
ENDBRANCH  14  18
ENDBRANCH  11  12
ENDBRANCH   8  11
ENDBRANCH   5   7
TORSDOF 5
ENDMDL
MODEL       79
REMARK 921   NORMALIZED FREE ENERGY PREDICTED BY IDOCK:   -5.22 KCAL/MOL
REMARK 922        TOTAL FREE ENERGY PREDICTED BY IDOCK:   -7.31 KCAL/MOL
REMARK 923 INTER-LIGAND FREE ENERGY PREDICTED BY IDOCK:   -6.73 KCAL/MOL
REMARK 924 INTRA-LIGAND FREE ENERGY PREDICTED BY IDOCK:   -0.58 KCAL/MOL
REMARK 927      BINDING AFFINITY PREDICTED BY RF-SCORE:    0.00 PKD
ROOT
HETATM    1 CL   UNL     1      -6.242  20.646  69.333  1.00  0.00    -0.286 Cl 
HETATM    2  C   UNL     1      -7.025  19.229  68.753  1.00  0.00    -0.330 A  
HETATM    3  C   UNL     1      -6.458  17.994  68.586  1.00  0.00    -0.223 A  
HETATM    4  C   UNL     1      -7.413  17.061  68.078  1.00  0.00    -0.185 A  
HETATM    5  C   UNL     1      -8.666  17.627  67.891  1.00  0.00    -0.245 A  
HETATM    6  S   UNL     1      -8.657  19.290  68.327  1.00  0.00    -0.346 SA 
ENDROOT
BRANCH   5   7
HETATM    7  C   UNL     1      -9.863  16.962  67.389  1.00  0.00    -0.261 C  
HETATM    8  N   UNL     1      -9.826  16.588  66.058  1.00  0.00    -0.323 N  
HETATM    9  O   UNL     1     -10.847  16.732  68.085  1.00  0.00    -0.350 OA 
HETATM   10  H   UNL     1      -9.040  16.895  65.484  1.00  0.00     0.000 HD 
BRANCH   8  11
HETATM   11  C   UNL     1     -10.864  15.774  65.448  1.00  0.00    -0.364 C  
BRANCH  11  12
HETATM   12  C   UNL     1     -10.351  14.379  65.113  1.00  0.00    -0.421 C  
HETATM   13  C   UNL     1     -10.406  13.406  66.263  1.00  0.00    -0.291 C  
HETATM   14  N   UNL     1     -10.474  12.160  65.556  1.00  0.00    -0.256 N  
HETATM   15  C   UNL     1     -11.079  12.397  64.326  1.00  0.00    -0.349 C  
HETATM   16  O   UNL     1     -11.195  13.756  64.133  1.00  0.00    -0.345 OA 
HETATM   17  O   UNL     1     -11.484  11.603  63.493  1.00  0.00    -0.422 OA 
BRANCH  14  18
HETATM   18  C   UNL     1     -10.027  10.917  66.069  1.00  0.00    -0.240 A  
HETATM   19  C   UNL     1     -10.879  10.074  66.782  1.00  0.00    -0.091 A  
HETATM   20  C   UNL     1     -10.435   8.843  67.286  1.00  0.00    -0.348 A  
HETATM   21  C   UNL     1      -9.125   8.393  67.089  1.00  0.00    -0.138 A  
HETATM   22  C   UNL     1      -8.723  10.462  65.847  1.00  0.00    -0.170 A  
HETATM   23  C   UNL     1      -8.285   9.217  66.334  1.00  0.00    -0.114 A  
BRANCH  21  24
HETATM   24  N   UNL     1      -8.661   7.197  67.728  1.00  0.00    -0.126 N  
HETATM   25  C   UNL     1      -9.498   5.998  67.794  1.00  0.00    -0.112 C  
HETATM   26  C   UNL     1      -8.701   4.740  67.464  1.00  0.00    -0.103 C  
HETATM   27  O   UNL     1      -7.622   4.603  68.385  1.00  0.00    -0.068 OA 
HETATM   28  C   UNL     1      -6.764   5.731  68.307  1.00  0.00    -0.057 C  
HETATM   29  C   UNL     1      -7.411   7.125  68.372  1.00  0.00    -0.106 C  
HETATM   30  O   UNL     1      -6.792   8.075  68.849  1.00  0.00    -0.058 OA 
ENDBRANCH  21  24
ENDBRANCH  14  18
ENDBRANCH  11  12
ENDBRANCH   8  11
ENDBRANCH   5   7
TORSDOF 5
ENDMDL
MODEL       80
REMARK 921   NORMALIZED FREE ENERGY PREDICTED BY IDOCK:   -5.19 KCAL/MOL
REMARK 922        TOTAL FREE ENERGY PREDICTED BY IDOCK:   -7.27 KCAL/MOL
REMARK 923 INTER-LIGAND FREE ENERGY PREDICTED BY IDOCK:   -6.85 KCAL/MOL
REMARK 924 INTRA-LIGAND FREE ENERGY PREDICTED BY IDOCK:   -0.42 KCAL/MOL
REMARK 927      BINDING AFFINITY PREDICTED BY RF-SCORE:    0.00 PKD
ROOT
HETATM    1 CL   UNL     1     -10.927   5.113  72.560  1.00  0.00    -0.289 Cl 
HETATM    2  C   UNL     1     -10.847   6.390  71.410  1.00  0.00    -0.253 A  
HETATM    3  C   UNL     1     -10.837   7.731  71.680  1.00  0.00    -0.265 A  
HETATM    4  C   UNL     1     -10.769   8.492  70.472  1.00  0.00    -0.246 A  
HETATM    5  C   UNL     1     -10.722   7.693  69.339  1.00  0.00    -0.184 A  
HETATM    6  S   UNL     1     -10.771   6.028  69.763  1.00  0.00    -0.363 SA 
ENDROOT
BRANCH   5   7
HETATM    7  C   UNL     1     -10.650   8.140  67.952  1.00  0.00    -0.147 C  
HETATM    8  N   UNL     1     -10.746   9.506  67.759  1.00  0.00    -0.375 N  
HETATM    9  O   UNL     1     -10.504   7.374  67.005  1.00  0.00    -0.286 OA 
HETATM   10  H   UNL     1     -10.979  10.100  68.555  1.00  0.00     0.000 HD 
BRANCH   8  11
HETATM   11  C   UNL     1     -10.529  10.127  66.462  1.00  0.00    -0.166 C  
BRANCH  11  12
HETATM   12  C   UNL     1      -9.358  11.100  66.503  1.00  0.00    -0.180 C  
HETATM   13  C   UNL     1      -9.760  12.549  66.629  1.00  0.00    -0.242 C  
HETATM   14  N   UNL     1      -8.585  13.101  67.236  1.00  0.00    -0.203 N  
HETATM   15  C   UNL     1      -7.968  12.094  67.973  1.00  0.00    -0.152 C  
HETATM   16  O   UNL     1      -8.571  10.889  67.685  1.00  0.00    -0.123 OA 
HETATM   17  O   UNL     1      -7.050  12.167  68.773  1.00  0.00    -0.102 OA 
BRANCH  14  18
HETATM   18  C   UNL     1      -8.174  14.452  67.116  1.00  0.00    -0.178 A  
HETATM   19  C   UNL     1      -6.935  14.881  67.589  1.00  0.00    -0.207 A  
HETATM   20  C   UNL     1      -6.529  16.218  67.465  1.00  0.00    -0.195 A  
HETATM   21  C   UNL     1      -7.337  17.182  66.854  1.00  0.00    -0.207 A  
HETATM   22  C   UNL     1      -8.977  15.405  66.481  1.00  0.00    -0.344 A  
HETATM   23  C   UNL     1      -8.560  16.741  66.338  1.00  0.00    -0.338 A  
BRANCH  21  24
HETATM   24  N   UNL     1      -6.957  18.564  66.862  1.00  0.00    -0.194 N  
HETATM   25  C   UNL     1      -5.982  19.088  65.905  1.00  0.00    -0.175 C  
HETATM   26  C   UNL     1      -6.436  20.421  65.316  1.00  0.00    -0.276 C  
HETATM   27  O   UNL     1      -6.614  21.370  66.365  1.00  0.00    -0.298 OA 
HETATM   28  C   UNL     1      -7.593  20.910  67.282  1.00  0.00    -0.256 C  
HETATM   29  C   UNL     1      -7.451  19.474  67.816  1.00  0.00    -0.269 C  
HETATM   30  O   UNL     1      -7.860  19.185  68.940  1.00  0.00    -0.345 OA 
ENDBRANCH  21  24
ENDBRANCH  14  18
ENDBRANCH  11  12
ENDBRANCH   8  11
ENDBRANCH   5   7
TORSDOF 5
ENDMDL
MODEL       81
REMARK 921   NORMALIZED FREE ENERGY PREDICTED BY IDOCK:   -5.17 KCAL/MOL
REMARK 922        TOTAL FREE ENERGY PREDICTED BY IDOCK:   -7.24 KCAL/MOL
REMARK 923 INTER-LIGAND FREE ENERGY PREDICTED BY IDOCK:   -6.99 KCAL/MOL
REMARK 924 INTRA-LIGAND FREE ENERGY PREDICTED BY IDOCK:   -0.25 KCAL/MOL
REMARK 927      BINDING AFFINITY PREDICTED BY RF-SCORE:    0.00 PKD
ROOT
HETATM    1 CL   UNL     1      -7.811   1.652  66.682  1.00  0.00    -0.065 Cl 
HETATM    2  C   UNL     1      -8.596   2.776  67.720  1.00  0.00    -0.095 A  
HETATM    3  C   UNL     1      -9.060   4.016  67.377  1.00  0.00    -0.170 A  
HETATM    4  C   UNL     1      -9.650   4.668  68.504  1.00  0.00    -0.220 A  
HETATM    5  C   UNL     1      -9.616   3.888  69.651  1.00  0.00    -0.189 A  
HETATM    6  S   UNL     1      -8.856   2.378  69.340  1.00  0.00    -0.104 SA 
ENDROOT
BRANCH   5   7
HETATM    7  C   UNL     1     -10.127   4.243  70.970  1.00  0.00    -0.095 C  
HETATM    8  N   UNL     1     -10.661   5.515  71.081  1.00  0.00    -0.236 N  
HETATM    9  O   UNL     1     -10.104   3.480  71.929  1.00  0.00    -0.166 OA 
HETATM   10  H   UNL     1     -10.562   6.160  70.297  1.00  0.00     0.000 HD 
BRANCH   8  11
HETATM   11  C   UNL     1     -11.358   5.965  72.274  1.00  0.00    -0.298 C  
BRANCH  11  12
HETATM   12  C   UNL     1     -11.679   7.453  72.201  1.00  0.00    -0.290 C  
HETATM   13  C   UNL     1     -11.134   8.145  70.976  1.00  0.00    -0.253 C  
HETATM   14  N   UNL     1     -12.045   9.246  70.863  1.00  0.00    -0.267 N  
HETATM   15  C   UNL     1     -13.259   8.858  71.421  1.00  0.00    -0.262 C  
HETATM   16  O   UNL     1     -13.095   7.654  72.072  1.00  0.00    -0.273 OA 
HETATM   17  O   UNL     1     -14.345   9.414  71.385  1.00  0.00    -0.073 OA 
BRANCH  14  18
HETATM   18  C   UNL     1     -11.739  10.486  70.250  1.00  0.00    -0.332 A  
HETATM   19  C   UNL     1     -10.900  10.562  69.139  1.00  0.00    -0.277 A  
HETATM   20  C   UNL     1     -10.601  11.790  68.532  1.00  0.00    -0.242 A  
HETATM   21  C   UNL     1     -11.134  12.996  69.001  1.00  0.00    -0.231 A  
HETATM   22  C   UNL     1     -12.296  11.685  70.709  1.00  0.00    -0.454 A  
HETATM   23  C   UNL     1     -12.012  12.914  70.086  1.00  0.00    -0.373 A  
BRANCH  21  24
HETATM   24  N   UNL     1     -10.706  14.247  68.449  1.00  0.00    -0.244 N  
HETATM   25  C   UNL     1     -10.277  14.352  67.053  1.00  0.00    -0.263 C  
HETATM   26  C   UNL     1     -10.868  15.587  66.378  1.00  0.00    -0.277 C  
HETATM   27  O   UNL     1     -10.457  16.757  67.079  1.00  0.00    -0.313 OA 
HETATM   28  C   UNL     1     -10.904  16.705  68.425  1.00  0.00    -0.361 C  
HETATM   29  C   UNL     1     -10.620  15.420  69.221  1.00  0.00    -0.252 C  
HETATM   30  O   UNL     1     -10.458  15.468  70.440  1.00  0.00    -0.313 OA 
ENDBRANCH  21  24
ENDBRANCH  14  18
ENDBRANCH  11  12
ENDBRANCH   8  11
ENDBRANCH   5   7
TORSDOF 5
ENDMDL
MODEL       82
REMARK 921   NORMALIZED FREE ENERGY PREDICTED BY IDOCK:   -5.15 KCAL/MOL
REMARK 922        TOTAL FREE ENERGY PREDICTED BY IDOCK:   -7.22 KCAL/MOL
REMARK 923 INTER-LIGAND FREE ENERGY PREDICTED BY IDOCK:   -7.12 KCAL/MOL
REMARK 924 INTRA-LIGAND FREE ENERGY PREDICTED BY IDOCK:   -0.10 KCAL/MOL
REMARK 927      BINDING AFFINITY PREDICTED BY RF-SCORE:    0.00 PKD
ROOT
HETATM    1 CL   UNL     1      -5.360  21.171  67.829  1.00  0.00    -0.320 Cl 
HETATM    2  C   UNL     1      -6.791  20.217  67.787  1.00  0.00    -0.287 A  
HETATM    3  C   UNL     1      -7.327  19.506  68.825  1.00  0.00    -0.393 A  
HETATM    4  C   UNL     1      -8.518  18.829  68.416  1.00  0.00    -0.374 A  
HETATM    5  C   UNL     1      -8.836  19.065  67.087  1.00  0.00    -0.288 A  
HETATM    6  S   UNL     1      -7.674  20.098  66.354  1.00  0.00    -0.238 SA 
ENDROOT
BRANCH   5   7
HETATM    7  C   UNL     1      -9.978  18.533  66.350  1.00  0.00    -0.379 C  
HETATM    8  N   UNL     1     -10.189  17.172  66.476  1.00  0.00    -0.316 N  
HETATM    9  O   UNL     1     -10.720  19.229  65.665  1.00  0.00    -0.458 OA 
HETATM   10  H   UNL     1      -9.489  16.609  66.960  1.00  0.00     0.000 HD 
BRANCH   8  11
HETATM   11  C   UNL     1     -11.371  16.514  65.943  1.00  0.00     0.533 C  
BRANCH  11  12
HETATM   12  C   UNL     1     -10.996  15.349  65.037  1.00  0.00    -0.436 C  
HETATM   13  C   UNL     1     -10.428  14.156  65.764  1.00  0.00    -0.311 C  
HETATM   14  N   UNL     1     -10.750  13.104  64.844  1.00  0.00    -0.328 N  
HETATM   15  C   UNL     1     -11.887  13.484  64.138  1.00  0.00    -0.437 C  
HETATM   16  O   UNL     1     -12.168  14.806  64.409  1.00  0.00    -0.491 OA 
HETATM   17  O   UNL     1     -12.593  12.828  63.390  1.00  0.00    -0.701 OA 
BRANCH  14  18
HETATM   18  C   UNL     1     -10.034  11.886  64.729  1.00  0.00    -0.235 A  
HETATM   19  C   UNL     1      -9.307  11.575  63.581  1.00  0.00    -0.110 A  
HETATM   20  C   UNL     1      -8.597  10.371  63.471  1.00  0.00    -0.188 A  
HETATM   21  C   UNL     1      -8.572   9.429  64.506  1.00  0.00    -0.198 A  
HETATM   22  C   UNL     1      -9.994  10.961  65.778  1.00  0.00    -0.299 A  
HETATM   23  C   UNL     1      -9.263   9.763  65.675  1.00  0.00    -0.252 A  
BRANCH  21  24
HETATM   24  N   UNL     1      -7.952   8.152  64.316  1.00  0.00    -0.143 N  
HETATM   25  C   UNL     1      -7.428   7.750  63.009  1.00  0.00    -0.111 C  
HETATM   26  C   UNL     1      -6.056   7.095  63.134  1.00  0.00    -0.045 C  
HETATM   27  O   UNL     1      -6.150   5.944  63.969  1.00  0.00    -0.024 OA 
HETATM   28  C   UNL     1      -6.609   6.312  65.260  1.00  0.00    -0.043 C  
HETATM   29  C   UNL     1      -7.864   7.197  65.346  1.00  0.00    -0.119 C  
HETATM   30  O   UNL     1      -8.619   7.113  66.314  1.00  0.00    -0.127 OA 
ENDBRANCH  21  24
ENDBRANCH  14  18
ENDBRANCH  11  12
ENDBRANCH   8  11
ENDBRANCH   5   7
TORSDOF 5
ENDMDL
MODEL       83
REMARK 921   NORMALIZED FREE ENERGY PREDICTED BY IDOCK:   -5.10 KCAL/MOL
REMARK 922        TOTAL FREE ENERGY PREDICTED BY IDOCK:   -7.15 KCAL/MOL
REMARK 923 INTER-LIGAND FREE ENERGY PREDICTED BY IDOCK:   -6.89 KCAL/MOL
REMARK 924 INTRA-LIGAND FREE ENERGY PREDICTED BY IDOCK:   -0.26 KCAL/MOL
REMARK 927      BINDING AFFINITY PREDICTED BY RF-SCORE:    0.00 PKD
ROOT
HETATM    1 CL   UNL     1      -8.168  17.687  66.230  1.00  0.00    -0.286 Cl 
HETATM    2  C   UNL     1      -8.708  16.771  67.582  1.00  0.00    -0.204 A  
HETATM    3  C   UNL     1      -7.939  15.978  68.390  1.00  0.00    -0.151 A  
HETATM    4  C   UNL     1      -8.733  15.367  69.408  1.00  0.00    -0.252 A  
HETATM    5  C   UNL     1     -10.070  15.730  69.333  1.00  0.00    -0.268 A  
HETATM    6  S   UNL     1     -10.339  16.803  68.016  1.00  0.00    -0.331 SA 
ENDROOT
BRANCH   5   7
HETATM    7  C   UNL     1     -11.149  15.293  70.211  1.00  0.00    -0.293 C  
HETATM    8  N   UNL     1     -11.550  13.977  70.056  1.00  0.00    -0.404 N  
HETATM    9  O   UNL     1     -11.676  16.021  71.045  1.00  0.00    -0.391 OA 
HETATM   10  H   UNL     1     -11.169  13.436  69.279  1.00  0.00     0.000 HD 
BRANCH   8  11
HETATM   11  C   UNL     1     -12.493  13.339  70.958  1.00  0.00    -0.336 C  
BRANCH  11  12
HETATM   12  C   UNL     1     -12.645  11.856  70.644  1.00  0.00    -0.181 C  
HETATM   13  C   UNL     1     -11.389  11.201  70.127  1.00  0.00    -0.209 C  
HETATM   14  N   UNL     1     -11.624   9.837  70.503  1.00  0.00    -0.281 N  
HETATM   15  C   UNL     1     -12.445   9.837  71.626  1.00  0.00    -0.410 C  
HETATM   16  O   UNL     1     -12.916  11.115  71.843  1.00  0.00    -0.458 OA 
HETATM   17  O   UNL     1     -12.751   8.917  72.367  1.00  0.00    -0.388 OA 
BRANCH  14  18
HETATM   18  C   UNL     1     -11.068   8.712  69.845  1.00  0.00    -0.116 A  
HETATM   19  C   UNL     1     -11.363   7.411  70.252  1.00  0.00    -0.244 A  
HETATM   20  C   UNL     1     -10.814   6.299  69.597  1.00  0.00    -0.403 A  
HETATM   21  C   UNL     1      -9.957   6.436  68.500  1.00  0.00    -0.142 A  
HETATM   22  C   UNL     1     -10.231   8.856  68.734  1.00  0.00    -0.224 A  
HETATM   23  C   UNL     1      -9.698   7.739  68.064  1.00  0.00    -0.176 A  
BRANCH  21  24
HETATM   24  N   UNL     1      -9.305   5.291  67.937  1.00  0.00    -0.113 N  
HETATM   25  C   UNL     1      -9.830   4.633  66.739  1.00  0.00    -0.218 C  
HETATM   26  C   UNL     1      -8.716   4.300  65.750  1.00  0.00    -0.119 C  
HETATM   27  O   UNL     1      -7.765   3.441  66.373  1.00  0.00    -0.077 OA 
HETATM   28  C   UNL     1      -7.202   4.075  67.510  1.00  0.00    -0.067 C  
HETATM   29  C   UNL     1      -8.169   4.706  68.527  1.00  0.00    -0.083 C  
HETATM   30  O   UNL     1      -7.865   4.768  69.718  1.00  0.00    -0.064 OA 
ENDBRANCH  21  24
ENDBRANCH  14  18
ENDBRANCH  11  12
ENDBRANCH   8  11
ENDBRANCH   5   7
TORSDOF 5
ENDMDL
MODEL       84
REMARK 921   NORMALIZED FREE ENERGY PREDICTED BY IDOCK:   -5.07 KCAL/MOL
REMARK 922        TOTAL FREE ENERGY PREDICTED BY IDOCK:   -7.12 KCAL/MOL
REMARK 923 INTER-LIGAND FREE ENERGY PREDICTED BY IDOCK:   -6.44 KCAL/MOL
REMARK 924 INTRA-LIGAND FREE ENERGY PREDICTED BY IDOCK:   -0.68 KCAL/MOL
REMARK 927      BINDING AFFINITY PREDICTED BY RF-SCORE:    0.00 PKD
ROOT
HETATM    1 CL   UNL     1      -8.336  19.086  66.242  1.00  0.00    -0.311 Cl 
HETATM    2  C   UNL     1      -8.799  17.909  67.407  1.00  0.00    -0.245 A  
HETATM    3  C   UNL     1      -7.998  16.943  67.953  1.00  0.00    -0.187 A  
HETATM    4  C   UNL     1      -8.729  16.141  68.882  1.00  0.00    -0.248 A  
HETATM    5  C   UNL     1     -10.052  16.540  69.006  1.00  0.00    -0.279 A  
HETATM    6  S   UNL     1     -10.386  17.879  67.981  1.00  0.00    -0.387 SA 
ENDROOT
BRANCH   5   7
HETATM    7  C   UNL     1     -11.072  15.943  69.862  1.00  0.00    -0.343 C  
HETATM    8  N   UNL     1     -11.570  14.724  69.438  1.00  0.00    -0.292 N  
HETATM    9  O   UNL     1     -11.471  16.465  70.898  1.00  0.00    -0.380 OA 
HETATM   10  H   UNL     1     -11.299  14.376  68.518  1.00  0.00     0.000 HD 
BRANCH   8  11
HETATM   11  C   UNL     1     -12.466  13.922  70.254  1.00  0.00    -0.314 C  
BRANCH  11  12
HETATM   12  C   UNL     1     -12.386  12.447  69.881  1.00  0.00    -0.048 C  
HETATM   13  C   UNL     1     -11.095  12.047  69.212  1.00  0.00    -0.185 C  
HETATM   14  N   UNL     1     -11.045  10.652  69.540  1.00  0.00    -0.254 N  
HETATM   15  C   UNL     1     -11.732  10.467  70.735  1.00  0.00    -0.368 C  
HETATM   16  O   UNL     1     -12.395  11.630  71.061  1.00  0.00    -0.360 OA 
HETATM   17  O   UNL     1     -11.791   9.483  71.454  1.00  0.00    -0.333 OA 
BRANCH  14  18
HETATM   18  C   UNL     1     -10.371   9.668  68.775  1.00  0.00    -0.213 A  
HETATM   19  C   UNL     1     -10.824   9.291  67.511  1.00  0.00    -0.182 A  
HETATM   20  C   UNL     1     -10.154   8.319  66.755  1.00  0.00    -0.373 A  
HETATM   21  C   UNL     1      -8.995   7.688  67.221  1.00  0.00    -0.127 A  
HETATM   22  C   UNL     1      -9.199   9.059  69.237  1.00  0.00    -0.145 A  
HETATM   23  C   UNL     1      -8.515   8.100  68.468  1.00  0.00    -0.127 A  
BRANCH  21  24
HETATM   24  N   UNL     1      -8.409   6.605  66.489  1.00  0.00    -0.113 N  
HETATM   25  C   UNL     1      -8.271   5.275  67.085  1.00  0.00    -0.108 C  
HETATM   26  C   UNL     1      -8.681   4.178  66.106  1.00  0.00    -0.115 C  
HETATM   27  O   UNL     1      -7.867   4.251  64.938  1.00  0.00    -0.086 OA 
HETATM   28  C   UNL     1      -8.020   5.514  64.312  1.00  0.00    -0.120 C  
HETATM   29  C   UNL     1      -7.887   6.769  65.193  1.00  0.00    -0.119 C  
HETATM   30  O   UNL     1      -7.466   7.821  64.715  1.00  0.00    -0.080 OA 
ENDBRANCH  21  24
ENDBRANCH  14  18
ENDBRANCH  11  12
ENDBRANCH   8  11
ENDBRANCH   5   7
TORSDOF 5
ENDMDL
MODEL       85
REMARK 921   NORMALIZED FREE ENERGY PREDICTED BY IDOCK:   -5.07 KCAL/MOL
REMARK 922        TOTAL FREE ENERGY PREDICTED BY IDOCK:   -7.11 KCAL/MOL
REMARK 923 INTER-LIGAND FREE ENERGY PREDICTED BY IDOCK:   -6.55 KCAL/MOL
REMARK 924 INTRA-LIGAND FREE ENERGY PREDICTED BY IDOCK:   -0.56 KCAL/MOL
REMARK 927      BINDING AFFINITY PREDICTED BY RF-SCORE:    0.00 PKD
ROOT
HETATM    1 CL   UNL     1     -11.243   5.430  73.097  1.00  0.00    -0.359 Cl 
HETATM    2  C   UNL     1     -10.120   5.935  71.896  1.00  0.00    -0.185 A  
HETATM    3  C   UNL     1      -9.140   6.879  72.041  1.00  0.00    -0.141 A  
HETATM    4  C   UNL     1      -8.404   7.038  70.827  1.00  0.00    -0.129 A  
HETATM    5  C   UNL     1      -8.854   6.202  69.816  1.00  0.00    -0.135 A  
HETATM    6  S   UNL     1     -10.172   5.241  70.358  1.00  0.00    -0.267 SA 
ENDROOT
BRANCH   5   7
HETATM    7  C   UNL     1      -8.331   6.107  68.457  1.00  0.00    -0.114 C  
HETATM    8  N   UNL     1      -9.207   6.475  67.452  1.00  0.00    -0.121 N  
HETATM    9  O   UNL     1      -7.190   5.737  68.199  1.00  0.00    -0.072 OA 
HETATM   10  H   UNL     1     -10.179   6.668  67.695  1.00  0.00     0.000 HD 
BRANCH   8  11
HETATM   11  C   UNL     1      -8.795   6.595  66.064  1.00  0.00    -0.139 C  
BRANCH  11  12
HETATM   12  C   UNL     1      -8.743   8.053  65.625  1.00  0.00    -0.125 C  
HETATM   13  C   UNL     1      -9.328   9.022  66.623  1.00  0.00    -0.177 C  
HETATM   14  N   UNL     1      -8.624  10.222  66.274  1.00  0.00    -0.135 N  
HETATM   15  C   UNL     1      -7.397   9.858  65.731  1.00  0.00    -0.111 C  
HETATM   16  O   UNL     1      -7.381   8.496  65.518  1.00  0.00    -0.081 OA 
HETATM   17  O   UNL     1      -6.429  10.550  65.462  1.00  0.00    -0.124 OA 
BRANCH  14  18
HETATM   18  C   UNL     1      -9.111  11.534  66.495  1.00  0.00    -0.194 A  
HETATM   19  C   UNL     1     -10.279  11.990  65.886  1.00  0.00    -0.263 A  
HETATM   20  C   UNL     1     -10.761  13.288  66.108  1.00  0.00    -0.287 A  
HETATM   21  C   UNL     1     -10.103  14.185  66.957  1.00  0.00    -0.261 A  
HETATM   22  C   UNL     1      -8.462  12.417  67.365  1.00  0.00    -0.179 A  
HETATM   23  C   UNL     1      -8.957  13.712  67.604  1.00  0.00    -0.202 A  
BRANCH  21  24
HETATM   24  N   UNL     1     -10.540  15.546  67.061  1.00  0.00    -0.306 N  
HETATM   25  C   UNL     1     -11.092  16.072  68.310  1.00  0.00    -0.351 C  
HETATM   26  C   UNL     1     -10.527  17.452  68.634  1.00  0.00    -0.355 C  
HETATM   27  O   UNL     1     -10.834  18.354  67.574  1.00  0.00    -0.408 OA 
HETATM   28  C   UNL     1     -10.266  17.894  66.358  1.00  0.00    -0.372 C  
HETATM   29  C   UNL     1     -10.517  16.428  65.964  1.00  0.00    -0.323 C  
HETATM   30  O   UNL     1     -10.565  16.103  64.778  1.00  0.00    -0.630 OA 
ENDBRANCH  21  24
ENDBRANCH  14  18
ENDBRANCH  11  12
ENDBRANCH   8  11
ENDBRANCH   5   7
TORSDOF 5
ENDMDL
MODEL       86
REMARK 921   NORMALIZED FREE ENERGY PREDICTED BY IDOCK:   -5.07 KCAL/MOL
REMARK 922        TOTAL FREE ENERGY PREDICTED BY IDOCK:   -7.11 KCAL/MOL
REMARK 923 INTER-LIGAND FREE ENERGY PREDICTED BY IDOCK:   -6.47 KCAL/MOL
REMARK 924 INTRA-LIGAND FREE ENERGY PREDICTED BY IDOCK:   -0.64 KCAL/MOL
REMARK 927      BINDING AFFINITY PREDICTED BY RF-SCORE:    0.00 PKD
ROOT
HETATM    1 CL   UNL     1     -10.039  18.184  67.434  1.00  0.00    -0.339 Cl 
HETATM    2  C   UNL     1     -10.603  16.561  67.357  1.00  0.00    -0.300 A  
HETATM    3  C   UNL     1     -11.291  15.890  68.331  1.00  0.00    -0.361 A  
HETATM    4  C   UNL     1     -11.589  14.556  67.916  1.00  0.00    -0.371 A  
HETATM    5  C   UNL     1     -11.120  14.276  66.640  1.00  0.00    -0.321 A  
HETATM    6  S   UNL     1     -10.316  15.641  65.972  1.00  0.00    -0.357 SA 
ENDROOT
BRANCH   5   7
HETATM    7  C   UNL     1     -11.250  13.018  65.913  1.00  0.00    -0.289 C  
HETATM    8  N   UNL     1     -10.155  12.652  65.151  1.00  0.00    -0.385 N  
HETATM    9  O   UNL     1     -12.251  12.311  65.965  1.00  0.00    -0.646 OA 
HETATM   10  H   UNL     1      -9.388  13.316  65.042  1.00  0.00     0.000 HD 
BRANCH   8  11
HETATM   11  C   UNL     1     -10.057  11.356  64.500  1.00  0.00    -0.287 C  
BRANCH  11  12
HETATM   12  C   UNL     1      -9.192  10.395  65.306  1.00  0.00    -0.199 C  
HETATM   13  C   UNL     1      -9.929   9.667  66.401  1.00  0.00    -0.255 C  
HETATM   14  N   UNL     1      -9.118   8.492  66.536  1.00  0.00    -0.164 N  
HETATM   15  C   UNL     1      -8.513   8.246  65.307  1.00  0.00    -0.162 C  
HETATM   16  O   UNL     1      -8.726   9.322  64.473  1.00  0.00    -0.189 OA 
HETATM   17  O   UNL     1      -7.886   7.269  64.931  1.00  0.00    -0.113 OA 
BRANCH  14  18
HETATM   18  C   UNL     1      -9.006   7.721  67.719  1.00  0.00    -0.128 A  
HETATM   19  C   UNL     1      -9.322   6.363  67.736  1.00  0.00    -0.117 A  
HETATM   20  C   UNL     1      -9.207   5.601  68.907  1.00  0.00    -0.136 A  
HETATM   21  C   UNL     1      -8.761   6.157  70.111  1.00  0.00    -0.141 A  
HETATM   22  C   UNL     1      -8.536   8.279  68.912  1.00  0.00    -0.128 A  
HETATM   23  C   UNL     1      -8.401   7.508  70.082  1.00  0.00    -0.134 A  
BRANCH  21  24
HETATM   24  N   UNL     1      -8.783   5.391  71.321  1.00  0.00    -0.129 N  
HETATM   25  C   UNL     1      -7.664   4.520  71.687  1.00  0.00    -0.083 C  
HETATM   26  C   UNL     1      -7.300   4.668  73.161  1.00  0.00    -0.082 C  
HETATM   27  O   UNL     1      -8.428   4.338  73.968  1.00  0.00    -0.095 OA 
HETATM   28  C   UNL     1      -9.513   5.201  73.669  1.00  0.00    -0.133 C  
HETATM   29  C   UNL     1      -9.890   5.387  72.189  1.00  0.00    -0.169 C  
HETATM   30  O   UNL     1     -11.055   5.625  71.870  1.00  0.00    -0.256 OA 
ENDBRANCH  21  24
ENDBRANCH  14  18
ENDBRANCH  11  12
ENDBRANCH   8  11
ENDBRANCH   5   7
TORSDOF 5
ENDMDL
MODEL       87
REMARK 921   NORMALIZED FREE ENERGY PREDICTED BY IDOCK:   -5.05 KCAL/MOL
REMARK 922        TOTAL FREE ENERGY PREDICTED BY IDOCK:   -7.09 KCAL/MOL
REMARK 923 INTER-LIGAND FREE ENERGY PREDICTED BY IDOCK:   -6.37 KCAL/MOL
REMARK 924 INTRA-LIGAND FREE ENERGY PREDICTED BY IDOCK:   -0.72 KCAL/MOL
REMARK 927      BINDING AFFINITY PREDICTED BY RF-SCORE:    0.00 PKD
ROOT
HETATM    1 CL   UNL     1     -10.025  20.098  66.406  1.00  0.00    -0.579 Cl 
HETATM    2  C   UNL     1     -10.274  18.421  66.696  1.00  0.00    -0.394 A  
HETATM    3  C   UNL     1     -10.327  17.430  65.754  1.00  0.00    -0.226 A  
HETATM    4  C   UNL     1     -10.555  16.159  66.366  1.00  0.00    -0.269 A  
HETATM    5  C   UNL     1     -10.658  16.242  67.747  1.00  0.00    -0.314 A  
HETATM    6  S   UNL     1     -10.484  17.868  68.277  1.00  0.00    -0.314 SA 
ENDROOT
BRANCH   5   7
HETATM    7  C   UNL     1     -10.889  15.142  68.678  1.00  0.00    -0.245 C  
HETATM    8  N   UNL     1     -11.792  14.183  68.256  1.00  0.00    -0.374 N  
HETATM    9  O   UNL     1     -10.326  15.049  69.763  1.00  0.00    -0.222 OA 
HETATM   10  H   UNL     1     -12.323  14.350  67.401  1.00  0.00     0.000 HD 
BRANCH   8  11
HETATM   11  C   UNL     1     -12.011  12.945  68.987  1.00  0.00    -0.251 C  
BRANCH  11  12
HETATM   12  C   UNL     1     -11.027  11.865  68.556  1.00  0.00    -0.235 C  
HETATM   13  C   UNL     1     -11.411  10.471  68.984  1.00  0.00    -0.257 C  
HETATM   14  N   UNL     1     -10.732   9.690  67.991  1.00  0.00    -0.244 N  
HETATM   15  C   UNL     1     -10.620  10.462  66.839  1.00  0.00    -0.230 C  
HETATM   16  O   UNL     1     -10.996  11.758  67.124  1.00  0.00    -0.246 OA 
HETATM   17  O   UNL     1     -10.270  10.139  65.716  1.00  0.00    -0.263 OA 
BRANCH  14  18
HETATM   18  C   UNL     1     -10.298   8.353  68.174  1.00  0.00    -0.204 A  
HETATM   19  C   UNL     1     -11.110   7.271  67.837  1.00  0.00    -0.001 A  
HETATM   20  C   UNL     1     -10.677   5.949  68.017  1.00  0.00    -0.332 A  
HETATM   21  C   UNL     1      -9.411   5.649  68.529  1.00  0.00    -0.123 A  
HETATM   22  C   UNL     1      -9.021   8.061  68.664  1.00  0.00    -0.134 A  
HETATM   23  C   UNL     1      -8.579   6.735  68.823  1.00  0.00    -0.123 A  
BRANCH  21  24
HETATM   24  N   UNL     1      -9.047   4.296  68.829  1.00  0.00    -0.118 N  
HETATM   25  C   UNL     1      -8.764   3.873  70.201  1.00  0.00    -0.071 C  
HETATM   26  C   UNL     1      -9.426   2.536  70.522  1.00  0.00    -0.119 C  
HETATM   27  O   UNL     1      -8.950   1.539  69.621  1.00  0.00    -0.065 OA 
HETATM   28  C   UNL     1      -9.255   1.900  68.284  1.00  0.00    -0.184 C  
HETATM   29  C   UNL     1      -8.885   3.321  67.826  1.00  0.00    -0.131 C  
HETATM   30  O   UNL     1      -8.598   3.541  66.650  1.00  0.00    -0.105 OA 
ENDBRANCH  21  24
ENDBRANCH  14  18
ENDBRANCH  11  12
ENDBRANCH   8  11
ENDBRANCH   5   7
TORSDOF 5
ENDMDL
MODEL       88
REMARK 921   NORMALIZED FREE ENERGY PREDICTED BY IDOCK:   -5.05 KCAL/MOL
REMARK 922        TOTAL FREE ENERGY PREDICTED BY IDOCK:   -7.08 KCAL/MOL
REMARK 923 INTER-LIGAND FREE ENERGY PREDICTED BY IDOCK:   -7.66 KCAL/MOL
REMARK 924 INTRA-LIGAND FREE ENERGY PREDICTED BY IDOCK:    0.58 KCAL/MOL
REMARK 927      BINDING AFFINITY PREDICTED BY RF-SCORE:    0.00 PKD
ROOT
HETATM    1 CL   UNL     1      -9.099  11.190  62.364  1.00  0.00    -0.344 Cl 
HETATM    2  C   UNL     1      -9.974  11.609  63.784  1.00  0.00    -0.349 A  
HETATM    3  C   UNL     1     -10.738  12.728  63.971  1.00  0.00    -0.457 A  
HETATM    4  C   UNL     1     -11.309  12.741  65.281  1.00  0.00    -0.338 A  
HETATM    5  C   UNL     1     -10.958  11.626  66.028  1.00  0.00    -0.286 A  
HETATM    6  S   UNL     1      -9.931  10.584  65.125  1.00  0.00    -0.316 SA 
ENDROOT
BRANCH   5   7
HETATM    7  C   UNL     1     -11.363  11.323  67.396  1.00  0.00    -0.276 C  
HETATM    8  N   UNL     1     -11.276  12.374  68.292  1.00  0.00    -0.242 N  
HETATM    9  O   UNL     1     -11.766  10.220  67.751  1.00  0.00    -0.247 OA 
HETATM   10  H   UNL     1     -10.832  13.241  67.990  1.00  0.00     0.000 HD 
BRANCH   8  11
HETATM   11  C   UNL     1     -11.792  12.286  69.648  1.00  0.00    -0.324 C  
BRANCH  11  12
HETATM   12  C   UNL     1     -12.126  10.848  70.023  1.00  0.00    -0.355 C  
HETATM   13  C   UNL     1     -11.077  10.168  70.867  1.00  0.00    -0.253 C  
HETATM   14  N   UNL     1     -11.871   9.178  71.535  1.00  0.00    -0.331 N  
HETATM   15  C   UNL     1     -13.171   9.664  71.631  1.00  0.00    -0.411 C  
HETATM   16  O   UNL     1     -13.285  10.807  70.868  1.00  0.00    -0.278 OA 
HETATM   17  O   UNL     1     -14.118   9.230  72.265  1.00  0.00    -0.413 OA 
BRANCH  14  18
HETATM   18  C   UNL     1     -11.375   7.947  72.030  1.00  0.00    -0.292 A  
HETATM   19  C   UNL     1     -10.879   7.831  73.328  1.00  0.00    -0.312 A  
HETATM   20  C   UNL     1     -10.392   6.610  73.817  1.00  0.00    -0.373 A  
HETATM   21  C   UNL     1     -10.388   5.449  73.036  1.00  0.00    -0.197 A  
HETATM   22  C   UNL     1     -11.397   6.785  71.252  1.00  0.00    -0.333 A  
HETATM   23  C   UNL     1     -10.928   5.556  71.751  1.00  0.00    -0.249 A  
BRANCH  21  24
HETATM   24  N   UNL     1      -9.762   4.252  73.512  1.00  0.00    -0.116 N  
HETATM   25  C   UNL     1     -10.479   3.312  74.375  1.00  0.00    -0.191 C  
HETATM   26  C   UNL     1     -10.253   1.867  73.939  1.00  0.00    -0.097 C  
HETATM   27  O   UNL     1      -8.861   1.567  73.983  1.00  0.00    -0.056 OA 
HETATM   28  C   UNL     1      -8.145   2.432  73.115  1.00  0.00    -0.051 C  
HETATM   29  C   UNL     1      -8.418   3.942  73.228  1.00  0.00    -0.088 C  
HETATM   30  O   UNL     1      -7.533   4.755  72.965  1.00  0.00    -0.086 OA 
ENDBRANCH  21  24
ENDBRANCH  14  18
ENDBRANCH  11  12
ENDBRANCH   8  11
ENDBRANCH   5   7
TORSDOF 5
ENDMDL
MODEL       89
REMARK 921   NORMALIZED FREE ENERGY PREDICTED BY IDOCK:   -5.04 KCAL/MOL
REMARK 922        TOTAL FREE ENERGY PREDICTED BY IDOCK:   -7.08 KCAL/MOL
REMARK 923 INTER-LIGAND FREE ENERGY PREDICTED BY IDOCK:   -6.43 KCAL/MOL
REMARK 924 INTRA-LIGAND FREE ENERGY PREDICTED BY IDOCK:   -0.65 KCAL/MOL
REMARK 927      BINDING AFFINITY PREDICTED BY RF-SCORE:    0.00 PKD
ROOT
HETATM    1 CL   UNL     1      -7.139   2.012  68.224  1.00  0.00    -0.043 Cl 
HETATM    2  C   UNL     1      -7.773   3.591  68.470  1.00  0.00    -0.056 A  
HETATM    3  C   UNL     1      -7.279   4.546  69.317  1.00  0.00    -0.052 A  
HETATM    4  C   UNL     1      -8.071   5.734  69.261  1.00  0.00    -0.101 A  
HETATM    5  C   UNL     1      -9.127   5.631  68.368  1.00  0.00    -0.117 A  
HETATM    6  S   UNL     1      -9.144   4.084  67.618  1.00  0.00    -0.159 SA 
ENDROOT
BRANCH   5   7
HETATM    7  C   UNL     1     -10.125   6.651  68.067  1.00  0.00    -0.154 C  
HETATM    8  N   UNL     1      -9.697   7.684  67.251  1.00  0.00    -0.157 N  
HETATM    9  O   UNL     1     -11.276   6.614  68.491  1.00  0.00    -0.235 OA 
HETATM   10  H   UNL     1      -8.708   7.742  67.011  1.00  0.00     0.000 HD 
BRANCH   8  11
HETATM   11  C   UNL     1     -10.607   8.688  66.725  1.00  0.00    -0.153 C  
BRANCH  11  12
HETATM   12  C   UNL     1     -10.362  10.048  67.365  1.00  0.00    -0.238 C  
HETATM   13  C   UNL     1      -9.841  11.096  66.413  1.00  0.00    -0.211 C  
HETATM   14  N   UNL     1     -10.284  12.294  67.066  1.00  0.00    -0.215 N  
HETATM   15  C   UNL     1     -11.426  11.987  67.798  1.00  0.00    -0.325 C  
HETATM   16  O   UNL     1     -11.599  10.620  67.816  1.00  0.00    -0.501 OA 
HETATM   17  O   UNL     1     -12.214  12.731  68.359  1.00  0.00    -0.179 OA 
BRANCH  14  18
HETATM   18  C   UNL     1      -9.662  13.560  66.934  1.00  0.00    -0.261 A  
HETATM   19  C   UNL     1      -8.528  13.896  67.674  1.00  0.00    -0.193 A  
HETATM   20  C   UNL     1      -7.912  15.148  67.540  1.00  0.00    -0.194 A  
HETATM   21  C   UNL     1      -8.394  16.118  66.654  1.00  0.00    -0.286 A  
HETATM   22  C   UNL     1     -10.134  14.515  66.028  1.00  0.00    -0.336 A  
HETATM   23  C   UNL     1      -9.503  15.764  65.879  1.00  0.00    -0.377 A  
BRANCH  21  24
HETATM   24  N   UNL     1      -7.829  17.435  66.635  1.00  0.00    -0.233 N  
HETATM   25  C   UNL     1      -6.445  17.660  66.216  1.00  0.00    -0.253 C  
HETATM   26  C   UNL     1      -6.332  18.862  65.283  1.00  0.00    -0.279 C  
HETATM   27  O   UNL     1      -6.812  20.029  65.947  1.00  0.00    -0.236 OA 
HETATM   28  C   UNL     1      -8.170  19.857  66.321  1.00  0.00    -0.329 C  
HETATM   29  C   UNL     1      -8.546  18.566  67.069  1.00  0.00    -0.272 C  
HETATM   30  O   UNL     1      -9.476  18.563  67.874  1.00  0.00    -0.284 OA 
ENDBRANCH  21  24
ENDBRANCH  14  18
ENDBRANCH  11  12
ENDBRANCH   8  11
ENDBRANCH   5   7
TORSDOF 5
ENDMDL
MODEL       90
REMARK 921   NORMALIZED FREE ENERGY PREDICTED BY IDOCK:   -5.04 KCAL/MOL
REMARK 922        TOTAL FREE ENERGY PREDICTED BY IDOCK:   -7.07 KCAL/MOL
REMARK 923 INTER-LIGAND FREE ENERGY PREDICTED BY IDOCK:   -6.61 KCAL/MOL
REMARK 924 INTRA-LIGAND FREE ENERGY PREDICTED BY IDOCK:   -0.47 KCAL/MOL
REMARK 927      BINDING AFFINITY PREDICTED BY RF-SCORE:    0.00 PKD
ROOT
HETATM    1 CL   UNL     1     -10.625  19.947  67.037  1.00  0.00    -0.566 Cl 
HETATM    2  C   UNL     1     -10.436  18.238  67.050  1.00  0.00    -0.385 A  
HETATM    3  C   UNL     1     -10.360  17.417  65.958  1.00  0.00    -0.309 A  
HETATM    4  C   UNL     1     -10.211  16.053  66.356  1.00  0.00    -0.315 A  
HETATM    5  C   UNL     1     -10.172  15.900  67.734  1.00  0.00    -0.260 A  
HETATM    6  S   UNL     1     -10.328  17.420  68.523  1.00  0.00    -0.378 SA 
ENDROOT
BRANCH   5   7
HETATM    7  C   UNL     1     -10.030  14.651  68.475  1.00  0.00    -0.235 C  
HETATM    8  N   UNL     1     -11.153  13.843  68.505  1.00  0.00    -0.253 N  
HETATM    9  O   UNL     1      -8.992  14.315  69.035  1.00  0.00    -0.083 OA 
HETATM   10  H   UNL     1     -12.028  14.204  68.126  1.00  0.00     0.000 HD 
BRANCH   8  11
HETATM   11  C   UNL     1     -11.130  12.498  69.056  1.00  0.00    -0.234 C  
BRANCH  11  12
HETATM   12  C   UNL     1     -10.349  11.545  68.161  1.00  0.00    -0.195 C  
HETATM   13  C   UNL     1     -10.734  10.094  68.316  1.00  0.00    -0.238 C  
HETATM   14  N   UNL     1     -10.351   9.578  67.034  1.00  0.00    -0.250 N  
HETATM   15  C   UNL     1     -10.437  10.615  66.110  1.00  0.00    -0.194 C  
HETATM   16  O   UNL     1     -10.642  11.802  66.779  1.00  0.00    -0.221 OA 
HETATM   17  O   UNL     1     -10.368  10.579  64.892  1.00  0.00    -0.328 OA 
BRANCH  14  18
HETATM   18  C   UNL     1      -9.990   8.231  66.782  1.00  0.00    -0.285 A  
HETATM   19  C   UNL     1     -10.833   7.175  67.126  1.00  0.00    -0.403 A  
HETATM   20  C   UNL     1     -10.475   5.843  66.874  1.00  0.00    -0.349 A  
HETATM   21  C   UNL     1      -9.265   5.507  66.256  1.00  0.00    -0.155 A  
HETATM   22  C   UNL     1      -8.790   7.904  66.141  1.00  0.00    -0.197 A  
HETATM   23  C   UNL     1      -8.442   6.568  65.869  1.00  0.00    -0.147 A  
BRANCH  21  24
HETATM   24  N   UNL     1      -8.865   4.136  66.133  1.00  0.00    -0.115 N  
HETATM   25  C   UNL     1      -9.108   3.383  64.901  1.00  0.00    -0.139 C  
HETATM   26  C   UNL     1      -7.887   2.562  64.497  1.00  0.00    -0.077 C  
HETATM   27  O   UNL     1      -7.558   1.650  65.542  1.00  0.00    -0.063 OA 
HETATM   28  C   UNL     1      -7.267   2.357  66.737  1.00  0.00    -0.056 C  
HETATM   29  C   UNL     1      -8.273   3.427  67.195  1.00  0.00    -0.091 C  
HETATM   30  O   UNL     1      -8.414   3.676  68.392  1.00  0.00    -0.084 OA 
ENDBRANCH  21  24
ENDBRANCH  14  18
ENDBRANCH  11  12
ENDBRANCH   8  11
ENDBRANCH   5   7
TORSDOF 5
ENDMDL
MODEL       91
REMARK 921   NORMALIZED FREE ENERGY PREDICTED BY IDOCK:   -5.04 KCAL/MOL
REMARK 922        TOTAL FREE ENERGY PREDICTED BY IDOCK:   -7.07 KCAL/MOL
REMARK 923 INTER-LIGAND FREE ENERGY PREDICTED BY IDOCK:   -6.24 KCAL/MOL
REMARK 924 INTRA-LIGAND FREE ENERGY PREDICTED BY IDOCK:   -0.83 KCAL/MOL
REMARK 927      BINDING AFFINITY PREDICTED BY RF-SCORE:    0.00 PKD
ROOT
HETATM    1 CL   UNL     1     -12.784  12.018  63.246  1.00  0.00    -0.603 Cl 
HETATM    2  C   UNL     1     -11.862  13.127  64.182  1.00  0.00    -0.429 A  
HETATM    3  C   UNL     1     -11.914  14.493  64.113  1.00  0.00    -0.346 A  
HETATM    4  C   UNL     1     -10.999  15.084  65.038  1.00  0.00    -0.436 A  
HETATM    5  C   UNL     1     -10.299  14.139  65.774  1.00  0.00    -0.325 A  
HETATM    6  S   UNL     1     -10.760  12.546  65.321  1.00  0.00    -0.296 SA 
ENDROOT
BRANCH   5   7
HETATM    7  C   UNL     1      -9.292  14.395  66.799  1.00  0.00    -0.268 C  
HETATM    8  N   UNL     1      -8.332  13.411  66.952  1.00  0.00    -0.406 N  
HETATM    9  O   UNL     1      -9.274  15.411  67.486  1.00  0.00    -0.195 OA 
HETATM   10  H   UNL     1      -8.443  12.533  66.444  1.00  0.00     0.000 HD 
BRANCH   8  11
HETATM   11  C   UNL     1      -7.170  13.583  67.809  1.00  0.00    -0.154 C  
BRANCH  11  12
HETATM   12  C   UNL     1      -6.968  12.377  68.717  1.00  0.00    -0.094 C  
HETATM   13  C   UNL     1      -8.077  11.357  68.649  1.00  0.00    -0.141 C  
HETATM   14  N   UNL     1      -7.378  10.173  69.056  1.00  0.00    -0.080 N  
HETATM   15  C   UNL     1      -6.040  10.323  68.706  1.00  0.00    -0.047 C  
HETATM   16  O   UNL     1      -5.820  11.622  68.300  1.00  0.00    -0.046 OA 
HETATM   17  O   UNL     1      -5.138   9.502  68.712  1.00  0.00    -0.034 OA 
BRANCH  14  18
HETATM   18  C   UNL     1      -7.984   9.050  69.672  1.00  0.00    -0.093 A  
HETATM   19  C   UNL     1      -8.604   8.053  68.920  1.00  0.00    -0.131 A  
HETATM   20  C   UNL     1      -9.200   6.941  69.532  1.00  0.00    -0.148 A  
HETATM   21  C   UNL     1      -9.195   6.770  70.920  1.00  0.00    -0.157 A  
HETATM   22  C   UNL     1      -7.953   8.873  71.060  1.00  0.00    -0.183 A  
HETATM   23  C   UNL     1      -8.533   7.747  71.671  1.00  0.00    -0.128 A  
BRANCH  21  24
HETATM   24  N   UNL     1      -9.927   5.697  71.526  1.00  0.00    -0.175 N  
HETATM   25  C   UNL     1      -9.403   4.331  71.534  1.00  0.00    -0.141 C  
HETATM   26  C   UNL     1      -9.581   3.672  72.899  1.00  0.00    -0.126 C  
HETATM   27  O   UNL     1     -10.966   3.639  73.237  1.00  0.00    -0.194 OA 
HETATM   28  C   UNL     1     -11.489   4.957  73.286  1.00  0.00    -0.274 C  
HETATM   29  C   UNL     1     -11.203   5.883  72.090  1.00  0.00    -0.287 C  
HETATM   30  O   UNL     1     -12.005   6.763  71.781  1.00  0.00    -0.307 OA 
ENDBRANCH  21  24
ENDBRANCH  14  18
ENDBRANCH  11  12
ENDBRANCH   8  11
ENDBRANCH   5   7
TORSDOF 5
ENDMDL
MODEL       92
REMARK 921   NORMALIZED FREE ENERGY PREDICTED BY IDOCK:   -5.04 KCAL/MOL
REMARK 922        TOTAL FREE ENERGY PREDICTED BY IDOCK:   -7.07 KCAL/MOL
REMARK 923 INTER-LIGAND FREE ENERGY PREDICTED BY IDOCK:   -6.67 KCAL/MOL
REMARK 924 INTRA-LIGAND FREE ENERGY PREDICTED BY IDOCK:   -0.40 KCAL/MOL
REMARK 927      BINDING AFFINITY PREDICTED BY RF-SCORE:    0.00 PKD
ROOT
HETATM    1 CL   UNL     1     -12.065  16.381  73.423  1.00  0.00    -0.578 Cl 
HETATM    2  C   UNL     1     -12.298  15.740  71.844  1.00  0.00    -0.459 A  
HETATM    3  C   UNL     1     -13.463  15.239  71.332  1.00  0.00    -0.588 A  
HETATM    4  C   UNL     1     -13.277  14.790  69.989  1.00  0.00     0.316 A  
HETATM    5  C   UNL     1     -11.978  14.979  69.538  1.00  0.00    -0.313 A  
HETATM    6  S   UNL     1     -11.004  15.691  70.762  1.00  0.00    -0.243 SA 
ENDROOT
BRANCH   5   7
HETATM    7  C   UNL     1     -11.447  14.635  68.224  1.00  0.00    -0.314 C  
HETATM    8  N   UNL     1     -10.088  14.378  68.177  1.00  0.00    -0.221 N  
HETATM    9  O   UNL     1     -12.140  14.565  67.214  1.00  0.00    -0.392 OA 
HETATM   10  H   UNL     1      -9.526  14.556  69.010  1.00  0.00     0.000 HD 
BRANCH   8  11
HETATM   11  C   UNL     1      -9.433  13.865  66.986  1.00  0.00    -0.254 C  
BRANCH  11  12
HETATM   12  C   UNL     1      -9.085  12.389  67.136  1.00  0.00    -0.199 C  
HETATM   13  C   UNL     1      -9.750  11.712  68.309  1.00  0.00    -0.197 C  
HETATM   14  N   UNL     1      -9.760  10.350  67.861  1.00  0.00    -0.148 N  
HETATM   15  C   UNL     1      -9.791  10.355  66.470  1.00  0.00    -0.206 C  
HETATM   16  O   UNL     1      -9.582  11.640  66.017  1.00  0.00    -0.217 OA 
HETATM   17  O   UNL     1      -9.977   9.434  65.693  1.00  0.00    -0.304 OA 
BRANCH  14  18
HETATM   18  C   UNL     1      -9.772   9.221  68.716  1.00  0.00    -0.157 A  
HETATM   19  C   UNL     1      -9.314   9.297  70.031  1.00  0.00    -0.232 A  
HETATM   20  C   UNL     1      -9.331   8.178  70.876  1.00  0.00    -0.173 A  
HETATM   21  C   UNL     1      -9.816   6.937  70.451  1.00  0.00    -0.179 A  
HETATM   22  C   UNL     1     -10.282   7.989  68.291  1.00  0.00    -0.243 A  
HETATM   23  C   UNL     1     -10.318   6.873  69.147  1.00  0.00    -0.207 A  
BRANCH  21  24
HETATM   24  N   UNL     1      -9.696   5.781  71.288  1.00  0.00    -0.168 N  
HETATM   25  C   UNL     1      -8.625   4.804  71.083  1.00  0.00    -0.113 C  
HETATM   26  C   UNL     1      -7.986   4.389  72.405  1.00  0.00    -0.092 C  
HETATM   27  O   UNL     1      -8.977   3.819  73.257  1.00  0.00    -0.101 OA 
HETATM   28  C   UNL     1     -10.004   4.763  73.514  1.00  0.00    -0.153 C  
HETATM   29  C   UNL     1     -10.623   5.491  72.307  1.00  0.00    -0.224 C  
HETATM   30  O   UNL     1     -11.795   5.864  72.341  1.00  0.00    -0.311 OA 
ENDBRANCH  21  24
ENDBRANCH  14  18
ENDBRANCH  11  12
ENDBRANCH   8  11
ENDBRANCH   5   7
TORSDOF 5
ENDMDL
MODEL       93
REMARK 921   NORMALIZED FREE ENERGY PREDICTED BY IDOCK:   -5.01 KCAL/MOL
REMARK 922        TOTAL FREE ENERGY PREDICTED BY IDOCK:   -7.04 KCAL/MOL
REMARK 923 INTER-LIGAND FREE ENERGY PREDICTED BY IDOCK:   -6.68 KCAL/MOL
REMARK 924 INTRA-LIGAND FREE ENERGY PREDICTED BY IDOCK:   -0.35 KCAL/MOL
REMARK 927      BINDING AFFINITY PREDICTED BY RF-SCORE:    0.00 PKD
ROOT
HETATM    1 CL   UNL     1     -10.827  16.690  69.898  1.00  0.00    -0.296 Cl 
HETATM    2  C   UNL     1     -10.708  16.316  68.223  1.00  0.00    -0.322 A  
HETATM    3  C   UNL     1     -10.213  17.129  67.239  1.00  0.00    -0.316 A  
HETATM    4  C   UNL     1     -10.279  16.483  65.966  1.00  0.00    -0.372 A  
HETATM    5  C   UNL     1     -10.813  15.205  66.042  1.00  0.00    -0.335 A  
HETATM    6  S   UNL     1     -11.237  14.815  67.662  1.00  0.00    -0.334 SA 
ENDROOT
BRANCH   5   7
HETATM    7  C   UNL     1     -11.023  14.275  64.939  1.00  0.00    -0.404 C  
HETATM    8  N   UNL     1      -9.977  13.404  64.684  1.00  0.00    -0.629 N  
HETATM    9  O   UNL     1     -12.052  14.241  64.272  1.00  0.00    -0.464 OA 
HETATM   10  H   UNL     1      -9.097  13.535  65.183  1.00  0.00     0.000 HD 
BRANCH   8  11
HETATM   11  C   UNL     1     -10.088  12.311  63.732  1.00  0.00    -0.350 C  
BRANCH  11  12
HETATM   12  C   UNL     1     -10.374  10.991  64.436  1.00  0.00    -0.358 C  
HETATM   13  C   UNL     1      -9.179  10.078  64.552  1.00  0.00    -0.262 C  
HETATM   14  N   UNL     1      -9.545   9.301  65.700  1.00  0.00    -0.271 N  
HETATM   15  C   UNL     1     -10.378  10.080  66.497  1.00  0.00    -0.198 C  
HETATM   16  O   UNL     1     -10.729  11.220  65.808  1.00  0.00    -0.263 OA 
HETATM   17  O   UNL     1     -10.778   9.879  67.632  1.00  0.00    -0.254 OA 
BRANCH  14  18
HETATM   18  C   UNL     1      -9.090   7.985  65.961  1.00  0.00    -0.142 A  
HETATM   19  C   UNL     1      -9.729   7.163  66.888  1.00  0.00    -0.242 A  
HETATM   20  C   UNL     1      -9.278   5.860  67.143  1.00  0.00    -0.116 A  
HETATM   21  C   UNL     1      -8.175   5.316  66.475  1.00  0.00    -0.108 A  
HETATM   22  C   UNL     1      -8.002   7.439  65.272  1.00  0.00    -0.127 A  
HETATM   23  C   UNL     1      -7.563   6.124  65.512  1.00  0.00    -0.086 A  
BRANCH  21  24
HETATM   24  N   UNL     1      -7.654   4.035  66.851  1.00  0.00    -0.083 N  
HETATM   25  C   UNL     1      -6.284   3.890  67.346  1.00  0.00    -0.036 C  
HETATM   26  C   UNL     1      -6.224   2.973  68.565  1.00  0.00    -0.029 C  
HETATM   27  O   UNL     1      -6.732   1.686  68.220  1.00  0.00    -0.029 OA 
HETATM   28  C   UNL     1      -8.078   1.791  67.783  1.00  0.00    -0.059 C  
HETATM   29  C   UNL     1      -8.401   2.850  66.714  1.00  0.00    -0.094 C  
HETATM   30  O   UNL     1      -9.319   2.667  65.916  1.00  0.00    -0.107 OA 
ENDBRANCH  21  24
ENDBRANCH  14  18
ENDBRANCH  11  12
ENDBRANCH   8  11
ENDBRANCH   5   7
TORSDOF 5
ENDMDL
MODEL       94
REMARK 921   NORMALIZED FREE ENERGY PREDICTED BY IDOCK:   -4.99 KCAL/MOL
REMARK 922        TOTAL FREE ENERGY PREDICTED BY IDOCK:   -7.01 KCAL/MOL
REMARK 923 INTER-LIGAND FREE ENERGY PREDICTED BY IDOCK:   -6.76 KCAL/MOL
REMARK 924 INTRA-LIGAND FREE ENERGY PREDICTED BY IDOCK:   -0.26 KCAL/MOL
REMARK 927      BINDING AFFINITY PREDICTED BY RF-SCORE:    0.00 PKD
ROOT
HETATM    1 CL   UNL     1     -11.056  20.085  65.296  1.00  0.00    -0.026 Cl 
HETATM    2  C   UNL     1     -10.230  19.330  66.602  1.00  0.00    -0.421 A  
HETATM    3  C   UNL     1      -9.946  19.887  67.819  1.00  0.00    -0.552 A  
HETATM    4  C   UNL     1      -9.241  18.963  68.649  1.00  0.00    -0.399 A  
HETATM    5  C   UNL     1      -9.029  17.741  68.029  1.00  0.00    -0.263 A  
HETATM    6  S   UNL     1      -9.683  17.741  66.438  1.00  0.00    -0.288 SA 
ENDROOT
BRANCH   5   7
HETATM    7  C   UNL     1      -8.346  16.579  68.587  1.00  0.00    -0.235 C  
HETATM    8  N   UNL     1      -8.863  15.349  68.222  1.00  0.00    -0.172 N  
HETATM    9  O   UNL     1      -7.372  16.662  69.328  1.00  0.00    -0.240 OA 
HETATM   10  H   UNL     1      -9.739  15.320  67.699  1.00  0.00     0.000 HD 
BRANCH   8  11
HETATM   11  C   UNL     1      -8.205  14.097  68.556  1.00  0.00    -0.146 C  
BRANCH  11  12
HETATM   12  C   UNL     1      -8.944  12.905  67.961  1.00  0.00    -0.196 C  
HETATM   13  C   UNL     1      -8.577  11.578  68.576  1.00  0.00    -0.140 C  
HETATM   14  N   UNL     1      -9.766  10.821  68.310  1.00  0.00    -0.159 N  
HETATM   15  C   UNL     1     -10.834  11.710  68.243  1.00  0.00    -0.219 C  
HETATM   16  O   UNL     1     -10.351  13.001  68.235  1.00  0.00    -0.239 OA 
HETATM   17  O   UNL     1     -12.032  11.484  68.205  1.00  0.00    -0.571 OA 
BRANCH  14  18
HETATM   18  C   UNL     1      -9.812   9.411  68.181  1.00  0.00    -0.160 A  
HETATM   19  C   UNL     1      -9.204   8.574  69.115  1.00  0.00    -0.150 A  
HETATM   20  C   UNL     1      -9.253   7.178  68.987  1.00  0.00    -0.135 A  
HETATM   21  C   UNL     1      -9.922   6.557  67.927  1.00  0.00    -0.131 A  
HETATM   22  C   UNL     1     -10.503   8.796  67.131  1.00  0.00    -0.354 A  
HETATM   23  C   UNL     1     -10.571   7.396  67.015  1.00  0.00    -0.414 A  
BRANCH  21  24
HETATM   24  N   UNL     1      -9.842   5.137  67.746  1.00  0.00    -0.148 N  
HETATM   25  C   UNL     1      -9.923   4.537  66.413  1.00  0.00    -0.245 C  
HETATM   26  C   UNL     1      -8.871   3.448  66.225  1.00  0.00    -0.134 C  
HETATM   27  O   UNL     1      -9.058   2.430  67.205  1.00  0.00    -0.147 OA 
HETATM   28  C   UNL     1      -8.934   2.975  68.508  1.00  0.00    -0.139 C  
HETATM   29  C   UNL     1      -9.740   4.246  68.830  1.00  0.00    -0.114 C  
HETATM   30  O   UNL     1     -10.129   4.461  69.977  1.00  0.00    -0.218 OA 
ENDBRANCH  21  24
ENDBRANCH  14  18
ENDBRANCH  11  12
ENDBRANCH   8  11
ENDBRANCH   5   7
TORSDOF 5
ENDMDL
MODEL       95
REMARK 921   NORMALIZED FREE ENERGY PREDICTED BY IDOCK:   -4.97 KCAL/MOL
REMARK 922        TOTAL FREE ENERGY PREDICTED BY IDOCK:   -6.98 KCAL/MOL
REMARK 923 INTER-LIGAND FREE ENERGY PREDICTED BY IDOCK:   -6.38 KCAL/MOL
REMARK 924 INTRA-LIGAND FREE ENERGY PREDICTED BY IDOCK:   -0.60 KCAL/MOL
REMARK 927      BINDING AFFINITY PREDICTED BY RF-SCORE:    0.00 PKD
ROOT
HETATM    1 CL   UNL     1      -8.730  18.667  66.368  1.00  0.00    -0.304 Cl 
HETATM    2  C   UNL     1      -9.089  17.316  67.371  1.00  0.00    -0.226 A  
HETATM    3  C   UNL     1      -8.395  16.138  67.430  1.00  0.00    -0.191 A  
HETATM    4  C   UNL     1      -8.990  15.245  68.374  1.00  0.00    -0.184 A  
HETATM    5  C   UNL     1     -10.104  15.790  68.996  1.00  0.00    -0.225 A  
HETATM    6  S   UNL     1     -10.415  17.377  68.413  1.00  0.00    -0.370 SA 
ENDROOT
BRANCH   5   7
HETATM    7  C   UNL     1     -10.944  15.155  70.005  1.00  0.00    -0.271 C  
HETATM    8  N   UNL     1     -11.597  14.004  69.601  1.00  0.00    -0.278 N  
HETATM    9  O   UNL     1     -11.072  15.589  71.145  1.00  0.00    -0.351 OA 
HETATM   10  H   UNL     1     -11.558  13.737  68.617  1.00  0.00     0.000 HD 
BRANCH   8  11
HETATM   11  C   UNL     1     -12.338  13.163  70.527  1.00  0.00    -0.304 C  
BRANCH  11  12
HETATM   12  C   UNL     1     -12.244  11.693  70.138  1.00  0.00    -0.288 C  
HETATM   13  C   UNL     1     -11.065  11.360  69.258  1.00  0.00    -0.254 C  
HETATM   14  N   UNL     1     -10.885   9.971  69.566  1.00  0.00    -0.239 N  
HETATM   15  C   UNL     1     -11.350   9.754  70.859  1.00  0.00    -0.365 C  
HETATM   16  O   UNL     1     -12.009  10.882  71.299  1.00  0.00    -0.279 OA 
HETATM   17  O   UNL     1     -11.234   8.771  71.573  1.00  0.00    -0.262 OA 
BRANCH  14  18
HETATM   18  C   UNL     1     -10.299   9.021  68.693  1.00  0.00    -0.209 A  
HETATM   19  C   UNL     1     -10.660   8.947  67.349  1.00  0.00    -0.305 A  
HETATM   20  C   UNL     1     -10.077   8.008  66.486  1.00  0.00    -0.270 A  
HETATM   21  C   UNL     1      -9.098   7.109  66.925  1.00  0.00    -0.141 A  
HETATM   22  C   UNL     1      -9.304   8.142  69.133  1.00  0.00    -0.151 A  
HETATM   23  C   UNL     1      -8.703   7.214  68.262  1.00  0.00    -0.128 A  
BRANCH  21  24
HETATM   24  N   UNL     1      -8.618   6.073  66.059  1.00  0.00    -0.142 N  
HETATM   25  C   UNL     1      -7.614   6.350  65.031  1.00  0.00    -0.091 C  
HETATM   26  C   UNL     1      -6.535   5.271  64.998  1.00  0.00    -0.039 C  
HETATM   27  O   UNL     1      -7.134   4.005  64.733  1.00  0.00    -0.062 OA 
HETATM   28  C   UNL     1      -8.078   3.687  65.743  1.00  0.00    -0.093 C  
HETATM   29  C   UNL     1      -9.120   4.759  66.108  1.00  0.00    -0.129 C  
HETATM   30  O   UNL     1     -10.235   4.430  66.512  1.00  0.00    -0.232 OA 
ENDBRANCH  21  24
ENDBRANCH  14  18
ENDBRANCH  11  12
ENDBRANCH   8  11
ENDBRANCH   5   7
TORSDOF 5
ENDMDL
MODEL       96
REMARK 921   NORMALIZED FREE ENERGY PREDICTED BY IDOCK:   -4.95 KCAL/MOL
REMARK 922        TOTAL FREE ENERGY PREDICTED BY IDOCK:   -6.95 KCAL/MOL
REMARK 923 INTER-LIGAND FREE ENERGY PREDICTED BY IDOCK:   -6.11 KCAL/MOL
REMARK 924 INTRA-LIGAND FREE ENERGY PREDICTED BY IDOCK:   -0.85 KCAL/MOL
REMARK 927      BINDING AFFINITY PREDICTED BY RF-SCORE:    0.00 PKD
ROOT
HETATM    1 CL   UNL     1     -11.788  11.851  69.247  1.00  0.00    -0.369 Cl 
HETATM    2  C   UNL     1     -11.940  10.677  70.495  1.00  0.00    -0.352 A  
HETATM    3  C   UNL     1     -13.026  10.484  71.305  1.00  0.00    -0.532 A  
HETATM    4  C   UNL     1     -12.788   9.422  72.230  1.00  0.00    -0.452 A  
HETATM    5  C   UNL     1     -11.534   8.850  72.076  1.00  0.00    -0.361 A  
HETATM    6  S   UNL     1     -10.661   9.622  70.812  1.00  0.00    -0.332 SA 
ENDROOT
BRANCH   5   7
HETATM    7  C   UNL     1     -10.969   7.750  72.850  1.00  0.00    -0.407 C  
HETATM    8  N   UNL     1     -11.668   6.557  72.791  1.00  0.00    -0.490 N  
HETATM    9  O   UNL     1      -9.941   7.850  73.511  1.00  0.00    -0.296 OA 
HETATM   10  H   UNL     1     -12.575   6.542  72.325  1.00  0.00     0.000 HD 
BRANCH   8  11
HETATM   11  C   UNL     1     -11.155   5.325  73.368  1.00  0.00    -0.303 C  
BRANCH  11  12
HETATM   12  C   UNL     1     -10.405   4.498  72.332  1.00  0.00    -0.191 C  
HETATM   13  C   UNL     1     -10.587   4.970  70.911  1.00  0.00    -0.078 C  
HETATM   14  N   UNL     1      -9.385   4.473  70.307  1.00  0.00    -0.133 N  
HETATM   15  C   UNL     1      -8.407   4.403  71.293  1.00  0.00    -0.094 C  
HETATM   16  O   UNL     1      -8.987   4.620  72.524  1.00  0.00    -0.119 OA 
HETATM   17  O   UNL     1      -7.208   4.199  71.186  1.00  0.00    -0.038 OA 
BRANCH  14  18
HETATM   18  C   UNL     1      -9.246   4.155  68.933  1.00  0.00    -0.147 A  
HETATM   19  C   UNL     1      -9.269   2.835  68.485  1.00  0.00    -0.241 A  
HETATM   20  C   UNL     1      -9.134   2.523  67.125  1.00  0.00    -0.172 A  
HETATM   21  C   UNL     1      -8.980   3.515  66.150  1.00  0.00    -0.142 A  
HETATM   22  C   UNL     1      -9.117   5.154  67.962  1.00  0.00    -0.123 A  
HETATM   23  C   UNL     1      -9.003   4.840  66.595  1.00  0.00    -0.111 A  
BRANCH  21  24
HETATM   24  N   UNL     1      -8.708   3.164  64.788  1.00  0.00    -0.100 N  
HETATM   25  C   UNL     1      -7.364   3.296  64.225  1.00  0.00    -0.063 C  
HETATM   26  C   UNL     1      -6.982   2.074  63.394  1.00  0.00    -0.035 C  
HETATM   27  O   UNL     1      -7.917   1.908  62.331  1.00  0.00    -0.052 OA 
HETATM   28  C   UNL     1      -9.224   1.726  62.851  1.00  0.00    -0.090 C  
HETATM   29  C   UNL     1      -9.717   2.730  63.907  1.00  0.00    -0.142 C  
HETATM   30  O   UNL     1     -10.915   2.998  63.999  1.00  0.00    -0.142 OA 
ENDBRANCH  21  24
ENDBRANCH  14  18
ENDBRANCH  11  12
ENDBRANCH   8  11
ENDBRANCH   5   7
TORSDOF 5
ENDMDL
MODEL       97
REMARK 921   NORMALIZED FREE ENERGY PREDICTED BY IDOCK:   -4.94 KCAL/MOL
REMARK 922        TOTAL FREE ENERGY PREDICTED BY IDOCK:   -6.95 KCAL/MOL
REMARK 923 INTER-LIGAND FREE ENERGY PREDICTED BY IDOCK:   -6.29 KCAL/MOL
REMARK 924 INTRA-LIGAND FREE ENERGY PREDICTED BY IDOCK:   -0.65 KCAL/MOL
REMARK 927      BINDING AFFINITY PREDICTED BY RF-SCORE:    0.00 PKD
ROOT
HETATM    1 CL   UNL     1      -9.796  20.312  66.840  1.00  0.00    -0.583 Cl 
HETATM    2  C   UNL     1     -10.216  18.664  67.096  1.00  0.00    -0.379 A  
HETATM    3  C   UNL     1     -10.430  17.718  66.132  1.00  0.00    -0.301 A  
HETATM    4  C   UNL     1     -10.768  16.460  66.720  1.00  0.00    -0.180 A  
HETATM    5  C   UNL     1     -10.786  16.506  68.106  1.00  0.00    -0.343 A  
HETATM    6  S   UNL     1     -10.402  18.084  68.670  1.00  0.00    -0.242 SA 
ENDROOT
BRANCH   5   7
HETATM    7  C   UNL     1     -11.089  15.408  69.017  1.00  0.00    -0.268 C  
HETATM    8  N   UNL     1     -12.057  14.520  68.582  1.00  0.00    -0.552 N  
HETATM    9  O   UNL     1     -10.530  15.256  70.099  1.00  0.00    -0.284 OA 
HETATM   10  H   UNL     1     -12.578  14.740  67.733  1.00  0.00     0.000 HD 
BRANCH   8  11
HETATM   11  C   UNL     1     -12.358  13.287  69.290  1.00  0.00    -0.008 C  
BRANCH  11  12
HETATM   12  C   UNL     1     -11.319  12.212  69.000  1.00  0.00    -0.276 C  
HETATM   13  C   UNL     1     -11.448  10.978  69.856  1.00  0.00    -0.320 C  
HETATM   14  N   UNL     1     -10.832   9.998  69.009  1.00  0.00    -0.219 N  
HETATM   15  C   UNL     1     -10.999  10.407  67.689  1.00  0.00    -0.312 C  
HETATM   16  O   UNL     1     -11.492  11.694  67.672  1.00  0.00    -0.321 OA 
HETATM   17  O   UNL     1     -10.785   9.798  66.654  1.00  0.00    -0.147 OA 
BRANCH  14  18
HETATM   18  C   UNL     1     -10.205   8.814  69.469  1.00  0.00    -0.208 A  
HETATM   19  C   UNL     1      -8.817   8.687  69.493  1.00  0.00    -0.144 A  
HETATM   20  C   UNL     1      -8.199   7.515  69.952  1.00  0.00    -0.131 A  
HETATM   21  C   UNL     1      -8.938   6.422  70.417  1.00  0.00    -0.155 A  
HETATM   22  C   UNL     1     -10.951   7.735  69.956  1.00  0.00    -0.218 A  
HETATM   23  C   UNL     1     -10.329   6.568  70.436  1.00  0.00    -0.237 A  
BRANCH  21  24
HETATM   24  N   UNL     1      -8.288   5.190  70.752  1.00  0.00    -0.110 N  
HETATM   25  C   UNL     1      -8.093   4.140  69.751  1.00  0.00    -0.055 C  
HETATM   26  C   UNL     1      -6.687   3.551  69.824  1.00  0.00    -0.034 C  
HETATM   27  O   UNL     1      -6.465   3.004  71.121  1.00  0.00    -0.018 OA 
HETATM   28  C   UNL     1      -6.598   4.013  72.109  1.00  0.00    -0.022 C  
HETATM   29  C   UNL     1      -7.855   4.899  72.059  1.00  0.00    -0.108 C  
HETATM   30  O   UNL     1      -8.321   5.375  73.093  1.00  0.00    -0.117 OA 
ENDBRANCH  21  24
ENDBRANCH  14  18
ENDBRANCH  11  12
ENDBRANCH   8  11
ENDBRANCH   5   7
TORSDOF 5
ENDMDL
MODEL       98
REMARK 921   NORMALIZED FREE ENERGY PREDICTED BY IDOCK:   -4.90 KCAL/MOL
REMARK 922        TOTAL FREE ENERGY PREDICTED BY IDOCK:   -6.90 KCAL/MOL
REMARK 923 INTER-LIGAND FREE ENERGY PREDICTED BY IDOCK:   -6.17 KCAL/MOL
REMARK 924 INTRA-LIGAND FREE ENERGY PREDICTED BY IDOCK:   -0.72 KCAL/MOL
REMARK 927      BINDING AFFINITY PREDICTED BY RF-SCORE:    0.00 PKD
ROOT
HETATM    1 CL   UNL     1     -10.799  19.794  65.677  1.00  0.00    -0.476 Cl 
HETATM    2  C   UNL     1      -9.689  19.042  66.754  1.00  0.00    -0.330 A  
HETATM    3  C   UNL     1      -9.014  19.643  67.781  1.00  0.00    -0.385 A  
HETATM    4  C   UNL     1      -8.174  18.705  68.456  1.00  0.00    -0.370 A  
HETATM    5  C   UNL     1      -8.256  17.430  67.916  1.00  0.00    -0.225 A  
HETATM    6  S   UNL     1      -9.347  17.397  66.588  1.00  0.00    -0.273 SA 
ENDROOT
BRANCH   5   7
HETATM    7  C   UNL     1      -7.537  16.241  68.360  1.00  0.00    -0.166 C  
HETATM    8  N   UNL     1      -7.193  15.344  67.364  1.00  0.00    -0.199 N  
HETATM    9  O   UNL     1      -7.239  16.032  69.532  1.00  0.00    -0.215 OA 
HETATM   10  H   UNL     1      -7.554  15.494  66.422  1.00  0.00     0.000 HD 
BRANCH   8  11
HETATM   11  C   UNL     1      -6.336  14.196  67.612  1.00  0.00    -0.111 C  
BRANCH  11  12
HETATM   12  C   UNL     1      -7.112  12.890  67.501  1.00  0.00    -0.152 C  
HETATM   13  C   UNL     1      -7.438  12.249  68.827  1.00  0.00    -0.065 C  
HETATM   14  N   UNL     1      -8.599  11.484  68.475  1.00  0.00    -0.154 N  
HETATM   15  C   UNL     1      -9.230  12.124  67.413  1.00  0.00    -0.182 C  
HETATM   16  O   UNL     1      -8.411  13.126  66.938  1.00  0.00    -0.170 OA 
HETATM   17  O   UNL     1     -10.326  11.916  66.919  1.00  0.00    -0.206 OA 
BRANCH  14  18
HETATM   18  C   UNL     1      -9.021  10.307  69.141  1.00  0.00    -0.180 A  
HETATM   19  C   UNL     1     -10.069  10.325  70.061  1.00  0.00    -0.167 A  
HETATM   20  C   UNL     1     -10.486   9.158  70.716  1.00  0.00    -0.322 A  
HETATM   21  C   UNL     1      -9.884   7.918  70.474  1.00  0.00    -0.186 A  
HETATM   22  C   UNL     1      -8.430   9.067  68.876  1.00  0.00    -0.130 A  
HETATM   23  C   UNL     1      -8.864   7.892  69.518  1.00  0.00    -0.142 A  
BRANCH  21  24
HETATM   24  N   UNL     1     -10.238   6.770  71.255  1.00  0.00    -0.202 N  
HETATM   25  C   UNL     1      -9.212   5.885  71.810  1.00  0.00    -0.148 C  
HETATM   26  C   UNL     1      -9.518   5.515  73.259  1.00  0.00    -0.145 C  
HETATM   27  O   UNL     1     -10.783   4.861  73.328  1.00  0.00    -0.204 OA 
HETATM   28  C   UNL     1     -11.804   5.716  72.842  1.00  0.00    -0.044 C  
HETATM   29  C   UNL     1     -11.576   6.399  71.482  1.00  0.00    -0.310 C  
HETATM   30  O   UNL     1     -12.532   6.675  70.757  1.00  0.00    -0.314 OA 
ENDBRANCH  21  24
ENDBRANCH  14  18
ENDBRANCH  11  12
ENDBRANCH   8  11
ENDBRANCH   5   7
TORSDOF 5
ENDMDL
MODEL       99
REMARK 921   NORMALIZED FREE ENERGY PREDICTED BY IDOCK:   -4.90 KCAL/MOL
REMARK 922        TOTAL FREE ENERGY PREDICTED BY IDOCK:   -6.89 KCAL/MOL
REMARK 923 INTER-LIGAND FREE ENERGY PREDICTED BY IDOCK:   -6.20 KCAL/MOL
REMARK 924 INTRA-LIGAND FREE ENERGY PREDICTED BY IDOCK:   -0.69 KCAL/MOL
REMARK 927      BINDING AFFINITY PREDICTED BY RF-SCORE:    0.00 PKD
ROOT
HETATM    1 CL   UNL     1      -8.444   3.176  64.125  1.00  0.00    -0.089 Cl 
HETATM    2  C   UNL     1      -8.700   4.596  65.061  1.00  0.00    -0.143 A  
HETATM    3  C   UNL     1      -8.053   5.793  64.921  1.00  0.00    -0.131 A  
HETATM    4  C   UNL     1      -8.524   6.742  65.879  1.00  0.00    -0.146 A  
HETATM    5  C   UNL     1      -9.517   6.224  66.699  1.00  0.00    -0.152 A  
HETATM    6  S   UNL     1      -9.851   4.587  66.296  1.00  0.00    -0.248 SA 
ENDROOT
BRANCH   5   7
HETATM    7  C   UNL     1     -10.213   6.916  67.778  1.00  0.00    -0.180 C  
HETATM    8  N   UNL     1      -9.802   8.215  68.019  1.00  0.00    -0.162 N  
HETATM    9  O   UNL     1     -11.113   6.405  68.436  1.00  0.00    -0.315 OA 
HETATM   10  H   UNL     1      -8.979   8.568  67.530  1.00  0.00     0.000 HD 
BRANCH   8  11
HETATM   11  C   UNL     1     -10.499   9.095  68.942  1.00  0.00    -0.218 C  
BRANCH  11  12
HETATM   12  C   UNL     1     -10.676  10.489  68.354  1.00  0.00    -0.224 C  
HETATM   13  C   UNL     1      -9.490  11.399  68.549  1.00  0.00    -0.183 C  
HETATM   14  N   UNL     1      -9.663  12.304  67.450  1.00  0.00    -0.183 N  
HETATM   15  C   UNL     1     -10.337  11.627  66.438  1.00  0.00    -0.230 C  
HETATM   16  O   UNL     1     -10.787  10.419  66.924  1.00  0.00    -0.236 OA 
HETATM   17  O   UNL     1     -10.539  11.958  65.281  1.00  0.00    -0.257 OA 
BRANCH  14  18
HETATM   18  C   UNL     1      -9.185  13.638  67.421  1.00  0.00    -0.222 A  
HETATM   19  C   UNL     1      -7.832  13.923  67.241  1.00  0.00    -0.134 A  
HETATM   20  C   UNL     1      -7.362  15.244  67.210  1.00  0.00    -0.230 A  
HETATM   21  C   UNL     1      -8.223  16.338  67.344  1.00  0.00    -0.160 A  
HETATM   22  C   UNL     1     -10.055  14.728  67.532  1.00  0.00    -0.224 A  
HETATM   23  C   UNL     1      -9.585  16.053  67.478  1.00  0.00    -0.222 A  
BRANCH  21  24
HETATM   24  N   UNL     1      -7.701  17.669  67.444  1.00  0.00    -0.197 N  
HETATM   25  C   UNL     1      -7.715  18.577  66.296  1.00  0.00    -0.254 C  
HETATM   26  C   UNL     1      -8.172  19.977  66.696  1.00  0.00    -0.314 C  
HETATM   27  O   UNL     1      -7.296  20.500  67.691  1.00  0.00    -0.303 OA 
HETATM   28  C   UNL     1      -7.301  19.665  68.837  1.00  0.00    -0.338 C  
HETATM   29  C   UNL     1      -7.100  18.155  68.621  1.00  0.00    -0.268 C  
HETATM   30  O   UNL     1      -6.560  17.469  69.488  1.00  0.00    -0.239 OA 
ENDBRANCH  21  24
ENDBRANCH  14  18
ENDBRANCH  11  12
ENDBRANCH   8  11
ENDBRANCH   5   7
TORSDOF 5
ENDMDL
MODEL      100
REMARK 921   NORMALIZED FREE ENERGY PREDICTED BY IDOCK:   -4.89 KCAL/MOL
REMARK 922        TOTAL FREE ENERGY PREDICTED BY IDOCK:   -6.88 KCAL/MOL
REMARK 923 INTER-LIGAND FREE ENERGY PREDICTED BY IDOCK:   -6.45 KCAL/MOL
REMARK 924 INTRA-LIGAND FREE ENERGY PREDICTED BY IDOCK:   -0.43 KCAL/MOL
REMARK 927      BINDING AFFINITY PREDICTED BY RF-SCORE:    0.00 PKD
ROOT
HETATM    1 CL   UNL     1      -6.963   3.041  72.669  1.00  0.00    -0.030 Cl 
HETATM    2  C   UNL     1      -7.626   4.273  71.669  1.00  0.00    -0.073 A  
HETATM    3  C   UNL     1      -6.983   4.940  70.662  1.00  0.00    -0.041 A  
HETATM    4  C   UNL     1      -7.848   5.900  70.054  1.00  0.00    -0.100 A  
HETATM    5  C   UNL     1      -9.114   5.913  70.621  1.00  0.00    -0.149 A  
HETATM    6  S   UNL     1      -9.226   4.762  71.893  1.00  0.00    -0.140 SA 
ENDROOT
BRANCH   5   7
HETATM    7  C   UNL     1     -10.237   6.765  70.245  1.00  0.00    -0.195 C  
HETATM    8  N   UNL     1      -9.902   7.951  69.615  1.00  0.00    -0.177 N  
HETATM    9  O   UNL     1     -11.408   6.468  70.454  1.00  0.00    -0.327 OA 
HETATM   10  H   UNL     1      -8.918   8.217  69.559  1.00  0.00     0.000 HD 
BRANCH   8  11
HETATM   11  C   UNL     1     -10.900   8.832  69.031  1.00  0.00    -0.027 C  
BRANCH  11  12
HETATM   12  C   UNL     1     -10.254  10.054  68.390  1.00  0.00    -0.172 C  
HETATM   13  C   UNL     1     -10.932  11.359  68.724  1.00  0.00    -0.223 C  
HETATM   14  N   UNL     1      -9.845  12.278  68.544  1.00  0.00    -0.189 N  
HETATM   15  C   UNL     1      -8.659  11.595  68.793  1.00  0.00    -0.019 C  
HETATM   16  O   UNL     1      -8.928  10.247  68.904  1.00  0.00    -0.145 OA 
HETATM   17  O   UNL     1      -7.525  12.026  68.919  1.00  0.00    -0.108 OA 
BRANCH  14  18
HETATM   18  C   UNL     1      -9.994  13.646  68.208  1.00  0.00    -0.236 A  
HETATM   19  C   UNL     1      -8.995  14.343  67.530  1.00  0.00    -0.192 A  
HETATM   20  C   UNL     1      -9.146  15.697  67.196  1.00  0.00    -0.227 A  
HETATM   21  C   UNL     1     -10.305  16.412  67.515  1.00  0.00    -0.288 A  
HETATM   22  C   UNL     1     -11.166  14.349  68.508  1.00  0.00    -0.286 A  
HETATM   23  C   UNL     1     -11.326  15.701  68.154  1.00  0.00    -0.340 A  
BRANCH  21  24
HETATM   24  N   UNL     1     -10.378  17.824  67.283  1.00  0.00    -0.353 N  
HETATM   25  C   UNL     1     -10.442  18.772  68.397  1.00  0.00    -0.201 C  
HETATM   26  C   UNL     1      -9.512  19.962  68.172  1.00  0.00    -0.328 C  
HETATM   27  O   UNL     1      -9.878  20.633  66.969  1.00  0.00    -0.450 OA 
HETATM   28  C   UNL     1      -9.776  19.749  65.864  1.00  0.00    -0.281 C  
HETATM   29  C   UNL     1     -10.449  18.372  65.989  1.00  0.00    -0.374 C  
HETATM   30  O   UNL     1     -10.884  17.800  64.989  1.00  0.00    -0.774 OA 
ENDBRANCH  21  24
ENDBRANCH  14  18
ENDBRANCH  11  12
ENDBRANCH   8  11
ENDBRANCH   5   7
TORSDOF 5
ENDMDL
MODEL      101
REMARK 921   NORMALIZED FREE ENERGY PREDICTED BY IDOCK:   -4.85 KCAL/MOL
REMARK 922        TOTAL FREE ENERGY PREDICTED BY IDOCK:   -6.83 KCAL/MOL
REMARK 923 INTER-LIGAND FREE ENERGY PREDICTED BY IDOCK:   -6.15 KCAL/MOL
REMARK 924 INTRA-LIGAND FREE ENERGY PREDICTED BY IDOCK:   -0.69 KCAL/MOL
REMARK 927      BINDING AFFINITY PREDICTED BY RF-SCORE:    0.00 PKD
ROOT
HETATM    1 CL   UNL     1      -9.662   4.016  73.479  1.00  0.00    -0.140 Cl 
HETATM    2  C   UNL     1      -9.087   5.122  72.294  1.00  0.00    -0.131 A  
HETATM    3  C   UNL     1      -7.805   5.581  72.162  1.00  0.00    -0.106 A  
HETATM    4  C   UNL     1      -7.702   6.493  71.066  1.00  0.00    -0.094 A  
HETATM    5  C   UNL     1      -8.910   6.678  70.410  1.00  0.00    -0.152 A  
HETATM    6  S   UNL     1     -10.154   5.746  71.144  1.00  0.00    -0.211 SA 
ENDROOT
BRANCH   5   7
HETATM    7  C   UNL     1      -9.160   7.536  69.257  1.00  0.00    -0.138 C  
HETATM    8  N   UNL     1     -10.329   8.274  69.303  1.00  0.00    -0.216 N  
HETATM    9  O   UNL     1      -8.395   7.621  68.302  1.00  0.00    -0.123 OA 
HETATM   10  H   UNL     1     -10.994   8.094  70.056  1.00  0.00     0.000 HD 
BRANCH   8  11
HETATM   11  C   UNL     1     -10.646   9.295  68.318  1.00  0.00    -0.189 C  
BRANCH  11  12
HETATM   12  C   UNL     1     -10.430  10.694  68.881  1.00  0.00    -0.210 C  
HETATM   13  C   UNL     1     -10.194  11.753  67.833  1.00  0.00    -0.191 C  
HETATM   14  N   UNL     1     -10.633  12.925  68.534  1.00  0.00    -0.251 N  
HETATM   15  C   UNL     1     -11.591  12.535  69.465  1.00  0.00    -0.281 C  
HETATM   16  O   UNL     1     -11.620  11.159  69.537  1.00  0.00    -0.261 OA 
HETATM   17  O   UNL     1     -12.338  13.219  70.144  1.00  0.00    -0.301 OA 
BRANCH  14  18
HETATM   18  C   UNL     1     -10.174  14.240  68.272  1.00  0.00    -0.244 A  
HETATM   19  C   UNL     1     -10.447  14.879  67.064  1.00  0.00    -0.272 A  
HETATM   20  C   UNL     1      -9.995  16.182  66.808  1.00  0.00    -0.264 A  
HETATM   21  C   UNL     1      -9.261  16.908  67.752  1.00  0.00    -0.230 A  
HETATM   22  C   UNL     1      -9.462  14.969  69.231  1.00  0.00    -0.171 A  
HETATM   23  C   UNL     1      -9.028  16.284  68.981  1.00  0.00    -0.254 A  
BRANCH  21  24
HETATM   24  N   UNL     1      -8.697  18.181  67.415  1.00  0.00    -0.243 N  
HETATM   25  C   UNL     1      -7.267  18.327  67.135  1.00  0.00    -0.200 C  
HETATM   26  C   UNL     1      -7.024  19.201  65.908  1.00  0.00    -0.273 C  
HETATM   27  O   UNL     1      -7.589  20.492  66.121  1.00  0.00    -0.167 OA 
HETATM   28  C   UNL     1      -8.985  20.385  66.345  1.00  0.00    -0.094 C  
HETATM   29  C   UNL     1      -9.464  19.361  67.389  1.00  0.00    -0.316 C  
HETATM   30  O   UNL     1     -10.497  19.560  68.027  1.00  0.00    -0.420 OA 
ENDBRANCH  21  24
ENDBRANCH  14  18
ENDBRANCH  11  12
ENDBRANCH   8  11
ENDBRANCH   5   7
TORSDOF 5
ENDMDL
MODEL      102
REMARK 921   NORMALIZED FREE ENERGY PREDICTED BY IDOCK:   -4.82 KCAL/MOL
REMARK 922        TOTAL FREE ENERGY PREDICTED BY IDOCK:   -6.79 KCAL/MOL
REMARK 923 INTER-LIGAND FREE ENERGY PREDICTED BY IDOCK:   -6.11 KCAL/MOL
REMARK 924 INTRA-LIGAND FREE ENERGY PREDICTED BY IDOCK:   -0.68 KCAL/MOL
REMARK 927      BINDING AFFINITY PREDICTED BY RF-SCORE:    0.00 PKD
ROOT
HETATM    1 CL   UNL     1      -8.074   1.772  73.299  1.00  0.00    -0.045 Cl 
HETATM    2  C   UNL     1      -8.671   3.306  72.802  1.00  0.00    -0.085 A  
HETATM    3  C   UNL     1      -8.630   4.469  73.522  1.00  0.00    -0.100 A  
HETATM    4  C   UNL     1      -9.228   5.541  72.790  1.00  0.00    -0.137 A  
HETATM    5  C   UNL     1      -9.688   5.145  71.543  1.00  0.00    -0.166 A  
HETATM    6  S   UNL     1      -9.394   3.471  71.286  1.00  0.00    -0.151 SA 
ENDROOT
BRANCH   5   7
HETATM    7  C   UNL     1     -10.346   5.981  70.544  1.00  0.00    -0.221 C  
HETATM    8  N   UNL     1      -9.566   6.342  69.459  1.00  0.00    -0.146 N  
HETATM    9  O   UNL     1     -11.513   6.345  70.635  1.00  0.00    -0.334 OA 
HETATM   10  H   UNL     1      -8.571   6.117  69.473  1.00  0.00     0.000 HD 
BRANCH   8  11
HETATM   11  C   UNL     1     -10.113   7.030  68.302  1.00  0.00    -0.167 C  
BRANCH  11  12
HETATM   12  C   UNL     1      -9.467   8.396  68.113  1.00  0.00    -0.138 C  
HETATM   13  C   UNL     1     -10.423   9.557  68.242  1.00  0.00    -0.223 C  
HETATM   14  N   UNL     1      -9.522  10.603  68.628  1.00  0.00    -0.169 N  
HETATM   15  C   UNL     1      -8.449  10.021  69.297  1.00  0.00    -0.163 C  
HETATM   16  O   UNL     1      -8.519   8.652  69.160  1.00  0.00    -0.121 OA 
HETATM   17  O   UNL     1      -7.553  10.548  69.935  1.00  0.00    -0.146 OA 
BRANCH  14  18
HETATM   18  C   UNL     1      -9.738  11.983  68.387  1.00  0.00    -0.199 A  
HETATM   19  C   UNL     1     -10.838  12.652  68.921  1.00  0.00    -0.238 A  
HETATM   20  C   UNL     1     -11.048  14.018  68.683  1.00  0.00    -0.286 A  
HETATM   21  C   UNL     1     -10.163  14.779  67.912  1.00  0.00    -0.229 A  
HETATM   22  C   UNL     1      -8.835  12.742  67.636  1.00  0.00    -0.189 A  
HETATM   23  C   UNL     1      -9.035  14.118  67.416  1.00  0.00    -0.205 A  
BRANCH  21  24
HETATM   24  N   UNL     1     -10.471  16.136  67.574  1.00  0.00    -0.297 N  
HETATM   25  C   UNL     1     -10.776  17.126  68.609  1.00  0.00    -0.306 C  
HETATM   26  C   UNL     1     -10.061  18.448  68.346  1.00  0.00    -0.390 C  
HETATM   27  O   UNL     1     -10.462  18.964  67.079  1.00  0.00    -0.384 OA 
HETATM   28  C   UNL     1     -10.133  18.046  66.049  1.00  0.00    -0.266 C  
HETATM   29  C   UNL     1     -10.555  16.579  66.240  1.00  0.00    -0.223 C  
HETATM   30  O   UNL     1     -10.816  15.875  65.264  1.00  0.00    -0.388 OA 
ENDBRANCH  21  24
ENDBRANCH  14  18
ENDBRANCH  11  12
ENDBRANCH   8  11
ENDBRANCH   5   7
TORSDOF 5
ENDMDL
MODEL      103
REMARK 921   NORMALIZED FREE ENERGY PREDICTED BY IDOCK:   -4.80 KCAL/MOL
REMARK 922        TOTAL FREE ENERGY PREDICTED BY IDOCK:   -6.76 KCAL/MOL
REMARK 923 INTER-LIGAND FREE ENERGY PREDICTED BY IDOCK:   -6.11 KCAL/MOL
REMARK 924 INTRA-LIGAND FREE ENERGY PREDICTED BY IDOCK:   -0.66 KCAL/MOL
REMARK 927      BINDING AFFINITY PREDICTED BY RF-SCORE:    0.00 PKD
ROOT
HETATM    1 CL   UNL     1     -13.927   8.888  72.768  1.00  0.00    -0.369 Cl 
HETATM    2  C   UNL     1     -12.817   7.884  71.921  1.00  0.00    -0.308 A  
HETATM    3  C   UNL     1     -12.389   6.640  72.300  1.00  0.00    -0.146 A  
HETATM    4  C   UNL     1     -11.461   6.111  71.352  1.00  0.00    -0.317 A  
HETATM    5  C   UNL     1     -11.233   6.973  70.289  1.00  0.00    -0.298 A  
HETATM    6  S   UNL     1     -12.144   8.420  70.469  1.00  0.00     0.275 SA 
ENDROOT
BRANCH   5   7
HETATM    7  C   UNL     1     -10.348   6.748  69.151  1.00  0.00    -0.194 C  
HETATM    8  N   UNL     1     -10.861   7.104  67.916  1.00  0.00    -0.440 N  
HETATM    9  O   UNL     1      -9.218   6.284  69.258  1.00  0.00    -0.133 OA 
HETATM   10  H   UNL     1     -11.841   7.380  67.852  1.00  0.00     0.000 HD 
BRANCH   8  11
HETATM   11  C   UNL     1     -10.054   7.099  66.707  1.00  0.00    -0.208 C  
BRANCH  11  12
HETATM   12  C   UNL     1      -9.872   8.508  66.156  1.00  0.00    -0.157 C  
HETATM   13  C   UNL     1      -9.892   9.591  67.205  1.00  0.00    -0.177 C  
HETATM   14  N   UNL     1      -9.128  10.612  66.550  1.00  0.00    -0.159 N  
HETATM   15  C   UNL     1      -8.247   9.992  65.670  1.00  0.00    -0.143 C  
HETATM   16  O   UNL     1      -8.566   8.654  65.577  1.00  0.00    -0.157 OA 
HETATM   17  O   UNL     1      -7.310  10.462  65.046  1.00  0.00    -0.134 OA 
BRANCH  14  18
HETATM   18  C   UNL     1      -9.250  12.000  66.807  1.00  0.00    -0.201 A  
HETATM   19  C   UNL     1     -10.296  12.751  66.271  1.00  0.00    -0.271 A  
HETATM   20  C   UNL     1     -10.416  14.124  66.529  1.00  0.00    -0.280 A  
HETATM   21  C   UNL     1      -9.505  14.806  67.343  1.00  0.00    -0.207 A  
HETATM   22  C   UNL     1      -8.349  12.670  67.641  1.00  0.00    -0.174 A  
HETATM   23  C   UNL     1      -8.483  14.044  67.917  1.00  0.00    -0.170 A  
BRANCH  21  24
HETATM   24  N   UNL     1      -9.574  16.231  67.480  1.00  0.00    -0.229 N  
HETATM   25  C   UNL     1      -9.263  17.116  66.356  1.00  0.00    -0.258 C  
HETATM   26  C   UNL     1     -10.282  18.247  66.237  1.00  0.00    -0.401 C  
HETATM   27  O   UNL     1     -10.291  19.010  67.441  1.00  0.00    -0.370 OA 
HETATM   28  C   UNL     1     -10.638  18.186  68.542  1.00  0.00    -0.129 C  
HETATM   29  C   UNL     1      -9.884  16.855  68.703  1.00  0.00    -0.270 C  
HETATM   30  O   UNL     1      -9.703  16.374  69.821  1.00  0.00    -0.080 OA 
ENDBRANCH  21  24
ENDBRANCH  14  18
ENDBRANCH  11  12
ENDBRANCH   8  11
ENDBRANCH   5   7
TORSDOF 5
ENDMDL
MODEL      104
REMARK 921   NORMALIZED FREE ENERGY PREDICTED BY IDOCK:   -4.80 KCAL/MOL
REMARK 922        TOTAL FREE ENERGY PREDICTED BY IDOCK:   -6.76 KCAL/MOL
REMARK 923 INTER-LIGAND FREE ENERGY PREDICTED BY IDOCK:   -6.25 KCAL/MOL
REMARK 924 INTRA-LIGAND FREE ENERGY PREDICTED BY IDOCK:   -0.51 KCAL/MOL
REMARK 927      BINDING AFFINITY PREDICTED BY RF-SCORE:    0.00 PKD
ROOT
HETATM    1 CL   UNL     1      -5.129  18.458  64.901  1.00  0.00    -0.187 Cl 
HETATM    2  C   UNL     1      -6.688  18.639  65.604  1.00  0.00    -0.274 A  
HETATM    3  C   UNL     1      -7.372  19.811  65.780  1.00  0.00    -0.331 A  
HETATM    4  C   UNL     1      -8.635  19.574  66.404  1.00  0.00    -0.384 A  
HETATM    5  C   UNL     1      -8.857  18.230  66.667  1.00  0.00    -0.284 A  
HETATM    6  S   UNL     1      -7.519  17.279  66.159  1.00  0.00    -0.210 SA 
ENDROOT
BRANCH   5   7
HETATM    7  C   UNL     1     -10.036  17.641  67.293  1.00  0.00    -0.331 C  
HETATM    8  N   UNL     1      -9.973  16.278  67.522  1.00  0.00    -0.244 N  
HETATM    9  O   UNL     1     -11.026  18.292  67.612  1.00  0.00    -0.333 OA 
HETATM   10  H   UNL     1      -9.185  15.753  67.143  1.00  0.00     0.000 HD 
BRANCH   8  11
HETATM   11  C   UNL     1     -10.989  15.568  68.282  1.00  0.00    -0.305 C  
BRANCH  11  12
HETATM   12  C   UNL     1     -11.209  14.164  67.736  1.00  0.00    -0.287 C  
HETATM   13  C   UNL     1      -9.965  13.313  67.693  1.00  0.00    -0.229 C  
HETATM   14  N   UNL     1     -10.536  11.999  67.753  1.00  0.00    -0.202 N  
HETATM   15  C   UNL     1     -11.748  12.088  68.432  1.00  0.00    -0.332 C  
HETATM   16  O   UNL     1     -12.071  13.417  68.609  1.00  0.00    -0.346 OA 
HETATM   17  O   UNL     1     -12.471  11.201  68.851  1.00  0.00    -0.460 OA 
BRANCH  14  18
HETATM   18  C   UNL     1      -9.927  10.830  67.234  1.00  0.00    -0.187 A  
HETATM   19  C   UNL     1      -9.872   9.648  67.971  1.00  0.00    -0.175 A  
HETATM   20  C   UNL     1      -9.271   8.492  67.454  1.00  0.00    -0.163 A  
HETATM   21  C   UNL     1      -8.708   8.461  66.173  1.00  0.00    -0.151 A  
HETATM   22  C   UNL     1      -9.387  10.800  65.943  1.00  0.00    -0.220 A  
HETATM   23  C   UNL     1      -8.804   9.633  65.417  1.00  0.00    -0.204 A  
BRANCH  21  24
HETATM   24  N   UNL     1      -7.982   7.310  65.723  1.00  0.00    -0.115 N  
HETATM   25  C   UNL     1      -8.678   6.100  65.282  1.00  0.00    -0.024 C  
HETATM   26  C   UNL     1      -8.068   5.540  64.000  1.00  0.00    -0.123 C  
HETATM   27  O   UNL     1      -6.693   5.232  64.220  1.00  0.00    -0.044 OA 
HETATM   28  C   UNL     1      -5.984   6.400  64.600  1.00  0.00    -0.023 C  
HETATM   29  C   UNL     1      -6.576   7.257  65.732  1.00  0.00    -0.048 C  
HETATM   30  O   UNL     1      -5.837   7.907  66.471  1.00  0.00    -0.038 OA 
ENDBRANCH  21  24
ENDBRANCH  14  18
ENDBRANCH  11  12
ENDBRANCH   8  11
ENDBRANCH   5   7
TORSDOF 5
ENDMDL
MODEL      105
REMARK 921   NORMALIZED FREE ENERGY PREDICTED BY IDOCK:   -4.79 KCAL/MOL
REMARK 922        TOTAL FREE ENERGY PREDICTED BY IDOCK:   -6.75 KCAL/MOL
REMARK 923 INTER-LIGAND FREE ENERGY PREDICTED BY IDOCK:   -6.12 KCAL/MOL
REMARK 924 INTRA-LIGAND FREE ENERGY PREDICTED BY IDOCK:   -0.63 KCAL/MOL
REMARK 927      BINDING AFFINITY PREDICTED BY RF-SCORE:    0.00 PKD
ROOT
HETATM    1 CL   UNL     1     -10.763  17.227  69.603  1.00  0.00    -0.013 Cl 
HETATM    2  C   UNL     1     -10.589  16.530  68.040  1.00  0.00    -0.328 A  
HETATM    3  C   UNL     1      -9.967  17.095  66.960  1.00  0.00    -0.287 A  
HETATM    4  C   UNL     1     -10.024  16.225  65.828  1.00  0.00    -0.353 A  
HETATM    5  C   UNL     1     -10.680  15.034  66.102  1.00  0.00    -0.327 A  
HETATM    6  S   UNL     1     -11.226  14.998  67.732  1.00  0.00    -0.329 SA 
ENDROOT
BRANCH   5   7
HETATM    7  C   UNL     1     -10.916  13.929  65.179  1.00  0.00    -0.350 C  
HETATM    8  N   UNL     1     -10.023  12.876  65.267  1.00  0.00    -0.452 N  
HETATM    9  O   UNL     1     -11.842  13.910  64.376  1.00  0.00    -0.399 OA 
HETATM   10  H   UNL     1      -9.203  12.976  65.865  1.00  0.00     0.000 HD 
BRANCH   8  11
HETATM   11  C   UNL     1     -10.212  11.632  64.538  1.00  0.00    -0.291 C  
BRANCH  11  12
HETATM   12  C   UNL     1     -10.761  10.537  65.443  1.00  0.00     0.032 C  
HETATM   13  C   UNL     1      -9.707   9.634  66.034  1.00  0.00    -0.264 C  
HETATM   14  N   UNL     1     -10.377   9.177  67.216  1.00  0.00    -0.255 N  
HETATM   15  C   UNL     1     -11.282  10.160  67.603  1.00  0.00    -0.095 C  
HETATM   16  O   UNL     1     -11.373  11.110  66.609  1.00  0.00    -0.314 OA 
HETATM   17  O   UNL     1     -11.929  10.260  68.633  1.00  0.00    -0.149 OA 
BRANCH  14  18
HETATM   18  C   UNL     1     -10.111   7.948  67.869  1.00  0.00    -0.191 A  
HETATM   19  C   UNL     1      -9.298   7.886  69.000  1.00  0.00    -0.151 A  
HETATM   20  C   UNL     1      -9.039   6.669  69.647  1.00  0.00    -0.142 A  
HETATM   21  C   UNL     1      -9.589   5.462  69.201  1.00  0.00    -0.141 A  
HETATM   22  C   UNL     1     -10.685   6.750  67.432  1.00  0.00    -0.405 A  
HETATM   23  C   UNL     1     -10.441   5.532  68.095  1.00  0.00    -0.231 A  
BRANCH  21  24
HETATM   24  N   UNL     1      -9.200   4.219  69.797  1.00  0.00    -0.121 N  
HETATM   25  C   UNL     1      -9.298   4.007  71.242  1.00  0.00    -0.143 C  
HETATM   26  C   UNL     1      -9.892   2.640  71.568  1.00  0.00    -0.123 C  
HETATM   27  O   UNL     1      -9.076   1.617  71.004  1.00  0.00    -0.068 OA 
HETATM   28  C   UNL     1      -9.005   1.768  69.595  1.00  0.00    -0.087 C  
HETATM   29  C   UNL     1      -8.656   3.162  69.044  1.00  0.00    -0.073 C  
HETATM   30  O   UNL     1      -8.056   3.275  67.975  1.00  0.00    -0.077 OA 
ENDBRANCH  21  24
ENDBRANCH  14  18
ENDBRANCH  11  12
ENDBRANCH   8  11
ENDBRANCH   5   7
TORSDOF 5
ENDMDL
MODEL      106
REMARK 921   NORMALIZED FREE ENERGY PREDICTED BY IDOCK:   -4.74 KCAL/MOL
REMARK 922        TOTAL FREE ENERGY PREDICTED BY IDOCK:   -6.69 KCAL/MOL
REMARK 923 INTER-LIGAND FREE ENERGY PREDICTED BY IDOCK:   -6.04 KCAL/MOL
REMARK 924 INTRA-LIGAND FREE ENERGY PREDICTED BY IDOCK:   -0.65 KCAL/MOL
REMARK 927      BINDING AFFINITY PREDICTED BY RF-SCORE:    0.00 PKD
ROOT
HETATM    1 CL   UNL     1     -11.145  20.205  65.122  1.00  0.00     0.112 Cl 
HETATM    2  C   UNL     1     -10.270  19.487  66.418  1.00  0.00    -0.479 A  
HETATM    3  C   UNL     1      -9.823  20.117  67.547  1.00  0.00    -0.574 A  
HETATM    4  C   UNL     1      -9.129  19.202  68.398  1.00  0.00    -0.405 A  
HETATM    5  C   UNL     1      -9.088  17.916  67.880  1.00  0.00    -0.260 A  
HETATM    6  S   UNL     1      -9.886  17.845  66.359  1.00  0.00    -0.323 SA 
ENDROOT
BRANCH   5   7
HETATM    7  C   UNL     1      -8.463  16.745  68.485  1.00  0.00    -0.244 C  
HETATM    8  N   UNL     1      -9.153  15.555  68.336  1.00  0.00    -0.185 N  
HETATM    9  O   UNL     1      -7.393  16.787  69.084  1.00  0.00    -0.238 OA 
HETATM   10  H   UNL     1     -10.089  15.578  67.932  1.00  0.00     0.000 HD 
BRANCH   8  11
HETATM   11  C   UNL     1      -8.592  14.275  68.733  1.00  0.00    -0.101 C  
BRANCH  11  12
HETATM   12  C   UNL     1      -9.007  13.166  67.775  1.00  0.00    -0.194 C  
HETATM   13  C   UNL     1      -8.543  11.789  68.181  1.00  0.00    -0.160 C  
HETATM   14  N   UNL     1      -9.524  10.972  67.528  1.00  0.00    -0.163 N  
HETATM   15  C   UNL     1     -10.694  11.716  67.413  1.00  0.00    -0.234 C  
HETATM   16  O   UNL     1     -10.435  13.025  67.760  1.00  0.00    -0.221 OA 
HETATM   17  O   UNL     1     -11.812  11.360  67.081  1.00  0.00    -0.566 OA 
BRANCH  14  18
HETATM   18  C   UNL     1      -9.314   9.632  67.119  1.00  0.00    -0.139 A  
HETATM   19  C   UNL     1      -9.432   8.570  68.014  1.00  0.00    -0.154 A  
HETATM   20  C   UNL     1      -9.227   7.244  67.606  1.00  0.00    -0.130 A  
HETATM   21  C   UNL     1      -8.905   6.919  66.284  1.00  0.00    -0.148 A  
HETATM   22  C   UNL     1      -9.016   9.313  65.790  1.00  0.00    -0.234 A  
HETATM   23  C   UNL     1      -8.832   7.981  65.376  1.00  0.00    -0.056 A  
BRANCH  21  24
HETATM   24  N   UNL     1      -8.568   5.574  65.924  1.00  0.00    -0.136 N  
HETATM   25  C   UNL     1      -7.242   5.238  65.403  1.00  0.00    -0.068 C  
HETATM   26  C   UNL     1      -6.695   3.966  66.046  1.00  0.00    -0.049 C  
HETATM   27  O   UNL     1      -7.583   2.881  65.790  1.00  0.00    -0.072 OA 
HETATM   28  C   UNL     1      -8.865   3.159  66.330  1.00  0.00    -0.142 C  
HETATM   29  C   UNL     1      -9.499   4.521  65.996  1.00  0.00    -0.173 C  
HETATM   30  O   UNL     1     -10.723   4.637  65.930  1.00  0.00    -0.307 OA 
ENDBRANCH  21  24
ENDBRANCH  14  18
ENDBRANCH  11  12
ENDBRANCH   8  11
ENDBRANCH   5   7
TORSDOF 5
ENDMDL
MODEL      107
REMARK 921   NORMALIZED FREE ENERGY PREDICTED BY IDOCK:   -4.73 KCAL/MOL
REMARK 922        TOTAL FREE ENERGY PREDICTED BY IDOCK:   -6.67 KCAL/MOL
REMARK 923 INTER-LIGAND FREE ENERGY PREDICTED BY IDOCK:   -5.92 KCAL/MOL
REMARK 924 INTRA-LIGAND FREE ENERGY PREDICTED BY IDOCK:   -0.75 KCAL/MOL
REMARK 927      BINDING AFFINITY PREDICTED BY RF-SCORE:    0.00 PKD
ROOT
HETATM    1 CL   UNL     1      -7.449   2.190  64.198  1.00  0.00    -0.058 Cl 
HETATM    2  C   UNL     1      -8.507   3.359  64.884  1.00  0.00    -0.101 A  
HETATM    3  C   UNL     1      -9.824   3.553  64.565  1.00  0.00    -0.179 A  
HETATM    4  C   UNL     1     -10.381   4.619  65.336  1.00  0.00    -0.173 A  
HETATM    5  C   UNL     1      -9.465   5.181  66.213  1.00  0.00    -0.156 A  
HETATM    6  S   UNL     1      -7.935   4.407  66.076  1.00  0.00    -0.099 SA 
ENDROOT
BRANCH   5   7
HETATM    7  C   UNL     1      -9.698   6.281  67.141  1.00  0.00    -0.139 C  
HETATM    8  N   UNL     1     -10.336   7.387  66.609  1.00  0.00    -0.488 N  
HETATM    9  O   UNL     1      -9.368   6.248  68.322  1.00  0.00    -0.115 OA 
HETATM   10  H   UNL     1     -10.494   7.425  65.602  1.00  0.00     0.000 HD 
BRANCH   8  11
HETATM   11  C   UNL     1     -10.789   8.497  67.432  1.00  0.00    -0.012 C  
BRANCH  11  12
HETATM   12  C   UNL     1      -9.879   9.708  67.279  1.00  0.00    -0.175 C  
HETATM   13  C   UNL     1     -10.547  11.027  67.580  1.00  0.00    -0.227 C  
HETATM   14  N   UNL     1      -9.413  11.822  67.952  1.00  0.00    -0.184 N  
HETATM   15  C   UNL     1      -8.443  10.971  68.472  1.00  0.00    -0.153 C  
HETATM   16  O   UNL     1      -8.819   9.664  68.246  1.00  0.00    -0.120 OA 
HETATM   17  O   UNL     1      -7.407  11.238  69.057  1.00  0.00    -0.108 OA 
BRANCH  14  18
HETATM   18  C   UNL     1      -9.343  13.232  67.830  1.00  0.00    -0.214 A  
HETATM   19  C   UNL     1      -9.931  14.075  68.772  1.00  0.00    -0.164 A  
HETATM   20  C   UNL     1      -9.858  15.470  68.652  1.00  0.00    -0.207 A  
HETATM   21  C   UNL     1      -9.184  16.086  67.592  1.00  0.00    -0.205 A  
HETATM   22  C   UNL     1      -8.646  13.841  66.781  1.00  0.00    -0.058 A  
HETATM   23  C   UNL     1      -8.554  15.241  66.673  1.00  0.00    -0.305 A  
BRANCH  21  24
HETATM   24  N   UNL     1      -9.239  17.507  67.419  1.00  0.00    -0.236 N  
HETATM   25  C   UNL     1     -10.107  18.115  66.409  1.00  0.00    -0.389 C  
HETATM   26  C   UNL     1     -10.853  19.324  66.966  1.00  0.00    -0.414 C  
HETATM   27  O   UNL     1      -9.914  20.297  67.418  1.00  0.00    -0.410 OA 
HETATM   28  C   UNL     1      -9.092  19.750  68.436  1.00  0.00    -0.274 C  
HETATM   29  C   UNL     1      -8.431  18.387  68.163  1.00  0.00    -0.285 C  
HETATM   30  O   UNL     1      -7.346  18.109  68.674  1.00  0.00    -0.271 OA 
ENDBRANCH  21  24
ENDBRANCH  14  18
ENDBRANCH  11  12
ENDBRANCH   8  11
ENDBRANCH   5   7
TORSDOF 5
ENDMDL
MODEL      108
REMARK 921   NORMALIZED FREE ENERGY PREDICTED BY IDOCK:   -4.73 KCAL/MOL
REMARK 922        TOTAL FREE ENERGY PREDICTED BY IDOCK:   -6.67 KCAL/MOL
REMARK 923 INTER-LIGAND FREE ENERGY PREDICTED BY IDOCK:   -5.96 KCAL/MOL
REMARK 924 INTRA-LIGAND FREE ENERGY PREDICTED BY IDOCK:   -0.71 KCAL/MOL
REMARK 927      BINDING AFFINITY PREDICTED BY RF-SCORE:    0.00 PKD
ROOT
HETATM    1 CL   UNL     1      -8.022   2.339  72.244  1.00  0.00    -0.052 Cl 
HETATM    2  C   UNL     1      -8.368   3.886  71.576  1.00  0.00    -0.074 A  
HETATM    3  C   UNL     1      -7.628   5.026  71.733  1.00  0.00    -0.104 A  
HETATM    4  C   UNL     1      -8.227   6.121  71.038  1.00  0.00    -0.123 A  
HETATM    5  C   UNL     1      -9.391   5.760  70.375  1.00  0.00    -0.157 A  
HETATM    6  S   UNL     1      -9.743   4.095  70.620  1.00  0.00    -0.187 SA 
ENDROOT
BRANCH   5   7
HETATM    7  C   UNL     1     -10.250   6.626  69.574  1.00  0.00    -0.183 C  
HETATM    8  N   UNL     1     -10.075   6.538  68.204  1.00  0.00    -0.145 N  
HETATM    9  O   UNL     1     -11.083   7.383  70.059  1.00  0.00    -0.259 OA 
HETATM   10  H   UNL     1      -9.299   5.984  67.843  1.00  0.00     0.000 HD 
BRANCH   8  11
HETATM   11  C   UNL     1     -10.958   7.206  67.262  1.00  0.00    -0.263 C  
BRANCH  11  12
HETATM   12  C   UNL     1     -10.274   8.406  66.618  1.00  0.00    -0.265 C  
HETATM   13  C   UNL     1     -10.621   9.730  67.251  1.00  0.00    -0.255 C  
HETATM   14  N   UNL     1      -9.463  10.503  66.908  1.00  0.00    -0.163 N  
HETATM   15  C   UNL     1      -8.388   9.629  66.776  1.00  0.00    -0.117 C  
HETATM   16  O   UNL     1      -8.852   8.332  66.803  1.00  0.00    -0.130 OA 
HETATM   17  O   UNL     1      -7.198   9.872  66.662  1.00  0.00    -0.088 OA 
BRANCH  14  18
HETATM   18  C   UNL     1      -9.446  11.913  66.771  1.00  0.00    -0.201 A  
HETATM   19  C   UNL     1     -10.069  12.549  65.698  1.00  0.00    -0.285 A  
HETATM   20  C   UNL     1     -10.053  13.945  65.567  1.00  0.00    -0.319 A  
HETATM   21  C   UNL     1      -9.424  14.769  66.507  1.00  0.00    -0.293 A  
HETATM   22  C   UNL     1      -8.836  12.731  67.728  1.00  0.00    -0.187 A  
HETATM   23  C   UNL     1      -8.840  14.133  67.607  1.00  0.00    -0.194 A  
BRANCH  21  24
HETATM   24  N   UNL     1      -9.306  16.178  66.279  1.00  0.00    -0.291 N  
HETATM   25  C   UNL     1     -10.461  16.979  65.868  1.00  0.00    -0.274 C  
HETATM   26  C   UNL     1     -10.535  18.291  66.644  1.00  0.00    -0.360 C  
HETATM   27  O   UNL     1      -9.346  19.045  66.423  1.00  0.00    -0.328 OA 
HETATM   28  C   UNL     1      -8.213  18.311  66.860  1.00  0.00    -0.247 C  
HETATM   29  C   UNL     1      -8.077  16.856  66.379  1.00  0.00    -0.315 C  
HETATM   30  O   UNL     1      -6.964  16.353  66.229  1.00  0.00    -0.101 OA 
ENDBRANCH  21  24
ENDBRANCH  14  18
ENDBRANCH  11  12
ENDBRANCH   8  11
ENDBRANCH   5   7
TORSDOF 5
ENDMDL
MODEL      109
REMARK 921   NORMALIZED FREE ENERGY PREDICTED BY IDOCK:   -4.72 KCAL/MOL
REMARK 922        TOTAL FREE ENERGY PREDICTED BY IDOCK:   -6.66 KCAL/MOL
REMARK 923 INTER-LIGAND FREE ENERGY PREDICTED BY IDOCK:   -6.10 KCAL/MOL
REMARK 924 INTRA-LIGAND FREE ENERGY PREDICTED BY IDOCK:   -0.56 KCAL/MOL
REMARK 927      BINDING AFFINITY PREDICTED BY RF-SCORE:    0.00 PKD
ROOT
HETATM    1 CL   UNL     1      -9.449   1.791  65.420  1.00  0.00     0.042 Cl 
HETATM    2  C   UNL     1      -9.297   3.496  65.587  1.00  0.00    -0.158 A  
HETATM    3  C   UNL     1     -10.103   4.318  66.326  1.00  0.00    -0.196 A  
HETATM    4  C   UNL     1      -9.676   5.678  66.221  1.00  0.00    -0.162 A  
HETATM    5  C   UNL     1      -8.558   5.825  65.412  1.00  0.00    -0.143 A  
HETATM    6  S   UNL     1      -8.053   4.307  64.785  1.00  0.00    -0.096 SA 
ENDROOT
BRANCH   5   7
HETATM    7  C   UNL     1      -7.866   7.068  65.091  1.00  0.00    -0.124 C  
HETATM    8  N   UNL     1      -7.526   7.861  66.173  1.00  0.00    -0.077 N  
HETATM    9  O   UNL     1      -7.585   7.406  63.945  1.00  0.00    -0.097 OA 
HETATM   10  H   UNL     1      -7.874   7.605  67.097  1.00  0.00     0.000 HD 
BRANCH   8  11
HETATM   11  C   UNL     1      -6.693   9.044  66.041  1.00  0.00    -0.076 C  
BRANCH  11  12
HETATM   12  C   UNL     1      -7.207  10.185  66.910  1.00  0.00    -0.092 C  
HETATM   13  C   UNL     1      -7.800  11.335  66.136  1.00  0.00    -0.016 C  
HETATM   14  N   UNL     1      -8.689  11.887  67.116  1.00  0.00    -0.169 N  
HETATM   15  C   UNL     1      -9.078  10.860  67.970  1.00  0.00    -0.152 C  
HETATM   16  O   UNL     1      -8.313   9.743  67.713  1.00  0.00    -0.113 OA 
HETATM   17  O   UNL     1      -9.946  10.848  68.828  1.00  0.00    -0.182 OA 
BRANCH  14  18
HETATM   18  C   UNL     1      -9.107  13.241  67.154  1.00  0.00    -0.231 A  
HETATM   19  C   UNL     1     -10.421  13.606  66.866  1.00  0.00    -0.272 A  
HETATM   20  C   UNL     1     -10.833  14.946  66.907  1.00  0.00    -0.319 A  
HETATM   21  C   UNL     1      -9.954  15.979  67.250  1.00  0.00    -0.242 A  
HETATM   22  C   UNL     1      -8.229  14.266  67.522  1.00  0.00    -0.201 A  
HETATM   23  C   UNL     1      -8.648  15.607  67.584  1.00  0.00    -0.177 A  
BRANCH  21  24
HETATM   24  N   UNL     1     -10.365  17.349  67.153  1.00  0.00    -0.326 N  
HETATM   25  C   UNL     1     -10.571  18.165  68.350  1.00  0.00    -0.197 C  
HETATM   26  C   UNL     1      -9.957  19.553  68.194  1.00  0.00    -0.418 C  
HETATM   27  O   UNL     1     -10.546  20.212  67.075  1.00  0.00    -0.378 OA 
HETATM   28  C   UNL     1     -10.317  19.467  65.890  1.00  0.00    -0.451 C  
HETATM   29  C   UNL     1     -10.645  17.964  65.919  1.00  0.00    -0.215 C  
HETATM   30  O   UNL     1     -11.003  17.387  64.892  1.00  0.00    -0.862 OA 
ENDBRANCH  21  24
ENDBRANCH  14  18
ENDBRANCH  11  12
ENDBRANCH   8  11
ENDBRANCH   5   7
TORSDOF 5
ENDMDL
MODEL      110
REMARK 921   NORMALIZED FREE ENERGY PREDICTED BY IDOCK:   -4.70 KCAL/MOL
REMARK 922        TOTAL FREE ENERGY PREDICTED BY IDOCK:   -6.63 KCAL/MOL
REMARK 923 INTER-LIGAND FREE ENERGY PREDICTED BY IDOCK:   -5.82 KCAL/MOL
REMARK 924 INTRA-LIGAND FREE ENERGY PREDICTED BY IDOCK:   -0.81 KCAL/MOL
REMARK 927      BINDING AFFINITY PREDICTED BY RF-SCORE:    0.00 PKD
ROOT
HETATM    1 CL   UNL     1     -12.883  11.964  63.245  1.00  0.00    -0.542 Cl 
HETATM    2  C   UNL     1     -12.114  12.817  64.525  1.00  0.00    -0.414 A  
HETATM    3  C   UNL     1     -12.650  13.837  65.263  1.00  0.00    -0.510 A  
HETATM    4  C   UNL     1     -11.715  14.308  66.236  1.00  0.00    -0.404 A  
HETATM    5  C   UNL     1     -10.513  13.617  66.198  1.00  0.00    -0.297 A  
HETATM    6  S   UNL     1     -10.537  12.413  64.971  1.00  0.00    -0.309 SA 
ENDROOT
BRANCH   5   7
HETATM    7  C   UNL     1      -9.347  13.838  67.046  1.00  0.00    -0.248 C  
HETATM    8  N   UNL     1      -8.336  12.901  66.929  1.00  0.00    -0.382 N  
HETATM    9  O   UNL     1      -9.243  14.790  67.814  1.00  0.00    -0.188 OA 
HETATM   10  H   UNL     1      -8.504  12.065  66.368  1.00  0.00     0.000 HD 
BRANCH   8  11
HETATM   11  C   UNL     1      -7.045  13.062  67.578  1.00  0.00    -0.154 C  
BRANCH  11  12
HETATM   12  C   UNL     1      -6.759  11.913  68.537  1.00  0.00    -0.068 C  
HETATM   13  C   UNL     1      -7.956  11.049  68.843  1.00  0.00    -0.138 C  
HETATM   14  N   UNL     1      -7.313   9.817  69.198  1.00  0.00    -0.075 N  
HETATM   15  C   UNL     1      -6.096   9.759  68.527  1.00  0.00    -0.042 C  
HETATM   16  O   UNL     1      -5.842  10.982  67.943  1.00  0.00    -0.046 OA 
HETATM   17  O   UNL     1      -5.317   8.828  68.407  1.00  0.00    -0.036 OA 
BRANCH  14  18
HETATM   18  C   UNL     1      -7.868   8.837  70.057  1.00  0.00    -0.094 A  
HETATM   19  C   UNL     1      -7.672   8.881  71.436  1.00  0.00    -0.126 A  
HETATM   20  C   UNL     1      -8.225   7.911  72.285  1.00  0.00    -0.167 A  
HETATM   21  C   UNL     1      -9.008   6.860  71.795  1.00  0.00    -0.138 A  
HETATM   22  C   UNL     1      -8.671   7.803  69.562  1.00  0.00    -0.135 A  
HETATM   23  C   UNL     1      -9.244   6.843  70.417  1.00  0.00    -0.156 A  
BRANCH  21  24
HETATM   24  N   UNL     1      -9.447   5.810  72.665  1.00  0.00    -0.150 N  
HETATM   25  C   UNL     1     -10.655   5.954  73.478  1.00  0.00    -0.268 C  
HETATM   26  C   UNL     1     -11.512   4.692  73.435  1.00  0.00    -0.245 C  
HETATM   27  O   UNL     1     -10.756   3.584  73.919  1.00  0.00    -0.185 OA 
HETATM   28  C   UNL     1      -9.602   3.390  73.117  1.00  0.00    -0.110 C  
HETATM   29  C   UNL     1      -8.719   4.616  72.830  1.00  0.00    -0.114 C  
HETATM   30  O   UNL     1      -7.508   4.482  72.653  1.00  0.00    -0.079 OA 
ENDBRANCH  21  24
ENDBRANCH  14  18
ENDBRANCH  11  12
ENDBRANCH   8  11
ENDBRANCH   5   7
TORSDOF 5
ENDMDL
MODEL      111
REMARK 921   NORMALIZED FREE ENERGY PREDICTED BY IDOCK:   -4.69 KCAL/MOL
REMARK 922        TOTAL FREE ENERGY PREDICTED BY IDOCK:   -6.62 KCAL/MOL
REMARK 923 INTER-LIGAND FREE ENERGY PREDICTED BY IDOCK:   -5.88 KCAL/MOL
REMARK 924 INTRA-LIGAND FREE ENERGY PREDICTED BY IDOCK:   -0.74 KCAL/MOL
REMARK 927      BINDING AFFINITY PREDICTED BY RF-SCORE:    0.00 PKD
ROOT
HETATM    1 CL   UNL     1      -9.388   1.729  67.785  1.00  0.00    -0.196 Cl 
HETATM    2  C   UNL     1      -9.147   3.418  68.002  1.00  0.00    -0.162 A  
HETATM    3  C   UNL     1      -9.812   4.231  68.879  1.00  0.00    -0.131 A  
HETATM    4  C   UNL     1      -9.349   5.579  68.775  1.00  0.00    -0.152 A  
HETATM    5  C   UNL     1      -8.346   5.727  67.828  1.00  0.00    -0.104 A  
HETATM    6  S   UNL     1      -7.990   4.224  67.073  1.00  0.00    -0.097 SA 
ENDROOT
BRANCH   5   7
HETATM    7  C   UNL     1      -7.653   6.960  67.469  1.00  0.00    -0.109 C  
HETATM    8  N   UNL     1      -7.523   7.890  68.484  1.00  0.00    -0.094 N  
HETATM    9  O   UNL     1      -7.200   7.176  66.349  1.00  0.00    -0.075 OA 
HETATM   10  H   UNL     1      -8.009   7.726  69.366  1.00  0.00     0.000 HD 
BRANCH   8  11
HETATM   11  C   UNL     1      -6.721   9.094  68.340  1.00  0.00    -0.059 C  
BRANCH  11  12
HETATM   12  C   UNL     1      -7.541  10.345  68.628  1.00  0.00    -0.092 C  
HETATM   13  C   UNL     1      -7.318  11.471  67.650  1.00  0.00    -0.105 C  
HETATM   14  N   UNL     1      -8.559  12.180  67.771  1.00  0.00    -0.154 N  
HETATM   15  C   UNL     1      -9.540  11.268  68.146  1.00  0.00    -0.186 C  
HETATM   16  O   UNL     1      -8.943  10.071  68.478  1.00  0.00    -0.119 OA 
HETATM   17  O   UNL     1     -10.751  11.404  68.194  1.00  0.00    -0.184 OA 
BRANCH  14  18
HETATM   18  C   UNL     1      -8.726  13.563  67.510  1.00  0.00    -0.208 A  
HETATM   19  C   UNL     1      -8.251  14.533  68.391  1.00  0.00    -0.150 A  
HETATM   20  C   UNL     1      -8.415  15.901  68.129  1.00  0.00    -0.167 A  
HETATM   21  C   UNL     1      -9.050  16.361  66.970  1.00  0.00    -0.214 A  
HETATM   22  C   UNL     1      -9.340  14.015  66.337  1.00  0.00    -0.242 A  
HETATM   23  C   UNL     1      -9.485  15.388  66.064  1.00  0.00    -0.381 A  
BRANCH  21  24
HETATM   24  N   UNL     1      -9.324  17.756  66.792  1.00  0.00    -0.272 N  
HETATM   25  C   UNL     1     -10.656  18.305  67.048  1.00  0.00    -0.349 C  
HETATM   26  C   UNL     1     -10.581  19.612  67.832  1.00  0.00    -0.356 C  
HETATM   27  O   UNL     1      -9.819  20.567  67.098  1.00  0.00    -0.454 OA 
HETATM   28  C   UNL     1      -8.504  20.081  66.879  1.00  0.00    -0.328 C  
HETATM   29  C   UNL     1      -8.355  18.658  66.313  1.00  0.00    -0.230 C  
HETATM   30  O   UNL     1      -7.390  18.368  65.608  1.00  0.00    -0.510 OA 
ENDBRANCH  21  24
ENDBRANCH  14  18
ENDBRANCH  11  12
ENDBRANCH   8  11
ENDBRANCH   5   7
TORSDOF 5
ENDMDL
MODEL      112
REMARK 921   NORMALIZED FREE ENERGY PREDICTED BY IDOCK:   -4.68 KCAL/MOL
REMARK 922        TOTAL FREE ENERGY PREDICTED BY IDOCK:   -6.61 KCAL/MOL
REMARK 923 INTER-LIGAND FREE ENERGY PREDICTED BY IDOCK:   -6.02 KCAL/MOL
REMARK 924 INTRA-LIGAND FREE ENERGY PREDICTED BY IDOCK:   -0.60 KCAL/MOL
REMARK 927      BINDING AFFINITY PREDICTED BY RF-SCORE:    0.00 PKD
ROOT
HETATM    1 CL   UNL     1     -12.390  16.533  74.114  1.00  0.00    -0.566 Cl 
HETATM    2  C   UNL     1     -12.538  15.624  72.661  1.00  0.00    -0.433 A  
HETATM    3  C   UNL     1     -13.474  14.663  72.392  1.00  0.00    -0.534 A  
HETATM    4  C   UNL     1     -13.282  14.118  71.085  1.00  0.00    -0.369 A  
HETATM    5  C   UNL     1     -12.213  14.697  70.417  1.00  0.00    -0.329 A  
HETATM    6  S   UNL     1     -11.452  15.888  71.396  1.00  0.00    -0.380 SA 
ENDROOT
BRANCH   5   7
HETATM    7  C   UNL     1     -11.741  14.378  69.074  1.00  0.00    -0.310 C  
HETATM    8  N   UNL     1     -10.383  14.536  68.864  1.00  0.00    -0.237 N  
HETATM    9  O   UNL     1     -12.479  13.987  68.176  1.00  0.00    -0.116 OA 
HETATM   10  H   UNL     1      -9.820  14.969  69.597  1.00  0.00     0.000 HD 
BRANCH   8  11
HETATM   11  C   UNL     1      -9.728  14.108  67.639  1.00  0.00    -0.228 C  
BRANCH  11  12
HETATM   12  C   UNL     1      -8.898  12.850  67.864  1.00  0.00    -0.190 C  
HETATM   13  C   UNL     1      -9.699  11.572  67.873  1.00  0.00    -0.183 C  
HETATM   14  N   UNL     1      -8.695  10.624  67.487  1.00  0.00    -0.125 N  
HETATM   15  C   UNL     1      -7.752  11.290  66.710  1.00  0.00    -0.155 C  
HETATM   16  O   UNL     1      -7.993  12.646  66.768  1.00  0.00    -0.039 OA 
HETATM   17  O   UNL     1      -6.836  10.838  66.042  1.00  0.00    -0.131 OA 
BRANCH  14  18
HETATM   18  C   UNL     1      -8.712   9.249  67.826  1.00  0.00    -0.120 A  
HETATM   19  C   UNL     1      -7.907   8.738  68.843  1.00  0.00    -0.104 A  
HETATM   20  C   UNL     1      -7.929   7.377  69.179  1.00  0.00    -0.118 A  
HETATM   21  C   UNL     1      -8.763   6.467  68.521  1.00  0.00    -0.121 A  
HETATM   22  C   UNL     1      -9.567   8.349  67.181  1.00  0.00    -0.233 A  
HETATM   23  C   UNL     1      -9.604   6.987  67.533  1.00  0.00    -0.155 A  
BRANCH  21  24
HETATM   24  N   UNL     1      -8.667   5.063  68.791  1.00  0.00    -0.093 N  
HETATM   25  C   UNL     1      -8.550   4.560  70.161  1.00  0.00    -0.077 C  
HETATM   26  C   UNL     1      -9.460   3.357  70.394  1.00  0.00    -0.175 C  
HETATM   27  O   UNL     1      -9.115   2.314  69.486  1.00  0.00    -0.094 OA 
HETATM   28  C   UNL     1      -9.268   2.759  68.147  1.00  0.00    -0.202 C  
HETATM   29  C   UNL     1      -8.621   4.101  67.764  1.00  0.00    -0.100 C  
HETATM   30  O   UNL     1      -8.227   4.295  66.614  1.00  0.00    -0.101 OA 
ENDBRANCH  21  24
ENDBRANCH  14  18
ENDBRANCH  11  12
ENDBRANCH   8  11
ENDBRANCH   5   7
TORSDOF 5
ENDMDL
MODEL      113
REMARK 921   NORMALIZED FREE ENERGY PREDICTED BY IDOCK:   -4.68 KCAL/MOL
REMARK 922        TOTAL FREE ENERGY PREDICTED BY IDOCK:   -6.61 KCAL/MOL
REMARK 923 INTER-LIGAND FREE ENERGY PREDICTED BY IDOCK:   -6.45 KCAL/MOL
REMARK 924 INTRA-LIGAND FREE ENERGY PREDICTED BY IDOCK:   -0.16 KCAL/MOL
REMARK 927      BINDING AFFINITY PREDICTED BY RF-SCORE:    0.00 PKD
ROOT
HETATM    1 CL   UNL     1     -11.127   5.203  73.607  1.00  0.00    -0.356 Cl 
HETATM    2  C   UNL     1     -11.111   6.165  72.182  1.00  0.00    -0.275 A  
HETATM    3  C   UNL     1     -11.999   7.154  71.856  1.00  0.00    -0.343 A  
HETATM    4  C   UNL     1     -11.674   7.731  70.590  1.00  0.00    -0.191 A  
HETATM    5  C   UNL     1     -10.548   7.161  70.015  1.00  0.00    -0.232 A  
HETATM    6  S   UNL     1      -9.909   5.922  71.022  1.00  0.00    -0.186 SA 
ENDROOT
BRANCH   5   7
HETATM    7  C   UNL     1      -9.943   7.509  68.734  1.00  0.00    -0.172 C  
HETATM    8  N   UNL     1     -10.722   8.290  67.899  1.00  0.00    -0.459 N  
HETATM    9  O   UNL     1      -8.818   7.153  68.402  1.00  0.00    -0.128 OA 
HETATM   10  H   UNL     1     -11.691   8.473  68.159  1.00  0.00     0.000 HD 
BRANCH   8  11
HETATM   11  C   UNL     1     -10.209   8.860  66.664  1.00  0.00    -0.268 C  
BRANCH  11  12
HETATM   12  C   UNL     1     -10.331  10.378  66.660  1.00  0.00    -0.231 C  
HETATM   13  C   UNL     1      -9.031  11.105  66.895  1.00  0.00    -0.161 C  
HETATM   14  N   UNL     1      -9.305  12.358  66.255  1.00  0.00    -0.219 N  
HETATM   15  C   UNL     1     -10.236  12.131  65.246  1.00  0.00    -0.274 C  
HETATM   16  O   UNL     1     -10.723  10.846  65.361  1.00  0.00    -0.219 OA 
HETATM   17  O   UNL     1     -10.616  12.874  64.357  1.00  0.00    -0.351 OA 
BRANCH  14  18
HETATM   18  C   UNL     1      -8.689  13.588  66.593  1.00  0.00     0.003 A  
HETATM   19  C   UNL     1      -7.427  13.633  67.184  1.00  0.00     0.085 A  
HETATM   20  C   UNL     1      -6.817  14.851  67.515  1.00  0.00    -0.189 A  
HETATM   21  C   UNL     1      -7.435  16.080  67.260  1.00  0.00    -0.201 A  
HETATM   22  C   UNL     1      -9.302  14.814  66.313  1.00  0.00    -0.310 A  
HETATM   23  C   UNL     1      -8.680  16.037  66.625  1.00  0.00    -0.309 A  
BRANCH  21  24
HETATM   24  N   UNL     1      -6.852  17.302  67.731  1.00  0.00    -0.157 N  
HETATM   25  C   UNL     1      -6.428  18.347  66.798  1.00  0.00    -0.184 C  
HETATM   26  C   UNL     1      -6.858  19.731  67.276  1.00  0.00    -0.210 C  
HETATM   27  O   UNL     1      -6.289  19.993  68.557  1.00  0.00    -0.263 OA 
HETATM   28  C   UNL     1      -6.725  19.021  69.494  1.00  0.00    -0.212 C  
HETATM   29  C   UNL     1      -6.604  17.540  69.095  1.00  0.00    -0.246 C  
HETATM   30  O   UNL     1      -6.424  16.678  69.955  1.00  0.00    -0.191 OA 
ENDBRANCH  21  24
ENDBRANCH  14  18
ENDBRANCH  11  12
ENDBRANCH   8  11
ENDBRANCH   5   7
TORSDOF 5
ENDMDL
MODEL      114
REMARK 921   NORMALIZED FREE ENERGY PREDICTED BY IDOCK:   -4.68 KCAL/MOL
REMARK 922        TOTAL FREE ENERGY PREDICTED BY IDOCK:   -6.60 KCAL/MOL
REMARK 923 INTER-LIGAND FREE ENERGY PREDICTED BY IDOCK:   -5.86 KCAL/MOL
REMARK 924 INTRA-LIGAND FREE ENERGY PREDICTED BY IDOCK:   -0.74 KCAL/MOL
REMARK 927      BINDING AFFINITY PREDICTED BY RF-SCORE:    0.00 PKD
ROOT
HETATM    1 CL   UNL     1      -8.272   7.001  74.376  1.00  0.00    -0.163 Cl 
HETATM    2  C   UNL     1      -8.170   7.324  72.690  1.00  0.00    -0.107 A  
HETATM    3  C   UNL     1      -7.322   8.206  72.078  1.00  0.00    -0.105 A  
HETATM    4  C   UNL     1      -7.527   8.212  70.664  1.00  0.00    -0.064 A  
HETATM    5  C   UNL     1      -8.518   7.326  70.265  1.00  0.00    -0.137 A  
HETATM    6  S   UNL     1      -9.189   6.509  71.620  1.00  0.00    -0.141 SA 
ENDROOT
BRANCH   5   7
HETATM    7  C   UNL     1      -8.979   7.082  68.903  1.00  0.00    -0.129 C  
HETATM    8  N   UNL     1     -10.099   7.795  68.514  1.00  0.00    -0.194 N  
HETATM    9  O   UNL     1      -8.422   6.306  68.132  1.00  0.00    -0.114 OA 
HETATM   10  H   UNL     1     -10.600   8.342  69.214  1.00  0.00     0.000 HD 
BRANCH   8  11
HETATM   11  C   UNL     1     -10.588   7.792  67.145  1.00  0.00    -0.331 C  
BRANCH  11  12
HETATM   12  C   UNL     1     -10.261   9.100  66.436  1.00  0.00    -0.230 C  
HETATM   13  C   UNL     1     -10.033  10.267  67.364  1.00  0.00    -0.189 C  
HETATM   14  N   UNL     1      -9.196  11.098  66.549  1.00  0.00    -0.174 N  
HETATM   15  C   UNL     1      -8.494  10.274  65.675  1.00  0.00    -0.160 C  
HETATM   16  O   UNL     1      -9.005   8.996  65.748  1.00  0.00    -0.171 OA 
HETATM   17  O   UNL     1      -7.561  10.540  64.935  1.00  0.00    -0.112 OA 
BRANCH  14  18
HETATM   18  C   UNL     1      -9.099  12.507  66.667  1.00  0.00    -0.203 A  
HETATM   19  C   UNL     1     -10.045  13.353  66.091  1.00  0.00    -0.304 A  
HETATM   20  C   UNL     1      -9.949  14.747  66.211  1.00  0.00    -0.308 A  
HETATM   21  C   UNL     1      -8.909  15.357  66.922  1.00  0.00    -0.253 A  
HETATM   22  C   UNL     1      -8.070  13.109  67.399  1.00  0.00    -0.181 A  
HETATM   23  C   UNL     1      -7.986  14.507  67.538  1.00  0.00    -0.208 A  
BRANCH  21  24
HETATM   24  N   UNL     1      -8.759  16.782  66.915  1.00  0.00    -0.204 N  
HETATM   25  C   UNL     1      -7.445  17.405  66.745  1.00  0.00    -0.222 C  
HETATM   26  C   UNL     1      -7.503  18.574  65.766  1.00  0.00    -0.095 C  
HETATM   27  O   UNL     1      -8.423  19.553  66.244  1.00  0.00    -0.334 OA 
HETATM   28  C   UNL     1      -9.718  18.988  66.370  1.00  0.00    -0.367 C  
HETATM   29  C   UNL     1      -9.844  17.654  67.125  1.00  0.00    -0.306 C  
HETATM   30  O   UNL     1     -10.874  17.383  67.742  1.00  0.00    -0.361 OA 
ENDBRANCH  21  24
ENDBRANCH  14  18
ENDBRANCH  11  12
ENDBRANCH   8  11
ENDBRANCH   5   7
TORSDOF 5
ENDMDL
MODEL      115
REMARK 921   NORMALIZED FREE ENERGY PREDICTED BY IDOCK:   -4.67 KCAL/MOL
REMARK 922        TOTAL FREE ENERGY PREDICTED BY IDOCK:   -6.59 KCAL/MOL
REMARK 923 INTER-LIGAND FREE ENERGY PREDICTED BY IDOCK:   -5.68 KCAL/MOL
REMARK 924 INTRA-LIGAND FREE ENERGY PREDICTED BY IDOCK:   -0.91 KCAL/MOL
REMARK 927      BINDING AFFINITY PREDICTED BY RF-SCORE:    0.00 PKD
ROOT
HETATM    1 CL   UNL     1     -11.140  18.837  65.552  1.00  0.00     0.139 Cl 
HETATM    2  C   UNL     1      -9.671  19.075  66.414  1.00  0.00    -0.367 A  
HETATM    3  C   UNL     1      -9.107  20.277  66.746  1.00  0.00    -0.424 A  
HETATM    4  C   UNL     1      -7.882  20.084  67.456  1.00  0.00    -0.337 A  
HETATM    5  C   UNL     1      -7.576  18.743  67.639  1.00  0.00    -0.230 A  
HETATM    6  S   UNL     1      -8.780  17.740  66.933  1.00  0.00    -0.255 SA 
ENDROOT
BRANCH   5   7
HETATM    7  C   UNL     1      -6.407  18.195  68.318  1.00  0.00    -0.193 C  
HETATM    8  N   UNL     1      -6.674  17.292  69.332  1.00  0.00    -0.229 N  
HETATM    9  O   UNL     1      -5.255  18.493  68.022  1.00  0.00    -0.161 OA 
HETATM   10  H   UNL     1      -7.641  17.154  69.625  1.00  0.00     0.000 HD 
BRANCH   8  11
HETATM   11  C   UNL     1      -5.626  16.532  69.994  1.00  0.00    -0.207 C  
BRANCH  11  12
HETATM   12  C   UNL     1      -5.727  15.048  69.668  1.00  0.00    -0.105 C  
HETATM   13  C   UNL     1      -7.140  14.534  69.550  1.00  0.00    -0.125 C  
HETATM   14  N   UNL     1      -6.942  13.403  68.690  1.00  0.00    -0.096 N  
HETATM   15  C   UNL     1      -5.826  13.655  67.899  1.00  0.00    -0.129 C  
HETATM   16  O   UNL     1      -5.186  14.783  68.365  1.00  0.00    -0.097 OA 
HETATM   17  O   UNL     1      -5.408  13.047  66.928  1.00  0.00    -0.231 OA 
BRANCH  14  18
HETATM   18  C   UNL     1      -7.780  12.261  68.655  1.00  0.00    -0.076 A  
HETATM   19  C   UNL     1      -7.305  10.997  69.004  1.00  0.00    -0.123 A  
HETATM   20  C   UNL     1      -8.137   9.869  68.971  1.00  0.00    -0.111 A  
HETATM   21  C   UNL     1      -9.483   9.954  68.600  1.00  0.00    -0.153 A  
HETATM   22  C   UNL     1      -9.132  12.358  68.307  1.00  0.00    -0.183 A  
HETATM   23  C   UNL     1      -9.971  11.229  68.295  1.00  0.00    -0.201 A  
BRANCH  21  24
HETATM   24  N   UNL     1     -10.273   8.769  68.444  1.00  0.00    -0.192 N  
HETATM   25  C   UNL     1     -10.656   8.281  67.118  1.00  0.00    -0.270 C  
HETATM   26  C   UNL     1     -10.473   6.771  67.003  1.00  0.00    -0.299 C  
HETATM   27  O   UNL     1     -11.272   6.117  67.986  1.00  0.00    -0.310 OA 
HETATM   28  C   UNL     1     -10.888   6.534  69.287  1.00  0.00    -0.307 C  
HETATM   29  C   UNL     1     -10.770   8.046  69.545  1.00  0.00    -0.181 C  
HETATM   30  O   UNL     1     -10.988   8.504  70.666  1.00  0.00    -0.231 OA 
ENDBRANCH  21  24
ENDBRANCH  14  18
ENDBRANCH  11  12
ENDBRANCH   8  11
ENDBRANCH   5   7
TORSDOF 5
ENDMDL
MODEL      116
REMARK 921   NORMALIZED FREE ENERGY PREDICTED BY IDOCK:   -4.66 KCAL/MOL
REMARK 922        TOTAL FREE ENERGY PREDICTED BY IDOCK:   -6.59 KCAL/MOL
REMARK 923 INTER-LIGAND FREE ENERGY PREDICTED BY IDOCK:   -6.16 KCAL/MOL
REMARK 924 INTRA-LIGAND FREE ENERGY PREDICTED BY IDOCK:   -0.42 KCAL/MOL
REMARK 927      BINDING AFFINITY PREDICTED BY RF-SCORE:    0.00 PKD
ROOT
HETATM    1 CL   UNL     1     -12.632   7.172  71.259  1.00  0.00    -0.418 Cl 
HETATM    2  C   UNL     1     -11.249   7.063  70.243  1.00  0.00    -0.298 A  
HETATM    3  C   UNL     1     -11.087   6.224  69.174  1.00  0.00    -0.457 A  
HETATM    4  C   UNL     1      -9.805   6.410  68.572  1.00  0.00    -0.145 A  
HETATM    5  C   UNL     1      -9.053   7.388  69.207  1.00  0.00    -0.135 A  
HETATM    6  S   UNL     1      -9.918   8.058  70.533  1.00  0.00    -0.191 SA 
ENDROOT
BRANCH   5   7
HETATM    7  C   UNL     1      -7.707   7.827  68.855  1.00  0.00    -0.113 C  
HETATM    8  N   UNL     1      -7.154   8.785  69.687  1.00  0.00    -0.053 N  
HETATM    9  O   UNL     1      -7.085   7.386  67.894  1.00  0.00    -0.079 OA 
HETATM   10  H   UNL     1      -7.741   9.209  70.405  1.00  0.00     0.000 HD 
BRANCH   8  11
HETATM   11  C   UNL     1      -5.768   9.208  69.574  1.00  0.00    -0.034 C  
BRANCH  11  12
HETATM   12  C   UNL     1      -5.664  10.712  69.358  1.00  0.00    -0.038 C  
HETATM   13  C   UNL     1      -6.962  11.374  68.967  1.00  0.00    -0.106 C  
HETATM   14  N   UNL     1      -6.729  12.712  69.425  1.00  0.00    -0.068 N  
HETATM   15  C   UNL     1      -5.838  12.652  70.492  1.00  0.00    -0.129 C  
HETATM   16  O   UNL     1      -5.332  11.373  70.588  1.00  0.00    -0.104 OA 
HETATM   17  O   UNL     1      -5.503  13.524  71.277  1.00  0.00    -0.180 OA 
BRANCH  14  18
HETATM   18  C   UNL     1      -7.345  13.868  68.885  1.00  0.00    -0.088 A  
HETATM   19  C   UNL     1      -8.219  13.789  67.801  1.00  0.00    -0.174 A  
HETATM   20  C   UNL     1      -8.830  14.934  67.271  1.00  0.00    -0.216 A  
HETATM   21  C   UNL     1      -8.604  16.207  67.805  1.00  0.00    -0.167 A  
HETATM   22  C   UNL     1      -7.134  15.135  69.440  1.00  0.00    -0.189 A  
HETATM   23  C   UNL     1      -7.764  16.280  68.920  1.00  0.00    -0.219 A  
BRANCH  21  24
HETATM   24  N   UNL     1      -9.133  17.373  67.160  1.00  0.00    -0.232 N  
HETATM   25  C   UNL     1     -10.535  17.760  67.325  1.00  0.00    -0.353 C  
HETATM   26  C   UNL     1     -10.676  19.259  67.571  1.00  0.00    -0.463 C  
HETATM   27  O   UNL     1     -10.122  19.978  66.471  1.00  0.00    -0.431 OA 
HETATM   28  C   UNL     1      -8.748  19.659  66.320  1.00  0.00    -0.369 C  
HETATM   29  C   UNL     1      -8.359  18.171  66.297  1.00  0.00    -0.198 C  
HETATM   30  O   UNL     1      -7.379  17.795  65.656  1.00  0.00    -0.518 OA 
ENDBRANCH  21  24
ENDBRANCH  14  18
ENDBRANCH  11  12
ENDBRANCH   8  11
ENDBRANCH   5   7
TORSDOF 5
ENDMDL
MODEL      117
REMARK 921   NORMALIZED FREE ENERGY PREDICTED BY IDOCK:   -4.64 KCAL/MOL
REMARK 922        TOTAL FREE ENERGY PREDICTED BY IDOCK:   -6.55 KCAL/MOL
REMARK 923 INTER-LIGAND FREE ENERGY PREDICTED BY IDOCK:   -5.90 KCAL/MOL
REMARK 924 INTRA-LIGAND FREE ENERGY PREDICTED BY IDOCK:   -0.65 KCAL/MOL
REMARK 927      BINDING AFFINITY PREDICTED BY RF-SCORE:    0.00 PKD
ROOT
HETATM    1 CL   UNL     1      -7.155   6.576  73.558  1.00  0.00    -0.081 Cl 
HETATM    2  C   UNL     1      -7.628   7.395  72.122  1.00  0.00    -0.084 A  
HETATM    3  C   UNL     1      -8.016   8.703  72.020  1.00  0.00    -0.115 A  
HETATM    4  C   UNL     1      -8.343   9.032  70.668  1.00  0.00    -0.214 A  
HETATM    5  C   UNL     1      -8.181   7.960  69.803  1.00  0.00    -0.121 A  
HETATM    6  S   UNL     1      -7.643   6.565  70.652  1.00  0.00    -0.105 SA 
ENDROOT
BRANCH   5   7
HETATM    7  C   UNL     1      -8.425   7.948  68.365  1.00  0.00    -0.128 C  
HETATM    8  N   UNL     1      -9.587   8.574  67.950  1.00  0.00    -0.149 N  
HETATM    9  O   UNL     1      -7.661   7.430  67.557  1.00  0.00    -0.106 OA 
HETATM   10  H   UNL     1     -10.251   8.894  68.656  1.00  0.00     0.000 HD 
BRANCH   8  11
HETATM   11  C   UNL     1      -9.895   8.794  66.547  1.00  0.00    -0.279 C  
BRANCH  11  12
HETATM   12  C   UNL     1     -10.638  10.108  66.342  1.00  0.00    -0.085 C  
HETATM   13  C   UNL     1      -9.844  11.334  66.719  1.00  0.00    -0.199 C  
HETATM   14  N   UNL     1     -10.474  12.325  65.895  1.00  0.00    -0.249 N  
HETATM   15  C   UNL     1     -10.985  11.686  64.770  1.00  0.00    -0.289 C  
HETATM   16  O   UNL     1     -10.902  10.322  64.947  1.00  0.00     0.183 OA 
HETATM   17  O   UNL     1     -11.442  12.164  63.745  1.00  0.00    -0.389 OA 
BRANCH  14  18
HETATM   18  C   UNL     1     -10.516  13.710  66.191  1.00  0.00    -0.297 A  
HETATM   19  C   UNL     1      -9.495  14.572  65.793  1.00  0.00    -0.158 A  
HETATM   20  C   UNL     1      -9.541  15.943  66.083  1.00  0.00    -0.365 A  
HETATM   21  C   UNL     1     -10.614  16.516  66.774  1.00  0.00    -0.224 A  
HETATM   22  C   UNL     1     -11.604  14.281  66.860  1.00  0.00    -0.405 A  
HETATM   23  C   UNL     1     -11.660  15.660  67.132  1.00  0.00     0.117 A  
BRANCH  21  24
HETATM   24  N   UNL     1     -10.571  17.891  67.175  1.00  0.00    -0.343 N  
HETATM   25  C   UNL     1     -10.769  18.279  68.573  1.00  0.00     0.074 C  
HETATM   26  C   UNL     1      -9.753  19.331  69.011  1.00  0.00    -0.391 C  
HETATM   27  O   UNL     1      -9.876  20.487  68.186  1.00  0.00    -0.260 OA 
HETATM   28  C   UNL     1      -9.639  20.148  66.829  1.00  0.00    -0.427 C  
HETATM   29  C   UNL     1     -10.396  18.939  66.252  1.00  0.00    -0.453 C  
HETATM   30  O   UNL     1     -10.689  18.901  65.058  1.00  0.00    -0.355 OA 
ENDBRANCH  21  24
ENDBRANCH  14  18
ENDBRANCH  11  12
ENDBRANCH   8  11
ENDBRANCH   5   7
TORSDOF 5
ENDMDL
MODEL      118
REMARK 921   NORMALIZED FREE ENERGY PREDICTED BY IDOCK:   -4.60 KCAL/MOL
REMARK 922        TOTAL FREE ENERGY PREDICTED BY IDOCK:   -6.50 KCAL/MOL
REMARK 923 INTER-LIGAND FREE ENERGY PREDICTED BY IDOCK:   -5.83 KCAL/MOL
REMARK 924 INTRA-LIGAND FREE ENERGY PREDICTED BY IDOCK:   -0.67 KCAL/MOL
REMARK 927      BINDING AFFINITY PREDICTED BY RF-SCORE:    0.00 PKD
ROOT
HETATM    1 CL   UNL     1      -5.787  18.230  67.286  1.00  0.00    -0.146 Cl 
HETATM    2  C   UNL     1      -6.873  16.925  67.007  1.00  0.00    -0.204 A  
HETATM    3  C   UNL     1      -6.729  15.637  67.445  1.00  0.00    -0.218 A  
HETATM    4  C   UNL     1      -7.826  14.829  67.016  1.00  0.00    -0.089 A  
HETATM    5  C   UNL     1      -8.758  15.542  66.276  1.00  0.00    -0.248 A  
HETATM    6  S   UNL     1      -8.278  17.184  66.108  1.00  0.00    -0.160 SA 
ENDROOT
BRANCH   5   7
HETATM    7  C   UNL     1      -9.990  15.029  65.687  1.00  0.00    -0.355 C  
HETATM    8  N   UNL     1     -10.350  13.750  66.074  1.00  0.00    -0.301 N  
HETATM    9  O   UNL     1     -10.682  15.673  64.905  1.00  0.00    -0.434 OA 
HETATM   10  H   UNL     1      -9.696  13.204  66.635  1.00  0.00     0.000 HD 
BRANCH   8  11
HETATM   11  C   UNL     1     -11.627  13.157  65.711  1.00  0.00    -0.347 C  
BRANCH  11  12
HETATM   12  C   UNL     1     -11.743  11.730  66.232  1.00  0.00    -0.030 C  
HETATM   13  C   UNL     1     -10.598  10.831  65.838  1.00  0.00    -0.147 C  
HETATM   14  N   UNL     1     -10.644   9.861  66.893  1.00  0.00    -0.209 N  
HETATM   15  C   UNL     1     -11.181  10.476  68.019  1.00  0.00    -0.294 C  
HETATM   16  O   UNL     1     -11.676  11.714  67.666  1.00  0.00    -0.513 OA 
HETATM   17  O   UNL     1     -11.242  10.076  69.170  1.00  0.00    -0.216 OA 
BRANCH  14  18
HETATM   18  C   UNL     1     -10.179   8.527  66.782  1.00  0.00    -0.300 A  
HETATM   19  C   UNL     1      -8.870   8.242  66.397  1.00  0.00    -0.180 A  
HETATM   20  C   UNL     1      -8.411   6.921  66.292  1.00  0.00    -0.126 A  
HETATM   21  C   UNL     1      -9.235   5.827  66.577  1.00  0.00    -0.143 A  
HETATM   22  C   UNL     1     -11.001   7.439  67.093  1.00  0.00    -0.225 A  
HETATM   23  C   UNL     1     -10.533   6.115  67.008  1.00  0.00    -0.341 A  
BRANCH  21  24
HETATM   24  N   UNL     1      -8.783   4.489  66.331  1.00  0.00    -0.112 N  
HETATM   25  C   UNL     1      -8.777   3.928  64.979  1.00  0.00    -0.116 C  
HETATM   26  C   UNL     1      -7.482   3.174  64.692  1.00  0.00    -0.075 C  
HETATM   27  O   UNL     1      -7.326   2.116  65.635  1.00  0.00    -0.062 OA 
HETATM   28  C   UNL     1      -7.278   2.637  66.954  1.00  0.00    -0.057 C  
HETATM   29  C   UNL     1      -8.378   3.629  67.369  1.00  0.00    -0.094 C  
HETATM   30  O   UNL     1      -8.743   3.697  68.542  1.00  0.00    -0.091 OA 
ENDBRANCH  21  24
ENDBRANCH  14  18
ENDBRANCH  11  12
ENDBRANCH   8  11
ENDBRANCH   5   7
TORSDOF 5
ENDMDL
MODEL      119
REMARK 921   NORMALIZED FREE ENERGY PREDICTED BY IDOCK:   -4.57 KCAL/MOL
REMARK 922        TOTAL FREE ENERGY PREDICTED BY IDOCK:   -6.46 KCAL/MOL
REMARK 923 INTER-LIGAND FREE ENERGY PREDICTED BY IDOCK:   -5.65 KCAL/MOL
REMARK 924 INTRA-LIGAND FREE ENERGY PREDICTED BY IDOCK:   -0.81 KCAL/MOL
REMARK 927      BINDING AFFINITY PREDICTED BY RF-SCORE:    0.00 PKD
ROOT
HETATM    1 CL   UNL     1     -12.418  13.230  63.083  1.00  0.00    -0.303 Cl 
HETATM    2  C   UNL     1     -11.937  13.337  64.731  1.00  0.00    -0.388 A  
HETATM    3  C   UNL     1     -12.736  13.662  65.793  1.00  0.00    -0.470 A  
HETATM    4  C   UNL     1     -11.988  13.657  67.011  1.00  0.00    -0.448 A  
HETATM    5  C   UNL     1     -10.657  13.319  66.819  1.00  0.00    -0.276 A  
HETATM    6  S   UNL     1     -10.334  13.024  65.156  1.00  0.00    -0.292 SA 
ENDROOT
BRANCH   5   7
HETATM    7  C   UNL     1      -9.620  13.220  67.841  1.00  0.00    -0.217 C  
HETATM    8  N   UNL     1      -8.787  12.120  67.742  1.00  0.00    -0.164 N  
HETATM    9  O   UNL     1      -9.473  14.048  68.734  1.00  0.00    -0.175 OA 
HETATM   10  H   UNL     1      -9.008  11.396  67.058  1.00  0.00     0.000 HD 
BRANCH   8  11
HETATM   11  C   UNL     1      -7.608  11.958  68.576  1.00  0.00    -0.127 C  
BRANCH  11  12
HETATM   12  C   UNL     1      -7.343  10.490  68.884  1.00  0.00    -0.098 C  
HETATM   13  C   UNL     1      -8.524   9.757  69.471  1.00  0.00    -0.170 C  
HETATM   14  N   UNL     1      -8.222   8.410  69.084  1.00  0.00    -0.119 N  
HETATM   15  C   UNL     1      -7.465   8.458  67.917  1.00  0.00    -0.098 C  
HETATM   16  O   UNL     1      -7.091   9.762  67.673  1.00  0.00    -0.086 OA 
HETATM   17  O   UNL     1      -7.142   7.556  67.162  1.00  0.00    -0.080 OA 
BRANCH  14  18
HETATM   18  C   UNL     1      -8.667   7.255  69.773  1.00  0.00    -0.142 A  
HETATM   19  C   UNL     1      -9.776   6.530  69.340  1.00  0.00    -0.155 A  
HETATM   20  C   UNL     1     -10.212   5.384  70.021  1.00  0.00    -0.349 A  
HETATM   21  C   UNL     1      -9.553   4.906  71.159  1.00  0.00    -0.170 A  
HETATM   22  C   UNL     1      -7.988   6.768  70.895  1.00  0.00    -0.106 A  
HETATM   23  C   UNL     1      -8.413   5.606  71.566  1.00  0.00    -0.128 A  
BRANCH  21  24
HETATM   24  N   UNL     1     -10.098   3.816  71.913  1.00  0.00    -0.161 N  
HETATM   25  C   UNL     1      -9.907   2.428  71.486  1.00  0.00    -0.127 C  
HETATM   26  C   UNL     1      -9.535   1.528  72.661  1.00  0.00    -0.075 C  
HETATM   27  O   UNL     1     -10.566   1.574  73.643  1.00  0.00    -0.091 OA 
HETATM   28  C   UNL     1     -10.738   2.902  74.112  1.00  0.00    -0.175 C  
HETATM   29  C   UNL     1     -10.887   4.016  73.061  1.00  0.00    -0.143 C  
HETATM   30  O   UNL     1     -11.553   5.020  73.310  1.00  0.00    -0.322 OA 
ENDBRANCH  21  24
ENDBRANCH  14  18
ENDBRANCH  11  12
ENDBRANCH   8  11
ENDBRANCH   5   7
TORSDOF 5
ENDMDL
MODEL      120
REMARK 921   NORMALIZED FREE ENERGY PREDICTED BY IDOCK:   -4.54 KCAL/MOL
REMARK 922        TOTAL FREE ENERGY PREDICTED BY IDOCK:   -6.43 KCAL/MOL
REMARK 923 INTER-LIGAND FREE ENERGY PREDICTED BY IDOCK:   -5.54 KCAL/MOL
REMARK 924 INTRA-LIGAND FREE ENERGY PREDICTED BY IDOCK:   -0.89 KCAL/MOL
REMARK 927      BINDING AFFINITY PREDICTED BY RF-SCORE:    0.00 PKD
ROOT
HETATM    1 CL   UNL     1      -9.807   4.227  73.684  1.00  0.00    -0.147 Cl 
HETATM    2  C   UNL     1      -8.925   4.211  72.208  1.00  0.00    -0.115 A  
HETATM    3  C   UNL     1      -7.619   4.581  72.034  1.00  0.00    -0.088 A  
HETATM    4  C   UNL     1      -7.229   4.442  70.667  1.00  0.00    -0.045 A  
HETATM    5  C   UNL     1      -8.255   3.963  69.865  1.00  0.00    -0.053 A  
HETATM    6  S   UNL     1      -9.681   3.701  70.788  1.00  0.00    -0.087 SA 
ENDROOT
BRANCH   5   7
HETATM    7  C   UNL     1      -8.200   3.705  68.430  1.00  0.00    -0.077 C  
HETATM    8  N   UNL     1      -9.297   4.132  67.703  1.00  0.00    -0.157 N  
HETATM    9  O   UNL     1      -7.251   3.155  67.880  1.00  0.00    -0.050 OA 
HETATM   10  H   UNL     1     -10.113   4.482  68.206  1.00  0.00     0.000 HD 
BRANCH   8  11
HETATM   11  C   UNL     1      -9.330   4.101  66.250  1.00  0.00    -0.168 C  
BRANCH  11  12
HETATM   12  C   UNL     1      -9.045   5.476  65.659  1.00  0.00    -0.122 C  
HETATM   13  C   UNL     1      -9.708   6.615  66.393  1.00  0.00    -0.070 C  
HETATM   14  N   UNL     1      -8.832   7.698  66.054  1.00  0.00    -0.166 N  
HETATM   15  C   UNL     1      -7.567   7.169  65.819  1.00  0.00    -0.094 C  
HETATM   16  O   UNL     1      -7.650   5.794  65.779  1.00  0.00    -0.086 OA 
HETATM   17  O   UNL     1      -6.499   7.742  65.672  1.00  0.00    -0.042 OA 
BRANCH  14  18
HETATM   18  C   UNL     1      -9.215   9.061  66.011  1.00  0.00    -0.226 A  
HETATM   19  C   UNL     1      -9.525   9.768  67.172  1.00  0.00    -0.189 A  
HETATM   20  C   UNL     1      -9.900  11.118  67.128  1.00  0.00    -0.212 A  
HETATM   21  C   UNL     1      -9.971  11.826  65.923  1.00  0.00    -0.236 A  
HETATM   22  C   UNL     1      -9.259   9.770  64.805  1.00  0.00    -0.319 A  
HETATM   23  C   UNL     1      -9.615  11.130  64.764  1.00  0.00    -0.279 A  
BRANCH  21  24
HETATM   24  N   UNL     1     -10.487  13.163  65.892  1.00  0.00    -0.275 N  
HETATM   25  C   UNL     1      -9.724  14.283  66.445  1.00  0.00    -0.299 C  
HETATM   26  C   UNL     1      -9.756  15.494  65.517  1.00  0.00    -0.272 C  
HETATM   27  O   UNL     1     -11.106  15.906  65.316  1.00  0.00    -0.320 OA 
HETATM   28  C   UNL     1     -11.858  14.854  64.733  1.00  0.00    -0.384 C  
HETATM   29  C   UNL     1     -11.766  13.464  65.386  1.00  0.00    -0.331 C  
HETATM   30  O   UNL     1     -12.719  12.688  65.333  1.00  0.00    -0.635 OA 
ENDBRANCH  21  24
ENDBRANCH  14  18
ENDBRANCH  11  12
ENDBRANCH   8  11
ENDBRANCH   5   7
TORSDOF 5
ENDMDL
MODEL      121
REMARK 921   NORMALIZED FREE ENERGY PREDICTED BY IDOCK:   -4.44 KCAL/MOL
REMARK 922        TOTAL FREE ENERGY PREDICTED BY IDOCK:   -6.29 KCAL/MOL
REMARK 923 INTER-LIGAND FREE ENERGY PREDICTED BY IDOCK:   -6.00 KCAL/MOL
REMARK 924 INTRA-LIGAND FREE ENERGY PREDICTED BY IDOCK:   -0.29 KCAL/MOL
REMARK 927      BINDING AFFINITY PREDICTED BY RF-SCORE:    0.00 PKD
ROOT
HETATM    1 CL   UNL     1      -7.144  21.022  67.140  1.00  0.00    -0.413 Cl 
HETATM    2  C   UNL     1      -8.451  19.909  67.258  1.00  0.00    -0.324 A  
HETATM    3  C   UNL     1      -9.757  20.148  66.929  1.00  0.00    -0.582 A  
HETATM    4  C   UNL     1     -10.561  18.991  67.166  1.00  0.00    -0.545 A  
HETATM    5  C   UNL     1      -9.826  17.921  67.656  1.00  0.00    -0.304 A  
HETATM    6  S   UNL     1      -8.169  18.347  67.830  1.00  0.00    -0.266 SA 
ENDROOT
BRANCH   5   7
HETATM    7  C   UNL     1     -10.328  16.596  68.003  1.00  0.00    -0.303 C  
HETATM    8  N   UNL     1      -9.391  15.579  67.989  1.00  0.00    -0.192 N  
HETATM    9  O   UNL     1     -11.498  16.376  68.299  1.00  0.00    -0.312 OA 
HETATM   10  H   UNL     1      -8.457  15.777  67.630  1.00  0.00     0.000 HD 
BRANCH   8  11
HETATM   11  C   UNL     1      -9.689  14.239  68.468  1.00  0.00    -0.225 C  
BRANCH  11  12
HETATM   12  C   UNL     1      -9.183  13.179  67.497  1.00  0.00    -0.206 C  
HETATM   13  C   UNL     1      -9.294  11.765  68.011  1.00  0.00    -0.184 C  
HETATM   14  N   UNL     1      -9.355  11.036  66.778  1.00  0.00    -0.179 N  
HETATM   15  C   UNL     1      -9.911  11.869  65.813  1.00  0.00    -0.236 C  
HETATM   16  O   UNL     1     -10.001  13.149  66.317  1.00  0.00    -0.274 OA 
HETATM   17  O   UNL     1     -10.297  11.606  64.686  1.00  0.00    -0.260 OA 
BRANCH  14  18
HETATM   18  C   UNL     1      -8.945   9.689  66.617  1.00  0.00    -0.146 A  
HETATM   19  C   UNL     1      -9.268   8.961  65.473  1.00  0.00    -0.242 A  
HETATM   20  C   UNL     1      -8.858   7.630  65.314  1.00  0.00     0.103 A  
HETATM   21  C   UNL     1      -8.098   6.969  66.285  1.00  0.00    -0.115 A  
HETATM   22  C   UNL     1      -8.164   9.043  67.582  1.00  0.00    -0.109 A  
HETATM   23  C   UNL     1      -7.735   7.714  67.412  1.00  0.00    -0.117 A  
BRANCH  21  24
HETATM   24  N   UNL     1      -7.810   5.571  66.160  1.00  0.00    -0.099 N  
HETATM   25  C   UNL     1      -8.358   4.596  67.104  1.00  0.00    -0.105 C  
HETATM   26  C   UNL     1      -8.891   3.360  66.386  1.00  0.00    -0.135 C  
HETATM   27  O   UNL     1      -7.839   2.748  65.644  1.00  0.00    -0.080 OA 
HETATM   28  C   UNL     1      -7.322   3.656  64.685  1.00  0.00    -0.068 C  
HETATM   29  C   UNL     1      -6.947   5.067  65.168  1.00  0.00    -0.061 C  
HETATM   30  O   UNL     1      -6.042   5.693  64.617  1.00  0.00    -0.024 OA 
ENDBRANCH  21  24
ENDBRANCH  14  18
ENDBRANCH  11  12
ENDBRANCH   8  11
ENDBRANCH   5   7
TORSDOF 5
ENDMDL
MODEL      122
REMARK 921   NORMALIZED FREE ENERGY PREDICTED BY IDOCK:   -4.42 KCAL/MOL
REMARK 922        TOTAL FREE ENERGY PREDICTED BY IDOCK:   -6.28 KCAL/MOL
REMARK 923 INTER-LIGAND FREE ENERGY PREDICTED BY IDOCK:   -5.45 KCAL/MOL
REMARK 924 INTRA-LIGAND FREE ENERGY PREDICTED BY IDOCK:   -0.82 KCAL/MOL
REMARK 927      BINDING AFFINITY PREDICTED BY RF-SCORE:    0.00 PKD
ROOT
HETATM    1 CL   UNL     1      -7.776  19.001  65.956  1.00  0.00    -0.283 Cl 
HETATM    2  C   UNL     1      -8.227  17.915  67.211  1.00  0.00    -0.217 A  
HETATM    3  C   UNL     1      -7.388  17.311  68.108  1.00  0.00    -0.199 A  
HETATM    4  C   UNL     1      -8.119  16.469  69.001  1.00  0.00    -0.214 A  
HETATM    5  C   UNL     1      -9.483  16.478  68.748  1.00  0.00    -0.246 A  
HETATM    6  S   UNL     1      -9.851  17.505  67.418  1.00  0.00    -0.308 SA 
ENDROOT
BRANCH   5   7
HETATM    7  C   UNL     1     -10.514  15.737  69.465  1.00  0.00    -0.270 C  
HETATM    8  N   UNL     1     -11.253  14.850  68.702  1.00  0.00    -0.261 N  
HETATM    9  O   UNL     1     -10.725  15.868  70.667  1.00  0.00    -0.269 OA 
HETATM   10  H   UNL     1     -11.127  14.850  67.690  1.00  0.00     0.000 HD 
BRANCH   8  11
HETATM   11  C   UNL     1     -12.202  13.919  69.291  1.00  0.00    -0.277 C  
BRANCH  11  12
HETATM   12  C   UNL     1     -11.885  12.482  68.898  1.00  0.00    -0.301 C  
HETATM   13  C   UNL     1     -10.653  12.331  68.041  1.00  0.00    -0.216 C  
HETATM   14  N   UNL     1     -10.278  10.981  68.347  1.00  0.00    -0.177 N  
HETATM   15  C   UNL     1     -10.731  10.689  69.630  1.00  0.00    -0.244 C  
HETATM   16  O   UNL     1     -11.557  11.705  70.060  1.00  0.00    -0.295 OA 
HETATM   17  O   UNL     1     -10.487   9.729  70.342  1.00  0.00    -0.263 OA 
BRANCH  14  18
HETATM   18  C   UNL     1      -9.542  10.133  67.483  1.00  0.00    -0.156 A  
HETATM   19  C   UNL     1      -8.191  10.358  67.219  1.00  0.00    -0.121 A  
HETATM   20  C   UNL     1      -7.464   9.516  66.366  1.00  0.00    -0.097 A  
HETATM   21  C   UNL     1      -8.049   8.405  65.747  1.00  0.00    -0.117 A  
HETATM   22  C   UNL     1     -10.127   9.011  66.888  1.00  0.00    -0.338 A  
HETATM   23  C   UNL     1      -9.391   8.154  66.049  1.00  0.00    -0.184 A  
BRANCH  21  24
HETATM   24  N   UNL     1      -7.321   7.643  64.777  1.00  0.00    -0.071 N  
HETATM   25  C   UNL     1      -7.443   7.924  63.345  1.00  0.00    -0.122 C  
HETATM   26  C   UNL     1      -6.082   7.918  62.656  1.00  0.00    -0.073 C  
HETATM   27  O   UNL     1      -5.465   6.645  62.829  1.00  0.00    -0.029 OA 
HETATM   28  C   UNL     1      -5.288   6.368  64.209  1.00  0.00    -0.022 C  
HETATM   29  C   UNL     1      -6.502   6.556  65.135  1.00  0.00    -0.038 C  
HETATM   30  O   UNL     1      -6.624   5.866  66.146  1.00  0.00    -0.045 OA 
ENDBRANCH  21  24
ENDBRANCH  14  18
ENDBRANCH  11  12
ENDBRANCH   8  11
ENDBRANCH   5   7
TORSDOF 5
ENDMDL
MODEL      123
REMARK 921   NORMALIZED FREE ENERGY PREDICTED BY IDOCK:   -4.41 KCAL/MOL
REMARK 922        TOTAL FREE ENERGY PREDICTED BY IDOCK:   -6.26 KCAL/MOL
REMARK 923 INTER-LIGAND FREE ENERGY PREDICTED BY IDOCK:   -5.65 KCAL/MOL
REMARK 924 INTRA-LIGAND FREE ENERGY PREDICTED BY IDOCK:   -0.62 KCAL/MOL
REMARK 927      BINDING AFFINITY PREDICTED BY RF-SCORE:    0.00 PKD
ROOT
HETATM    1 CL   UNL     1     -12.099  16.306  71.286  1.00  0.00    -0.318 Cl 
HETATM    2  C   UNL     1     -12.661  14.712  71.601  1.00  0.00    -0.337 A  
HETATM    3  C   UNL     1     -13.597  14.346  72.530  1.00  0.00    -0.598 A  
HETATM    4  C   UNL     1     -13.805  12.932  72.512  1.00  0.00    -0.332 A  
HETATM    5  C   UNL     1     -13.023  12.289  71.563  1.00  0.00    -0.289 A  
HETATM    6  S   UNL     1     -12.039  13.416  70.716  1.00  0.00    -0.145 SA 
ENDROOT
BRANCH   5   7
HETATM    7  C   UNL     1     -12.987  10.859  71.280  1.00  0.00    -0.392 C  
HETATM    8  N   UNL     1     -11.992  10.147  71.927  1.00  0.00    -0.092 N  
HETATM    9  O   UNL     1     -13.779  10.300  70.528  1.00  0.00     0.064 OA 
HETATM   10  H   UNL     1     -11.285  10.659  72.454  1.00  0.00     0.000 HD 
BRANCH   8  11
HETATM   11  C   UNL     1     -11.919   8.695  71.884  1.00  0.00    -0.356 C  
BRANCH  11  12
HETATM   12  C   UNL     1     -10.873   8.223  70.883  1.00  0.00    -0.230 C  
HETATM   13  C   UNL     1     -11.347   7.127  69.961  1.00  0.00    -0.206 C  
HETATM   14  N   UNL     1     -10.478   7.327  68.838  1.00  0.00    -0.205 N  
HETATM   15  C   UNL     1     -10.120   8.671  68.806  1.00  0.00    -0.196 C  
HETATM   16  O   UNL     1     -10.539   9.279  69.970  1.00  0.00    -0.207 OA 
HETATM   17  O   UNL     1      -9.542   9.301  67.936  1.00  0.00    -0.139 OA 
BRANCH  14  18
HETATM   18  C   UNL     1     -10.101   6.315  67.920  1.00  0.00    -0.145 A  
HETATM   19  C   UNL     1      -8.986   5.508  68.143  1.00  0.00    -0.108 A  
HETATM   20  C   UNL     1      -8.617   4.506  67.234  1.00  0.00    -0.104 A  
HETATM   21  C   UNL     1      -9.351   4.257  66.070  1.00  0.00    -0.163 A  
HETATM   22  C   UNL     1     -10.854   6.056  66.770  1.00  0.00    -0.356 A  
HETATM   23  C   UNL     1     -10.495   5.035  65.870  1.00  0.00    -0.233 A  
BRANCH  21  24
HETATM   24  N   UNL     1      -8.876   3.321  65.094  1.00  0.00    -0.124 N  
HETATM   25  C   UNL     1      -9.403   1.956  65.034  1.00  0.00    -0.056 C  
HETATM   26  C   UNL     1      -9.690   1.531  63.596  1.00  0.00    -0.122 C  
HETATM   27  O   UNL     1      -8.491   1.600  62.829  1.00  0.00    -0.060 OA 
HETATM   28  C   UNL     1      -7.984   2.925  62.829  1.00  0.00    -0.068 C  
HETATM   29  C   UNL     1      -7.848   3.637  64.186  1.00  0.00    -0.085 C  
HETATM   30  O   UNL     1      -6.972   4.483  64.359  1.00  0.00    -0.045 OA 
ENDBRANCH  21  24
ENDBRANCH  14  18
ENDBRANCH  11  12
ENDBRANCH   8  11
ENDBRANCH   5   7
TORSDOF 5
ENDMDL
MODEL      124
REMARK 921   NORMALIZED FREE ENERGY PREDICTED BY IDOCK:   -4.41 KCAL/MOL
REMARK 922        TOTAL FREE ENERGY PREDICTED BY IDOCK:   -6.25 KCAL/MOL
REMARK 923 INTER-LIGAND FREE ENERGY PREDICTED BY IDOCK:   -5.38 KCAL/MOL
REMARK 924 INTRA-LIGAND FREE ENERGY PREDICTED BY IDOCK:   -0.88 KCAL/MOL
REMARK 927      BINDING AFFINITY PREDICTED BY RF-SCORE:    0.00 PKD
ROOT
HETATM    1 CL   UNL     1     -14.411   7.816  72.215  1.00  0.00    -0.323 Cl 
HETATM    2  C   UNL     1     -12.819   8.306  71.786  1.00  0.00    -0.338 A  
HETATM    3  C   UNL     1     -12.362   9.591  71.679  1.00  0.00    -0.480 A  
HETATM    4  C   UNL     1     -10.986   9.612  71.295  1.00  0.00    -0.399 A  
HETATM    5  C   UNL     1     -10.457   8.339  71.135  1.00  0.00    -0.209 A  
HETATM    6  S   UNL     1     -11.648   7.139  71.446  1.00  0.00    -0.301 SA 
ENDROOT
BRANCH   5   7
HETATM    7  C   UNL     1      -9.092   7.998  70.751  1.00  0.00    -0.145 C  
HETATM    8  N   UNL     1      -8.691   8.449  69.506  1.00  0.00    -0.135 N  
HETATM    9  O   UNL     1      -8.329   7.361  71.469  1.00  0.00    -0.107 OA 
HETATM   10  H   UNL     1      -9.385   8.876  68.891  1.00  0.00     0.000 HD 
BRANCH   8  11
HETATM   11  C   UNL     1      -7.318   8.338  69.041  1.00  0.00    -0.089 C  
BRANCH  11  12
HETATM   12  C   UNL     1      -6.598   9.678  69.113  1.00  0.00    -0.049 C  
HETATM   13  C   UNL     1      -7.468  10.867  68.786  1.00  0.00    -0.112 C  
HETATM   14  N   UNL     1      -6.779  11.906  69.495  1.00  0.00    -0.092 N  
HETATM   15  C   UNL     1      -6.123  11.325  70.576  1.00  0.00    -0.070 C  
HETATM   16  O   UNL     1      -6.183   9.953  70.460  1.00  0.00    -0.078 OA 
HETATM   17  O   UNL     1      -5.567  11.855  71.524  1.00  0.00    -0.375 OA 
BRANCH  14  18
HETATM   18  C   UNL     1      -6.813  13.279  69.148  1.00  0.00    -0.067 A  
HETATM   19  C   UNL     1      -5.650  13.981  68.836  1.00  0.00    -0.082 A  
HETATM   20  C   UNL     1      -5.687  15.339  68.489  1.00  0.00    -0.095 A  
HETATM   21  C   UNL     1      -6.888  16.054  68.427  1.00  0.00    -0.124 A  
HETATM   22  C   UNL     1      -8.021  13.981  69.064  1.00  0.00     0.055 A  
HETATM   23  C   UNL     1      -8.059  15.338  68.695  1.00  0.00    -0.156 A  
BRANCH  21  24
HETATM   24  N   UNL     1      -6.885  17.469  68.204  1.00  0.00    -0.192 N  
HETATM   25  C   UNL     1      -6.920  18.413  69.322  1.00  0.00    -0.168 C  
HETATM   26  C   UNL     1      -5.927  19.555  69.122  1.00  0.00    -0.255 C  
HETATM   27  O   UNL     1      -6.236  20.250  67.916  1.00  0.00    -0.218 OA 
HETATM   28  C   UNL     1      -6.160  19.369  66.808  1.00  0.00    -0.169 C  
HETATM   29  C   UNL     1      -6.904  18.026  66.912  1.00  0.00    -0.189 C  
HETATM   30  O   UNL     1      -7.350  17.484  65.901  1.00  0.00    -0.418 OA 
ENDBRANCH  21  24
ENDBRANCH  14  18
ENDBRANCH  11  12
ENDBRANCH   8  11
ENDBRANCH   5   7
TORSDOF 5
ENDMDL
MODEL      125
REMARK 921   NORMALIZED FREE ENERGY PREDICTED BY IDOCK:   -4.38 KCAL/MOL
REMARK 922        TOTAL FREE ENERGY PREDICTED BY IDOCK:   -6.22 KCAL/MOL
REMARK 923 INTER-LIGAND FREE ENERGY PREDICTED BY IDOCK:   -5.92 KCAL/MOL
REMARK 924 INTRA-LIGAND FREE ENERGY PREDICTED BY IDOCK:   -0.30 KCAL/MOL
REMARK 927      BINDING AFFINITY PREDICTED BY RF-SCORE:    0.00 PKD
ROOT
HETATM    1 CL   UNL     1      -9.366  19.540  68.844  1.00  0.00    -0.428 Cl 
HETATM    2  C   UNL     1      -9.581  18.022  68.066  1.00  0.00    -0.295 A  
HETATM    3  C   UNL     1     -10.511  17.721  67.107  1.00  0.00    -0.338 A  
HETATM    4  C   UNL     1     -10.396  16.358  66.697  1.00  0.00    -0.292 A  
HETATM    5  C   UNL     1      -9.378  15.685  67.358  1.00  0.00    -0.210 A  
HETATM    6  S   UNL     1      -8.584  16.723  68.475  1.00  0.00    -0.252 SA 
ENDROOT
BRANCH   5   7
HETATM    7  C   UNL     1      -8.989  14.290  67.182  1.00  0.00    -0.225 C  
HETATM    8  N   UNL     1      -7.635  14.029  67.294  1.00  0.00    -0.339 N  
HETATM    9  O   UNL     1      -9.792  13.390  66.958  1.00  0.00    -0.238 OA 
HETATM   10  H   UNL     1      -6.987  14.814  67.367  1.00  0.00     0.000 HD 
BRANCH   8  11
HETATM   11  C   UNL     1      -7.101  12.676  67.309  1.00  0.00    -0.098 C  
BRANCH  11  12
HETATM   12  C   UNL     1      -7.453  11.957  68.605  1.00  0.00    -0.118 C  
HETATM   13  C   UNL     1      -7.809  10.502  68.428  1.00  0.00    -0.110 C  
HETATM   14  N   UNL     1      -7.485   9.987  69.727  1.00  0.00    -0.134 N  
HETATM   15  C   UNL     1      -6.480  10.784  70.266  1.00  0.00    -0.127 C  
HETATM   16  O   UNL     1      -6.309  11.897  69.471  1.00  0.00    -0.102 OA 
HETATM   17  O   UNL     1      -5.798  10.608  71.262  1.00  0.00    -0.317 OA 
BRANCH  14  18
HETATM   18  C   UNL     1      -8.079   8.841  70.311  1.00  0.00    -0.116 A  
HETATM   19  C   UNL     1      -7.823   7.560  69.825  1.00  0.00    -0.108 A  
HETATM   20  C   UNL     1      -8.410   6.427  70.408  1.00  0.00    -0.126 A  
HETATM   21  C   UNL     1      -9.269   6.522  71.508  1.00  0.00    -0.144 A  
HETATM   22  C   UNL     1      -8.917   8.942  71.427  1.00  0.00    -0.300 A  
HETATM   23  C   UNL     1      -9.488   7.803  72.024  1.00  0.00    -0.212 A  
BRANCH  21  24
HETATM   24  N   UNL     1      -9.959   5.366  71.997  1.00  0.00    -0.179 N  
HETATM   25  C   UNL     1      -9.373   4.029  71.885  1.00  0.00    -0.133 C  
HETATM   26  C   UNL     1      -9.539   3.236  73.178  1.00  0.00    -0.107 C  
HETATM   27  O   UNL     1     -10.924   3.111  73.487  1.00  0.00    -0.201 OA 
HETATM   28  C   UNL     1     -11.508   4.393  73.652  1.00  0.00    -0.123 C  
HETATM   29  C   UNL     1     -11.249   5.440  72.555  1.00  0.00    -0.247 C  
HETATM   30  O   UNL     1     -12.087   6.310  72.316  1.00  0.00    -0.304 OA 
ENDBRANCH  21  24
ENDBRANCH  14  18
ENDBRANCH  11  12
ENDBRANCH   8  11
ENDBRANCH   5   7
TORSDOF 5
ENDMDL
MODEL      126
REMARK 921   NORMALIZED FREE ENERGY PREDICTED BY IDOCK:   -4.28 KCAL/MOL
REMARK 922        TOTAL FREE ENERGY PREDICTED BY IDOCK:   -6.09 KCAL/MOL
REMARK 923 INTER-LIGAND FREE ENERGY PREDICTED BY IDOCK:   -5.84 KCAL/MOL
REMARK 924 INTRA-LIGAND FREE ENERGY PREDICTED BY IDOCK:   -0.25 KCAL/MOL
REMARK 927      BINDING AFFINITY PREDICTED BY RF-SCORE:    0.00 PKD
ROOT
HETATM    1 CL   UNL     1      -5.448   2.204  67.761  1.00  0.00    -0.017 Cl 
HETATM    2  C   UNL     1      -6.283   3.140  66.585  1.00  0.00    -0.025 A  
HETATM    3  C   UNL     1      -7.291   2.710  65.766  1.00  0.00    -0.067 A  
HETATM    4  C   UNL     1      -7.739   3.765  64.914  1.00  0.00    -0.081 A  
HETATM    5  C   UNL     1      -7.056   4.953  65.130  1.00  0.00    -0.063 A  
HETATM    6  S   UNL     1      -5.872   4.762  66.362  1.00  0.00    -0.023 SA 
ENDROOT
BRANCH   5   7
HETATM    7  C   UNL     1      -7.259   6.221  64.438  1.00  0.00    -0.061 C  
HETATM    8  N   UNL     1      -7.841   7.226  65.189  1.00  0.00    -0.116 N  
HETATM    9  O   UNL     1      -6.936   6.409  63.269  1.00  0.00    -0.043 OA 
HETATM   10  H   UNL     1      -8.198   7.001  66.118  1.00  0.00     0.000 HD 
BRANCH   8  11
HETATM   11  C   UNL     1      -7.961   8.591  64.704  1.00  0.00    -0.143 C  
BRANCH  11  12
HETATM   12  C   UNL     1      -9.211   9.267  65.254  1.00  0.00    -0.212 C  
HETATM   13  C   UNL     1      -8.934  10.356  66.261  1.00  0.00    -0.155 C  
HETATM   14  N   UNL     1     -10.115  11.157  66.120  1.00  0.00    -0.230 N  
HETATM   15  C   UNL     1     -10.590  10.996  64.822  1.00  0.00    -0.280 C  
HETATM   16  O   UNL     1      -9.900   9.972  64.211  1.00  0.00    -0.280 OA 
HETATM   17  O   UNL     1     -11.459  11.615  64.230  1.00  0.00    -0.321 OA 
BRANCH  14  18
HETATM   18  C   UNL     1     -10.653  11.986  67.135  1.00  0.00    -0.224 A  
HETATM   19  C   UNL     1     -11.584  12.982  66.845  1.00  0.00    -0.419 A  
HETATM   20  C   UNL     1     -12.118  13.799  67.853  1.00  0.00    -0.322 A  
HETATM   21  C   UNL     1     -11.754  13.650  69.195  1.00  0.00    -0.329 A  
HETATM   22  C   UNL     1     -10.303  11.815  68.479  1.00  0.00    -0.228 A  
HETATM   23  C   UNL     1     -10.855  12.620  69.492  1.00  0.00     0.153 A  
BRANCH  21  24
HETATM   24  N   UNL     1     -12.210  14.583  70.182  1.00  0.00    -0.323 N  
HETATM   25  C   UNL     1     -13.513  14.426  70.830  1.00  0.00    -0.071 C  
HETATM   26  C   UNL     1     -13.422  14.661  72.335  1.00  0.00    -0.436 C  
HETATM   27  O   UNL     1     -12.936  15.978  72.584  1.00  0.00    -0.450 OA 
HETATM   28  C   UNL     1     -11.649  16.142  72.010  1.00  0.00    -0.383 C  
HETATM   29  C   UNL     1     -11.465  15.722  70.541  1.00  0.00    -0.381 C  
HETATM   30  O   UNL     1     -10.639  16.294  69.830  1.00  0.00    -0.306 OA 
ENDBRANCH  21  24
ENDBRANCH  14  18
ENDBRANCH  11  12
ENDBRANCH   8  11
ENDBRANCH   5   7
TORSDOF 5
ENDMDL
MODEL      127
REMARK 921   NORMALIZED FREE ENERGY PREDICTED BY IDOCK:   -4.25 KCAL/MOL
REMARK 922        TOTAL FREE ENERGY PREDICTED BY IDOCK:   -6.06 KCAL/MOL
REMARK 923 INTER-LIGAND FREE ENERGY PREDICTED BY IDOCK:   -5.72 KCAL/MOL
REMARK 924 INTRA-LIGAND FREE ENERGY PREDICTED BY IDOCK:   -0.33 KCAL/MOL
REMARK 927      BINDING AFFINITY PREDICTED BY RF-SCORE:    0.00 PKD
ROOT
HETATM    1 CL   UNL     1     -11.463   3.726  73.320  1.00  0.00    -0.199 Cl 
HETATM    2  C   UNL     1     -10.938   5.253  72.729  1.00  0.00    -0.275 A  
HETATM    3  C   UNL     1     -11.722   6.224  72.168  1.00  0.00    -0.368 A  
HETATM    4  C   UNL     1     -10.937   7.355  71.787  1.00  0.00    -0.264 A  
HETATM    5  C   UNL     1      -9.591   7.196  72.085  1.00  0.00    -0.142 A  
HETATM    6  S   UNL     1      -9.304   5.665  72.814  1.00  0.00    -0.137 SA 
ENDROOT
BRANCH   5   7
HETATM    7  C   UNL     1      -8.517   8.150  71.832  1.00  0.00    -0.150 C  
HETATM    8  N   UNL     1      -8.017   8.159  70.542  1.00  0.00    -0.093 N  
HETATM    9  O   UNL     1      -8.076   8.910  72.688  1.00  0.00    -0.383 OA 
HETATM   10  H   UNL     1      -8.328   7.440  69.890  1.00  0.00     0.000 HD 
BRANCH   8  11
HETATM   11  C   UNL     1      -7.065   9.157  70.083  1.00  0.00    -0.059 C  
BRANCH  11  12
HETATM   12  C   UNL     1      -7.773  10.377  69.508  1.00  0.00    -0.156 C  
HETATM   13  C   UNL     1      -6.862  11.543  69.217  1.00  0.00    -0.114 C  
HETATM   14  N   UNL     1      -7.607  12.217  68.194  1.00  0.00    -0.116 N  
HETATM   15  C   UNL     1      -8.376  11.268  67.527  1.00  0.00    -0.131 C  
HETATM   16  O   UNL     1      -8.320  10.075  68.215  1.00  0.00    -0.108 OA 
HETATM   17  O   UNL     1      -9.019  11.374  66.496  1.00  0.00    -0.177 OA 
BRANCH  14  18
HETATM   18  C   UNL     1      -7.522  13.604  67.916  1.00  0.00    -0.158 A  
HETATM   19  C   UNL     1      -8.617  14.318  67.432  1.00  0.00    -0.223 A  
HETATM   20  C   UNL     1      -8.532  15.691  67.160  1.00  0.00    -0.234 A  
HETATM   21  C   UNL     1      -7.353  16.414  67.370  1.00  0.00    -0.155 A  
HETATM   22  C   UNL     1      -6.347  14.325  68.152  1.00  0.00    -0.133 A  
HETATM   23  C   UNL     1      -6.269  15.707  67.900  1.00  0.00    -0.163 A  
BRANCH  21  24
HETATM   24  N   UNL     1      -7.253  17.783  66.958  1.00  0.00    -0.176 N  
HETATM   25  C   UNL     1      -6.085  18.268  66.220  1.00  0.00    -0.184 C  
HETATM   26  C   UNL     1      -6.494  19.162  65.052  1.00  0.00    -0.206 C  
HETATM   27  O   UNL     1      -7.232  20.279  65.541  1.00  0.00    -0.300 OA 
HETATM   28  C   UNL     1      -8.398  19.838  66.219  1.00  0.00    -0.357 C  
HETATM   29  C   UNL     1      -8.232  18.740  67.283  1.00  0.00    -0.263 C  
HETATM   30  O   UNL     1      -8.994  18.689  68.248  1.00  0.00    -0.300 OA 
ENDBRANCH  21  24
ENDBRANCH  14  18
ENDBRANCH  11  12
ENDBRANCH   8  11
ENDBRANCH   5   7
TORSDOF 5
ENDMDL
MODEL      128
REMARK 921   NORMALIZED FREE ENERGY PREDICTED BY IDOCK:   -4.22 KCAL/MOL
REMARK 922        TOTAL FREE ENERGY PREDICTED BY IDOCK:   -6.01 KCAL/MOL
REMARK 923 INTER-LIGAND FREE ENERGY PREDICTED BY IDOCK:   -5.24 KCAL/MOL
REMARK 924 INTRA-LIGAND FREE ENERGY PREDICTED BY IDOCK:   -0.78 KCAL/MOL
REMARK 927      BINDING AFFINITY PREDICTED BY RF-SCORE:    0.00 PKD
ROOT
HETATM    1 CL   UNL     1      -9.514   4.910  74.481  1.00  0.00    -0.134 Cl 
HETATM    2  C   UNL     1      -9.056   5.165  72.843  1.00  0.00    -0.122 A  
HETATM    3  C   UNL     1      -7.877   5.700  72.400  1.00  0.00    -0.103 A  
HETATM    4  C   UNL     1      -7.852   5.764  70.973  1.00  0.00    -0.106 A  
HETATM    5  C   UNL     1      -9.011   5.265  70.395  1.00  0.00    -0.128 A  
HETATM    6  S   UNL     1     -10.116   4.737  71.602  1.00  0.00    -0.179 SA 
ENDROOT
BRANCH   5   7
HETATM    7  C   UNL     1      -9.316   5.181  68.971  1.00  0.00    -0.121 C  
HETATM    8  N   UNL     1     -10.528   5.727  68.587  1.00  0.00    -0.219 N  
HETATM    9  O   UNL     1      -8.561   4.672  68.150  1.00  0.00    -0.100 OA 
HETATM   10  H   UNL     1     -11.178   6.039  69.309  1.00  0.00     0.000 HD 
BRANCH   8  11
HETATM   11  C   UNL     1     -10.909   5.873  67.191  1.00  0.00    -0.285 C  
BRANCH  11  12
HETATM   12  C   UNL     1     -10.562   7.259  66.663  1.00  0.00    -0.075 C  
HETATM   13  C   UNL     1     -10.588   8.345  67.710  1.00  0.00    -0.171 C  
HETATM   14  N   UNL     1      -9.686   9.297  67.130  1.00  0.00    -0.161 N  
HETATM   15  C   UNL     1      -8.783   8.602  66.332  1.00  0.00    -0.130 C  
HETATM   16  O   UNL     1      -9.201   7.295  66.206  1.00  0.00    -0.168 OA 
HETATM   17  O   UNL     1      -7.758   8.992  65.797  1.00  0.00    -0.089 OA 
BRANCH  14  18
HETATM   18  C   UNL     1      -9.717  10.692  67.379  1.00  0.00    -0.167 A  
HETATM   19  C   UNL     1     -10.812  11.473  67.014  1.00  0.00    -0.320 A  
HETATM   20  C   UNL     1     -10.841  12.852  67.264  1.00  0.00    -0.277 A  
HETATM   21  C   UNL     1      -9.783  13.511  67.900  1.00  0.00    -0.225 A  
HETATM   22  C   UNL     1      -8.665  11.339  68.037  1.00  0.00    -0.144 A  
HETATM   23  C   UNL     1      -8.705  12.719  68.307  1.00  0.00    -0.168 A  
BRANCH  21  24
HETATM   24  N   UNL     1      -9.780  14.939  68.020  1.00  0.00    -0.209 N  
HETATM   25  C   UNL     1      -8.661  15.740  67.520  1.00  0.00    -0.176 C  
HETATM   26  C   UNL     1      -9.150  16.970  66.761  1.00  0.00    -0.246 C  
HETATM   27  O   UNL     1      -9.949  17.777  67.623  1.00  0.00    -0.298 OA 
HETATM   28  C   UNL     1     -11.070  17.040  68.084  1.00  0.00    -0.163 C  
HETATM   29  C   UNL     1     -10.812  15.641  68.670  1.00  0.00    -0.273 C  
HETATM   30  O   UNL     1     -11.551  15.188  69.544  1.00  0.00    -0.280 OA 
ENDBRANCH  21  24
ENDBRANCH  14  18
ENDBRANCH  11  12
ENDBRANCH   8  11
ENDBRANCH   5   7
TORSDOF 5
ENDMDL
MODEL      129
REMARK 921   NORMALIZED FREE ENERGY PREDICTED BY IDOCK:   -4.21 KCAL/MOL
REMARK 922        TOTAL FREE ENERGY PREDICTED BY IDOCK:   -6.00 KCAL/MOL
REMARK 923 INTER-LIGAND FREE ENERGY PREDICTED BY IDOCK:   -5.37 KCAL/MOL
REMARK 924 INTRA-LIGAND FREE ENERGY PREDICTED BY IDOCK:   -0.62 KCAL/MOL
REMARK 927      BINDING AFFINITY PREDICTED BY RF-SCORE:    0.00 PKD
ROOT
HETATM    1 CL   UNL     1     -14.360  13.898  72.230  1.00  0.00    -0.601 Cl 
HETATM    2  C   UNL     1     -13.095  14.613  71.310  1.00  0.00    -0.359 A  
HETATM    3  C   UNL     1     -12.436  15.777  71.597  1.00  0.00    -0.525 A  
HETATM    4  C   UNL     1     -11.450  16.062  70.603  1.00  0.00    -0.427 A  
HETATM    5  C   UNL     1     -11.399  15.095  69.609  1.00  0.00    -0.283 A  
HETATM    6  S   UNL     1     -12.561  13.860  69.897  1.00  0.00     0.016 SA 
ENDROOT
BRANCH   5   7
HETATM    7  C   UNL     1     -10.514  15.074  68.450  1.00  0.00    -0.238 C  
HETATM    8  N   UNL     1     -10.789  14.101  67.505  1.00  0.00    -0.272 N  
HETATM    9  O   UNL     1      -9.586  15.861  68.296  1.00  0.00    -0.202 OA 
HETATM   10  H   UNL     1     -11.494  13.395  67.719  1.00  0.00     0.000 HD 
BRANCH   8  11
HETATM   11  C   UNL     1     -10.110  14.047  66.221  1.00  0.00    -0.300 C  
BRANCH  11  12
HETATM   12  C   UNL     1      -9.313  12.758  66.068  1.00  0.00    -0.046 C  
HETATM   13  C   UNL     1      -9.505  11.774  67.195  1.00  0.00    -0.175 C  
HETATM   14  N   UNL     1      -9.192  10.542  66.530  1.00  0.00    -0.159 N  
HETATM   15  C   UNL     1      -9.491  10.695  65.180  1.00  0.00    -0.227 C  
HETATM   16  O   UNL     1      -9.769  12.020  64.924  1.00  0.00    -0.211 OA 
HETATM   17  O   UNL     1      -9.538   9.857  64.295  1.00  0.00    -0.282 OA 
BRANCH  14  18
HETATM   18  C   UNL     1      -8.699   9.381  67.175  1.00  0.00    -0.128 A  
HETATM   19  C   UNL     1      -7.446   8.853  66.868  1.00  0.00    -0.083 A  
HETATM   20  C   UNL     1      -6.960   7.705  67.510  1.00  0.00    -0.081 A  
HETATM   21  C   UNL     1      -7.698   7.040  68.495  1.00  0.00    -0.120 A  
HETATM   22  C   UNL     1      -9.432   8.736  68.177  1.00  0.00    -0.152 A  
HETATM   23  C   UNL     1      -8.934   7.597  68.836  1.00  0.00    -0.137 A  
BRANCH  21  24
HETATM   24  N   UNL     1      -7.237   5.796  69.037  1.00  0.00    -0.076 N  
HETATM   25  C   UNL     1      -6.737   5.706  70.410  1.00  0.00    -0.048 C  
HETATM   26  C   UNL     1      -7.289   4.475  71.126  1.00  0.00    -0.048 C  
HETATM   27  O   UNL     1      -6.909   3.300  70.415  1.00  0.00    -0.033 OA 
HETATM   28  C   UNL     1      -7.424   3.337  69.094  1.00  0.00    -0.048 C  
HETATM   29  C   UNL     1      -7.185   4.616  68.272  1.00  0.00    -0.065 C  
HETATM   30  O   UNL     1      -7.085   4.557  67.047  1.00  0.00    -0.065 OA 
ENDBRANCH  21  24
ENDBRANCH  14  18
ENDBRANCH  11  12
ENDBRANCH   8  11
ENDBRANCH   5   7
TORSDOF 5
ENDMDL
MODEL      130
REMARK 921   NORMALIZED FREE ENERGY PREDICTED BY IDOCK:   -4.19 KCAL/MOL
REMARK 922        TOTAL FREE ENERGY PREDICTED BY IDOCK:   -5.98 KCAL/MOL
REMARK 923 INTER-LIGAND FREE ENERGY PREDICTED BY IDOCK:   -5.17 KCAL/MOL
REMARK 924 INTRA-LIGAND FREE ENERGY PREDICTED BY IDOCK:   -0.81 KCAL/MOL
REMARK 927      BINDING AFFINITY PREDICTED BY RF-SCORE:    0.00 PKD
ROOT
HETATM    1 CL   UNL     1      -9.992   2.528  63.860  1.00  0.00    -0.145 Cl 
HETATM    2  C   UNL     1      -8.737   2.530  65.036  1.00  0.00    -0.112 A  
HETATM    3  C   UNL     1      -7.950   1.468  65.391  1.00  0.00    -0.073 A  
HETATM    4  C   UNL     1      -7.019   1.843  66.407  1.00  0.00    -0.043 A  
HETATM    5  C   UNL     1      -7.134   3.176  66.772  1.00  0.00    -0.054 A  
HETATM    6  S   UNL     1      -8.382   3.949  65.878  1.00  0.00    -0.110 SA 
ENDROOT
BRANCH   5   7
HETATM    7  C   UNL     1      -6.343   3.884  67.774  1.00  0.00    -0.037 C  
HETATM    8  N   UNL     1      -6.805   5.140  68.122  1.00  0.00    -0.058 N  
HETATM    9  O   UNL     1      -5.336   3.413  68.293  1.00  0.00    -0.012 OA 
HETATM   10  H   UNL     1      -7.577   5.544  67.590  1.00  0.00     0.000 HD 
BRANCH   8  11
HETATM   11  C   UNL     1      -6.232   5.906  69.216  1.00  0.00    -0.033 C  
BRANCH  11  12
HETATM   12  C   UNL     1      -6.760   7.335  69.230  1.00  0.00    -0.049 C  
HETATM   13  C   UNL     1      -7.672   7.669  68.076  1.00  0.00    -0.119 C  
HETATM   14  N   UNL     1      -8.443   8.736  68.645  1.00  0.00    -0.128 N  
HETATM   15  C   UNL     1      -8.486   8.547  70.023  1.00  0.00    -0.125 C  
HETATM   16  O   UNL     1      -7.605   7.546  70.371  1.00  0.00    -0.086 OA 
HETATM   17  O   UNL     1      -9.164   9.113  70.864  1.00  0.00    -0.234 OA 
BRANCH  14  18
HETATM   18  C   UNL     1      -9.068   9.766  67.899  1.00  0.00    -0.121 A  
HETATM   19  C   UNL     1      -8.408  10.960  67.610  1.00  0.00    -0.116 A  
HETATM   20  C   UNL     1      -9.027  11.976  66.869  1.00  0.00    -0.199 A  
HETATM   21  C   UNL     1     -10.329  11.841  66.374  1.00  0.00    -0.222 A  
HETATM   22  C   UNL     1     -10.360   9.614  67.386  1.00  0.00    -0.306 A  
HETATM   23  C   UNL     1     -10.973  10.626  66.624  1.00  0.00    -0.144 A  
BRANCH  21  24
HETATM   24  N   UNL     1     -10.985  12.945  65.738  1.00  0.00    -0.275 N  
HETATM   25  C   UNL     1     -10.651  13.339  64.368  1.00  0.00    -0.419 C  
HETATM   26  C   UNL     1     -11.905  13.628  63.548  1.00  0.00    -0.169 C  
HETATM   27  O   UNL     1     -12.648  14.677  64.164  1.00  0.00    -0.766 OA 
HETATM   28  C   UNL     1     -13.029  14.301  65.478  1.00  0.00    -0.211 C  
HETATM   29  C   UNL     1     -11.936  13.740  66.405  1.00  0.00    -0.438 C  
HETATM   30  O   UNL     1     -12.009  13.905  67.622  1.00  0.00    -0.366 OA 
ENDBRANCH  21  24
ENDBRANCH  14  18
ENDBRANCH  11  12
ENDBRANCH   8  11
ENDBRANCH   5   7
TORSDOF 5
ENDMDL
MODEL      131
REMARK 921   NORMALIZED FREE ENERGY PREDICTED BY IDOCK:   -4.18 KCAL/MOL
REMARK 922        TOTAL FREE ENERGY PREDICTED BY IDOCK:   -5.97 KCAL/MOL
REMARK 923 INTER-LIGAND FREE ENERGY PREDICTED BY IDOCK:   -5.10 KCAL/MOL
REMARK 924 INTRA-LIGAND FREE ENERGY PREDICTED BY IDOCK:   -0.86 KCAL/MOL
REMARK 927      BINDING AFFINITY PREDICTED BY RF-SCORE:    0.00 PKD
ROOT
HETATM    1 CL   UNL     1     -10.593  19.620  65.666  1.00  0.00    -0.557 Cl 
HETATM    2  C   UNL     1      -9.516  18.560  66.486  1.00  0.00    -0.320 A  
HETATM    3  C   UNL     1      -8.155  18.516  66.352  1.00  0.00    -0.295 A  
HETATM    4  C   UNL     1      -7.594  17.502  67.187  1.00  0.00    -0.225 A  
HETATM    5  C   UNL     1      -8.554  16.826  67.925  1.00  0.00    -0.202 A  
HETATM    6  S   UNL     1     -10.127  17.430  67.581  1.00  0.00    -0.342 SA 
ENDROOT
BRANCH   5   7
HETATM    7  C   UNL     1      -8.330  15.738  68.871  1.00  0.00    -0.213 C  
HETATM    8  N   UNL     1      -7.084  15.139  68.809  1.00  0.00    -0.111 N  
HETATM    9  O   UNL     1      -9.172  15.367  69.683  1.00  0.00    -0.264 OA 
HETATM   10  H   UNL     1      -6.453  15.397  68.050  1.00  0.00     0.000 HD 
BRANCH   8  11
HETATM   11  C   UNL     1      -6.643  14.157  69.785  1.00  0.00    -0.104 C  
BRANCH  11  12
HETATM   12  C   UNL     1      -6.296  12.831  69.120  1.00  0.00    -0.106 C  
HETATM   13  C   UNL     1      -7.491  11.970  68.794  1.00  0.00    -0.086 C  
HETATM   14  N   UNL     1      -6.970  11.187  67.712  1.00  0.00    -0.076 N  
HETATM   15  C   UNL     1      -5.986  11.936  67.075  1.00  0.00    -0.153 C  
HETATM   16  O   UNL     1      -5.709  13.056  67.829  1.00  0.00    -0.115 OA 
HETATM   17  O   UNL     1      -5.411  11.728  66.019  1.00  0.00    -0.260 OA 
BRANCH  14  18
HETATM   18  C   UNL     1      -7.427   9.894  67.359  1.00  0.00    -0.091 A  
HETATM   19  C   UNL     1      -8.464   9.712  66.445  1.00  0.00    -0.128 A  
HETATM   20  C   UNL     1      -8.914   8.430  66.096  1.00  0.00    -0.218 A  
HETATM   21  C   UNL     1      -8.340   7.273  66.634  1.00  0.00    -0.121 A  
HETATM   22  C   UNL     1      -6.833   8.741  67.883  1.00  0.00    -0.070 A  
HETATM   23  C   UNL     1      -7.270   7.455  67.515  1.00  0.00    -0.094 A  
BRANCH  21  24
HETATM   24  N   UNL     1      -8.906   5.985  66.364  1.00  0.00    -0.132 N  
HETATM   25  C   UNL     1      -8.521   5.221  65.176  1.00  0.00    -0.149 C  
HETATM   26  C   UNL     1      -8.277   3.752  65.510  1.00  0.00    -0.101 C  
HETATM   27  O   UNL     1      -9.461   3.185  66.063  1.00  0.00    -0.132 OA 
HETATM   28  C   UNL     1      -9.830   3.875  67.246  1.00  0.00    -0.036 C  
HETATM   29  C   UNL     1      -9.895   5.411  67.185  1.00  0.00    -0.158 C  
HETATM   30  O   UNL     1     -10.681   6.028  67.903  1.00  0.00    -0.246 OA 
ENDBRANCH  21  24
ENDBRANCH  14  18
ENDBRANCH  11  12
ENDBRANCH   8  11
ENDBRANCH   5   7
TORSDOF 5
ENDMDL
MODEL      132
REMARK 921   NORMALIZED FREE ENERGY PREDICTED BY IDOCK:   -4.16 KCAL/MOL
REMARK 922        TOTAL FREE ENERGY PREDICTED BY IDOCK:   -5.94 KCAL/MOL
REMARK 923 INTER-LIGAND FREE ENERGY PREDICTED BY IDOCK:   -5.33 KCAL/MOL
REMARK 924 INTRA-LIGAND FREE ENERGY PREDICTED BY IDOCK:   -0.61 KCAL/MOL
REMARK 927      BINDING AFFINITY PREDICTED BY RF-SCORE:    0.00 PKD
ROOT
HETATM    1 CL   UNL     1      -5.168  19.761  63.751  1.00  0.00    -0.225 Cl 
HETATM    2  C   UNL     1      -6.238  19.767  65.097  1.00  0.00    -0.258 A  
HETATM    3  C   UNL     1      -7.076  20.783  65.469  1.00  0.00     0.025 A  
HETATM    4  C   UNL     1      -7.810  20.432  66.644  1.00  0.00    -0.264 A  
HETATM    5  C   UNL     1      -7.503  19.162  67.107  1.00  0.00    -0.220 A  
HETATM    6  S   UNL     1      -6.316  18.418  66.109  1.00  0.00    -0.229 SA 
ENDROOT
BRANCH   5   7
HETATM    7  C   UNL     1      -8.064  18.494  68.276  1.00  0.00    -0.303 C  
HETATM    8  N   UNL     1      -9.025  17.534  68.012  1.00  0.00    -0.252 N  
HETATM    9  O   UNL     1      -7.717  18.743  69.425  1.00  0.00    -0.065 OA 
HETATM   10  H   UNL     1      -9.369  17.433  67.056  1.00  0.00     0.000 HD 
BRANCH   8  11
HETATM   11  C   UNL     1      -9.563  16.665  69.045  1.00  0.00    -0.246 C  
BRANCH  11  12
HETATM   12  C   UNL     1      -8.889  15.299  69.028  1.00  0.00    -0.226 C  
HETATM   13  C   UNL     1      -9.712  14.210  68.386  1.00  0.00    -0.226 C  
HETATM   14  N   UNL     1      -8.681  13.305  67.970  1.00  0.00    -0.178 N  
HETATM   15  C   UNL     1      -7.525  14.046  67.744  1.00  0.00    -0.161 C  
HETATM   16  O   UNL     1      -7.713  15.331  68.204  1.00  0.00    -0.111 OA 
HETATM   17  O   UNL     1      -6.475  13.709  67.223  1.00  0.00    -0.279 OA 
BRANCH  14  18
HETATM   18  C   UNL     1      -8.855  11.910  67.794  1.00  0.00    -0.166 A  
HETATM   19  C   UNL     1      -8.201  10.986  68.608  1.00  0.00    -0.151 A  
HETATM   20  C   UNL     1      -8.378   9.606  68.434  1.00  0.00    -0.117 A  
HETATM   21  C   UNL     1      -9.224   9.087  67.448  1.00  0.00    -0.138 A  
HETATM   22  C   UNL     1      -9.722  11.399  66.822  1.00  0.00    -0.221 A  
HETATM   23  C   UNL     1      -9.915  10.015  66.663  1.00  0.00    -0.274 A  
BRANCH  21  24
HETATM   24  N   UNL     1      -9.281   7.676  67.204  1.00  0.00    -0.128 N  
HETATM   25  C   UNL     1     -10.377   6.860  67.729  1.00  0.00    -0.203 C  
HETATM   26  C   UNL     1     -10.899   5.883  66.680  1.00  0.00    -0.217 C  
HETATM   27  O   UNL     1      -9.842   5.025  66.258  1.00  0.00    -0.164 OA 
HETATM   28  C   UNL     1      -8.785   5.788  65.697  1.00  0.00    -0.149 C  
HETATM   29  C   UNL     1      -8.270   6.992  66.504  1.00  0.00    -0.114 C  
HETATM   30  O   UNL     1      -7.095   7.347  66.409  1.00  0.00    -0.070 OA 
ENDBRANCH  21  24
ENDBRANCH  14  18
ENDBRANCH  11  12
ENDBRANCH   8  11
ENDBRANCH   5   7
TORSDOF 5
ENDMDL
MODEL      133
REMARK 921   NORMALIZED FREE ENERGY PREDICTED BY IDOCK:   -4.14 KCAL/MOL
REMARK 922        TOTAL FREE ENERGY PREDICTED BY IDOCK:   -5.91 KCAL/MOL
REMARK 923 INTER-LIGAND FREE ENERGY PREDICTED BY IDOCK:   -5.40 KCAL/MOL
REMARK 924 INTRA-LIGAND FREE ENERGY PREDICTED BY IDOCK:   -0.51 KCAL/MOL
REMARK 927      BINDING AFFINITY PREDICTED BY RF-SCORE:    0.00 PKD
ROOT
HETATM    1 CL   UNL     1     -10.845   5.553  66.613  1.00  0.00    -0.327 Cl 
HETATM    2  C   UNL     1      -9.785   6.580  67.495  1.00  0.00    -0.122 A  
HETATM    3  C   UNL     1     -10.134   7.449  68.493  1.00  0.00    -0.187 A  
HETATM    4  C   UNL     1      -8.987   8.141  68.990  1.00  0.00    -0.144 A  
HETATM    5  C   UNL     1      -7.816   7.759  68.352  1.00  0.00    -0.121 A  
HETATM    6  S   UNL     1      -8.133   6.571  67.151  1.00  0.00    -0.113 SA 
ENDROOT
BRANCH   5   7
HETATM    7  C   UNL     1      -6.471   8.263  68.611  1.00  0.00    -0.054 C  
HETATM    8  N   UNL     1      -6.403   9.443  69.329  1.00  0.00    -0.044 N  
HETATM    9  O   UNL     1      -5.454   7.691  68.234  1.00  0.00    -0.025 OA 
HETATM   10  H   UNL     1      -7.267   9.948  69.528  1.00  0.00     0.000 HD 
BRANCH   8  11
HETATM   11  C   UNL     1      -5.146   9.991  69.811  1.00  0.00    -0.038 C  
BRANCH  11  12
HETATM   12  C   UNL     1      -5.145  11.513  69.752  1.00  0.00    -0.058 C  
HETATM   13  C   UNL     1      -6.370  12.109  69.106  1.00  0.00    -0.094 C  
HETATM   14  N   UNL     1      -6.391  13.406  69.716  1.00  0.00    -0.112 N  
HETATM   15  C   UNL     1      -5.783  13.304  70.963  1.00  0.00    -0.140 C  
HETATM   16  O   UNL     1      -5.188  12.066  71.077  1.00  0.00    -0.129 OA 
HETATM   17  O   UNL     1      -5.737  14.113  71.875  1.00  0.00    -0.224 OA 
BRANCH  14  18
HETATM   18  C   UNL     1      -6.972  14.561  69.136  1.00  0.00    -0.131 A  
HETATM   19  C   UNL     1      -6.569  15.843  69.505  1.00  0.00    -0.191 A  
HETATM   20  C   UNL     1      -7.144  16.985  68.927  1.00  0.00    -0.233 A  
HETATM   21  C   UNL     1      -8.138  16.896  67.947  1.00  0.00    -0.188 A  
HETATM   22  C   UNL     1      -7.948  14.464  68.138  1.00  0.00    -0.136 A  
HETATM   23  C   UNL     1      -8.508  15.610  67.543  1.00  0.00    -0.182 A  
BRANCH  21  24
HETATM   24  N   UNL     1      -8.802  18.074  67.473  1.00  0.00    -0.250 N  
HETATM   25  C   UNL     1     -10.180  18.375  67.861  1.00  0.00    -0.381 C  
HETATM   26  C   UNL     1     -10.347  19.845  68.236  1.00  0.00    -0.393 C  
HETATM   27  O   UNL     1      -9.988  20.665  67.127  1.00  0.00    -0.452 OA 
HETATM   28  C   UNL     1      -8.638  20.430  66.761  1.00  0.00    -0.194 C  
HETATM   29  C   UNL     1      -8.194  18.969  66.572  1.00  0.00    -0.302 C  
HETATM   30  O   UNL     1      -7.301  18.689  65.773  1.00  0.00    -0.435 OA 
ENDBRANCH  21  24
ENDBRANCH  14  18
ENDBRANCH  11  12
ENDBRANCH   8  11
ENDBRANCH   5   7
TORSDOF 5
ENDMDL
MODEL      134
REMARK 921   NORMALIZED FREE ENERGY PREDICTED BY IDOCK:   -4.02 KCAL/MOL
REMARK 922        TOTAL FREE ENERGY PREDICTED BY IDOCK:   -5.76 KCAL/MOL
REMARK 923 INTER-LIGAND FREE ENERGY PREDICTED BY IDOCK:   -5.14 KCAL/MOL
REMARK 924 INTRA-LIGAND FREE ENERGY PREDICTED BY IDOCK:   -0.62 KCAL/MOL
REMARK 927      BINDING AFFINITY PREDICTED BY RF-SCORE:    0.00 PKD
ROOT
HETATM    1 CL   UNL     1     -12.284  11.545  69.815  1.00  0.00    -0.334 Cl 
HETATM    2  C   UNL     1     -12.321  10.254  70.950  1.00  0.00    -0.373 A  
HETATM    3  C   UNL     1     -13.403   9.837  71.676  1.00  0.00    -0.487 A  
HETATM    4  C   UNL     1     -13.056   8.740  72.523  1.00  0.00    -0.392 A  
HETATM    5  C   UNL     1     -11.725   8.368  72.396  1.00  0.00    -0.382 A  
HETATM    6  S   UNL     1     -10.917   9.367  71.254  1.00  0.00    -0.374 SA 
ENDROOT
BRANCH   5   7
HETATM    7  C   UNL     1     -11.043   7.294  73.109  1.00  0.00    -0.292 C  
HETATM    8  N   UNL     1     -11.570   6.027  72.929  1.00  0.00    -0.499 N  
HETATM    9  O   UNL     1     -10.060   7.476  73.820  1.00  0.00    -0.319 OA 
HETATM   10  H   UNL     1     -12.451   5.930  72.424  1.00  0.00     0.000 HD 
BRANCH   8  11
HETATM   11  C   UNL     1     -10.914   4.832  73.432  1.00  0.00    -0.323 C  
BRANCH  11  12
HETATM   12  C   UNL     1     -10.123   4.130  72.336  1.00  0.00    -0.177 C  
HETATM   13  C   UNL     1      -9.716   5.027  71.194  1.00  0.00    -0.178 C  
HETATM   14  N   UNL     1      -8.563   4.330  70.704  1.00  0.00    -0.077 N  
HETATM   15  C   UNL     1      -8.001   3.629  71.767  1.00  0.00    -0.063 C  
HETATM   16  O   UNL     1      -8.860   3.673  72.843  1.00  0.00    -0.092 OA 
HETATM   17  O   UNL     1      -6.929   3.049  71.836  1.00  0.00    -0.025 OA 
BRANCH  14  18
HETATM   18  C   UNL     1      -8.087   4.396  69.371  1.00  0.00    -0.060 A  
HETATM   19  C   UNL     1      -7.219   5.406  68.957  1.00  0.00    -0.062 A  
HETATM   20  C   UNL     1      -6.747   5.467  67.638  1.00  0.00    -0.055 A  
HETATM   21  C   UNL     1      -7.110   4.517  66.677  1.00  0.00    -0.071 A  
HETATM   22  C   UNL     1      -8.435   3.428  68.423  1.00  0.00    -0.104 A  
HETATM   23  C   UNL     1      -7.943   3.479  67.105  1.00  0.00    -0.083 A  
BRANCH  21  24
HETATM   24  N   UNL     1      -6.723   4.680  65.307  1.00  0.00    -0.047 N  
HETATM   25  C   UNL     1      -5.447   4.160  64.813  1.00  0.00    -0.013 C  
HETATM   26  C   UNL     1      -5.613   3.457  63.468  1.00  0.00    -0.009 C  
HETATM   27  O   UNL     1      -6.142   4.373  62.513  1.00  0.00    -0.016 OA 
HETATM   28  C   UNL     1      -7.405   4.856  62.943  1.00  0.00    -0.047 C  
HETATM   29  C   UNL     1      -7.511   5.390  64.382  1.00  0.00    -0.067 C  
HETATM   30  O   UNL     1      -8.318   6.278  64.657  1.00  0.00    -0.116 OA 
ENDBRANCH  21  24
ENDBRANCH  14  18
ENDBRANCH  11  12
ENDBRANCH   8  11
ENDBRANCH   5   7
TORSDOF 5
ENDMDL
MODEL      135
REMARK 921   NORMALIZED FREE ENERGY PREDICTED BY IDOCK:   -4.01 KCAL/MOL
REMARK 922        TOTAL FREE ENERGY PREDICTED BY IDOCK:   -5.74 KCAL/MOL
REMARK 923 INTER-LIGAND FREE ENERGY PREDICTED BY IDOCK:   -5.24 KCAL/MOL
REMARK 924 INTRA-LIGAND FREE ENERGY PREDICTED BY IDOCK:   -0.50 KCAL/MOL
REMARK 927      BINDING AFFINITY PREDICTED BY RF-SCORE:    0.00 PKD
ROOT
HETATM    1 CL   UNL     1      -6.467  20.433  65.319  1.00  0.00    -0.293 Cl 
HETATM    2  C   UNL     1      -7.945  19.875  65.998  1.00  0.00    -0.314 A  
HETATM    3  C   UNL     1      -9.207  20.248  65.624  1.00  0.00     0.184 A  
HETATM    4  C   UNL     1     -10.191  19.582  66.417  1.00  0.00    -0.576 A  
HETATM    5  C   UNL     1      -9.632  18.725  67.353  1.00  0.00    -0.306 A  
HETATM    6  S   UNL     1      -7.915  18.753  67.258  1.00  0.00    -0.241 SA 
ENDROOT
BRANCH   5   7
HETATM    7  C   UNL     1     -10.343  17.894  68.318  1.00  0.00    -0.383 C  
HETATM    8  N   UNL     1     -11.004  16.798  67.792  1.00  0.00    -0.274 N  
HETATM    9  O   UNL     1     -10.362  18.127  69.522  1.00  0.00    -0.059 OA 
HETATM   10  H   UNL     1     -11.061  16.700  66.778  1.00  0.00     0.000 HD 
BRANCH   8  11
HETATM   11  C   UNL     1     -11.620  15.783  68.630  1.00  0.00    -0.386 C  
BRANCH  11  12
HETATM   12  C   UNL     1     -10.626  14.687  68.995  1.00  0.00    -0.247 C  
HETATM   13  C   UNL     1     -10.750  13.436  68.161  1.00  0.00    -0.253 C  
HETATM   14  N   UNL     1      -9.421  12.908  68.272  1.00  0.00    -0.219 N  
HETATM   15  C   UNL     1      -8.551  13.974  68.478  1.00  0.00    -0.147 C  
HETATM   16  O   UNL     1      -9.284  15.117  68.720  1.00  0.00    -0.183 OA 
HETATM   17  O   UNL     1      -7.332  13.998  68.457  1.00  0.00    -0.101 OA 
BRANCH  14  18
HETATM   18  C   UNL     1      -9.086  11.537  68.150  1.00  0.00    -0.181 A  
HETATM   19  C   UNL     1      -8.572  11.015  66.964  1.00  0.00    -0.140 A  
HETATM   20  C   UNL     1      -8.237   9.658  66.847  1.00  0.00    -0.113 A  
HETATM   21  C   UNL     1      -8.392   8.765  67.912  1.00  0.00    -0.118 A  
HETATM   22  C   UNL     1      -9.220  10.654  69.228  1.00  0.00    -0.121 A  
HETATM   23  C   UNL     1      -8.864   9.298  69.116  1.00  0.00    -0.141 A  
BRANCH  21  24
HETATM   24  N   UNL     1      -8.171   7.361  67.725  1.00  0.00    -0.118 N  
HETATM   25  C   UNL     1      -9.185   6.512  67.097  1.00  0.00    -0.128 C  
HETATM   26  C   UNL     1      -8.564   5.560  66.079  1.00  0.00    -0.134 C  
HETATM   27  O   UNL     1      -7.600   4.732  66.725  1.00  0.00    -0.085 OA 
HETATM   28  C   UNL     1      -6.577   5.528  67.300  1.00  0.00    -0.053 C  
HETATM   29  C   UNL     1      -7.006   6.715  68.179  1.00  0.00    -0.077 C  
HETATM   30  O   UNL     1      -6.292   7.091  69.108  1.00  0.00    -0.033 OA 
ENDBRANCH  21  24
ENDBRANCH  14  18
ENDBRANCH  11  12
ENDBRANCH   8  11
ENDBRANCH   5   7
TORSDOF 5
ENDMDL
MODEL      136
REMARK 921   NORMALIZED FREE ENERGY PREDICTED BY IDOCK:   -4.00 KCAL/MOL
REMARK 922        TOTAL FREE ENERGY PREDICTED BY IDOCK:   -5.73 KCAL/MOL
REMARK 923 INTER-LIGAND FREE ENERGY PREDICTED BY IDOCK:   -5.07 KCAL/MOL
REMARK 924 INTRA-LIGAND FREE ENERGY PREDICTED BY IDOCK:   -0.65 KCAL/MOL
REMARK 927      BINDING AFFINITY PREDICTED BY RF-SCORE:    0.00 PKD
ROOT
HETATM    1 CL   UNL     1     -10.212  19.295  67.239  1.00  0.00    -0.472 Cl 
HETATM    2  C   UNL     1      -8.765  18.528  67.764  1.00  0.00    -0.275 A  
HETATM    3  C   UNL     1      -7.779  19.085  68.532  1.00  0.00    -0.368 A  
HETATM    4  C   UNL     1      -6.724  18.149  68.763  1.00  0.00    -0.248 A  
HETATM    5  C   UNL     1      -6.961  16.919  68.167  1.00  0.00    -0.162 A  
HETATM    6  S   UNL     1      -8.460  16.927  67.325  1.00  0.00    -0.201 SA 
ENDROOT
BRANCH   5   7
HETATM    7  C   UNL     1      -6.096  15.745  68.203  1.00  0.00    -0.126 C  
HETATM    8  N   UNL     1      -5.932  15.161  69.446  1.00  0.00    -0.103 N  
HETATM    9  O   UNL     1      -5.547  15.283  67.208  1.00  0.00    -0.332 OA 
HETATM   10  H   UNL     1      -6.310  15.637  70.266  1.00  0.00     0.000 HD 
BRANCH   8  11
HETATM   11  C   UNL     1      -5.239  13.896  69.627  1.00  0.00    -0.084 C  
BRANCH  11  12
HETATM   12  C   UNL     1      -6.213  12.725  69.620  1.00  0.00    -0.120 C  
HETATM   13  C   UNL     1      -6.015  11.762  68.475  1.00  0.00    -0.049 C  
HETATM   14  N   UNL     1      -6.569  10.564  69.035  1.00  0.00    -0.056 N  
HETATM   15  C   UNL     1      -6.421  10.627  70.417  1.00  0.00    -0.100 C  
HETATM   16  O   UNL     1      -6.004  11.892  70.771  1.00  0.00    -0.330 OA 
HETATM   17  O   UNL     1      -6.596   9.761  71.258  1.00  0.00    -0.301 OA 
BRANCH  14  18
HETATM   18  C   UNL     1      -7.128   9.504  68.278  1.00  0.00    -0.075 A  
HETATM   19  C   UNL     1      -6.555   8.233  68.271  1.00  0.00    -0.060 A  
HETATM   20  C   UNL     1      -7.111   7.185  67.524  1.00  0.00    -0.088 A  
HETATM   21  C   UNL     1      -8.271   7.356  66.760  1.00  0.00    -0.121 A  
HETATM   22  C   UNL     1      -8.302   9.676  67.537  1.00  0.00    -0.118 A  
HETATM   23  C   UNL     1      -8.871   8.618  66.805  1.00  0.00    -0.152 A  
BRANCH  21  24
HETATM   24  N   UNL     1      -8.740   6.310  65.901  1.00  0.00    -0.151 N  
HETATM   25  C   UNL     1      -8.105   6.048  64.608  1.00  0.00    -0.132 C  
HETATM   26  C   UNL     1      -7.898   4.554  64.379  1.00  0.00    -0.086 C  
HETATM   27  O   UNL     1      -9.156   3.885  64.422  1.00  0.00    -0.124 OA 
HETATM   28  C   UNL     1      -9.772   4.080  65.685  1.00  0.00    -0.192 C  
HETATM   29  C   UNL     1      -9.860   5.520  66.221  1.00  0.00    -0.145 C  
HETATM   30  O   UNL     1     -10.790   5.854  66.955  1.00  0.00    -0.301 OA 
ENDBRANCH  21  24
ENDBRANCH  14  18
ENDBRANCH  11  12
ENDBRANCH   8  11
ENDBRANCH   5   7
TORSDOF 5
ENDMDL
MODEL      137
REMARK 921   NORMALIZED FREE ENERGY PREDICTED BY IDOCK:   -3.97 KCAL/MOL
REMARK 922        TOTAL FREE ENERGY PREDICTED BY IDOCK:   -5.70 KCAL/MOL
REMARK 923 INTER-LIGAND FREE ENERGY PREDICTED BY IDOCK:   -4.93 KCAL/MOL
REMARK 924 INTRA-LIGAND FREE ENERGY PREDICTED BY IDOCK:   -0.76 KCAL/MOL
REMARK 927      BINDING AFFINITY PREDICTED BY RF-SCORE:    0.00 PKD
ROOT
HETATM    1 CL   UNL     1      -9.946   3.344  73.548  1.00  0.00    -0.158 Cl 
HETATM    2  C   UNL     1      -9.145   3.669  72.061  1.00  0.00    -0.108 A  
HETATM    3  C   UNL     1      -8.112   4.545  71.865  1.00  0.00    -0.100 A  
HETATM    4  C   UNL     1      -7.706   4.555  70.495  1.00  0.00    -0.053 A  
HETATM    5  C   UNL     1      -8.445   3.679  69.713  1.00  0.00    -0.053 A  
HETATM    6  S   UNL     1      -9.629   2.865  70.658  1.00  0.00    -0.045 SA 
ENDROOT
BRANCH   5   7
HETATM    7  C   UNL     1      -8.296   3.441  68.282  1.00  0.00    -0.082 C  
HETATM    8  N   UNL     1      -9.399   3.750  67.506  1.00  0.00    -0.184 N  
HETATM    9  O   UNL     1      -7.267   3.004  67.775  1.00  0.00    -0.052 OA 
HETATM   10  H   UNL     1     -10.271   4.002  67.971  1.00  0.00     0.000 HD 
BRANCH   8  11
HETATM   11  C   UNL     1      -9.361   3.727  66.053  1.00  0.00    -0.170 C  
BRANCH  11  12
HETATM   12  C   UNL     1      -9.286   5.136  65.478  1.00  0.00    -0.113 C  
HETATM   13  C   UNL     1      -9.675   6.222  66.449  1.00  0.00    -0.099 C  
HETATM   14  N   UNL     1      -8.959   7.338  65.903  1.00  0.00    -0.116 N  
HETATM   15  C   UNL     1      -7.838   6.847  65.241  1.00  0.00    -0.118 C  
HETATM   16  O   UNL     1      -7.929   5.474  65.154  1.00  0.00    -0.098 OA 
HETATM   17  O   UNL     1      -6.879   7.446  64.785  1.00  0.00    -0.049 OA 
BRANCH  14  18
HETATM   18  C   UNL     1      -9.336   8.695  66.063  1.00  0.00    -0.218 A  
HETATM   19  C   UNL     1      -9.302   9.591  64.995  1.00  0.00    -0.294 A  
HETATM   20  C   UNL     1      -9.679  10.932  65.155  1.00  0.00    -0.312 A  
HETATM   21  C   UNL     1     -10.117  11.435  66.385  1.00  0.00    -0.218 A  
HETATM   22  C   UNL     1      -9.796   9.185  67.290  1.00  0.00    -0.244 A  
HETATM   23  C   UNL     1     -10.195  10.525  67.444  1.00  0.00    -0.253 A  
BRANCH  21  24
HETATM   24  N   UNL     1     -10.366  12.836  66.553  1.00  0.00    -0.248 N  
HETATM   25  C   UNL     1     -11.611  13.447  66.084  1.00  0.00    -0.346 C  
HETATM   26  C   UNL     1     -12.187  14.408  67.121  1.00  0.00    -0.222 C  
HETATM   27  O   UNL     1     -11.240  15.437  67.395  1.00  0.00    -0.328 OA 
HETATM   28  C   UNL     1     -10.038  14.877  67.899  1.00  0.00    -0.227 C  
HETATM   29  C   UNL     1      -9.415  13.706  67.118  1.00  0.00    -0.244 C  
HETATM   30  O   UNL     1      -8.197  13.533  67.126  1.00  0.00    -0.178 OA 
ENDBRANCH  21  24
ENDBRANCH  14  18
ENDBRANCH  11  12
ENDBRANCH   8  11
ENDBRANCH   5   7
TORSDOF 5
ENDMDL
MODEL      138
REMARK 921   NORMALIZED FREE ENERGY PREDICTED BY IDOCK:   -3.96 KCAL/MOL
REMARK 922        TOTAL FREE ENERGY PREDICTED BY IDOCK:   -5.68 KCAL/MOL
REMARK 923 INTER-LIGAND FREE ENERGY PREDICTED BY IDOCK:   -5.70 KCAL/MOL
REMARK 924 INTRA-LIGAND FREE ENERGY PREDICTED BY IDOCK:    0.02 KCAL/MOL
REMARK 927      BINDING AFFINITY PREDICTED BY RF-SCORE:    0.00 PKD
ROOT
HETATM    1 CL   UNL     1     -14.284   7.476  71.617  1.00  0.00    -0.563 Cl 
HETATM    2  C   UNL     1     -12.744   6.728  71.460  1.00  0.00    -0.290 A  
HETATM    3  C   UNL     1     -12.321   5.591  72.093  1.00  0.00     0.530 A  
HETATM    4  C   UNL     1     -10.978   5.272  71.723  1.00  0.00    -0.143 A  
HETATM    5  C   UNL     1     -10.444   6.178  70.818  1.00  0.00    -0.230 A  
HETATM    6  S   UNL     1     -11.584   7.409  70.440  1.00  0.00    -0.125 SA 
ENDROOT
BRANCH   5   7
HETATM    7  C   UNL     1      -9.107   6.153  70.236  1.00  0.00    -0.153 C  
HETATM    8  N   UNL     1      -9.057   6.027  68.859  1.00  0.00    -0.122 N  
HETATM    9  O   UNL     1      -8.081   6.243  70.901  1.00  0.00    -0.119 OA 
HETATM   10  H   UNL     1      -9.922   5.841  68.351  1.00  0.00     0.000 HD 
BRANCH   8  11
HETATM   11  C   UNL     1      -7.817   6.150  68.110  1.00  0.00    -0.103 C  
BRANCH  11  12
HETATM   12  C   UNL     1      -7.630   7.563  67.575  1.00  0.00    -0.113 C  
HETATM   13  C   UNL     1      -8.849   8.442  67.706  1.00  0.00    -0.137 C  
HETATM   14  N   UNL     1      -8.242   9.741  67.727  1.00  0.00    -0.113 N  
HETATM   15  C   UNL     1      -6.960   9.607  68.248  1.00  0.00    -0.073 C  
HETATM   16  O   UNL     1      -6.650   8.268  68.352  1.00  0.00    -0.057 OA 
HETATM   17  O   UNL     1      -6.168  10.468  68.597  1.00  0.00    -0.046 OA 
BRANCH  14  18
HETATM   18  C   UNL     1      -8.882  10.936  67.315  1.00  0.00    -0.134 A  
HETATM   19  C   UNL     1     -10.164  10.925  66.769  1.00  0.00    -0.277 A  
HETATM   20  C   UNL     1     -10.797  12.110  66.365  1.00  0.00    -0.306 A  
HETATM   21  C   UNL     1     -10.181  13.359  66.498  1.00  0.00    -0.282 A  
HETATM   22  C   UNL     1      -8.269  12.184  67.474  1.00  0.00    -0.167 A  
HETATM   23  C   UNL     1      -8.913  13.374  67.088  1.00  0.00    -0.227 A  
BRANCH  21  24
HETATM   24  N   UNL     1     -10.791  14.536  65.954  1.00  0.00    -0.299 N  
HETATM   25  C   UNL     1     -10.738  15.815  66.663  1.00  0.00    -0.287 C  
HETATM   26  C   UNL     1     -10.404  16.965  65.718  1.00  0.00    -0.283 C  
HETATM   27  O   UNL     1     -11.392  17.044  64.694  1.00  0.00    -0.889 OA 
HETATM   28  C   UNL     1     -11.431  15.833  63.956  1.00  0.00     0.126 C  
HETATM   29  C   UNL     1     -11.518  14.517  64.749  1.00  0.00    -0.408 C  
HETATM   30  O   UNL     1     -12.085  13.537  64.266  1.00  0.00    -0.412 OA 
ENDBRANCH  21  24
ENDBRANCH  14  18
ENDBRANCH  11  12
ENDBRANCH   8  11
ENDBRANCH   5   7
TORSDOF 5
ENDMDL
MODEL      139
REMARK 921   NORMALIZED FREE ENERGY PREDICTED BY IDOCK:   -3.94 KCAL/MOL
REMARK 922        TOTAL FREE ENERGY PREDICTED BY IDOCK:   -5.65 KCAL/MOL
REMARK 923 INTER-LIGAND FREE ENERGY PREDICTED BY IDOCK:   -5.28 KCAL/MOL
REMARK 924 INTRA-LIGAND FREE ENERGY PREDICTED BY IDOCK:   -0.37 KCAL/MOL
REMARK 927      BINDING AFFINITY PREDICTED BY RF-SCORE:    0.00 PKD
ROOT
HETATM    1 CL   UNL     1     -11.053  13.222  66.612  1.00  0.00    -0.300 Cl 
HETATM    2  C   UNL     1     -11.470  12.493  68.113  1.00  0.00    -0.319 A  
HETATM    3  C   UNL     1     -12.260  13.033  69.091  1.00  0.00    -0.106 A  
HETATM    4  C   UNL     1     -12.380  12.141  70.200  1.00  0.00    -0.219 A  
HETATM    5  C   UNL     1     -11.681  10.957  70.011  1.00  0.00    -0.345 A  
HETATM    6  S   UNL     1     -10.881  10.956  68.489  1.00  0.00    -0.242 SA 
ENDROOT
BRANCH   5   7
HETATM    7  C   UNL     1     -11.588   9.835  70.938  1.00  0.00    -0.361 C  
HETATM    8  N   UNL     1     -12.590   8.886  70.830  1.00  0.00    -0.487 N  
HETATM    9  O   UNL     1     -10.687   9.714  71.761  1.00  0.00    -0.160 OA 
HETATM   10  H   UNL     1     -13.381   9.076  70.214  1.00  0.00     0.000 HD 
BRANCH   8  11
HETATM   11  C   UNL     1     -12.556   7.631  71.561  1.00  0.00    -0.343 C  
BRANCH  11  12
HETATM   12  C   UNL     1     -12.024   6.498  70.693  1.00  0.00    -0.280 C  
HETATM   13  C   UNL     1     -11.028   6.933  69.648  1.00  0.00    -0.259 C  
HETATM   14  N   UNL     1     -10.295   5.716  69.452  1.00  0.00    -0.246 N  
HETATM   15  C   UNL     1     -10.353   4.985  70.634  1.00  0.00    -0.208 C  
HETATM   16  O   UNL     1     -11.263   5.574  71.487  1.00  0.00    -0.174 OA 
HETATM   17  O   UNL     1      -9.736   3.985  70.962  1.00  0.00    -0.167 OA 
BRANCH  14  18
HETATM   18  C   UNL     1      -9.612   5.369  68.260  1.00  0.00    -0.125 A  
HETATM   19  C   UNL     1     -10.128   5.688  67.005  1.00  0.00    -0.223 A  
HETATM   20  C   UNL     1      -9.449   5.347  65.827  1.00  0.00    -0.104 A  
HETATM   21  C   UNL     1      -8.218   4.681  65.850  1.00  0.00    -0.111 A  
HETATM   22  C   UNL     1      -8.370   4.726  68.292  1.00  0.00    -0.091 A  
HETATM   23  C   UNL     1      -7.679   4.403  67.110  1.00  0.00    -0.089 A  
BRANCH  21  24
HETATM   24  N   UNL     1      -7.613   4.225  64.634  1.00  0.00    -0.076 N  
HETATM   25  C   UNL     1      -7.012   5.166  63.687  1.00  0.00    -0.047 C  
HETATM   26  C   UNL     1      -5.664   4.663  63.178  1.00  0.00    -0.017 C  
HETATM   27  O   UNL     1      -5.836   3.402  62.535  1.00  0.00    -0.012 OA 
HETATM   28  C   UNL     1      -6.371   2.456  63.447  1.00  0.00    -0.014 C  
HETATM   29  C   UNL     1      -7.611   2.869  64.258  1.00  0.00    -0.075 C  
HETATM   30  O   UNL     1      -8.430   2.023  64.615  1.00  0.00    -0.082 OA 
ENDBRANCH  21  24
ENDBRANCH  14  18
ENDBRANCH  11  12
ENDBRANCH   8  11
ENDBRANCH   5   7
TORSDOF 5
ENDMDL
MODEL      140
REMARK 921   NORMALIZED FREE ENERGY PREDICTED BY IDOCK:   -3.72 KCAL/MOL
REMARK 922        TOTAL FREE ENERGY PREDICTED BY IDOCK:   -5.37 KCAL/MOL
REMARK 923 INTER-LIGAND FREE ENERGY PREDICTED BY IDOCK:   -4.60 KCAL/MOL
REMARK 924 INTRA-LIGAND FREE ENERGY PREDICTED BY IDOCK:   -0.77 KCAL/MOL
REMARK 927      BINDING AFFINITY PREDICTED BY RF-SCORE:    0.00 PKD
ROOT
HETATM    1 CL   UNL     1     -10.428  17.384  66.428  1.00  0.00    -0.305 Cl 
HETATM    2  C   UNL     1      -8.983  16.586  66.911  1.00  0.00    -0.219 A  
HETATM    3  C   UNL     1      -7.760  17.166  67.113  1.00  0.00    -0.205 A  
HETATM    4  C   UNL     1      -6.792  16.189  67.502  1.00  0.00    -0.194 A  
HETATM    5  C   UNL     1      -7.327  14.912  67.586  1.00  0.00    -0.187 A  
HETATM    6  S   UNL     1      -8.998  14.920  67.180  1.00  0.00    -0.226 SA 
ENDROOT
BRANCH   5   7
HETATM    7  C   UNL     1      -6.623  13.688  67.954  1.00  0.00    -0.155 C  
HETATM    8  N   UNL     1      -6.904  13.192  69.215  1.00  0.00    -0.257 N  
HETATM    9  O   UNL     1      -5.837  13.113  67.208  1.00  0.00    -0.343 OA 
HETATM   10  H   UNL     1      -7.473  13.754  69.847  1.00  0.00     0.000 HD 
BRANCH   8  11
HETATM   11  C   UNL     1      -6.416  11.901  69.670  1.00  0.00    -0.101 C  
BRANCH  11  12
HETATM   12  C   UNL     1      -7.430  10.798  69.397  1.00  0.00    -0.124 C  
HETATM   13  C   UNL     1      -6.938   9.721  68.462  1.00  0.00    -0.064 C  
HETATM   14  N   UNL     1      -7.759   8.618  68.868  1.00  0.00    -0.098 N  
HETATM   15  C   UNL     1      -8.093   8.801  70.206  1.00  0.00    -0.116 C  
HETATM   16  O   UNL     1      -7.710  10.065  70.600  1.00  0.00    -0.268 OA 
HETATM   17  O   UNL     1      -8.626   8.030  70.986  1.00  0.00    -0.125 OA 
BRANCH  14  18
HETATM   18  C   UNL     1      -8.115   7.529  68.034  1.00  0.00    -0.124 A  
HETATM   19  C   UNL     1      -9.423   7.356  67.581  1.00  0.00    -0.156 A  
HETATM   20  C   UNL     1      -9.773   6.280  66.754  1.00  0.00    -0.193 A  
HETATM   21  C   UNL     1      -8.831   5.334  66.332  1.00  0.00    -0.123 A  
HETATM   22  C   UNL     1      -7.163   6.602  67.597  1.00  0.00    -0.090 A  
HETATM   23  C   UNL     1      -7.511   5.534  66.749  1.00  0.00    -0.087 A  
BRANCH  21  24
HETATM   24  N   UNL     1      -9.241   4.172  65.601  1.00  0.00    -0.139 N  
HETATM   25  C   UNL     1      -9.706   4.273  64.216  1.00  0.00    -0.104 C  
HETATM   26  C   UNL     1      -9.101   3.178  63.342  1.00  0.00    -0.091 C  
HETATM   27  O   UNL     1      -9.460   1.900  63.861  1.00  0.00    -0.113 OA 
HETATM   28  C   UNL     1      -8.977   1.755  65.187  1.00  0.00    -0.124 C  
HETATM   29  C   UNL     1      -9.274   2.891  66.182  1.00  0.00    -0.094 C  
HETATM   30  O   UNL     1      -9.400   2.648  67.382  1.00  0.00    -0.176 OA 
ENDBRANCH  21  24
ENDBRANCH  14  18
ENDBRANCH  11  12
ENDBRANCH   8  11
ENDBRANCH   5   7
TORSDOF 5
ENDMDL
MODEL      141
REMARK 921   NORMALIZED FREE ENERGY PREDICTED BY IDOCK:   -3.70 KCAL/MOL
REMARK 922        TOTAL FREE ENERGY PREDICTED BY IDOCK:   -5.34 KCAL/MOL
REMARK 923 INTER-LIGAND FREE ENERGY PREDICTED BY IDOCK:   -4.53 KCAL/MOL
REMARK 924 INTRA-LIGAND FREE ENERGY PREDICTED BY IDOCK:   -0.81 KCAL/MOL
REMARK 927      BINDING AFFINITY PREDICTED BY RF-SCORE:    0.00 PKD
ROOT
HETATM    1 CL   UNL     1     -11.699  16.412  64.330  1.00  0.00    -0.093 Cl 
HETATM    2  C   UNL     1     -10.490  16.839  65.477  1.00  0.00    -0.237 A  
HETATM    3  C   UNL     1     -10.320  18.063  66.066  1.00  0.00    -0.333 A  
HETATM    4  C   UNL     1      -9.208  18.046  66.962  1.00  0.00    -0.265 A  
HETATM    5  C   UNL     1      -8.587  16.807  67.019  1.00  0.00    -0.209 A  
HETATM    6  S   UNL     1      -9.363  15.685  65.973  1.00  0.00    -0.330 SA 
ENDROOT
BRANCH   5   7
HETATM    7  C   UNL     1      -7.428  16.442  67.827  1.00  0.00    -0.142 C  
HETATM    8  N   UNL     1      -7.323  15.101  68.151  1.00  0.00    -0.105 N  
HETATM    9  O   UNL     1      -6.585  17.252  68.200  1.00  0.00    -0.157 OA 
HETATM   10  H   UNL     1      -8.098  14.478  67.921  1.00  0.00     0.000 HD 
BRANCH   8  11
HETATM   11  C   UNL     1      -6.150  14.547  68.806  1.00  0.00    -0.087 C  
BRANCH  11  12
HETATM   12  C   UNL     1      -6.033  13.048  68.561  1.00  0.00    -0.075 C  
HETATM   13  C   UNL     1      -7.302  12.277  68.825  1.00  0.00    -0.083 C  
HETATM   14  N   UNL     1      -7.104  11.137  67.977  1.00  0.00    -0.072 N  
HETATM   15  C   UNL     1      -6.289  11.526  66.918  1.00  0.00    -0.146 C  
HETATM   16  O   UNL     1      -5.789  12.786  67.171  1.00  0.00    -0.323 OA 
HETATM   17  O   UNL     1      -6.012  10.930  65.891  1.00  0.00    -0.133 OA 
BRANCH  14  18
HETATM   18  C   UNL     1      -7.683   9.862  68.192  1.00  0.00    -0.082 A  
HETATM   19  C   UNL     1      -6.992   8.851  68.857  1.00  0.00    -0.065 A  
HETATM   20  C   UNL     1      -7.568   7.590  69.071  1.00  0.00    -0.108 A  
HETATM   21  C   UNL     1      -8.865   7.288  68.641  1.00  0.00    -0.129 A  
HETATM   22  C   UNL     1      -8.989   9.575  67.780  1.00  0.00    -0.126 A  
HETATM   23  C   UNL     1      -9.575   8.317  68.015  1.00  0.00    -0.171 A  
BRANCH  21  24
HETATM   24  N   UNL     1      -9.378   5.955  68.751  1.00  0.00    -0.121 N  
HETATM   25  C   UNL     1      -9.644   5.144  67.562  1.00  0.00    -0.140 C  
HETATM   26  C   UNL     1      -9.137   3.715  67.734  1.00  0.00    -0.156 C  
HETATM   27  O   UNL     1      -9.774   3.114  68.858  1.00  0.00    -0.087 OA 
HETATM   28  C   UNL     1      -9.491   3.852  70.036  1.00  0.00    -0.192 C  
HETATM   29  C   UNL     1      -9.705   5.375  69.991  1.00  0.00    -0.185 C  
HETATM   30  O   UNL     1     -10.018   5.988  71.011  1.00  0.00    -0.180 OA 
ENDBRANCH  21  24
ENDBRANCH  14  18
ENDBRANCH  11  12
ENDBRANCH   8  11
ENDBRANCH   5   7
TORSDOF 5
ENDMDL
MODEL      142
REMARK 921   NORMALIZED FREE ENERGY PREDICTED BY IDOCK:   -3.61 KCAL/MOL
REMARK 922        TOTAL FREE ENERGY PREDICTED BY IDOCK:   -5.22 KCAL/MOL
REMARK 923 INTER-LIGAND FREE ENERGY PREDICTED BY IDOCK:   -4.54 KCAL/MOL
REMARK 924 INTRA-LIGAND FREE ENERGY PREDICTED BY IDOCK:   -0.69 KCAL/MOL
REMARK 927      BINDING AFFINITY PREDICTED BY RF-SCORE:    0.00 PKD
ROOT
HETATM    1 CL   UNL     1     -13.224   9.698  72.549  1.00  0.00    -0.392 Cl 
HETATM    2  C   UNL     1     -12.032   8.918  71.586  1.00  0.00    -0.345 A  
HETATM    3  C   UNL     1     -11.326   7.793  71.914  1.00  0.00    -0.315 A  
HETATM    4  C   UNL     1     -10.418   7.439  70.870  1.00  0.00    -0.225 A  
HETATM    5  C   UNL     1     -10.481   8.308  69.790  1.00  0.00    -0.220 A  
HETATM    6  S   UNL     1     -11.639   9.547  70.070  1.00  0.00     0.036 SA 
ENDROOT
BRANCH   5   7
HETATM    7  C   UNL     1      -9.696   8.240  68.562  1.00  0.00    -0.156 C  
HETATM    8  N   UNL     1      -9.749   9.364  67.757  1.00  0.00    -0.147 N  
HETATM    9  O   UNL     1      -9.019   7.267  68.248  1.00  0.00    -0.127 OA 
HETATM   10  H   UNL     1     -10.408  10.106  67.992  1.00  0.00     0.000 HD 
BRANCH   8  11
HETATM   11  C   UNL     1      -8.901   9.525  66.587  1.00  0.00    -0.135 C  
BRANCH  11  12
HETATM   12  C   UNL     1      -7.904  10.660  66.777  1.00  0.00    -0.126 C  
HETATM   13  C   UNL     1      -8.535  11.990  67.107  1.00  0.00    -0.180 C  
HETATM   14  N   UNL     1      -7.456  12.634  67.797  1.00  0.00    -0.117 N  
HETATM   15  C   UNL     1      -6.672  11.647  68.386  1.00  0.00    -0.064 C  
HETATM   16  O   UNL     1      -7.075  10.413  67.923  1.00  0.00    -0.081 OA 
HETATM   17  O   UNL     1      -5.766  11.753  69.196  1.00  0.00    -0.054 OA 
BRANCH  14  18
HETATM   18  C   UNL     1      -7.272  14.037  67.876  1.00  0.00    -0.159 A  
HETATM   19  C   UNL     1      -6.055  14.632  67.546  1.00  0.00     0.032 A  
HETATM   20  C   UNL     1      -5.877  16.021  67.622  1.00  0.00    -0.174 A  
HETATM   21  C   UNL     1      -6.909  16.878  68.019  1.00  0.00    -0.148 A  
HETATM   22  C   UNL     1      -8.316  14.890  68.251  1.00  0.00    -0.148 A  
HETATM   23  C   UNL     1      -8.143  16.285  68.305  1.00  0.00    -0.167 A  
BRANCH  21  24
HETATM   24  N   UNL     1      -6.661  18.276  68.218  1.00  0.00    -0.211 N  
HETATM   25  C   UNL     1      -7.069  19.267  67.222  1.00  0.00    -0.203 C  
HETATM   26  C   UNL     1      -7.723  20.481  67.876  1.00  0.00    -0.128 C  
HETATM   27  O   UNL     1      -6.806  21.086  68.784  1.00  0.00     0.145 OA 
HETATM   28  C   UNL     1      -6.432  20.161  69.792  1.00  0.00    -0.291 C  
HETATM   29  C   UNL     1      -5.969  18.764  69.342  1.00  0.00    -0.251 C  
HETATM   30  O   UNL     1      -5.151  18.134  70.012  1.00  0.00    -0.182 OA 
ENDBRANCH  21  24
ENDBRANCH  14  18
ENDBRANCH  11  12
ENDBRANCH   8  11
ENDBRANCH   5   7
TORSDOF 5
ENDMDL
MODEL      143
REMARK 921   NORMALIZED FREE ENERGY PREDICTED BY IDOCK:   -3.59 KCAL/MOL
REMARK 922        TOTAL FREE ENERGY PREDICTED BY IDOCK:   -5.20 KCAL/MOL
REMARK 923 INTER-LIGAND FREE ENERGY PREDICTED BY IDOCK:   -5.01 KCAL/MOL
REMARK 924 INTRA-LIGAND FREE ENERGY PREDICTED BY IDOCK:   -0.19 KCAL/MOL
REMARK 927      BINDING AFFINITY PREDICTED BY RF-SCORE:    0.00 PKD
ROOT
HETATM    1 CL   UNL     1      -6.491   2.694  73.836  1.00  0.00    -0.020 Cl 
HETATM    2  C   UNL     1      -7.951   3.581  73.642  1.00  0.00    -0.074 A  
HETATM    3  C   UNL     1      -8.973   3.677  74.547  1.00  0.00    -0.100 A  
HETATM    4  C   UNL     1     -10.028   4.495  74.038  1.00  0.00    -0.199 A  
HETATM    5  C   UNL     1      -9.756   4.991  72.772  1.00  0.00    -0.150 A  
HETATM    6  S   UNL     1      -8.223   4.444  72.217  1.00  0.00    -0.109 SA 
ENDROOT
BRANCH   5   7
HETATM    7  C   UNL     1     -10.611   5.853  71.964  1.00  0.00    -0.221 C  
HETATM    8  N   UNL     1     -10.554   5.642  70.598  1.00  0.00    -0.273 N  
HETATM    9  O   UNL     1     -11.347   6.711  72.443  1.00  0.00    -0.258 OA 
HETATM   10  H   UNL     1      -9.851   5.001  70.229  1.00  0.00     0.000 HD 
BRANCH   8  11
HETATM   11  C   UNL     1     -11.459   6.299  69.670  1.00  0.00    -0.355 C  
BRANCH  11  12
HETATM   12  C   UNL     1     -10.709   7.243  68.739  1.00  0.00    -0.139 C  
HETATM   13  C   UNL     1     -10.689   8.680  69.198  1.00  0.00    -0.118 C  
HETATM   14  N   UNL     1      -9.498   9.150  68.552  1.00  0.00    -0.145 N  
HETATM   15  C   UNL     1      -8.640   8.067  68.390  1.00  0.00    -0.127 C  
HETATM   16  O   UNL     1      -9.314   6.905  68.700  1.00  0.00    -0.137 OA 
HETATM   17  O   UNL     1      -7.470   8.046  68.047  1.00  0.00    -0.093 OA 
BRANCH  14  18
HETATM   18  C   UNL     1      -9.257  10.499  68.189  1.00  0.00    -0.148 A  
HETATM   19  C   UNL     1     -10.174  11.225  67.431  1.00  0.00    -0.217 A  
HETATM   20  C   UNL     1      -9.935  12.560  67.076  1.00  0.00    -0.217 A  
HETATM   21  C   UNL     1      -8.774  13.233  67.472  1.00  0.00    -0.202 A  
HETATM   22  C   UNL     1      -8.106  11.173  68.610  1.00  0.00    -0.150 A  
HETATM   23  C   UNL     1      -7.876  12.520  68.272  1.00  0.00    -0.144 A  
BRANCH  21  24
HETATM   24  N   UNL     1      -8.492  14.550  66.983  1.00  0.00    -0.215 N  
HETATM   25  C   UNL     1      -9.237  15.117  65.858  1.00  0.00    -0.158 C  
HETATM   26  C   UNL     1      -9.637  16.565  66.125  1.00  0.00    -0.315 C  
HETATM   27  O   UNL     1      -8.469  17.350  66.350  1.00  0.00    -0.250 OA 
HETATM   28  C   UNL     1      -7.753  16.853  67.469  1.00  0.00    -0.169 C  
HETATM   29  C   UNL     1      -7.457  15.344  67.513  1.00  0.00    -0.189 C  
HETATM   30  O   UNL     1      -6.448  14.924  68.080  1.00  0.00    -0.122 OA 
ENDBRANCH  21  24
ENDBRANCH  14  18
ENDBRANCH  11  12
ENDBRANCH   8  11
ENDBRANCH   5   7
TORSDOF 5
ENDMDL
MODEL      144
REMARK 921   NORMALIZED FREE ENERGY PREDICTED BY IDOCK:   -3.43 KCAL/MOL
REMARK 922        TOTAL FREE ENERGY PREDICTED BY IDOCK:   -4.99 KCAL/MOL
REMARK 923 INTER-LIGAND FREE ENERGY PREDICTED BY IDOCK:   -4.63 KCAL/MOL
REMARK 924 INTRA-LIGAND FREE ENERGY PREDICTED BY IDOCK:   -0.35 KCAL/MOL
REMARK 927      BINDING AFFINITY PREDICTED BY RF-SCORE:    0.00 PKD
ROOT
HETATM    1 CL   UNL     1      -7.730  20.504  66.568  1.00  0.00    -0.235 Cl 
HETATM    2  C   UNL     1      -8.373  18.909  66.556  1.00  0.00    -0.302 A  
HETATM    3  C   UNL     1      -7.844  17.811  67.179  1.00  0.00    -0.229 A  
HETATM    4  C   UNL     1      -8.649  16.655  66.943  1.00  0.00    -0.240 A  
HETATM    5  C   UNL     1      -9.759  16.928  66.157  1.00  0.00    -0.272 A  
HETATM    6  S   UNL     1      -9.799  18.588  65.711  1.00  0.00     0.364 SA 
ENDROOT
BRANCH   5   7
HETATM    7  C   UNL     1     -10.784  15.983  65.727  1.00  0.00    -0.301 C  
HETATM    8  N   UNL     1     -11.444  15.313  66.741  1.00  0.00    -0.199 N  
HETATM    9  O   UNL     1     -11.065  15.786  64.549  1.00  0.00    -0.415 OA 
HETATM   10  H   UNL     1     -11.108  15.419  67.699  1.00  0.00     0.000 HD 
BRANCH   8  11
HETATM   11  C   UNL     1     -12.598  14.465  66.493  1.00  0.00     0.044 C  
BRANCH  11  12
HETATM   12  C   UNL     1     -12.348  13.037  66.963  1.00  0.00     0.028 C  
HETATM   13  C   UNL     1     -11.036  12.454  66.501  1.00  0.00    -0.301 C  
HETATM   14  N   UNL     1     -10.807  11.471  67.519  1.00  0.00    -0.222 N  
HETATM   15  C   UNL     1     -11.433  11.904  68.683  1.00  0.00    -0.294 C  
HETATM   16  O   UNL     1     -12.224  12.995  68.393  1.00  0.00    -0.223 OA 
HETATM   17  O   UNL     1     -11.352  11.468  69.819  1.00  0.00    -0.266 OA 
BRANCH  14  18
HETATM   18  C   UNL     1     -10.039  10.293  67.345  1.00  0.00    -0.202 A  
HETATM   19  C   UNL     1     -10.632   9.031  67.340  1.00  0.00    -0.309 A  
HETATM   20  C   UNL     1      -9.871   7.866  67.164  1.00  0.00    -0.273 A  
HETATM   21  C   UNL     1      -8.485   7.911  66.973  1.00  0.00    -0.124 A  
HETATM   22  C   UNL     1      -8.658  10.347  67.130  1.00  0.00    -0.130 A  
HETATM   23  C   UNL     1      -7.898   9.179  66.931  1.00  0.00    -0.098 A  
BRANCH  21  24
HETATM   24  N   UNL     1      -7.715   6.703  66.931  1.00  0.00    -0.104 N  
HETATM   25  C   UNL     1      -6.642   6.522  65.952  1.00  0.00    -0.044 C  
HETATM   26  C   UNL     1      -5.397   5.916  66.593  1.00  0.00    -0.009 C  
HETATM   27  O   UNL     1      -5.722   4.651  67.166  1.00  0.00    -0.020 OA 
HETATM   28  C   UNL     1      -6.726   4.805  68.156  1.00  0.00    -0.054 C  
HETATM   29  C   UNL     1      -7.980   5.613  67.781  1.00  0.00    -0.098 C  
HETATM   30  O   UNL     1      -9.065   5.354  68.302  1.00  0.00    -0.108 OA 
ENDBRANCH  21  24
ENDBRANCH  14  18
ENDBRANCH  11  12
ENDBRANCH   8  11
ENDBRANCH   5   7
TORSDOF 5
ENDMDL
MODEL      145
REMARK 921   NORMALIZED FREE ENERGY PREDICTED BY IDOCK:   -3.42 KCAL/MOL
REMARK 922        TOTAL FREE ENERGY PREDICTED BY IDOCK:   -4.98 KCAL/MOL
REMARK 923 INTER-LIGAND FREE ENERGY PREDICTED BY IDOCK:   -5.03 KCAL/MOL
REMARK 924 INTRA-LIGAND FREE ENERGY PREDICTED BY IDOCK:    0.05 KCAL/MOL
REMARK 927      BINDING AFFINITY PREDICTED BY RF-SCORE:    0.00 PKD
ROOT
HETATM    1 CL   UNL     1     -11.102   3.724  73.268  1.00  0.00    -0.286 Cl 
HETATM    2  C   UNL     1      -9.718   4.263  72.402  1.00  0.00    -0.151 A  
HETATM    3  C   UNL     1      -8.976   5.382  72.664  1.00  0.00    -0.133 A  
HETATM    4  C   UNL     1      -7.903   5.511  71.729  1.00  0.00    -0.112 A  
HETATM    5  C   UNL     1      -7.873   4.478  70.804  1.00  0.00    -0.064 A  
HETATM    6  S   UNL     1      -9.160   3.372  71.081  1.00  0.00    -0.122 SA 
ENDROOT
BRANCH   5   7
HETATM    7  C   UNL     1      -6.917   4.301  69.716  1.00  0.00    -0.042 C  
HETATM    8  N   UNL     1      -7.378   4.632  68.455  1.00  0.00    -0.064 N  
HETATM    9  O   UNL     1      -5.772   3.895  69.886  1.00  0.00    -0.016 OA 
HETATM   10  H   UNL     1      -8.366   4.857  68.337  1.00  0.00     0.000 HD 
BRANCH   8  11
HETATM   11  C   UNL     1      -6.507   4.670  67.292  1.00  0.00    -0.045 C  
BRANCH  11  12
HETATM   12  C   UNL     1      -6.477   6.059  66.667  1.00  0.00    -0.050 C  
HETATM   13  C   UNL     1      -7.786   6.803  66.748  1.00  0.00    -0.107 C  
HETATM   14  N   UNL     1      -7.327   8.160  66.683  1.00  0.00    -0.081 N  
HETATM   15  C   UNL     1      -6.038   8.203  67.206  1.00  0.00    -0.054 C  
HETATM   16  O   UNL     1      -5.582   6.916  67.393  1.00  0.00    -0.012 OA 
HETATM   17  O   UNL     1      -5.348   9.166  67.495  1.00  0.00    -0.037 OA 
BRANCH  14  18
HETATM   18  C   UNL     1      -8.094   9.249  66.199  1.00  0.00    -0.110 A  
HETATM   19  C   UNL     1      -9.285   9.048  65.503  1.00  0.00    -0.262 A  
HETATM   20  C   UNL     1     -10.044  10.127  65.028  1.00  0.00    -0.305 A  
HETATM   21  C   UNL     1      -9.654  11.454  65.235  1.00  0.00    -0.228 A  
HETATM   22  C   UNL     1      -7.710  10.574  66.432  1.00  0.00    -0.135 A  
HETATM   23  C   UNL     1      -8.483  11.656  65.973  1.00  0.00     0.059 A  
BRANCH  21  24
HETATM   24  N   UNL     1     -10.374  12.531  64.624  1.00  0.00    -0.310 N  
HETATM   25  C   UNL     1     -11.169  12.320  63.413  1.00  0.00    -0.420 C  
HETATM   26  C   UNL     1     -12.527  13.011  63.508  1.00  0.00    -0.300 C  
HETATM   27  O   UNL     1     -12.338  14.411  63.701  1.00  0.00    -0.722 OA 
HETATM   28  C   UNL     1     -11.612  14.647  64.897  1.00  0.00    -0.405 C  
HETATM   29  C   UNL     1     -10.314  13.850  65.112  1.00  0.00    -0.383 C  
HETATM   30  O   UNL     1      -9.388  14.334  65.763  1.00  0.00    -0.135 OA 
ENDBRANCH  21  24
ENDBRANCH  14  18
ENDBRANCH  11  12
ENDBRANCH   8  11
ENDBRANCH   5   7
TORSDOF 5
ENDMDL
MODEL      146
REMARK 921   NORMALIZED FREE ENERGY PREDICTED BY IDOCK:   -3.35 KCAL/MOL
REMARK 922        TOTAL FREE ENERGY PREDICTED BY IDOCK:   -4.89 KCAL/MOL
REMARK 923 INTER-LIGAND FREE ENERGY PREDICTED BY IDOCK:   -4.99 KCAL/MOL
REMARK 924 INTRA-LIGAND FREE ENERGY PREDICTED BY IDOCK:    0.11 KCAL/MOL
REMARK 927      BINDING AFFINITY PREDICTED BY RF-SCORE:    0.00 PKD
ROOT
HETATM    1 CL   UNL     1      -6.820  19.635  66.911  1.00  0.00    -0.208 Cl 
HETATM    2  C   UNL     1      -7.438  18.031  66.960  1.00  0.00    -0.207 A  
HETATM    3  C   UNL     1      -6.984  17.006  67.745  1.00  0.00    -0.159 A  
HETATM    4  C   UNL     1      -7.737  15.814  67.511  1.00  0.00    -0.186 A  
HETATM    5  C   UNL     1      -8.735  15.991  66.564  1.00  0.00    -0.303 A  
HETATM    6  S   UNL     1      -8.733  17.603  65.967  1.00  0.00     0.085 SA 
ENDROOT
BRANCH   5   7
HETATM    7  C   UNL     1      -9.682  14.987  66.090  1.00  0.00    -0.306 C  
HETATM    8  N   UNL     1     -10.563  14.500  67.040  1.00  0.00    -0.276 N  
HETATM    9  O   UNL     1      -9.719  14.592  64.930  1.00  0.00    -0.071 OA 
HETATM   10  H   UNL     1     -10.429  14.767  68.015  1.00  0.00     0.000 HD 
BRANCH   8  11
HETATM   11  C   UNL     1     -11.670  13.623  66.698  1.00  0.00    -0.388 C  
BRANCH  11  12
HETATM   12  C   UNL     1     -11.642  12.345  67.526  1.00  0.00    -0.365 C  
HETATM   13  C   UNL     1     -10.277  11.713  67.644  1.00  0.00    -0.188 C  
HETATM   14  N   UNL     1     -10.422  10.990  68.873  1.00  0.00    -0.196 N  
HETATM   15  C   UNL     1     -11.363  11.654  69.653  1.00  0.00    -0.236 C  
HETATM   16  O   UNL     1     -11.976  12.627  68.894  1.00  0.00    -0.302 OA 
HETATM   17  O   UNL     1     -11.662  11.484  70.824  1.00  0.00    -0.204 OA 
BRANCH  14  18
HETATM   18  C   UNL     1      -9.689   9.827  69.216  1.00  0.00    -0.196 A  
HETATM   19  C   UNL     1      -8.983   9.102  68.256  1.00  0.00    -0.129 A  
HETATM   20  C   UNL     1      -8.256   7.953  68.598  1.00  0.00    -0.127 A  
HETATM   21  C   UNL     1      -8.191   7.483  69.914  1.00  0.00    -0.131 A  
HETATM   22  C   UNL     1      -9.609   9.377  70.538  1.00  0.00    -0.330 A  
HETATM   23  C   UNL     1      -8.861   8.236  70.883  1.00  0.00    -0.171 A  
BRANCH  21  24
HETATM   24  N   UNL     1      -7.555   6.234  70.213  1.00  0.00    -0.094 N  
HETATM   25  C   UNL     1      -7.072   5.356  69.147  1.00  0.00    -0.057 C  
HETATM   26  C   UNL     1      -5.683   4.805  69.462  1.00  0.00    -0.016 C  
HETATM   27  O   UNL     1      -5.726   4.072  70.684  1.00  0.00    -0.012 OA 
HETATM   28  C   UNL     1      -6.144   4.914  71.746  1.00  0.00    -0.024 C  
HETATM   29  C   UNL     1      -7.412   5.759  71.530  1.00  0.00    -0.093 C  
HETATM   30  O   UNL     1      -8.130   6.057  72.484  1.00  0.00    -0.105 OA 
ENDBRANCH  21  24
ENDBRANCH  14  18
ENDBRANCH  11  12
ENDBRANCH   8  11
ENDBRANCH   5   7
TORSDOF 5
ENDMDL
MODEL      147
REMARK 921   NORMALIZED FREE ENERGY PREDICTED BY IDOCK:   -3.23 KCAL/MOL
REMARK 922        TOTAL FREE ENERGY PREDICTED BY IDOCK:   -4.73 KCAL/MOL
REMARK 923 INTER-LIGAND FREE ENERGY PREDICTED BY IDOCK:   -4.01 KCAL/MOL
REMARK 924 INTRA-LIGAND FREE ENERGY PREDICTED BY IDOCK:   -0.72 KCAL/MOL
REMARK 927      BINDING AFFINITY PREDICTED BY RF-SCORE:    0.00 PKD
ROOT
HETATM    1 CL   UNL     1      -6.494   3.143  73.857  1.00  0.00    -0.027 Cl 
HETATM    2  C   UNL     1      -6.580   3.822  72.279  1.00  0.00    -0.018 A  
HETATM    3  C   UNL     1      -6.978   5.091  71.958  1.00  0.00    -0.066 A  
HETATM    4  C   UNL     1      -6.927   5.298  70.546  1.00  0.00    -0.052 A  
HETATM    5  C   UNL     1      -6.484   4.178  69.857  1.00  0.00    -0.032 A  
HETATM    6  S   UNL     1      -6.147   2.887  70.942  1.00  0.00    -0.019 SA 
ENDROOT
BRANCH   5   7
HETATM    7  C   UNL     1      -6.314   4.044  68.415  1.00  0.00    -0.036 C  
HETATM    8  N   UNL     1      -7.480   3.868  67.690  1.00  0.00    -0.067 N  
HETATM    9  O   UNL     1      -5.222   4.090  67.858  1.00  0.00    -0.007 OA 
HETATM   10  H   UNL     1      -8.354   3.722  68.194  1.00  0.00     0.000 HD 
BRANCH   8  11
HETATM   11  C   UNL     1      -7.502   3.882  66.236  1.00  0.00    -0.084 C  
BRANCH  11  12
HETATM   12  C   UNL     1      -8.257   5.095  65.706  1.00  0.00    -0.117 C  
HETATM   13  C   UNL     1      -7.888   6.395  66.375  1.00  0.00    -0.104 C  
HETATM   14  N   UNL     1      -8.228   7.332  65.344  1.00  0.00    -0.136 N  
HETATM   15  C   UNL     1      -8.100   6.687  64.118  1.00  0.00    -0.031 C  
HETATM   16  O   UNL     1      -7.912   5.338  64.333  1.00  0.00    -0.100 OA 
HETATM   17  O   UNL     1      -8.126   7.149  62.989  1.00  0.00    -0.112 OA 
BRANCH  14  18
HETATM   18  C   UNL     1      -8.589   8.684  65.569  1.00  0.00    -0.175 A  
HETATM   19  C   UNL     1      -9.896   9.044  65.892  1.00  0.00    -0.257 A  
HETATM   20  C   UNL     1     -10.251  10.382  66.118  1.00  0.00    -0.288 A  
HETATM   21  C   UNL     1      -9.313  11.418  66.043  1.00  0.00    -0.217 A  
HETATM   22  C   UNL     1      -7.641   9.711  65.517  1.00  0.00    -0.109 A  
HETATM   23  C   UNL     1      -7.993  11.051  65.766  1.00  0.00    -0.013 A  
BRANCH  21  24
HETATM   24  N   UNL     1      -9.728  12.786  66.145  1.00  0.00    -0.260 N  
HETATM   25  C   UNL     1     -10.176  13.531  64.967  1.00  0.00    -0.325 C  
HETATM   26  C   UNL     1     -11.432  14.345  65.266  1.00  0.00    -0.350 C  
HETATM   27  O   UNL     1     -11.166  15.263  66.323  1.00  0.00    -0.316 OA 
HETATM   28  C   UNL     1     -10.777  14.564  67.494  1.00  0.00    -0.276 C  
HETATM   29  C   UNL     1      -9.674  13.500  67.356  1.00  0.00    -0.229 C  
HETATM   30  O   UNL     1      -8.920  13.261  68.299  1.00  0.00    -0.187 OA 
ENDBRANCH  21  24
ENDBRANCH  14  18
ENDBRANCH  11  12
ENDBRANCH   8  11
ENDBRANCH   5   7
TORSDOF 5
ENDMDL
MODEL      148
REMARK 921   NORMALIZED FREE ENERGY PREDICTED BY IDOCK:   -2.96 KCAL/MOL
REMARK 922        TOTAL FREE ENERGY PREDICTED BY IDOCK:   -4.39 KCAL/MOL
REMARK 923 INTER-LIGAND FREE ENERGY PREDICTED BY IDOCK:   -4.69 KCAL/MOL
REMARK 924 INTRA-LIGAND FREE ENERGY PREDICTED BY IDOCK:    0.30 KCAL/MOL
REMARK 927      BINDING AFFINITY PREDICTED BY RF-SCORE:    0.00 PKD
ROOT
HETATM    1 CL   UNL     1     -10.345  19.784  66.161  1.00  0.00    -0.598 Cl 
HETATM    2  C   UNL     1      -9.935  18.115  66.235  1.00  0.00    -0.342 A  
HETATM    3  C   UNL     1     -10.706  17.066  65.814  1.00  0.00    -0.146 A  
HETATM    4  C   UNL     1     -10.041  15.822  66.040  1.00  0.00    -0.359 A  
HETATM    5  C   UNL     1      -8.789  15.983  66.615  1.00  0.00    -0.272 A  
HETATM    6  S   UNL     1      -8.447  17.647  66.881  1.00  0.00    -0.250 SA 
ENDROOT
BRANCH   5   7
HETATM    7  C   UNL     1      -7.847  14.929  66.977  1.00  0.00    -0.094 C  
HETATM    8  N   UNL     1      -8.380  13.655  67.061  1.00  0.00    -0.380 N  
HETATM    9  O   UNL     1      -6.657  15.133  67.189  1.00  0.00    -0.285 OA 
HETATM   10  H   UNL     1      -9.391  13.540  66.989  1.00  0.00     0.000 HD 
BRANCH   8  11
HETATM   11  C   UNL     1      -7.551  12.475  67.248  1.00  0.00    -0.131 C  
BRANCH  11  12
HETATM   12  C   UNL     1      -8.374  11.198  67.145  1.00  0.00    -0.136 C  
HETATM   13  C   UNL     1      -7.649  10.043  66.499  1.00  0.00    -0.106 C  
HETATM   14  N   UNL     1      -8.351   8.932  67.072  1.00  0.00    -0.106 N  
HETATM   15  C   UNL     1      -8.841   9.327  68.313  1.00  0.00    -0.129 C  
HETATM   16  O   UNL     1      -8.674  10.688  68.454  1.00  0.00    -0.128 OA 
HETATM   17  O   UNL     1      -9.342   8.657  69.201  1.00  0.00    -0.152 OA 
BRANCH  14  18
HETATM   18  C   UNL     1      -8.471   7.656  66.468  1.00  0.00    -0.133 A  
HETATM   19  C   UNL     1      -7.593   7.237  65.470  1.00  0.00    -0.097 A  
HETATM   20  C   UNL     1      -7.712   5.973  64.875  1.00  0.00    -0.099 A  
HETATM   21  C   UNL     1      -8.707   5.067  65.258  1.00  0.00    -0.149 A  
HETATM   22  C   UNL     1      -9.453   6.746  66.873  1.00  0.00    -0.189 A  
HETATM   23  C   UNL     1      -9.559   5.469  66.291  1.00  0.00    -0.173 A  
BRANCH  21  24
HETATM   24  N   UNL     1      -8.890   3.839  64.542  1.00  0.00    -0.116 N  
HETATM   25  C   UNL     1      -9.808   2.807  65.028  1.00  0.00     0.150 C  
HETATM   26  C   UNL     1     -10.660   2.239  63.897  1.00  0.00     0.034 C  
HETATM   27  O   UNL     1      -9.814   1.674  62.899  1.00  0.00    -0.092 OA 
HETATM   28  C   UNL     1      -8.946   2.665  62.373  1.00  0.00    -0.081 C  
HETATM   29  C   UNL     1      -8.165   3.533  63.375  1.00  0.00    -0.089 C  
HETATM   30  O   UNL     1      -7.060   3.986  63.075  1.00  0.00    -0.042 OA 
ENDBRANCH  21  24
ENDBRANCH  14  18
ENDBRANCH  11  12
ENDBRANCH   8  11
ENDBRANCH   5   7
TORSDOF 5
ENDMDL
MODEL      149
REMARK 921   NORMALIZED FREE ENERGY PREDICTED BY IDOCK:   -2.92 KCAL/MOL
REMARK 922        TOTAL FREE ENERGY PREDICTED BY IDOCK:   -4.33 KCAL/MOL
REMARK 923 INTER-LIGAND FREE ENERGY PREDICTED BY IDOCK:   -4.76 KCAL/MOL
REMARK 924 INTRA-LIGAND FREE ENERGY PREDICTED BY IDOCK:    0.43 KCAL/MOL
REMARK 927      BINDING AFFINITY PREDICTED BY RF-SCORE:    0.00 PKD
ROOT
HETATM    1 CL   UNL     1     -10.389   3.229  74.508  1.00  0.00    -0.223 Cl 
HETATM    2  C   UNL     1     -10.328   4.439  73.288  1.00  0.00    -0.173 A  
HETATM    3  C   UNL     1     -11.391   5.116  72.757  1.00  0.00    -0.311 A  
HETATM    4  C   UNL     1     -10.957   6.043  71.760  1.00  0.00    -0.323 A  
HETATM    5  C   UNL     1      -9.581   6.034  71.585  1.00  0.00    -0.151 A  
HETATM    6  S   UNL     1      -8.839   4.889  72.631  1.00  0.00    -0.121 SA 
ENDROOT
BRANCH   5   7
HETATM    7  C   UNL     1      -8.809   6.850  70.654  1.00  0.00    -0.150 C  
HETATM    8  N   UNL     1      -8.000   6.151  69.775  1.00  0.00    -0.108 N  
HETATM    9  O   UNL     1      -8.863   8.075  70.628  1.00  0.00    -0.139 OA 
HETATM   10  H   UNL     1      -7.895   5.144  69.900  1.00  0.00     0.000 HD 
BRANCH   8  11
HETATM   11  C   UNL     1      -7.296   6.799  68.682  1.00  0.00    -0.090 C  
BRANCH  11  12
HETATM   12  C   UNL     1      -8.144   7.894  68.047  1.00  0.00    -0.126 C  
HETATM   13  C   UNL     1      -7.620   9.291  68.268  1.00  0.00    -0.083 C  
HETATM   14  N   UNL     1      -8.184   9.970  67.138  1.00  0.00    -0.117 N  
HETATM   15  C   UNL     1      -8.350   9.040  66.117  1.00  0.00    -0.121 C  
HETATM   16  O   UNL     1      -8.127   7.775  66.616  1.00  0.00    -0.107 OA 
HETATM   17  O   UNL     1      -8.634   9.216  64.944  1.00  0.00    -0.165 OA 
BRANCH  14  18
HETATM   18  C   UNL     1      -8.472  11.357  67.093  1.00  0.00    -0.153 A  
HETATM   19  C   UNL     1      -9.784  11.829  67.098  1.00  0.00    -0.194 A  
HETATM   20  C   UNL     1     -10.067  13.201  67.056  1.00  0.00    -0.241 A  
HETATM   21  C   UNL     1      -9.053  14.164  67.019  1.00  0.00    -0.243 A  
HETATM   22  C   UNL     1      -7.453  12.315  67.080  1.00  0.00    -0.113 A  
HETATM   23  C   UNL     1      -7.738  13.693  67.060  1.00  0.00     0.159 A  
BRANCH  21  24
HETATM   24  N   UNL     1      -9.370  15.550  66.840  1.00  0.00    -0.222 N  
HETATM   25  C   UNL     1      -9.755  16.077  65.530  1.00  0.00    -0.134 C  
HETATM   26  C   UNL     1     -10.952  17.018  65.635  1.00  0.00     0.051 C  
HETATM   27  O   UNL     1     -10.629  18.107  66.496  1.00  0.00    -0.351 OA 
HETATM   28  C   UNL     1     -10.299  17.628  67.790  1.00  0.00    -0.365 C  
HETATM   29  C   UNL     1      -9.274  16.485  67.888  1.00  0.00    -0.211 C  
HETATM   30  O   UNL     1      -8.546  16.386  68.875  1.00  0.00    -0.235 OA 
ENDBRANCH  21  24
ENDBRANCH  14  18
ENDBRANCH  11  12
ENDBRANCH   8  11
ENDBRANCH   5   7
TORSDOF 5
ENDMDL
MODEL      150
REMARK 921   NORMALIZED FREE ENERGY PREDICTED BY IDOCK:   -2.83 KCAL/MOL
REMARK 922        TOTAL FREE ENERGY PREDICTED BY IDOCK:   -4.22 KCAL/MOL
REMARK 923 INTER-LIGAND FREE ENERGY PREDICTED BY IDOCK:   -3.81 KCAL/MOL
REMARK 924 INTRA-LIGAND FREE ENERGY PREDICTED BY IDOCK:   -0.41 KCAL/MOL
REMARK 927      BINDING AFFINITY PREDICTED BY RF-SCORE:    0.00 PKD
ROOT
HETATM    1 CL   UNL     1     -13.295  14.212  65.396  1.00  0.00    -0.046 Cl 
HETATM    2  C   UNL     1     -11.845  14.346  66.310  1.00  0.00    -0.379 A  
HETATM    3  C   UNL     1     -11.732  14.786  67.600  1.00  0.00    -0.364 A  
HETATM    4  C   UNL     1     -10.368  14.767  68.027  1.00  0.00    -0.237 A  
HETATM    5  C   UNL     1      -9.507  14.305  67.042  1.00  0.00    -0.254 A  
HETATM    6  S   UNL     1     -10.372  13.911  65.609  1.00  0.00    -0.337 SA 
ENDROOT
BRANCH   5   7
HETATM    7  C   UNL     1      -8.059  14.158  67.141  1.00  0.00    -0.115 C  
HETATM    8  N   UNL     1      -7.595  12.858  67.232  1.00  0.00    -0.306 N  
HETATM    9  O   UNL     1      -7.284  15.108  67.136  1.00  0.00    -0.187 OA 
HETATM   10  H   UNL     1      -8.271  12.102  67.346  1.00  0.00     0.000 HD 
BRANCH   8  11
HETATM   11  C   UNL     1      -6.180  12.529  67.172  1.00  0.00    -0.036 C  
BRANCH  11  12
HETATM   12  C   UNL     1      -5.952  11.031  67.321  1.00  0.00    -0.058 C  
HETATM   13  C   UNL     1      -6.963  10.334  68.197  1.00  0.00    -0.074 C  
HETATM   14  N   UNL     1      -6.893   8.999  67.677  1.00  0.00    -0.069 N  
HETATM   15  C   UNL     1      -6.508   9.078  66.343  1.00  0.00    -0.066 C  
HETATM   16  O   UNL     1      -6.122  10.370  66.057  1.00  0.00    -0.084 OA 
HETATM   17  O   UNL     1      -6.491   8.209  65.486  1.00  0.00    -0.048 OA 
BRANCH  14  18
HETATM   18  C   UNL     1      -7.205   7.830  68.414  1.00  0.00    -0.093 A  
HETATM   19  C   UNL     1      -7.496   6.624  67.778  1.00  0.00    -0.098 A  
HETATM   20  C   UNL     1      -7.801   5.467  68.509  1.00  0.00    -0.088 A  
HETATM   21  C   UNL     1      -7.818   5.460  69.908  1.00  0.00    -0.081 A  
HETATM   22  C   UNL     1      -7.196   7.824  69.813  1.00  0.00    -0.067 A  
HETATM   23  C   UNL     1      -7.482   6.658  70.546  1.00  0.00    -0.087 A  
BRANCH  21  24
HETATM   24  N   UNL     1      -8.265   4.303  70.627  1.00  0.00    -0.069 N  
HETATM   25  C   UNL     1      -7.401   3.133  70.792  1.00  0.00    -0.037 C  
HETATM   26  C   UNL     1      -7.448   2.601  72.221  1.00  0.00    -0.051 C  
HETATM   27  O   UNL     1      -8.786   2.240  72.552  1.00  0.00    -0.066 OA 
HETATM   28  C   UNL     1      -9.639   3.369  72.450  1.00  0.00    -0.133 C  
HETATM   29  C   UNL     1      -9.564   4.204  71.159  1.00  0.00    -0.179 C  
HETATM   30  O   UNL     1     -10.557   4.802  70.748  1.00  0.00    -0.103 OA 
ENDBRANCH  21  24
ENDBRANCH  14  18
ENDBRANCH  11  12
ENDBRANCH   8  11
ENDBRANCH   5   7
TORSDOF 5
ENDMDL
MODEL      151
REMARK 921   NORMALIZED FREE ENERGY PREDICTED BY IDOCK:   -2.48 KCAL/MOL
REMARK 922        TOTAL FREE ENERGY PREDICTED BY IDOCK:   -3.76 KCAL/MOL
REMARK 923 INTER-LIGAND FREE ENERGY PREDICTED BY IDOCK:   -3.63 KCAL/MOL
REMARK 924 INTRA-LIGAND FREE ENERGY PREDICTED BY IDOCK:   -0.14 KCAL/MOL
REMARK 927      BINDING AFFINITY PREDICTED BY RF-SCORE:    0.00 PKD
ROOT
HETATM    1 CL   UNL     1     -11.785   4.119  62.331  1.00  0.00     0.696 Cl 
HETATM    2  C   UNL     1     -10.265   4.073  63.133  1.00  0.00    -0.131 A  
HETATM    3  C   UNL     1      -9.115   3.493  62.670  1.00  0.00    -0.094 A  
HETATM    4  C   UNL     1      -8.052   3.647  63.612  1.00  0.00    -0.089 A  
HETATM    5  C   UNL     1      -8.440   4.347  64.746  1.00  0.00    -0.123 A  
HETATM    6  S   UNL     1     -10.097   4.795  64.650  1.00  0.00     0.395 SA 
ENDROOT
BRANCH   5   7
HETATM    7  C   UNL     1      -7.611   4.681  65.898  1.00  0.00    -0.090 C  
HETATM    8  N   UNL     1      -8.282   5.216  66.983  1.00  0.00    -0.108 N  
HETATM    9  O   UNL     1      -6.398   4.501  65.930  1.00  0.00    -0.034 OA 
HETATM   10  H   UNL     1      -9.269   5.456  66.880  1.00  0.00     0.000 HD 
BRANCH   8  11
HETATM   11  C   UNL     1      -7.634   5.449  68.263  1.00  0.00    -0.081 C  
BRANCH  11  12
HETATM   12  C   UNL     1      -7.918   6.853  68.781  1.00  0.00    -0.120 C  
HETATM   13  C   UNL     1      -8.476   7.795  67.744  1.00  0.00    -0.121 C  
HETATM   14  N   UNL     1      -9.179   8.726  68.578  1.00  0.00    -0.141 N  
HETATM   15  C   UNL     1      -9.567   8.058  69.735  1.00  0.00    -0.171 C  
HETATM   16  O   UNL     1      -8.959   6.821  69.770  1.00  0.00    -0.143 OA 
HETATM   17  O   UNL     1     -10.322   8.416  70.624  1.00  0.00    -0.192 OA 
BRANCH  14  18
HETATM   18  C   UNL     1      -9.445  10.074  68.234  1.00  0.00    -0.140 A  
HETATM   19  C   UNL     1      -9.951  10.978  69.168  1.00  0.00    -0.142 A  
HETATM   20  C   UNL     1     -10.211  12.313  68.827  1.00  0.00    -0.119 A  
HETATM   21  C   UNL     1      -9.967  12.808  67.541  1.00  0.00    -0.210 A  
HETATM   22  C   UNL     1      -9.176  10.568  66.954  1.00  0.00    -0.173 A  
HETATM   23  C   UNL     1      -9.417  11.914  66.618  1.00  0.00    -0.217 A  
BRANCH  21  24
HETATM   24  N   UNL     1     -10.368  14.136  67.182  1.00  0.00    -0.264 N  
HETATM   25  C   UNL     1     -10.409  15.210  68.177  1.00  0.00    -0.239 C  
HETATM   26  C   UNL     1      -9.800  16.499  67.632  1.00  0.00    -0.247 C  
HETATM   27  O   UNL     1     -10.517  16.913  66.472  1.00  0.00    -0.305 OA 
HETATM   28  C   UNL     1     -10.451  15.910  65.471  1.00  0.00    -0.404 C  
HETATM   29  C   UNL     1     -10.794  14.468  65.883  1.00  0.00    -0.308 C  
HETATM   30  O   UNL     1     -11.287  13.690  65.067  1.00  0.00    -0.313 OA 
ENDBRANCH  21  24
ENDBRANCH  14  18
ENDBRANCH  11  12
ENDBRANCH   8  11
ENDBRANCH   5   7
TORSDOF 5
ENDMDL
MODEL      152
REMARK 921   NORMALIZED FREE ENERGY PREDICTED BY IDOCK:   -2.24 KCAL/MOL
REMARK 922        TOTAL FREE ENERGY PREDICTED BY IDOCK:   -3.46 KCAL/MOL
REMARK 923 INTER-LIGAND FREE ENERGY PREDICTED BY IDOCK:   -2.89 KCAL/MOL
REMARK 924 INTRA-LIGAND FREE ENERGY PREDICTED BY IDOCK:   -0.57 KCAL/MOL
REMARK 927      BINDING AFFINITY PREDICTED BY RF-SCORE:    0.00 PKD
ROOT
HETATM    1 CL   UNL     1     -10.770  14.355  64.410  1.00  0.00    -0.211 Cl 
HETATM    2  C   UNL     1     -10.200  14.317  66.033  1.00  0.00    -0.315 A  
HETATM    3  C   UNL     1     -10.961  14.401  67.167  1.00  0.00    -0.305 A  
HETATM    4  C   UNL     1     -10.141  14.342  68.335  1.00  0.00    -0.243 A  
HETATM    5  C   UNL     1      -8.794  14.206  68.036  1.00  0.00    -0.182 A  
HETATM    6  S   UNL     1      -8.547  14.164  66.335  1.00  0.00     0.513 SA 
ENDROOT
BRANCH   5   7
HETATM    7  C   UNL     1      -7.689  14.115  68.983  1.00  0.00    -0.035 C  
HETATM    8  N   UNL     1      -7.353  12.835  69.389  1.00  0.00    -0.302 N  
HETATM    9  O   UNL     1      -7.077  15.093  69.401  1.00  0.00    -0.158 OA 
HETATM   10  H   UNL     1      -7.953  12.059  69.111  1.00  0.00     0.000 HD 
BRANCH   8  11
HETATM   11  C   UNL     1      -6.177  12.558  70.198  1.00  0.00    -0.032 C  
BRANCH  11  12
HETATM   12  C   UNL     1      -6.086  11.080  70.556  1.00  0.00    -0.094 C  
HETATM   13  C   UNL     1      -7.410  10.358  70.546  1.00  0.00     0.425 C  
HETATM   14  N   UNL     1      -6.979   9.012  70.299  1.00  0.00    -0.046 N  
HETATM   15  C   UNL     1      -5.786   9.068  69.586  1.00  0.00    -0.033 C  
HETATM   16  O   UNL     1      -5.333  10.369  69.562  1.00  0.00    -0.038 OA 
HETATM   17  O   UNL     1      -5.170   8.174  69.029  1.00  0.00    -0.026 OA 
BRANCH  14  18
HETATM   18  C   UNL     1      -7.691   7.853  70.694  1.00  0.00    -0.090 A  
HETATM   19  C   UNL     1      -7.033   6.732  71.201  1.00  0.00    -0.070 A  
HETATM   20  C   UNL     1      -7.740   5.587  71.595  1.00  0.00    -0.107 A  
HETATM   21  C   UNL     1      -9.134   5.513  71.511  1.00  0.00    -0.139 A  
HETATM   22  C   UNL     1      -9.087   7.796  70.631  1.00  0.00    -0.153 A  
HETATM   23  C   UNL     1      -9.797   6.654  71.047  1.00  0.00    -0.196 A  
BRANCH  21  24
HETATM   24  N   UNL     1      -9.818   4.286  71.792  1.00  0.00    -0.172 N  
HETATM   25  C   UNL     1      -9.897   3.217  70.795  1.00  0.00     0.033 C  
HETATM   26  C   UNL     1      -9.623   1.850  71.417  1.00  0.00    -0.142 C  
HETATM   27  O   UNL     1     -10.574   1.595  72.447  1.00  0.00    -0.160 OA 
HETATM   28  C   UNL     1     -10.485   2.590  73.454  1.00  0.00    -0.140 C  
HETATM   29  C   UNL     1     -10.494   4.062  73.006  1.00  0.00    -0.174 C  
HETATM   30  O   UNL     1     -10.960   4.932  73.741  1.00  0.00    -0.296 OA 
ENDBRANCH  21  24
ENDBRANCH  14  18
ENDBRANCH  11  12
ENDBRANCH   8  11
ENDBRANCH   5   7
TORSDOF 5
ENDMDL
MODEL      153
REMARK 921   NORMALIZED FREE ENERGY PREDICTED BY IDOCK:   -2.23 KCAL/MOL
REMARK 922        TOTAL FREE ENERGY PREDICTED BY IDOCK:   -3.45 KCAL/MOL
REMARK 923 INTER-LIGAND FREE ENERGY PREDICTED BY IDOCK:   -2.63 KCAL/MOL
REMARK 924 INTRA-LIGAND FREE ENERGY PREDICTED BY IDOCK:   -0.82 KCAL/MOL
REMARK 927      BINDING AFFINITY PREDICTED BY RF-SCORE:    0.00 PKD
ROOT
HETATM    1 CL   UNL     1     -11.087  19.655  65.621  1.00  0.00    -0.256 Cl 
HETATM    2  C   UNL     1     -10.112  18.851  66.788  1.00  0.00    -0.375 A  
HETATM    3  C   UNL     1      -9.024  19.369  67.437  1.00  0.00    -0.354 A  
HETATM    4  C   UNL     1      -8.461  18.407  68.331  1.00  0.00    -0.345 A  
HETATM    5  C   UNL     1      -9.153  17.205  68.328  1.00  0.00    -0.259 A  
HETATM    6  S   UNL     1     -10.472  17.262  67.227  1.00  0.00    -0.287 SA 
ENDROOT
BRANCH   5   7
HETATM    7  C   UNL     1      -8.850  16.016  69.117  1.00  0.00    -0.245 C  
HETATM    8  N   UNL     1      -7.519  15.844  69.453  1.00  0.00    -0.226 N  
HETATM    9  O   UNL     1      -9.704  15.213  69.479  1.00  0.00    -0.217 OA 
HETATM   10  H   UNL     1      -6.824  16.468  69.042  1.00  0.00     0.000 HD 
BRANCH   8  11
HETATM   11  C   UNL     1      -7.074  14.806  70.369  1.00  0.00     0.303 C  
BRANCH  11  12
HETATM   12  C   UNL     1      -6.463  13.630  69.619  1.00  0.00    -0.083 C  
HETATM   13  C   UNL     1      -7.395  12.457  69.441  1.00  0.00     0.319 C  
HETATM   14  N   UNL     1      -6.835  11.845  68.271  1.00  0.00    -0.062 N  
HETATM   15  C   UNL     1      -6.213  12.839  67.523  1.00  0.00    -0.159 C  
HETATM   16  O   UNL     1      -6.162  14.000  68.265  1.00  0.00    -0.093 OA 
HETATM   17  O   UNL     1      -5.764  12.794  66.389  1.00  0.00     0.660 OA 
BRANCH  14  18
HETATM   18  C   UNL     1      -6.949  10.471  67.947  1.00  0.00    -0.077 A  
HETATM   19  C   UNL     1      -6.457   9.479  68.796  1.00  0.00    -0.047 A  
HETATM   20  C   UNL     1      -6.573   8.119  68.475  1.00  0.00    -0.058 A  
HETATM   21  C   UNL     1      -7.196   7.688  67.298  1.00  0.00    -0.090 A  
HETATM   22  C   UNL     1      -7.594  10.046  66.781  1.00  0.00    -0.103 A  
HETATM   23  C   UNL     1      -7.730   8.680  66.470  1.00  0.00    -0.095 A  
BRANCH  21  24
HETATM   24  N   UNL     1      -7.181   6.303  66.930  1.00  0.00    -0.073 N  
HETATM   25  C   UNL     1      -8.065   5.336  67.582  1.00  0.00    -0.100 C  
HETATM   26  C   UNL     1      -8.711   4.397  66.568  1.00  0.00    -0.112 C  
HETATM   27  O   UNL     1      -7.698   3.692  65.856  1.00  0.00    -0.086 OA 
HETATM   28  C   UNL     1      -6.855   4.605  65.171  1.00  0.00    -0.057 C  
HETATM   29  C   UNL     1      -6.286   5.789  65.973  1.00  0.00    -0.039 C  
HETATM   30  O   UNL     1      -5.194   6.273  65.677  1.00  0.00    -0.013 OA 
ENDBRANCH  21  24
ENDBRANCH  14  18
ENDBRANCH  11  12
ENDBRANCH   8  11
ENDBRANCH   5   7
TORSDOF 5
ENDMDL
MODEL      154
REMARK 921   NORMALIZED FREE ENERGY PREDICTED BY IDOCK:   -2.03 KCAL/MOL
REMARK 922        TOTAL FREE ENERGY PREDICTED BY IDOCK:   -3.18 KCAL/MOL
REMARK 923 INTER-LIGAND FREE ENERGY PREDICTED BY IDOCK:   -4.22 KCAL/MOL
REMARK 924 INTRA-LIGAND FREE ENERGY PREDICTED BY IDOCK:    1.04 KCAL/MOL
REMARK 927      BINDING AFFINITY PREDICTED BY RF-SCORE:    0.00 PKD
ROOT
HETATM    1 CL   UNL     1     -10.200  18.526  69.408  1.00  0.00    -0.024 Cl 
HETATM    2  C   UNL     1     -10.125  16.972  68.676  1.00  0.00    -0.303 A  
HETATM    3  C   UNL     1     -11.065  16.412  67.853  1.00  0.00    -0.249 A  
HETATM    4  C   UNL     1     -10.665  15.104  67.441  1.00  0.00    -0.286 A  
HETATM    5  C   UNL     1      -9.435  14.732  67.963  1.00  0.00    -0.204 A  
HETATM    6  S   UNL     1      -8.790  15.979  68.956  1.00  0.00    -0.246 SA 
ENDROOT
BRANCH   5   7
HETATM    7  C   UNL     1      -8.734  13.471  67.747  1.00  0.00    -0.189 C  
HETATM    8  N   UNL     1      -7.381  13.577  67.480  1.00  0.00    -0.221 N  
HETATM    9  O   UNL     1      -9.286  12.376  67.800  1.00  0.00    -0.178 OA 
HETATM   10  H   UNL     1      -6.981  14.504  67.332  1.00  0.00     0.000 HD 
BRANCH   8  11
HETATM   11  C   UNL     1      -6.509  12.417  67.403  1.00  0.00    -0.154 C  
BRANCH  11  12
HETATM   12  C   UNL     1      -7.309  11.120  67.400  1.00  0.00    -0.108 C  
HETATM   13  C   UNL     1      -6.964  10.182  66.271  1.00  0.00    -0.109 C  
HETATM   14  N   UNL     1      -7.352   8.924  66.841  1.00  0.00    -0.082 N  
HETATM   15  C   UNL     1      -7.233   9.024  68.223  1.00  0.00    -0.078 C  
HETATM   16  O   UNL     1      -7.001  10.339  68.565  1.00  0.00    -0.064 OA 
HETATM   17  O   UNL     1      -7.296   8.152  69.074  1.00  0.00    -0.079 OA 
BRANCH  14  18
HETATM   18  C   UNL     1      -7.747   7.788  66.092  1.00  0.00    -0.089 A  
HETATM   19  C   UNL     1      -7.543   7.716  64.715  1.00  0.00    -0.105 A  
HETATM   20  C   UNL     1      -7.932   6.589  63.977  1.00  0.00    -0.081 A  
HETATM   21  C   UNL     1      -8.532   5.479  64.582  1.00  0.00    -0.108 A  
HETATM   22  C   UNL     1      -8.324   6.672  66.708  1.00  0.00    -0.115 A  
HETATM   23  C   UNL     1      -8.694   5.533  65.970  1.00  0.00    -0.141 A  
BRANCH  21  24
HETATM   24  N   UNL     1      -9.041   4.401  63.788  1.00  0.00    -0.143 N  
HETATM   25  C   UNL     1      -8.302   3.898  62.629  1.00  0.00    -0.081 C  
HETATM   26  C   UNL     1      -8.286   2.372  62.595  1.00  0.00    -0.073 C  
HETATM   27  O   UNL     1      -9.624   1.882  62.541  1.00  0.00    -0.089 OA 
HETATM   28  C   UNL     1     -10.351   2.314  63.680  1.00  0.00    -0.134 C  
HETATM   29  C   UNL     1     -10.293   3.809  64.038  1.00  0.00    -0.250 C  
HETATM   30  O   UNL     1     -11.246   4.350  64.599  1.00  0.00    -0.234 OA 
ENDBRANCH  21  24
ENDBRANCH  14  18
ENDBRANCH  11  12
ENDBRANCH   8  11
ENDBRANCH   5   7
TORSDOF 5
ENDMDL
MODEL      155
REMARK 921   NORMALIZED FREE ENERGY PREDICTED BY IDOCK:   -1.49 KCAL/MOL
REMARK 922        TOTAL FREE ENERGY PREDICTED BY IDOCK:   -2.48 KCAL/MOL
REMARK 923 INTER-LIGAND FREE ENERGY PREDICTED BY IDOCK:   -2.21 KCAL/MOL
REMARK 924 INTRA-LIGAND FREE ENERGY PREDICTED BY IDOCK:   -0.28 KCAL/MOL
REMARK 927      BINDING AFFINITY PREDICTED BY RF-SCORE:    0.00 PKD
ROOT
HETATM    1 CL   UNL     1     -11.340  18.603  72.894  1.00  0.00     2.672 Cl 
HETATM    2  C   UNL     1     -11.776  16.969  72.582  1.00  0.00     0.495 A  
HETATM    3  C   UNL     1     -12.488  16.142  73.408  1.00  0.00    -0.661 A  
HETATM    4  C   UNL     1     -12.653  14.852  72.818  1.00  0.00    -0.477 A  
HETATM    5  C   UNL     1     -12.066  14.759  71.564  1.00  0.00    -0.350 A  
HETATM    6  S   UNL     1     -11.314  16.242  71.130  1.00  0.00    -0.091 SA 
ENDROOT
BRANCH   5   7
HETATM    7  C   UNL     1     -12.046  13.592  70.689  1.00  0.00    -0.309 C  
HETATM    8  N   UNL     1     -12.733  12.484  71.154  1.00  0.00    -0.317 N  
HETATM    9  O   UNL     1     -11.473  13.573  69.605  1.00  0.00    -0.264 OA 
HETATM   10  H   UNL     1     -13.101  12.498  72.105  1.00  0.00     0.000 HD 
BRANCH   8  11
HETATM   11  C   UNL     1     -12.949  11.302  70.336  1.00  0.00     0.075 C  
BRANCH  11  12
HETATM   12  C   UNL     1     -11.730  10.388  70.350  1.00  0.00    -0.331 C  
HETATM   13  C   UNL     1     -11.985   9.024  70.942  1.00  0.00    -0.225 C  
HETATM   14  N   UNL     1     -10.964   8.256  70.293  1.00  0.00    -0.241 N  
HETATM   15  C   UNL     1     -10.688   8.855  69.068  1.00  0.00    -0.126 C  
HETATM   16  O   UNL     1     -11.322  10.077  69.009  1.00  0.00    -0.185 OA 
HETATM   17  O   UNL     1     -10.019   8.444  68.134  1.00  0.00    -0.177 OA 
BRANCH  14  18
HETATM   18  C   UNL     1     -10.385   7.075  70.821  1.00  0.00    -0.206 A  
HETATM   19  C   UNL     1     -11.005   6.353  71.840  1.00  0.00    -0.295 A  
HETATM   20  C   UNL     1     -10.432   5.183  72.359  1.00  0.00    -0.272 A  
HETATM   21  C   UNL     1      -9.221   4.675  71.876  1.00  0.00    -0.137 A  
HETATM   22  C   UNL     1      -9.187   6.560  70.315  1.00  0.00    -0.156 A  
HETATM   23  C   UNL     1      -8.624   5.374  70.822  1.00  0.00    -0.131 A  
BRANCH  21  24
HETATM   24  N   UNL     1      -8.593   3.557  72.514  1.00  0.00    -0.085 N  
HETATM   25  C   UNL     1      -7.262   3.675  73.112  1.00  0.00    -0.055 C  
HETATM   26  C   UNL     1      -7.201   3.002  74.480  1.00  0.00    -0.047 C  
HETATM   27  O   UNL     1      -7.530   1.621  74.347  1.00  0.00    -0.028 OA 
HETATM   28  C   UNL     1      -8.837   1.477  73.816  1.00  0.00    -0.057 C  
HETATM   29  C   UNL     1      -9.186   2.281  72.552  1.00  0.00    -0.080 C  
HETATM   30  O   UNL     1     -10.007   1.846  71.745  1.00  0.00    -0.148 OA 
ENDBRANCH  21  24
ENDBRANCH  14  18
ENDBRANCH  11  12
ENDBRANCH   8  11
ENDBRANCH   5   7
TORSDOF 5
ENDMDL
MODEL      156
REMARK 921   NORMALIZED FREE ENERGY PREDICTED BY IDOCK:   -1.00 KCAL/MOL
REMARK 922        TOTAL FREE ENERGY PREDICTED BY IDOCK:   -1.85 KCAL/MOL
REMARK 923 INTER-LIGAND FREE ENERGY PREDICTED BY IDOCK:   -1.31 KCAL/MOL
REMARK 924 INTRA-LIGAND FREE ENERGY PREDICTED BY IDOCK:   -0.54 KCAL/MOL
REMARK 927      BINDING AFFINITY PREDICTED BY RF-SCORE:    0.00 PKD
ROOT
HETATM    1 CL   UNL     1     -12.418  17.305  72.119  1.00  0.00     2.709 Cl 
HETATM    2  C   UNL     1     -12.872  15.647  72.157  1.00  0.00    -0.439 A  
HETATM    3  C   UNL     1     -13.708  15.051  73.062  1.00  0.00    -0.348 A  
HETATM    4  C   UNL     1     -13.846  13.656  72.784  1.00  0.00    -0.265 A  
HETATM    5  C   UNL     1     -13.116  13.257  71.674  1.00  0.00    -0.363 A  
HETATM    6  S   UNL     1     -12.264  14.586  70.994  1.00  0.00    -0.359 SA 
ENDROOT
BRANCH   5   7
HETATM    7  C   UNL     1     -13.032  11.912  71.116  1.00  0.00    -0.172 C  
HETATM    8  N   UNL     1     -12.794  10.900  72.028  1.00  0.00    -0.327 N  
HETATM    9  O   UNL     1     -13.168  11.670  69.921  1.00  0.00     0.647 OA 
HETATM   10  H   UNL     1     -12.575  11.150  72.993  1.00  0.00     0.000 HD 
BRANCH   8  11
HETATM   11  C   UNL     1     -12.845   9.494  71.663  1.00  0.00    -0.393 C  
BRANCH  11  12
HETATM   12  C   UNL     1     -11.476   8.982  71.235  1.00  0.00    -0.320 C  
HETATM   13  C   UNL     1     -11.451   8.345  69.868  1.00  0.00     0.178 C  
HETATM   14  N   UNL     1     -10.076   8.536  69.508  1.00  0.00    -0.195 N  
HETATM   15  C   UNL     1      -9.613   9.670  70.168  1.00  0.00    -0.254 C  
HETATM   16  O   UNL     1     -10.555  10.074  71.090  1.00  0.00    -0.153 OA 
HETATM   17  O   UNL     1      -8.570  10.285  70.021  1.00  0.00    -0.090 OA 
BRANCH  14  18
HETATM   18  C   UNL     1      -9.358   7.714  68.605  1.00  0.00    -0.147 A  
HETATM   19  C   UNL     1      -9.825   7.467  67.315  1.00  0.00    -0.230 A  
HETATM   20  C   UNL     1      -9.110   6.656  66.422  1.00  0.00    -0.172 A  
HETATM   21  C   UNL     1      -7.892   6.065  66.773  1.00  0.00    -0.101 A  
HETATM   22  C   UNL     1      -8.127   7.147  68.955  1.00  0.00    -0.121 A  
HETATM   23  C   UNL     1      -7.400   6.351  68.051  1.00  0.00    -0.089 A  
BRANCH  21  24
HETATM   24  N   UNL     1      -7.251   5.134  65.892  1.00  0.00    -0.071 N  
HETATM   25  C   UNL     1      -6.676   5.569  64.619  1.00  0.00    -0.043 C  
HETATM   26  C   UNL     1      -5.302   4.947  64.385  1.00  0.00    -0.013 C  
HETATM   27  O   UNL     1      -5.414   3.526  64.383  1.00  0.00    -0.009 OA 
HETATM   28  C   UNL     1      -5.923   3.073  65.627  1.00  0.00    -0.023 C  
HETATM   29  C   UNL     1      -7.190   3.756  66.170  1.00  0.00    -0.064 C  
HETATM   30  O   UNL     1      -7.979   3.129  66.877  1.00  0.00    -0.079 OA 
ENDBRANCH  21  24
ENDBRANCH  14  18
ENDBRANCH  11  12
ENDBRANCH   8  11
ENDBRANCH   5   7
TORSDOF 5
ENDMDL
MODEL      157
REMARK 921   NORMALIZED FREE ENERGY PREDICTED BY IDOCK:    0.03 KCAL/MOL
REMARK 922        TOTAL FREE ENERGY PREDICTED BY IDOCK:   -0.51 KCAL/MOL
REMARK 923 INTER-LIGAND FREE ENERGY PREDICTED BY IDOCK:   -0.71 KCAL/MOL
REMARK 924 INTRA-LIGAND FREE ENERGY PREDICTED BY IDOCK:    0.19 KCAL/MOL
REMARK 927      BINDING AFFINITY PREDICTED BY RF-SCORE:    0.00 PKD
ROOT
HETATM    1 CL   UNL     1     -11.344  18.693  72.869  1.00  0.00     2.672 Cl 
HETATM    2  C   UNL     1     -11.662  17.067  72.408  1.00  0.00     0.585 A  
HETATM    3  C   UNL     1     -12.354  16.135  73.132  1.00  0.00    -0.641 A  
HETATM    4  C   UNL     1     -12.412  14.889  72.434  1.00  0.00    -0.426 A  
HETATM    5  C   UNL     1     -11.768  14.935  71.206  1.00  0.00    -0.331 A  
HETATM    6  S   UNL     1     -11.094  16.491  70.927  1.00  0.00     0.331 SA 
ENDROOT
BRANCH   5   7
HETATM    7  C   UNL     1     -11.638  13.847  70.243  1.00  0.00    -0.147 C  
HETATM    8  N   UNL     1     -12.272  12.666  70.584  1.00  0.00    -0.451 N  
HETATM    9  O   UNL     1     -11.018  13.952  69.189  1.00  0.00    -0.245 OA 
HETATM   10  H   UNL     1     -12.681  12.580  71.515  1.00  0.00     0.000 HD 
BRANCH   8  11
HETATM   11  C   UNL     1     -12.378  11.545  69.666  1.00  0.00    -0.142 C  
BRANCH  11  12
HETATM   12  C   UNL     1     -11.092  10.730  69.635  1.00  0.00    -0.279 C  
HETATM   13  C   UNL     1     -11.305   9.236  69.624  1.00  0.00     0.049 C  
HETATM   14  N   UNL     1     -10.090   8.798  69.000  1.00  0.00    -0.193 N  
HETATM   15  C   UNL     1      -9.640   9.820  68.170  1.00  0.00    -0.143 C  
HETATM   16  O   UNL     1     -10.385  10.955  68.406  1.00  0.00    -0.164 OA 
HETATM   17  O   UNL     1      -8.752   9.809  67.334  1.00  0.00    -0.131 OA 
BRANCH  14  18
HETATM   18  C   UNL     1      -9.501   7.523  69.190  1.00  0.00    -0.150 A  
HETATM   19  C   UNL     1      -9.669   6.813  70.378  1.00  0.00    -0.183 A  
HETATM   20  C   UNL     1      -9.087   5.550  70.563  1.00  0.00    -0.171 A  
HETATM   21  C   UNL     1      -8.322   4.936  69.566  1.00  0.00    -0.084 A  
HETATM   22  C   UNL     1      -8.757   6.905  68.180  1.00  0.00    -0.126 A  
HETATM   23  C   UNL     1      -8.192   5.628  68.358  1.00  0.00    -0.103 A  
BRANCH  21  24
HETATM   24  N   UNL     1      -7.628   3.710  69.830  1.00  0.00    -0.048 N  
HETATM   25  C   UNL     1      -7.596   2.630  68.843  1.00  0.00    -0.047 C  
HETATM   26  C   UNL     1      -6.197   2.035  68.710  1.00  0.00    -0.025 C  
HETATM   27  O   UNL     1      -5.773   1.524  69.971  1.00  0.00    -0.016 OA 
HETATM   28  C   UNL     1      -5.746   2.563  70.937  1.00  0.00    -0.013 C  
HETATM   29  C   UNL     1      -6.994   3.455  71.060  1.00  0.00    -0.033 C  
HETATM   30  O   UNL     1      -7.290   3.964  72.141  1.00  0.00    -0.053 OA 
ENDBRANCH  21  24
ENDBRANCH  14  18
ENDBRANCH  11  12
ENDBRANCH   8  11
ENDBRANCH   5   7
TORSDOF 5
ENDMDL
MODEL      158
REMARK 921   NORMALIZED FREE ENERGY PREDICTED BY IDOCK:    0.07 KCAL/MOL
REMARK 922        TOTAL FREE ENERGY PREDICTED BY IDOCK:   -0.47 KCAL/MOL
REMARK 923 INTER-LIGAND FREE ENERGY PREDICTED BY IDOCK:   -0.07 KCAL/MOL
REMARK 924 INTRA-LIGAND FREE ENERGY PREDICTED BY IDOCK:   -0.39 KCAL/MOL
REMARK 927      BINDING AFFINITY PREDICTED BY RF-SCORE:    0.00 PKD
ROOT
HETATM    1 CL   UNL     1     -13.587  13.536  66.020  1.00  0.00     1.588 Cl 
HETATM    2  C   UNL     1     -12.378  13.410  67.237  1.00  0.00    -0.107 A  
HETATM    3  C   UNL     1     -12.567  13.517  68.588  1.00  0.00     0.590 A  
HETATM    4  C   UNL     1     -11.330  13.365  69.288  1.00  0.00    -0.314 A  
HETATM    5  C   UNL     1     -10.258  13.141  68.436  1.00  0.00    -0.247 A  
HETATM    6  S   UNL     1     -10.773  13.130  66.796  1.00  0.00    -0.269 SA 
ENDROOT
BRANCH   5   7
HETATM    7  C   UNL     1      -8.863  12.944  68.814  1.00  0.00     0.186 C  
HETATM    8  N   UNL     1      -8.389  11.649  68.696  1.00  0.00    -0.271 N  
HETATM    9  O   UNL     1      -8.137  13.852  69.205  1.00  0.00     0.058 OA 
HETATM   10  H   UNL     1      -9.049  10.903  68.476  1.00  0.00     0.000 HD 
BRANCH   8  11
HETATM   11  C   UNL     1      -6.986  11.315  68.873  1.00  0.00    -0.099 C  
BRANCH  11  12
HETATM   12  C   UNL     1      -6.628  10.023  68.148  1.00  0.00    -0.055 C  
HETATM   13  C   UNL     1      -7.791   9.359  67.455  1.00  0.00    -0.102 C  
HETATM   14  N   UNL     1      -7.107   8.620  66.434  1.00  0.00    -0.078 N  
HETATM   15  C   UNL     1      -5.926   9.292  66.135  1.00  0.00    -0.059 C  
HETATM   16  O   UNL     1      -5.726  10.291  67.063  1.00  0.00    -0.045 OA 
HETATM   17  O   UNL     1      -5.138   9.111  65.222  1.00  0.00    -0.036 OA 
BRANCH  14  18
HETATM   18  C   UNL     1      -7.598   7.436  65.831  1.00  0.00    -0.089 A  
HETATM   19  C   UNL     1      -6.968   6.866  64.725  1.00  0.00    -0.051 A  
HETATM   20  C   UNL     1      -7.454   5.692  64.132  1.00  0.00    -0.070 A  
HETATM   21  C   UNL     1      -8.583   5.028  64.623  1.00  0.00    -0.150 A  
HETATM   22  C   UNL     1      -8.713   6.763  66.343  1.00  0.00    -0.142 A  
HETATM   23  C   UNL     1      -9.187   5.573  65.760  1.00  0.00    -0.132 A  
BRANCH  21  24
HETATM   24  N   UNL     1      -9.135   3.909  63.918  1.00  0.00    -0.124 N  
HETATM   25  C   UNL     1      -8.537   2.577  64.022  1.00  0.00    -0.086 C  
HETATM   26  C   UNL     1      -9.602   1.499  64.207  1.00  0.00    -0.122 C  
HETATM   27  O   UNL     1     -10.500   1.520  63.100  1.00  0.00    -0.115 OA 
HETATM   28  C   UNL     1     -11.133   2.786  63.006  1.00  0.00    -0.113 C  
HETATM   29  C   UNL     1     -10.237   4.036  63.052  1.00  0.00    -0.138 C  
HETATM   30  O   UNL     1     -10.570   5.061  62.458  1.00  0.00     0.519 OA 
ENDBRANCH  21  24
ENDBRANCH  14  18
ENDBRANCH  11  12
ENDBRANCH   8  11
ENDBRANCH   5   7
TORSDOF 5
ENDMDL
MODEL      159
REMARK 921   NORMALIZED FREE ENERGY PREDICTED BY IDOCK:    1.16 KCAL/MOL
REMARK 922        TOTAL FREE ENERGY PREDICTED BY IDOCK:    0.94 KCAL/MOL
REMARK 923 INTER-LIGAND FREE ENERGY PREDICTED BY IDOCK:    0.06 KCAL/MOL
REMARK 924 INTRA-LIGAND FREE ENERGY PREDICTED BY IDOCK:    0.88 KCAL/MOL
REMARK 927      BINDING AFFINITY PREDICTED BY RF-SCORE:    0.00 PKD
ROOT
HETATM    1 CL   UNL     1     -11.462  19.386  64.848  1.00  0.00     1.619 Cl 
HETATM    2  C   UNL     1      -9.952  19.626  65.635  1.00  0.00    -0.060 A  
HETATM    3  C   UNL     1      -9.091  20.672  65.443  1.00  0.00     0.893 A  
HETATM    4  C   UNL     1      -7.931  20.533  66.266  1.00  0.00    -0.036 A  
HETATM    5  C   UNL     1      -7.968  19.390  67.052  1.00  0.00    -0.263 A  
HETATM    6  S   UNL     1      -9.410  18.499  66.768  1.00  0.00    -0.306 SA 
ENDROOT
BRANCH   5   7
HETATM    7  C   UNL     1      -6.953  18.944  68.001  1.00  0.00    -0.232 C  
HETATM    8  N   UNL     1      -7.416  18.620  69.263  1.00  0.00    -0.127 N  
HETATM    9  O   UNL     1      -5.763  18.847  67.718  1.00  0.00    -0.186 OA 
HETATM   10  H   UNL     1      -8.390  18.820  69.495  1.00  0.00     0.000 HD 
BRANCH   8  11
HETATM   11  C   UNL     1      -6.568  18.006  70.271  1.00  0.00     0.679 C  
BRANCH  11  12
HETATM   12  C   UNL     1      -6.130  16.609  69.850  1.00  0.00    -0.192 C  
HETATM   13  C   UNL     1      -7.251  15.601  69.786  1.00  0.00    -0.086 C  
HETATM   14  N   UNL     1      -6.716  14.666  68.840  1.00  0.00    -0.091 N  
HETATM   15  C   UNL     1      -5.848  15.355  67.999  1.00  0.00    -0.139 C  
HETATM   16  O   UNL     1      -5.641  16.622  68.500  1.00  0.00    -0.117 OA 
HETATM   17  O   UNL     1      -5.315  14.990  66.964  1.00  0.00     0.011 OA 
BRANCH  14  18
HETATM   18  C   UNL     1      -7.063  13.294  68.778  1.00  0.00    -0.100 A  
HETATM   19  C   UNL     1      -7.716  12.756  67.670  1.00  0.00    -0.162 A  
HETATM   20  C   UNL     1      -8.056  11.397  67.610  1.00  0.00    -0.124 A  
HETATM   21  C   UNL     1      -7.749  10.512  68.650  1.00  0.00    -0.106 A  
HETATM   22  C   UNL     1      -6.731  12.410  69.811  1.00  0.00     0.131 A  
HETATM   23  C   UNL     1      -7.053  11.042  69.741  1.00  0.00    -0.052 A  
BRANCH  21  24
HETATM   24  N   UNL     1      -8.226   9.161  68.622  1.00  0.00    -0.113 N  
HETATM   25  C   UNL     1      -9.226   8.691  69.583  1.00  0.00    -0.157 C  
HETATM   26  C   UNL     1     -10.306   7.854  68.903  1.00  0.00    -0.213 C  
HETATM   27  O   UNL     1      -9.707   6.728  68.267  1.00  0.00    -0.127 OA 
HETATM   28  C   UNL     1      -8.768   7.156  67.293  1.00  0.00    -0.120 C  
HETATM   29  C   UNL     1      -7.727   8.205  67.719  1.00  0.00    -0.110 C  
HETATM   30  O   UNL     1      -6.614   8.225  67.193  1.00  0.00    -0.056 OA 
ENDBRANCH  21  24
ENDBRANCH  14  18
ENDBRANCH  11  12
ENDBRANCH   8  11
ENDBRANCH   5   7
TORSDOF 5
ENDMDL
MODEL      160
REMARK 921   NORMALIZED FREE ENERGY PREDICTED BY IDOCK:    2.68 KCAL/MOL
REMARK 922        TOTAL FREE ENERGY PREDICTED BY IDOCK:    2.90 KCAL/MOL
REMARK 923 INTER-LIGAND FREE ENERGY PREDICTED BY IDOCK:    3.49 KCAL/MOL
REMARK 924 INTRA-LIGAND FREE ENERGY PREDICTED BY IDOCK:   -0.59 KCAL/MOL
REMARK 927      BINDING AFFINITY PREDICTED BY RF-SCORE:    0.00 PKD
ROOT
HETATM    1 CL   UNL     1      -9.153  20.524  63.746  1.00  0.00     5.133 Cl 
HETATM    2  C   UNL     1      -9.851  19.823  65.152  1.00  0.00     1.130 A  
HETATM    3  C   UNL     1     -11.183  19.779  65.466  1.00  0.00     0.277 A  
HETATM    4  C   UNL     1     -11.388  19.123  66.719  1.00  0.00     0.398 A  
HETATM    5  C   UNL     1     -10.203  18.691  67.296  1.00  0.00    -0.376 A  
HETATM    6  S   UNL     1      -8.857  19.100  66.308  1.00  0.00    -0.237 SA 
ENDROOT
BRANCH   5   7
HETATM    7  C   UNL     1     -10.050  17.990  68.566  1.00  0.00    -0.393 C  
HETATM    8  N   UNL     1     -10.902  16.918  68.764  1.00  0.00    -0.318 N  
HETATM    9  O   UNL     1      -9.223  18.306  69.415  1.00  0.00     0.124 OA 
HETATM   10  H   UNL     1     -11.650  16.754  68.089  1.00  0.00     0.000 HD 
BRANCH   8  11
HETATM   11  C   UNL     1     -10.771  16.017  69.897  1.00  0.00    -0.334 C  
BRANCH  11  12
HETATM   12  C   UNL     1      -9.933  14.796  69.540  1.00  0.00    -0.020 C  
HETATM   13  C   UNL     1     -10.156  14.278  68.141  1.00  0.00    -0.232 C  
HETATM   14  N   UNL     1      -8.906  13.620  67.896  1.00  0.00    -0.177 N  
HETATM   15  C   UNL     1      -7.930  14.254  68.659  1.00  0.00    -0.139 C  
HETATM   16  O   UNL     1      -8.537  15.131  69.532  1.00  0.00    -0.215 OA 
HETATM   17  O   UNL     1      -6.717  14.131  68.628  1.00  0.00    -0.083 OA 
BRANCH  14  18
HETATM   18  C   UNL     1      -8.726  12.539  66.999  1.00  0.00    -0.205 A  
HETATM   19  C   UNL     1      -8.067  11.373  67.385  1.00  0.00    -0.142 A  
HETATM   20  C   UNL     1      -7.893  10.303  66.495  1.00  0.00    -0.116 A  
HETATM   21  C   UNL     1      -8.380  10.344  65.184  1.00  0.00    -0.165 A  
HETATM   22  C   UNL     1      -9.238  12.578  65.697  1.00  0.00     0.191 A  
HETATM   23  C   UNL     1      -9.082  11.495  64.812  1.00  0.00     0.114 A  
BRANCH  21  24
HETATM   24  N   UNL     1      -8.072   9.296  64.258  1.00  0.00    -0.135 N  
HETATM   25  C   UNL     1      -7.756   9.590  62.859  1.00  0.00    -0.118 C  
HETATM   26  C   UNL     1      -6.554   8.783  62.376  1.00  0.00    -0.095 C  
HETATM   27  O   UNL     1      -6.829   7.391  62.507  1.00  0.00    -0.067 OA 
HETATM   28  C   UNL     1      -7.090   7.068  63.864  1.00  0.00    -0.061 C  
HETATM   29  C   UNL     1      -8.110   7.936  64.620  1.00  0.00    -0.125 C  
HETATM   30  O   UNL     1      -8.785   7.453  65.529  1.00  0.00    -0.122 OA 
ENDBRANCH  21  24
ENDBRANCH  14  18
ENDBRANCH  11  12
ENDBRANCH   8  11
ENDBRANCH   5   7
TORSDOF 5
ENDMDL
MODEL      161
REMARK 921   NORMALIZED FREE ENERGY PREDICTED BY IDOCK:    2.78 KCAL/MOL
REMARK 922        TOTAL FREE ENERGY PREDICTED BY IDOCK:    3.03 KCAL/MOL
REMARK 923 INTER-LIGAND FREE ENERGY PREDICTED BY IDOCK:   -0.99 KCAL/MOL
REMARK 924 INTRA-LIGAND FREE ENERGY PREDICTED BY IDOCK:    4.03 KCAL/MOL
REMARK 927      BINDING AFFINITY PREDICTED BY RF-SCORE:    0.00 PKD
ROOT
HETATM    1 CL   UNL     1      -9.193  13.103  65.752  1.00  0.00     0.149 Cl 
HETATM    2  C   UNL     1      -9.091  12.424  67.329  1.00  0.00    -0.187 A  
HETATM    3  C   UNL     1      -8.971  13.111  68.506  1.00  0.00    -0.048 A  
HETATM    4  C   UNL     1      -8.909  12.212  69.615  1.00  0.00     1.824 A  
HETATM    5  C   UNL     1      -8.994  10.882  69.230  1.00  0.00     0.031 A  
HETATM    6  S   UNL     1      -9.137  10.748  67.522  1.00  0.00    -0.139 SA 
ENDROOT
BRANCH   5   7
HETATM    7  C   UNL     1      -8.962   9.713  70.101  1.00  0.00    -0.236 C  
HETATM    8  N   UNL     1     -10.004   9.614  71.007  1.00  0.00    -0.300 N  
HETATM    9  O   UNL     1      -8.086   8.856  70.048  1.00  0.00    -0.100 OA 
HETATM   10  H   UNL     1     -10.649  10.398  71.100  1.00  0.00     0.000 HD 
BRANCH   8  11
HETATM   11  C   UNL     1     -10.211   8.434  71.830  1.00  0.00    -0.270 C  
BRANCH  11  12
HETATM   12  C   UNL     1     -10.114   7.158  71.005  1.00  0.00    -0.192 C  
HETATM   13  C   UNL     1      -9.186   7.256  69.819  1.00  0.00    -0.140 C  
HETATM   14  N   UNL     1      -8.831   5.878  69.643  1.00  0.00    -0.130 N  
HETATM   15  C   UNL     1      -8.922   5.249  70.880  1.00  0.00    -0.137 C  
HETATM   16  O   UNL     1      -9.523   6.103  71.780  1.00  0.00    -0.152 OA 
HETATM   17  O   UNL     1      -8.550   4.137  71.217  1.00  0.00    -0.092 OA 
BRANCH  14  18
HETATM   18  C   UNL     1      -8.427   5.300  68.413  1.00  0.00    -0.096 A  
HETATM   19  C   UNL     1      -7.156   4.750  68.250  1.00  0.00    -0.061 A  
HETATM   20  C   UNL     1      -6.760   4.176  67.033  1.00  0.00    -0.047 A  
HETATM   21  C   UNL     1      -7.618   4.116  65.930  1.00  0.00    -0.089 A  
HETATM   22  C   UNL     1      -9.299   5.222  67.322  1.00  0.00    -0.123 A  
HETATM   23  C   UNL     1      -8.907   4.626  66.109  1.00  0.00    -0.118 A  
BRANCH  21  24
HETATM   24  N   UNL     1      -7.143   3.649  64.661  1.00  0.00    -0.060 N  
HETATM   25  C   UNL     1      -5.729   3.337  64.449  1.00  0.00    -0.010 C  
HETATM   26  C   UNL     1      -5.553   2.028  63.685  1.00  0.00    -0.008 C  
HETATM   27  O   UNL     1      -6.203   2.121  62.420  1.00  0.00    -0.009 OA 
HETATM   28  C   UNL     1      -7.587   2.373  62.597  1.00  0.00    -0.053 C  
HETATM   29  C   UNL     1      -7.989   3.518  63.543  1.00  0.00    -0.083 C  
HETATM   30  O   UNL     1      -9.029   4.147  63.351  1.00  0.00    -0.116 OA 
ENDBRANCH  21  24
ENDBRANCH  14  18
ENDBRANCH  11  12
ENDBRANCH   8  11
ENDBRANCH   5   7
TORSDOF 5
ENDMDL
MODEL      162
REMARK 921   NORMALIZED FREE ENERGY PREDICTED BY IDOCK:    3.69 KCAL/MOL
REMARK 922        TOTAL FREE ENERGY PREDICTED BY IDOCK:    4.21 KCAL/MOL
REMARK 923 INTER-LIGAND FREE ENERGY PREDICTED BY IDOCK:    1.63 KCAL/MOL
REMARK 924 INTRA-LIGAND FREE ENERGY PREDICTED BY IDOCK:    2.58 KCAL/MOL
REMARK 927      BINDING AFFINITY PREDICTED BY RF-SCORE:    0.00 PKD
ROOT
HETATM    1 CL   UNL     1     -10.855  12.378  62.560  1.00  0.00     1.569 Cl 
HETATM    2  C   UNL     1     -11.132  13.344  63.956  1.00  0.00    -0.253 A  
HETATM    3  C   UNL     1     -10.760  14.649  64.132  1.00  0.00     0.628 A  
HETATM    4  C   UNL     1     -11.154  15.121  65.422  1.00  0.00    -0.371 A  
HETATM    5  C   UNL     1     -11.816  14.155  66.165  1.00  0.00    -0.407 A  
HETATM    6  S   UNL     1     -11.939  12.684  65.283  1.00  0.00    -0.454 SA 
ENDROOT
BRANCH   5   7
HETATM    7  C   UNL     1     -12.351  14.299  67.514  1.00  0.00    -0.049 C  
HETATM    8  N   UNL     1     -11.905  15.403  68.219  1.00  0.00    -0.485 N  
HETATM    9  O   UNL     1     -13.150  13.511  68.010  1.00  0.00     1.513 OA 
HETATM   10  H   UNL     1     -11.158  15.971  67.820  1.00  0.00     0.000 HD 
BRANCH   8  11
HETATM   11  C   UNL     1     -12.462  15.781  69.507  1.00  0.00     0.074 C  
BRANCH  11  12
HETATM   12  C   UNL     1     -12.961  14.564  70.275  1.00  0.00    -0.100 C  
HETATM   13  C   UNL     1     -12.103  13.334  70.112  1.00  0.00    -0.333 C  
HETATM   14  N   UNL     1     -12.409  12.631  71.323  1.00  0.00    -0.176 N  
HETATM   15  C   UNL     1     -12.759  13.570  72.288  1.00  0.00    -0.090 C  
HETATM   16  O   UNL     1     -12.900  14.804  71.689  1.00  0.00    -0.301 OA 
HETATM   17  O   UNL     1     -12.925  13.428  73.488  1.00  0.00     0.365 OA 
BRANCH  14  18
HETATM   18  C   UNL     1     -12.323  11.226  71.484  1.00  0.00    -0.117 A  
HETATM   19  C   UNL     1     -13.224  10.528  72.286  1.00  0.00    -0.253 A  
HETATM   20  C   UNL     1     -13.139   9.136  72.441  1.00  0.00    -0.493 A  
HETATM   21  C   UNL     1     -12.157   8.379  71.793  1.00  0.00    -0.328 A  
HETATM   22  C   UNL     1     -11.354  10.472  70.813  1.00  0.00    -0.295 A  
HETATM   23  C   UNL     1     -11.283   9.074  70.952  1.00  0.00    -0.348 A  
BRANCH  21  24
HETATM   24  N   UNL     1     -12.009   6.982  72.075  1.00  0.00    -0.299 N  
HETATM   25  C   UNL     1     -10.723   6.427  72.499  1.00  0.00    -0.227 C  
HETATM   26  C   UNL     1     -10.891   5.452  73.661  1.00  0.00    -0.272 C  
HETATM   27  O   UNL     1     -11.751   4.385  73.269  1.00  0.00    -0.226 OA 
HETATM   28  C   UNL     1     -13.024   4.891  72.900  1.00  0.00     1.356 C  
HETATM   29  C   UNL     1     -13.064   6.065  71.906  1.00  0.00     0.782 C  
HETATM   30  O   UNL     1     -14.018   6.199  71.141  1.00  0.00     1.219 OA 
ENDBRANCH  21  24
ENDBRANCH  14  18
ENDBRANCH  11  12
ENDBRANCH   8  11
ENDBRANCH   5   7
TORSDOF 5
ENDMDL
MODEL      163
REMARK 921   NORMALIZED FREE ENERGY PREDICTED BY IDOCK:    4.00 KCAL/MOL
REMARK 922        TOTAL FREE ENERGY PREDICTED BY IDOCK:    4.61 KCAL/MOL
REMARK 923 INTER-LIGAND FREE ENERGY PREDICTED BY IDOCK:    2.81 KCAL/MOL
REMARK 924 INTRA-LIGAND FREE ENERGY PREDICTED BY IDOCK:    1.80 KCAL/MOL
REMARK 927      BINDING AFFINITY PREDICTED BY RF-SCORE:    0.00 PKD
ROOT
HETATM    1 CL   UNL     1     -10.707  12.257  62.516  1.00  0.00     1.366 Cl 
HETATM    2  C   UNL     1     -11.149  13.057  63.973  1.00  0.00    -0.395 A  
HETATM    3  C   UNL     1     -10.977  14.385  64.259  1.00  0.00    -0.005 A  
HETATM    4  C   UNL     1     -11.459  14.689  65.569  1.00  0.00    -0.341 A  
HETATM    5  C   UNL     1     -11.983  13.580  66.217  1.00  0.00    -0.413 A  
HETATM    6  S   UNL     1     -11.871  12.182  65.222  1.00  0.00    -0.214 SA 
ENDROOT
BRANCH   5   7
HETATM    7  C   UNL     1     -12.556  13.536  67.557  1.00  0.00     0.464 C  
HETATM    8  N   UNL     1     -12.424  14.694  68.302  1.00  0.00    -0.492 N  
HETATM    9  O   UNL     1     -13.128  12.551  68.013  1.00  0.00     1.908 OA 
HETATM   10  H   UNL     1     -11.846  15.451  67.935  1.00  0.00     0.000 HD 
BRANCH   8  11
HETATM   11  C   UNL     1     -13.079  14.872  69.588  1.00  0.00     0.570 C  
BRANCH  11  12
HETATM   12  C   UNL     1     -13.383  13.532  70.246  1.00  0.00     0.797 C  
HETATM   13  C   UNL     1     -12.178  12.642  70.424  1.00  0.00    -0.288 C  
HETATM   14  N   UNL     1     -12.603  11.835  71.530  1.00  0.00    -0.269 N  
HETATM   15  C   UNL     1     -13.503  12.580  72.285  1.00  0.00    -0.386 C  
HETATM   16  O   UNL     1     -13.832  13.727  71.595  1.00  0.00    -0.329 OA 
HETATM   17  O   UNL     1     -13.973  12.349  73.387  1.00  0.00     1.666 OA 
BRANCH  14  18
HETATM   18  C   UNL     1     -12.138  10.523  71.797  1.00  0.00     0.068 A  
HETATM   19  C   UNL     1     -10.782  10.205  71.734  1.00  0.00     1.531 A  
HETATM   20  C   UNL     1     -10.323   8.907  72.001  1.00  0.00    -0.378 A  
HETATM   21  C   UNL     1     -11.197   7.872  72.354  1.00  0.00    -0.350 A  
HETATM   22  C   UNL     1     -13.014   9.500  72.173  1.00  0.00    -0.497 A  
HETATM   23  C   UNL     1     -12.551   8.203  72.462  1.00  0.00    -0.200 A  
BRANCH  21  24
HETATM   24  N   UNL     1     -10.719   6.528  72.489  1.00  0.00    -0.217 N  
HETATM   25  C   UNL     1     -11.213   5.457  71.622  1.00  0.00     0.021 C  
HETATM   26  C   UNL     1     -10.075   4.574  71.120  1.00  0.00    -0.147 C  
HETATM   27  O   UNL     1      -9.394   3.995  72.230  1.00  0.00    -0.117 OA 
HETATM   28  C   UNL     1      -8.860   5.012  73.063  1.00  0.00    -0.116 C  
HETATM   29  C   UNL     1      -9.801   6.153  73.488  1.00  0.00    -0.174 C  
HETATM   30  O   UNL     1      -9.638   6.724  74.566  1.00  0.00    -0.251 OA 
ENDBRANCH  21  24
ENDBRANCH  14  18
ENDBRANCH  11  12
ENDBRANCH   8  11
ENDBRANCH   5   7
TORSDOF 5
ENDMDL
MODEL      164
REMARK 921   NORMALIZED FREE ENERGY PREDICTED BY IDOCK:   11.51 KCAL/MOL
REMARK 922        TOTAL FREE ENERGY PREDICTED BY IDOCK:   14.31 KCAL/MOL
REMARK 923 INTER-LIGAND FREE ENERGY PREDICTED BY IDOCK:   13.45 KCAL/MOL
REMARK 924 INTRA-LIGAND FREE ENERGY PREDICTED BY IDOCK:    0.86 KCAL/MOL
REMARK 927      BINDING AFFINITY PREDICTED BY RF-SCORE:    0.00 PKD
ROOT
HETATM    1 CL   UNL     1      -6.229  19.018  64.348  1.00  0.00    -0.143 Cl 
HETATM    2  C   UNL     1      -6.916  18.978  65.924  1.00  0.00    -0.268 A  
HETATM    3  C   UNL     1      -7.901  19.797  66.405  1.00  0.00    -0.328 A  
HETATM    4  C   UNL     1      -8.214  19.474  67.761  1.00  0.00    -0.333 A  
HETATM    5  C   UNL     1      -7.457  18.418  68.247  1.00  0.00    -0.280 A  
HETATM    6  S   UNL     1      -6.370  17.842  67.046  1.00  0.00    -0.173 SA 
ENDROOT
BRANCH   5   7
HETATM    7  C   UNL     1      -7.519  17.834  69.583  1.00  0.00     0.518 C  
HETATM    8  N   UNL     1      -8.783  17.487  70.025  1.00  0.00     1.763 N  
HETATM    9  O   UNL     1      -6.529  17.647  70.283  1.00  0.00     0.173 OA 
HETATM   10  H   UNL     1      -9.592  17.759  69.465  1.00  0.00     0.000 HD 
BRANCH   8  11
HETATM   11  C   UNL     1      -9.002  16.748  71.257  1.00  0.00     6.942 C  
BRANCH  11  12
HETATM   12  C   UNL     1      -8.388  15.355  71.185  1.00  0.00     3.342 C  
HETATM   13  C   UNL     1      -8.728  14.593  69.929  1.00  0.00     0.616 C  
HETATM   14  N   UNL     1      -7.611  13.697  69.850  1.00  0.00     0.796 N  
HETATM   15  C   UNL     1      -6.525  14.307  70.469  1.00  0.00    -0.035 C  
HETATM   16  O   UNL     1      -6.956  15.442  71.123  1.00  0.00     1.007 OA 
HETATM   17  O   UNL     1      -5.350  13.979  70.480  1.00  0.00    -0.100 OA 
BRANCH  14  18
HETATM   18  C   UNL     1      -7.636  12.432  69.211  1.00  0.00     0.354 A  
HETATM   19  C   UNL     1      -6.620  12.034  68.343  1.00  0.00    -0.058 A  
HETATM   20  C   UNL     1      -6.646  10.781  67.714  1.00  0.00    -0.064 A  
HETATM   21  C   UNL     1      -7.680   9.865  67.933  1.00  0.00    -0.090 A  
HETATM   22  C   UNL     1      -8.661  11.512  69.454  1.00  0.00     0.614 A  
HETATM   23  C   UNL     1      -8.675  10.246  68.839  1.00  0.00    -0.152 A  
BRANCH  21  24
HETATM   24  N   UNL     1      -7.752   8.651  67.176  1.00  0.00    -0.096 N  
HETATM   25  C   UNL     1      -8.296   8.635  65.817  1.00  0.00    -0.144 C  
HETATM   26  C   UNL     1      -7.431   7.800  64.877  1.00  0.00    -0.094 C  
HETATM   27  O   UNL     1      -7.354   6.462  65.362  1.00  0.00    -0.071 OA 
HETATM   28  C   UNL     1      -6.782   6.442  66.660  1.00  0.00    -0.060 C  
HETATM   29  C   UNL     1      -7.360   7.408  67.709  1.00  0.00    -0.092 C  
HETATM   30  O   UNL     1      -7.344   7.111  68.903  1.00  0.00    -0.088 OA 
ENDBRANCH  21  24
ENDBRANCH  14  18
ENDBRANCH  11  12
ENDBRANCH   8  11
ENDBRANCH   5   7
TORSDOF 5
ENDMDL
MODEL      165
REMARK 921   NORMALIZED FREE ENERGY PREDICTED BY IDOCK:   12.96 KCAL/MOL
REMARK 922        TOTAL FREE ENERGY PREDICTED BY IDOCK:   16.19 KCAL/MOL
REMARK 923 INTER-LIGAND FREE ENERGY PREDICTED BY IDOCK:   16.04 KCAL/MOL
REMARK 924 INTRA-LIGAND FREE ENERGY PREDICTED BY IDOCK:    0.16 KCAL/MOL
REMARK 927      BINDING AFFINITY PREDICTED BY RF-SCORE:    0.00 PKD
ROOT
HETATM    1 CL   UNL     1      -8.137  14.811  66.128  1.00  0.00     0.896 Cl 
HETATM    2  C   UNL     1      -7.890  14.775  67.830  1.00  0.00    -0.151 A  
HETATM    3  C   UNL     1      -8.772  15.190  68.790  1.00  0.00    -0.194 A  
HETATM    4  C   UNL     1      -8.220  15.016  70.097  1.00  0.00     0.567 A  
HETATM    5  C   UNL     1      -6.945  14.468  70.069  1.00  0.00    -0.019 A  
HETATM    6  S   UNL     1      -6.437  14.184  68.452  1.00  0.00    -0.117 SA 
ENDROOT
BRANCH   5   7
HETATM    7  C   UNL     1      -6.098  14.160  71.216  1.00  0.00    -0.048 C  
HETATM    8  N   UNL     1      -6.437  13.018  71.920  1.00  0.00     1.906 N  
HETATM    9  O   UNL     1      -5.138  14.848  71.548  1.00  0.00    -0.145 OA 
HETATM   10  H   UNL     1      -7.304  12.536  71.685  1.00  0.00     0.000 HD 
BRANCH   8  11
HETATM   11  C   UNL     1      -5.602  12.482  72.983  1.00  0.00     1.249 C  
BRANCH  11  12
HETATM   12  C   UNL     1      -6.149  11.159  73.503  1.00  0.00     2.847 C  
HETATM   13  C   UNL     1      -7.224  10.550  72.639  1.00  0.00     5.416 C  
HETATM   14  N   UNL     1      -7.091   9.164  72.982  1.00  0.00     0.487 N  
HETATM   15  C   UNL     1      -5.771   8.942  73.364  1.00  0.00    -0.089 C  
HETATM   16  O   UNL     1      -5.125  10.153  73.488  1.00  0.00    -0.291 OA 
HETATM   17  O   UNL     1      -5.187   7.890  73.567  1.00  0.00    -0.044 OA 
BRANCH  14  18
HETATM   18  C   UNL     1      -8.134   8.209  72.898  1.00  0.00    -0.167 A  
HETATM   19  C   UNL     1      -7.962   6.902  73.352  1.00  0.00    -0.108 A  
HETATM   20  C   UNL     1      -8.997   5.959  73.272  1.00  0.00    -0.130 A  
HETATM   21  C   UNL     1     -10.252   6.282  72.745  1.00  0.00    -0.185 A  
HETATM   22  C   UNL     1      -9.394   8.546  72.393  1.00  0.00    -0.349 A  
HETATM   23  C   UNL     1     -10.438   7.605  72.332  1.00  0.00    -0.302 A  
BRANCH  21  24
HETATM   24  N   UNL     1     -11.245   5.267  72.549  1.00  0.00    -0.238 N  
HETATM   25  C   UNL     1     -10.872   3.858  72.414  1.00  0.00     0.179 C  
HETATM   26  C   UNL     1     -11.788   2.956  73.236  1.00  0.00     0.269 C  
HETATM   27  O   UNL     1     -13.136   3.123  72.805  1.00  0.00     1.633 OA 
HETATM   28  C   UNL     1     -13.541   4.472  72.972  1.00  0.00     2.762 C  
HETATM   29  C   UNL     1     -12.614   5.569  72.420  1.00  0.00     0.640 C  
HETATM   30  O   UNL     1     -13.080   6.637  72.027  1.00  0.00    -0.241 OA 
ENDBRANCH  21  24
ENDBRANCH  14  18
ENDBRANCH  11  12
ENDBRANCH   8  11
ENDBRANCH   5   7
TORSDOF 5
ENDMDL
MODEL      166
REMARK 921   NORMALIZED FREE ENERGY PREDICTED BY IDOCK:   17.26 KCAL/MOL
REMARK 922        TOTAL FREE ENERGY PREDICTED BY IDOCK:   21.74 KCAL/MOL
REMARK 923 INTER-LIGAND FREE ENERGY PREDICTED BY IDOCK:   22.54 KCAL/MOL
REMARK 924 INTRA-LIGAND FREE ENERGY PREDICTED BY IDOCK:   -0.79 KCAL/MOL
REMARK 927      BINDING AFFINITY PREDICTED BY RF-SCORE:    0.00 PKD
ROOT
HETATM    1 CL   UNL     1     -10.324   1.621  66.632  1.00  0.00     1.968 Cl 
HETATM    2  C   UNL     1     -10.637   3.095  67.461  1.00  0.00     3.249 A  
HETATM    3  C   UNL     1     -10.490   4.359  66.960  1.00  0.00     0.271 A  
HETATM    4  C   UNL     1     -10.838   5.338  67.941  1.00  0.00     0.168 A  
HETATM    5  C   UNL     1     -11.244   4.772  69.140  1.00  0.00     2.764 A  
HETATM    6  S   UNL     1     -11.184   3.056  69.057  1.00  0.00     9.245 SA 
ENDROOT
BRANCH   5   7
HETATM    7  C   UNL     1     -11.667   5.477  70.346  1.00  0.00     1.313 C  
HETATM    8  N   UNL     1     -11.807   6.847  70.218  1.00  0.00    -0.581 N  
HETATM    9  O   UNL     1     -11.896   4.913  71.410  1.00  0.00     1.347 OA 
HETATM   10  H   UNL     1     -11.501   7.294  69.354  1.00  0.00     0.000 HD 
BRANCH   8  11
HETATM   11  C   UNL     1     -12.375   7.673  71.271  1.00  0.00    -0.309 C  
BRANCH  11  12
HETATM   12  C   UNL     1     -12.211   9.156  70.962  1.00  0.00    -0.242 C  
HETATM   13  C   UNL     1     -11.001   9.484  70.123  1.00  0.00    -0.262 C  
HETATM   14  N   UNL     1     -11.423  10.711  69.513  1.00  0.00    -0.269 N  
HETATM   15  C   UNL     1     -12.811  10.693  69.426  1.00  0.00     0.718 C  
HETATM   16  O   UNL     1     -13.296   9.621  70.144  1.00  0.00     0.407 OA 
HETATM   17  O   UNL     1     -13.563  11.446  68.830  1.00  0.00     3.001 OA 
BRANCH  14  18
HETATM   18  C   UNL     1     -10.547  11.727  69.057  1.00  0.00    -0.136 A  
HETATM   19  C   UNL     1      -9.770  11.559  67.911  1.00  0.00    -0.187 A  
HETATM   20  C   UNL     1      -8.906  12.567  67.460  1.00  0.00    -0.184 A  
HETATM   21  C   UNL     1      -8.788  13.792  68.126  1.00  0.00    -0.185 A  
HETATM   22  C   UNL     1     -10.452  12.959  69.714  1.00  0.00     0.961 A  
HETATM   23  C   UNL     1      -9.601  13.978  69.248  1.00  0.00     0.315 A  
BRANCH  21  24
HETATM   24  N   UNL     1      -7.801  14.749  67.722  1.00  0.00    -0.137 N  
HETATM   25  C   UNL     1      -8.016  15.619  66.565  1.00  0.00    -0.062 C  
HETATM   26  C   UNL     1      -7.605  17.058  66.862  1.00  0.00    -0.209 C  
HETATM   27  O   UNL     1      -6.226  17.096  67.220  1.00  0.00    -0.135 OA 
HETATM   28  C   UNL     1      -5.997  16.301  68.372  1.00  0.00    -0.106 C  
HETATM   29  C   UNL     1      -6.558  14.868  68.373  1.00  0.00    -0.103 C  
HETATM   30  O   UNL     1      -5.989  13.978  69.003  1.00  0.00    -0.086 OA 
ENDBRANCH  21  24
ENDBRANCH  14  18
ENDBRANCH  11  12
ENDBRANCH   8  11
ENDBRANCH   5   7
TORSDOF 5
ENDMDL
MODEL      167
REMARK 921   NORMALIZED FREE ENERGY PREDICTED BY IDOCK:   19.06 KCAL/MOL
REMARK 922        TOTAL FREE ENERGY PREDICTED BY IDOCK:   24.08 KCAL/MOL
REMARK 923 INTER-LIGAND FREE ENERGY PREDICTED BY IDOCK:   20.61 KCAL/MOL
REMARK 924 INTRA-LIGAND FREE ENERGY PREDICTED BY IDOCK:    3.46 KCAL/MOL
REMARK 927      BINDING AFFINITY PREDICTED BY RF-SCORE:    0.00 PKD
ROOT
HETATM    1 CL   UNL     1      -7.844  13.795  65.394  1.00  0.00     5.074 Cl 
HETATM    2  C   UNL     1      -7.690  13.440  67.070  1.00  0.00     0.156 A  
HETATM    3  C   UNL     1      -7.549  14.345  68.086  1.00  0.00    -0.128 A  
HETATM    4  C   UNL     1      -7.443  13.682  69.347  1.00  0.00     0.292 A  
HETATM    5  C   UNL     1      -7.518  12.302  69.233  1.00  0.00     0.252 A  
HETATM    6  S   UNL     1      -7.705  11.834  67.589  1.00  0.00    -0.148 SA 
ENDROOT
BRANCH   5   7
HETATM    7  C   UNL     1      -7.445  11.326  70.315  1.00  0.00     1.383 C  
HETATM    8  N   UNL     1      -8.452  11.406  71.260  1.00  0.00     7.262 N  
HETATM    9  O   UNL     1      -6.564  10.477  70.397  1.00  0.00    -0.192 OA 
HETATM   10  H   UNL     1      -9.101  12.193  71.222  1.00  0.00     0.000 HD 
BRANCH   8  11
HETATM   11  C   UNL     1      -8.619  10.410  72.306  1.00  0.00     7.750 C  
BRANCH  11  12
HETATM   12  C   UNL     1      -8.487   8.997  71.753  1.00  0.00     0.117 C  
HETATM   13  C   UNL     1      -7.949   8.931  70.345  1.00  0.00    -0.117 C  
HETATM   14  N   UNL     1      -7.380   7.614  70.338  1.00  0.00    -0.070 N  
HETATM   15  C   UNL     1      -7.008   7.301  71.642  1.00  0.00    -0.059 C  
HETATM   16  O   UNL     1      -7.510   8.256  72.499  1.00  0.00    -0.114 OA 
HETATM   17  O   UNL     1      -6.342   6.367  72.057  1.00  0.00    -0.044 OA 
BRANCH  14  18
HETATM   18  C   UNL     1      -7.209   6.816  69.180  1.00  0.00    -0.091 A  
HETATM   19  C   UNL     1      -6.597   7.319  68.033  1.00  0.00    -0.050 A  
HETATM   20  C   UNL     1      -6.425   6.527  66.889  1.00  0.00    -0.043 A  
HETATM   21  C   UNL     1      -6.847   5.193  66.843  1.00  0.00    -0.063 A  
HETATM   22  C   UNL     1      -7.611   5.477  69.151  1.00  0.00    -0.086 A  
HETATM   23  C   UNL     1      -7.419   4.676  68.010  1.00  0.00    -0.073 A  
BRANCH  21  24
HETATM   24  N   UNL     1      -6.783   4.449  65.621  1.00  0.00    -0.051 N  
HETATM   25  C   UNL     1      -5.515   4.258  64.915  1.00  0.00    -0.013 C  
HETATM   26  C   UNL     1      -5.351   2.817  64.440  1.00  0.00    -0.009 C  
HETATM   27  O   UNL     1      -6.425   2.478  63.565  1.00  0.00    -0.024 OA 
HETATM   28  C   UNL     1      -7.666   2.606  64.240  1.00  0.00    -0.076 C  
HETATM   29  C   UNL     1      -7.930   3.915  65.004  1.00  0.00    -0.093 C  
HETATM   30  O   UNL     1      -9.078   4.340  65.131  1.00  0.00    -0.131 OA 
ENDBRANCH  21  24
ENDBRANCH  14  18
ENDBRANCH  11  12
ENDBRANCH   8  11
ENDBRANCH   5   7
TORSDOF 5
ENDMDL
MODEL      168
REMARK 921   NORMALIZED FREE ENERGY PREDICTED BY IDOCK:   30.74 KCAL/MOL
REMARK 922        TOTAL FREE ENERGY PREDICTED BY IDOCK:   39.17 KCAL/MOL
REMARK 923 INTER-LIGAND FREE ENERGY PREDICTED BY IDOCK:   38.70 KCAL/MOL
REMARK 924 INTRA-LIGAND FREE ENERGY PREDICTED BY IDOCK:    0.47 KCAL/MOL
REMARK 927      BINDING AFFINITY PREDICTED BY RF-SCORE:    0.00 PKD
ROOT
HETATM    1 CL   UNL     1      -6.233  19.028  64.406  1.00  0.00    -0.143 Cl 
HETATM    2  C   UNL     1      -6.767  19.220  66.029  1.00  0.00    -0.232 A  
HETATM    3  C   UNL     1      -7.531  20.243  66.521  1.00  0.00    -0.300 A  
HETATM    4  C   UNL     1      -7.772  20.072  67.919  1.00  0.00    -0.315 A  
HETATM    5  C   UNL     1      -7.187  18.920  68.424  1.00  0.00    -0.280 A  
HETATM    6  S   UNL     1      -6.344  18.070  67.190  1.00  0.00    -0.167 SA 
ENDROOT
BRANCH   5   7
HETATM    7  C   UNL     1      -7.235  18.443  69.802  1.00  0.00     0.425 C  
HETATM    8  N   UNL     1      -8.474  18.504  70.413  1.00  0.00     2.707 N  
HETATM    9  O   UNL     1      -6.255  18.005  70.397  1.00  0.00     0.014 OA 
HETATM   10  H   UNL     1      -9.238  18.976  69.929  1.00  0.00     0.000 HD 
BRANCH   8  11
HETATM   11  C   UNL     1      -8.728  17.920  71.720  1.00  0.00    12.720 C  
BRANCH  11  12
HETATM   12  C   UNL     1      -8.646  16.399  71.673  1.00  0.00     8.508 C  
HETATM   13  C   UNL     1      -9.330  15.778  70.481  1.00  0.00     1.287 C  
HETATM   14  N   UNL     1      -8.605  14.545  70.369  1.00  0.00     1.435 N  
HETATM   15  C   UNL     1      -7.329  14.749  70.883  1.00  0.00     1.332 C  
HETATM   16  O   UNL     1      -7.283  15.976  71.509  1.00  0.00     3.430 OA 
HETATM   17  O   UNL     1      -6.345  14.030  70.831  1.00  0.00    -0.112 OA 
BRANCH  14  18
HETATM   18  C   UNL     1      -9.121  13.357  69.794  1.00  0.00     2.116 A  
HETATM   19  C   UNL     1      -8.363  12.586  68.914  1.00  0.00     0.257 A  
HETATM   20  C   UNL     1      -8.874  11.408  68.349  1.00  0.00    -0.167 A  
HETATM   21  C   UNL     1     -10.159  10.943  68.646  1.00  0.00    -0.191 A  
HETATM   22  C   UNL     1     -10.398  12.885  70.115  1.00  0.00     2.194 A  
HETATM   23  C   UNL     1     -10.901  11.692  69.565  1.00  0.00    -0.087 A  
BRANCH  21  24
HETATM   24  N   UNL     1     -10.705   9.814  67.953  1.00  0.00    -0.259 N  
HETATM   25  C   UNL     1     -11.298   9.956  66.622  1.00  0.00     0.961 C  
HETATM   26  C   UNL     1     -10.846   8.838  65.686  1.00  0.00     2.902 C  
HETATM   27  O   UNL     1     -11.225   7.577  66.231  1.00  0.00     1.204 OA 
HETATM   28  C   UNL     1     -10.622   7.390  67.502  1.00  0.00    -0.269 C  
HETATM   29  C   UNL     1     -10.753   8.530  68.527  1.00  0.00    -0.031 C  
HETATM   30  O   UNL     1     -10.774   8.282  69.732  1.00  0.00    -0.239 OA 
ENDBRANCH  21  24
ENDBRANCH  14  18
ENDBRANCH  11  12
ENDBRANCH   8  11
ENDBRANCH   5   7
TORSDOF 5
ENDMDL
MODEL      169
REMARK 921   NORMALIZED FREE ENERGY PREDICTED BY IDOCK:   33.85 KCAL/MOL
REMARK 922        TOTAL FREE ENERGY PREDICTED BY IDOCK:   43.18 KCAL/MOL
REMARK 923 INTER-LIGAND FREE ENERGY PREDICTED BY IDOCK:   37.49 KCAL/MOL
REMARK 924 INTRA-LIGAND FREE ENERGY PREDICTED BY IDOCK:    5.69 KCAL/MOL
REMARK 927      BINDING AFFINITY PREDICTED BY RF-SCORE:    0.00 PKD
ROOT
HETATM    1 CL   UNL     1     -13.730  17.933  72.749  1.00  0.00     8.749 Cl 
HETATM    2  C   UNL     1     -12.384  18.144  71.699  1.00  0.00     9.770 A  
HETATM    3  C   UNL     1     -11.131  18.562  72.055  1.00  0.00     3.661 A  
HETATM    4  C   UNL     1     -10.273  18.625  70.914  1.00  0.00     2.526 A  
HETATM    5  C   UNL     1     -10.912  18.244  69.744  1.00  0.00     1.967 A  
HETATM    6  S   UNL     1     -12.551  17.824  70.050  1.00  0.00    11.586 SA 
ENDROOT
BRANCH   5   7
HETATM    7  C   UNL     1     -10.335  18.192  68.405  1.00  0.00    -0.356 C  
HETATM    8  N   UNL     1     -10.772  19.168  67.527  1.00  0.00    -0.473 N  
HETATM    9  O   UNL     1      -9.508  17.354  68.059  1.00  0.00    -0.266 OA 
HETATM   10  H   UNL     1     -11.540  19.776  67.813  1.00  0.00     0.000 HD 
BRANCH   8  11
HETATM   11  C   UNL     1     -10.178  19.358  66.214  1.00  0.00    -0.478 C  
BRANCH  11  12
HETATM   12  C   UNL     1      -9.879  18.024  65.542  1.00  0.00     0.595 C  
HETATM   13  C   UNL     1      -9.497  16.921  66.498  1.00  0.00    -0.276 C  
HETATM   14  N   UNL     1      -9.876  15.766  65.738  1.00  0.00    -0.339 N  
HETATM   15  C   UNL     1     -10.915  16.132  64.889  1.00  0.00    -0.349 C  
HETATM   16  O   UNL     1     -11.062  17.502  64.917  1.00  0.00    -0.860 OA 
HETATM   17  O   UNL     1     -11.641  15.433  64.202  1.00  0.00    -0.259 OA 
BRANCH  14  18
HETATM   18  C   UNL     1      -9.296  14.481  65.881  1.00  0.00    -0.095 A  
HETATM   19  C   UNL     1      -7.958  14.321  66.239  1.00  0.00     1.470 A  
HETATM   20  C   UNL     1      -7.387  13.049  66.384  1.00  0.00     1.642 A  
HETATM   21  C   UNL     1      -8.129  11.879  66.188  1.00  0.00     0.296 A  
HETATM   22  C   UNL     1     -10.050  13.316  65.708  1.00  0.00    -0.293 A  
HETATM   23  C   UNL     1      -9.482  12.039  65.874  1.00  0.00    -0.207 A  
BRANCH  21  24
HETATM   24  N   UNL     1      -7.489  10.597  66.208  1.00  0.00    -0.133 N  
HETATM   25  C   UNL     1      -8.158   9.407  65.679  1.00  0.00    -0.112 C  
HETATM   26  C   UNL     1      -7.212   8.568  64.825  1.00  0.00    -0.085 C  
HETATM   27  O   UNL     1      -6.094   8.161  65.609  1.00  0.00    -0.041 OA 
HETATM   28  C   UNL     1      -5.396   9.297  66.094  1.00  0.00    -0.037 C  
HETATM   29  C   UNL     1      -6.219  10.399  66.783  1.00  0.00    -0.069 C  
HETATM   30  O   UNL     1      -5.716  11.089  67.669  1.00  0.00    -0.043 OA 
ENDBRANCH  21  24
ENDBRANCH  14  18
ENDBRANCH  11  12
ENDBRANCH   8  11
ENDBRANCH   5   7
TORSDOF 5
ENDMDL
MODEL      170
REMARK 921   NORMALIZED FREE ENERGY PREDICTED BY IDOCK:   55.97 KCAL/MOL
REMARK 922        TOTAL FREE ENERGY PREDICTED BY IDOCK:   71.77 KCAL/MOL
REMARK 923 INTER-LIGAND FREE ENERGY PREDICTED BY IDOCK:   67.35 KCAL/MOL
REMARK 924 INTRA-LIGAND FREE ENERGY PREDICTED BY IDOCK:    4.42 KCAL/MOL
REMARK 927      BINDING AFFINITY PREDICTED BY RF-SCORE:    0.00 PKD
ROOT
HETATM    1 CL   UNL     1     -13.808  18.145  72.714  1.00  0.00    11.091 Cl 
HETATM    2  C   UNL     1     -12.115  17.984  72.973  1.00  0.00     3.478 A  
HETATM    3  C   UNL     1     -11.480  17.899  74.182  1.00  0.00     0.920 A  
HETATM    4  C   UNL     1     -10.067  17.780  74.007  1.00  0.00     7.366 A  
HETATM    5  C   UNL     1      -9.693  17.771  72.671  1.00  0.00    10.070 A  
HETATM    6  S   UNL     1     -11.069  17.919  71.651  1.00  0.00     3.481 SA 
ENDROOT
BRANCH   5   7
HETATM    7  C   UNL     1      -8.339  17.664  72.140  1.00  0.00    14.803 C  
HETATM    8  N   UNL     1      -7.716  18.864  71.844  1.00  0.00     5.753 N  
HETATM    9  O   UNL     1      -7.767  16.593  71.965  1.00  0.00     8.803 OA 
HETATM   10  H   UNL     1      -8.261  19.725  71.895  1.00  0.00     0.000 HD 
BRANCH   8  11
HETATM   11  C   UNL     1      -6.315  18.942  71.464  1.00  0.00     1.307 C  
BRANCH  11  12
HETATM   12  C   UNL     1      -5.979  17.929  70.376  1.00  0.00     0.053 C  
HETATM   13  C   UNL     1      -6.931  16.762  70.301  1.00  0.00     1.174 C  
HETATM   14  N   UNL     1      -6.770  16.372  68.930  1.00  0.00    -0.162 N  
HETATM   15  C   UNL     1      -6.402  17.501  68.204  1.00  0.00    -0.173 C  
HETATM   16  O   UNL     1      -6.112  18.527  69.077  1.00  0.00    -0.217 OA 
HETATM   17  O   UNL     1      -6.329  17.659  66.997  1.00  0.00    -0.143 OA 
BRANCH  14  18
HETATM   18  C   UNL     1      -6.991  15.065  68.432  1.00  0.00    -0.109 A  
HETATM   19  C   UNL     1      -6.755  13.936  69.216  1.00  0.00    -0.108 A  
HETATM   20  C   UNL     1      -6.978  12.643  68.722  1.00  0.00    -0.096 A  
HETATM   21  C   UNL     1      -7.458  12.419  67.427  1.00  0.00    -0.157 A  
HETATM   22  C   UNL     1      -7.495  14.850  67.145  1.00  0.00    -0.111 A  
HETATM   23  C   UNL     1      -7.739  13.552  66.657  1.00  0.00     0.829 A  
BRANCH  21  24
HETATM   24  N   UNL     1      -7.548  11.089  66.902  1.00  0.00    -0.127 N  
HETATM   25  C   UNL     1      -7.757  10.851  65.473  1.00  0.00     0.057 C  
HETATM   26  C   UNL     1      -6.845   9.744  64.951  1.00  0.00    -0.117 C  
HETATM   27  O   UNL     1      -7.101   8.538  65.665  1.00  0.00    -0.076 OA 
HETATM   28  C   UNL     1      -6.857   8.726  67.050  1.00  0.00    -0.070 C  
HETATM   29  C   UNL     1      -7.498   9.950  67.727  1.00  0.00    -0.090 C  
HETATM   30  O   UNL     1      -7.808   9.910  68.917  1.00  0.00    -0.083 OA 
ENDBRANCH  21  24
ENDBRANCH  14  18
ENDBRANCH  11  12
ENDBRANCH   8  11
ENDBRANCH   5   7
TORSDOF 5
ENDMDL
