MODEL        1
REMARK 921   NORMALIZED FREE ENERGY PREDICTED BY IDOCK:   -6.19 KCAL/MOL
REMARK 922        TOTAL FREE ENERGY PREDICTED BY IDOCK:   -8.46 KCAL/MOL
REMARK 923 INTER-LIGAND FREE ENERGY PREDICTED BY IDOCK:   -8.00 KCAL/MOL
REMARK 924 INTRA-LIGAND FREE ENERGY PREDICTED BY IDOCK:   -0.46 KCAL/MOL
REMARK 927      BINDING AFFINITY PREDICTED BY RF-SCORE:    0.00 PKD
ROOT
HETATM    1  C   UNL     1     -12.736   7.296  71.338  1.00  0.00    -0.389 C  
HETATM    2  N   UNL     1     -12.242   8.309  72.278  1.00  0.00    -0.362 NA 
HETATM    3  C   UNL     1     -10.798   8.481  72.101  1.00  0.00    -0.357 C  
ENDROOT
BRANCH   2   4
HETATM    4  C   UNL     1     -12.987   9.570  72.078  1.00  0.00    -0.426 C  
BRANCH   4   5
HETATM    5  C   UNL     1     -12.396  10.495  71.001  1.00  0.00    -0.503 C  
BRANCH   5   6
HETATM    6  C   UNL     1     -12.728  11.943  71.223  1.00  0.00    -0.401 A  
HETATM    7  C   UNL     1     -13.385  12.471  72.318  1.00  0.00    -0.370 A  
HETATM    8  N   UNL     1     -13.420  13.831  72.186  1.00  0.00    -0.456 NA 
HETATM    9  C   UNL     1     -12.772  14.213  71.036  1.00  0.00    -0.362 A  
HETATM   10  H   UNL     1     -13.864  14.470  72.845  1.00  0.00     0.000 HD 
HETATM   11  C   UNL     1     -12.379  13.048  70.379  1.00  0.00    -0.351 A  
HETATM   12  C   UNL     1     -11.738  13.170  69.128  1.00  0.00    -0.376 A  
HETATM   13  C   UNL     1     -11.467  14.446  68.591  1.00  0.00    -0.316 A  
HETATM   14  C   UNL     1     -12.501  15.493  70.540  1.00  0.00    -0.472 A  
HETATM   15  C   UNL     1     -11.833  15.590  69.314  1.00  0.00    -0.372 A  
BRANCH  13  16
HETATM   16  C   UNL     1     -10.796  14.577  67.247  1.00  0.00    -0.297 C  
BRANCH  16  17
HETATM   17  N   UNL     1     -11.426  13.820  66.176  1.00  0.00    -0.328 NA 
HETATM   18  C   UNL     1     -12.656  13.953  65.610  1.00  0.00    -0.517 A  
HETATM   19  N   UNL     1     -12.807  13.065  64.653  1.00  0.00    -0.732 NA 
HETATM   20  C   UNL     1     -11.620  12.396  64.669  1.00  0.00    -0.343 A  
HETATM   21  N   UNL     1     -10.740  12.821  65.582  1.00  0.00    -0.269 NA 
ENDBRANCH  16  17
ENDBRANCH  13  16
ENDBRANCH   5   6
ENDBRANCH   4   5
ENDBRANCH   2   4
TORSDOF 5
ENDMDL
MODEL        2
REMARK 921   NORMALIZED FREE ENERGY PREDICTED BY IDOCK:   -6.11 KCAL/MOL
REMARK 922        TOTAL FREE ENERGY PREDICTED BY IDOCK:   -8.35 KCAL/MOL
REMARK 923 INTER-LIGAND FREE ENERGY PREDICTED BY IDOCK:   -7.95 KCAL/MOL
REMARK 924 INTRA-LIGAND FREE ENERGY PREDICTED BY IDOCK:   -0.40 KCAL/MOL
REMARK 927      BINDING AFFINITY PREDICTED BY RF-SCORE:    0.00 PKD
ROOT
HETATM    1  C   UNL     1     -14.286  14.497  72.069  1.00  0.00    -0.558 C  
HETATM    2  N   UNL     1     -13.518  15.641  71.562  1.00  0.00    -0.482 NA 
HETATM    3  C   UNL     1     -12.515  16.036  72.553  1.00  0.00    -0.473 C  
ENDROOT
BRANCH   2   4
HETATM    4  C   UNL     1     -12.915  15.289  70.259  1.00  0.00    -0.191 C  
BRANCH   4   5
HETATM    5  C   UNL     1     -11.797  14.236  70.340  1.00  0.00    -0.375 C  
BRANCH   5   6
HETATM    6  C   UNL     1     -11.772  13.313  69.154  1.00  0.00    -0.379 A  
HETATM    7  C   UNL     1     -11.975  11.947  69.179  1.00  0.00    -0.276 A  
HETATM    8  N   UNL     1     -11.955  11.484  67.894  1.00  0.00    -0.641 NA 
HETATM    9  C   UNL     1     -11.771  12.526  67.017  1.00  0.00    -0.367 A  
HETATM   10  H   UNL     1     -12.061  10.506  67.624  1.00  0.00     0.000 HD 
HETATM   11  C   UNL     1     -11.591  13.678  67.780  1.00  0.00    -0.373 A  
HETATM   12  C   UNL     1     -11.320  14.889  67.108  1.00  0.00    -0.348 A  
HETATM   13  C   UNL     1     -11.283  14.925  65.698  1.00  0.00    -0.347 A  
HETATM   14  C   UNL     1     -11.757  12.531  65.618  1.00  0.00    -0.473 A  
HETATM   15  C   UNL     1     -11.522  13.750  64.973  1.00  0.00    -0.340 A  
BRANCH  13  16
HETATM   16  C   UNL     1     -10.978  16.216  64.981  1.00  0.00    -0.344 C  
BRANCH  16  17
HETATM   17  N   UNL     1     -10.163  17.155  65.736  1.00  0.00    -0.572 NA 
HETATM   18  C   UNL     1     -10.520  18.269  66.431  1.00  0.00    -0.366 A  
HETATM   19  N   UNL     1      -9.457  18.812  66.981  1.00  0.00    -0.293 NA 
HETATM   20  C   UNL     1      -8.452  17.979  66.589  1.00  0.00    -0.262 A  
HETATM   21  N   UNL     1      -8.833  16.950  65.827  1.00  0.00    -0.493 NA 
ENDBRANCH  16  17
ENDBRANCH  13  16
ENDBRANCH   5   6
ENDBRANCH   4   5
ENDBRANCH   2   4
TORSDOF 5
ENDMDL
MODEL        3
REMARK 921   NORMALIZED FREE ENERGY PREDICTED BY IDOCK:   -6.08 KCAL/MOL
REMARK 922        TOTAL FREE ENERGY PREDICTED BY IDOCK:   -8.32 KCAL/MOL
REMARK 923 INTER-LIGAND FREE ENERGY PREDICTED BY IDOCK:   -7.84 KCAL/MOL
REMARK 924 INTRA-LIGAND FREE ENERGY PREDICTED BY IDOCK:   -0.48 KCAL/MOL
REMARK 927      BINDING AFFINITY PREDICTED BY RF-SCORE:    0.00 PKD
ROOT
HETATM    1  C   UNL     1     -14.104   8.055  71.631  1.00  0.00    -0.431 C  
HETATM    2  N   UNL     1     -13.169   8.973  72.290  1.00  0.00    -0.432 NA 
HETATM    3  C   UNL     1     -11.939   8.257  72.636  1.00  0.00    -0.295 C  
ENDROOT
BRANCH   2   4
HETATM    4  C   UNL     1     -12.915  10.133  71.409  1.00  0.00    -0.429 C  
BRANCH   4   5
HETATM    5  C   UNL     1     -11.525  10.140  70.751  1.00  0.00    -0.442 C  
BRANCH   5   6
HETATM    6  C   UNL     1     -11.506  10.846  69.426  1.00  0.00    -0.373 A  
HETATM    7  C   UNL     1     -11.529  10.247  68.181  1.00  0.00    -0.041 A  
HETATM    8  N   UNL     1     -11.583  11.227  67.230  1.00  0.00    -0.543 NA 
HETATM    9  C   UNL     1     -11.626  12.465  67.827  1.00  0.00    -0.352 A  
HETATM   10  H   UNL     1     -11.590  11.064  66.224  1.00  0.00     0.000 HD 
HETATM   11  C   UNL     1     -11.517  12.262  69.201  1.00  0.00    -0.352 A  
HETATM   12  C   UNL     1     -11.475  13.395  70.043  1.00  0.00    -0.126 A  
HETATM   13  C   UNL     1     -11.589  14.690  69.494  1.00  0.00    -0.350 A  
HETATM   14  C   UNL     1     -11.759  13.734  67.254  1.00  0.00    -0.416 A  
HETATM   15  C   UNL     1     -11.750  14.840  68.110  1.00  0.00    -0.353 A  
BRANCH  13  16
HETATM   16  C   UNL     1     -11.529  15.900  70.391  1.00  0.00    -0.378 C  
BRANCH  16  17
HETATM   17  N   UNL     1     -12.464  15.881  71.506  1.00  0.00    -0.451 NA 
HETATM   18  C   UNL     1     -12.269  16.159  72.823  1.00  0.00    -0.531 A  
HETATM   19  N   UNL     1     -13.402  16.033  73.478  1.00  0.00    -0.598 NA 
HETATM   20  C   UNL     1     -14.280  15.671  72.502  1.00  0.00    -0.388 A  
HETATM   21  N   UNL     1     -13.756  15.566  71.277  1.00  0.00    -0.559 NA 
ENDBRANCH  16  17
ENDBRANCH  13  16
ENDBRANCH   5   6
ENDBRANCH   4   5
ENDBRANCH   2   4
TORSDOF 5
ENDMDL
MODEL        4
REMARK 921   NORMALIZED FREE ENERGY PREDICTED BY IDOCK:   -6.07 KCAL/MOL
REMARK 922        TOTAL FREE ENERGY PREDICTED BY IDOCK:   -8.31 KCAL/MOL
REMARK 923 INTER-LIGAND FREE ENERGY PREDICTED BY IDOCK:   -7.77 KCAL/MOL
REMARK 924 INTRA-LIGAND FREE ENERGY PREDICTED BY IDOCK:   -0.53 KCAL/MOL
REMARK 927      BINDING AFFINITY PREDICTED BY RF-SCORE:    0.00 PKD
ROOT
HETATM    1  C   UNL     1     -12.422  12.605  64.620  1.00  0.00    -0.466 C  
HETATM    2  N   UNL     1     -12.208  12.584  66.071  1.00  0.00    -0.620 NA 
HETATM    3  C   UNL     1     -11.006  11.804  66.379  1.00  0.00    -0.294 C  
ENDROOT
BRANCH   2   4
HETATM    4  C   UNL     1     -12.121  13.971  66.575  1.00  0.00    -0.459 C  
BRANCH   4   5
HETATM    5  C   UNL     1     -11.001  14.207  67.602  1.00  0.00    -0.278 C  
BRANCH   5   6
HETATM    6  C   UNL     1     -11.519  14.475  68.986  1.00  0.00    -0.318 A  
HETATM    7  C   UNL     1     -11.647  15.713  69.585  1.00  0.00    -0.356 A  
HETATM    8  N   UNL     1     -12.229  15.544  70.809  1.00  0.00    -0.371 NA 
HETATM    9  C   UNL     1     -12.516  14.215  71.018  1.00  0.00    -0.367 A  
HETATM   10  H   UNL     1     -12.424  16.294  71.472  1.00  0.00     0.000 HD 
HETATM   11  C   UNL     1     -12.026  13.512  69.919  1.00  0.00    -0.416 A  
HETATM   12  C   UNL     1     -12.143  12.105  69.920  1.00  0.00    -0.324 A  
HETATM   13  C   UNL     1     -12.784  11.448  70.991  1.00  0.00    -0.447 A  
HETATM   14  C   UNL     1     -13.171  13.595  72.087  1.00  0.00    -0.541 A  
HETATM   15  C   UNL     1     -13.307  12.203  72.049  1.00  0.00    -0.470 A  
BRANCH  13  16
HETATM   16  C   UNL     1     -12.895   9.944  71.000  1.00  0.00    -0.331 C  
BRANCH  16  17
HETATM   17  N   UNL     1     -11.762   9.252  71.595  1.00  0.00    -0.369 NA 
HETATM   18  C   UNL     1     -10.426   9.421  71.399  1.00  0.00    -0.288 A  
HETATM   19  N   UNL     1      -9.754   8.590  72.163  1.00  0.00    -0.296 NA 
HETATM   20  C   UNL     1     -10.739   7.919  72.823  1.00  0.00    -0.371 A  
HETATM   21  N   UNL     1     -11.985   8.289  72.512  1.00  0.00    -0.391 NA 
ENDBRANCH  16  17
ENDBRANCH  13  16
ENDBRANCH   5   6
ENDBRANCH   4   5
ENDBRANCH   2   4
TORSDOF 5
ENDMDL
MODEL        5
REMARK 921   NORMALIZED FREE ENERGY PREDICTED BY IDOCK:   -6.06 KCAL/MOL
REMARK 922        TOTAL FREE ENERGY PREDICTED BY IDOCK:   -8.29 KCAL/MOL
REMARK 923 INTER-LIGAND FREE ENERGY PREDICTED BY IDOCK:   -7.84 KCAL/MOL
REMARK 924 INTRA-LIGAND FREE ENERGY PREDICTED BY IDOCK:   -0.44 KCAL/MOL
REMARK 927      BINDING AFFINITY PREDICTED BY RF-SCORE:    0.00 PKD
ROOT
HETATM    1  C   UNL     1     -13.898   8.580  71.943  1.00  0.00    -0.424 C  
HETATM    2  N   UNL     1     -12.809   9.509  72.268  1.00  0.00    -0.370 NA 
HETATM    3  C   UNL     1     -11.557   9.020  71.685  1.00  0.00    -0.356 C  
ENDROOT
BRANCH   2   4
HETATM    4  C   UNL     1     -13.160  10.864  71.792  1.00  0.00    -0.459 C  
BRANCH   4   5
HETATM    5  C   UNL     1     -12.243  11.406  70.683  1.00  0.00    -0.484 C  
BRANCH   5   6
HETATM    6  C   UNL     1     -12.320  12.899  70.534  1.00  0.00    -0.362 A  
HETATM    7  C   UNL     1     -12.843  13.785  71.456  1.00  0.00    -0.362 A  
HETATM    8  N   UNL     1     -12.655  15.056  70.989  1.00  0.00    -0.321 NA 
HETATM    9  C   UNL     1     -11.989  15.026  69.787  1.00  0.00    -0.328 A  
HETATM   10  H   UNL     1     -12.964  15.903  71.464  1.00  0.00     0.000 HD 
HETATM   11  C   UNL     1     -11.819  13.685  69.445  1.00  0.00    -0.392 A  
HETATM   12  C   UNL     1     -11.208  13.383  68.209  1.00  0.00    -0.310 A  
HETATM   13  C   UNL     1     -10.744  14.421  67.375  1.00  0.00    -0.280 A  
HETATM   14  C   UNL     1     -11.525  16.078  68.990  1.00  0.00    -0.360 A  
HETATM   15  C   UNL     1     -10.890  15.753  67.786  1.00  0.00    -0.316 A  
BRANCH  13  16
HETATM   16  C   UNL     1     -10.106  14.099  66.047  1.00  0.00    -0.316 C  
BRANCH  16  17
HETATM   17  N   UNL     1     -11.035  13.677  65.011  1.00  0.00    -0.328 NA 
HETATM   18  C   UNL     1     -12.026  14.366  64.382  1.00  0.00    -0.452 A  
HETATM   19  N   UNL     1     -12.610  13.596  63.491  1.00  0.00    -0.784 NA 
HETATM   20  C   UNL     1     -11.930  12.422  63.611  1.00  0.00    -0.539 A  
HETATM   21  N   UNL     1     -10.955  12.420  64.525  1.00  0.00    -0.299 NA 
ENDBRANCH  16  17
ENDBRANCH  13  16
ENDBRANCH   5   6
ENDBRANCH   4   5
ENDBRANCH   2   4
TORSDOF 5
ENDMDL
MODEL        6
REMARK 921   NORMALIZED FREE ENERGY PREDICTED BY IDOCK:   -5.99 KCAL/MOL
REMARK 922        TOTAL FREE ENERGY PREDICTED BY IDOCK:   -8.20 KCAL/MOL
REMARK 923 INTER-LIGAND FREE ENERGY PREDICTED BY IDOCK:   -7.75 KCAL/MOL
REMARK 924 INTRA-LIGAND FREE ENERGY PREDICTED BY IDOCK:   -0.45 KCAL/MOL
REMARK 927      BINDING AFFINITY PREDICTED BY RF-SCORE:    0.00 PKD
ROOT
HETATM    1  C   UNL     1     -12.280  16.180  72.349  1.00  0.00    -0.507 C  
HETATM    2  N   UNL     1     -13.386  15.254  72.618  1.00  0.00    -0.431 NA 
HETATM    3  C   UNL     1     -14.350  15.310  71.516  1.00  0.00    -0.527 C  
ENDROOT
BRANCH   2   4
HETATM    4  C   UNL     1     -12.849  13.893  72.826  1.00  0.00    -0.233 C  
BRANCH   4   5
HETATM    5  C   UNL     1     -13.736  12.766  72.273  1.00  0.00    -0.495 C  
BRANCH   5   6
HETATM    6  C   UNL     1     -12.956  11.703  71.554  1.00  0.00    -0.463 A  
HETATM    7  C   UNL     1     -12.828  10.383  71.941  1.00  0.00    -0.415 A  
HETATM    8  N   UNL     1     -12.110   9.720  70.985  1.00  0.00    -0.324 NA 
HETATM    9  C   UNL     1     -11.787  10.574  69.957  1.00  0.00    -0.308 A  
HETATM   10  H   UNL     1     -11.853   8.735  71.028  1.00  0.00     0.000 HD 
HETATM   11  C   UNL     1     -12.251  11.839  70.313  1.00  0.00    -0.381 A  
HETATM   12  C   UNL     1     -11.987  12.917  69.442  1.00  0.00    -0.327 A  
HETATM   13  C   UNL     1     -11.313  12.695  68.223  1.00  0.00    -0.337 A  
HETATM   14  C   UNL     1     -11.131  10.317  68.748  1.00  0.00    -0.276 A  
HETATM   15  C   UNL     1     -10.913  11.395  67.884  1.00  0.00    -0.295 A  
BRANCH  13  16
HETATM   16  C   UNL     1     -11.017  13.849  67.299  1.00  0.00    -0.290 C  
BRANCH  16  17
HETATM   17  N   UNL     1     -11.499  13.678  65.936  1.00  0.00    -0.310 NA 
HETATM   18  C   UNL     1     -12.702  13.989  65.382  1.00  0.00    -0.471 A  
HETATM   19  N   UNL     1     -12.699  13.679  64.106  1.00  0.00    -0.649 NA 
HETATM   20  C   UNL     1     -11.450  13.171  63.918  1.00  0.00    -0.401 A  
HETATM   21  N   UNL     1     -10.675  13.150  65.007  1.00  0.00    -0.309 NA 
ENDBRANCH  16  17
ENDBRANCH  13  16
ENDBRANCH   5   6
ENDBRANCH   4   5
ENDBRANCH   2   4
TORSDOF 5
ENDMDL
MODEL        7
REMARK 921   NORMALIZED FREE ENERGY PREDICTED BY IDOCK:   -5.97 KCAL/MOL
REMARK 922        TOTAL FREE ENERGY PREDICTED BY IDOCK:   -8.17 KCAL/MOL
REMARK 923 INTER-LIGAND FREE ENERGY PREDICTED BY IDOCK:   -7.68 KCAL/MOL
REMARK 924 INTRA-LIGAND FREE ENERGY PREDICTED BY IDOCK:   -0.49 KCAL/MOL
REMARK 927      BINDING AFFINITY PREDICTED BY RF-SCORE:    0.00 PKD
ROOT
HETATM    1  C   UNL     1      -9.350  15.614  69.271  1.00  0.00    -0.267 C  
HETATM    2  N   UNL     1     -10.618  16.340  69.407  1.00  0.00    -0.279 NA 
HETATM    3  C   UNL     1     -11.518  15.965  68.314  1.00  0.00    -0.320 C  
ENDROOT
BRANCH   2   4
HETATM    4  C   UNL     1     -11.203  16.063  70.737  1.00  0.00    -0.352 C  
BRANCH   4   5
HETATM    5  C   UNL     1     -12.679  15.633  70.706  1.00  0.00    -0.483 C  
BRANCH   5   6
HETATM    6  C   UNL     1     -12.917  14.301  71.360  1.00  0.00    -0.411 A  
HETATM    7  C   UNL     1     -13.575  14.086  72.556  1.00  0.00    -0.566 A  
HETATM    8  N   UNL     1     -13.657  12.738  72.767  1.00  0.00    -0.684 NA 
HETATM    9  C   UNL     1     -13.089  12.058  71.716  1.00  0.00    -0.355 A  
HETATM   10  H   UNL     1     -14.077  12.300  73.586  1.00  0.00     0.000 HD 
HETATM   11  C   UNL     1     -12.562  13.011  70.846  1.00  0.00    -0.364 A  
HETATM   12  C   UNL     1     -11.864  12.562  69.705  1.00  0.00    -0.382 A  
HETATM   13  C   UNL     1     -11.754  11.180  69.439  1.00  0.00    -0.402 A  
HETATM   14  C   UNL     1     -13.012  10.682  71.472  1.00  0.00    -0.566 A  
HETATM   15  C   UNL     1     -12.347  10.261  70.316  1.00  0.00    -0.267 A  
BRANCH  13  16
HETATM   16  C   UNL     1     -10.996  10.699  68.228  1.00  0.00    -0.263 C  
BRANCH  16  17
HETATM   17  N   UNL     1     -10.887  11.672  67.151  1.00  0.00    -0.247 NA 
HETATM   18  C   UNL     1      -9.787  12.225  66.572  1.00  0.00    -0.229 A  
HETATM   19  N   UNL     1     -10.152  13.049  65.616  1.00  0.00    -0.280 NA 
HETATM   20  C   UNL     1     -11.511  12.966  65.645  1.00  0.00    -0.332 A  
HETATM   21  N   UNL     1     -12.011  12.136  66.565  1.00  0.00    -0.631 NA 
ENDBRANCH  16  17
ENDBRANCH  13  16
ENDBRANCH   5   6
ENDBRANCH   4   5
ENDBRANCH   2   4
TORSDOF 5
ENDMDL
MODEL        8
REMARK 921   NORMALIZED FREE ENERGY PREDICTED BY IDOCK:   -5.89 KCAL/MOL
REMARK 922        TOTAL FREE ENERGY PREDICTED BY IDOCK:   -8.08 KCAL/MOL
REMARK 923 INTER-LIGAND FREE ENERGY PREDICTED BY IDOCK:   -7.67 KCAL/MOL
REMARK 924 INTRA-LIGAND FREE ENERGY PREDICTED BY IDOCK:   -0.41 KCAL/MOL
REMARK 927      BINDING AFFINITY PREDICTED BY RF-SCORE:    0.00 PKD
ROOT
HETATM    1  C   UNL     1     -13.799  13.383  72.430  1.00  0.00    -0.564 C  
HETATM    2  N   UNL     1     -13.554  14.816  72.628  1.00  0.00    -0.452 NA 
HETATM    3  C   UNL     1     -12.486  14.999  73.613  1.00  0.00    -0.532 C  
ENDROOT
BRANCH   2   4
HETATM    4  C   UNL     1     -13.235  15.444  71.329  1.00  0.00    -0.510 C  
BRANCH   4   5
HETATM    5  C   UNL     1     -12.458  14.540  70.358  1.00  0.00    -0.407 C  
BRANCH   5   6
HETATM    6  C   UNL     1     -11.702  15.311  69.313  1.00  0.00    -0.359 A  
HETATM    7  C   UNL     1     -11.003  16.486  69.512  1.00  0.00    -0.289 A  
HETATM    8  N   UNL     1     -10.388  16.827  68.340  1.00  0.00    -0.299 NA 
HETATM    9  C   UNL     1     -10.646  15.880  67.377  1.00  0.00    -0.315 A  
HETATM   10  H   UNL     1      -9.821  17.662  68.201  1.00  0.00     0.000 HD 
HETATM   11  C   UNL     1     -11.517  14.949  67.938  1.00  0.00    -0.357 A  
HETATM   12  C   UNL     1     -11.986  13.896  67.124  1.00  0.00    -0.455 A  
HETATM   13  C   UNL     1     -11.538  13.777  65.791  1.00  0.00    -0.342 A  
HETATM   14  C   UNL     1     -10.169  15.781  66.065  1.00  0.00    -0.352 A  
HETATM   15  C   UNL     1     -10.620  14.709  65.287  1.00  0.00    -0.409 A  
BRANCH  13  16
HETATM   16  C   UNL     1     -12.051  12.662  64.916  1.00  0.00    -0.438 C  
BRANCH  16  17
HETATM   17  N   UNL     1     -11.026  11.754  64.422  1.00  0.00    -0.322 NA 
HETATM   18  C   UNL     1     -10.368  10.744  65.052  1.00  0.00    -0.287 A  
HETATM   19  N   UNL     1      -9.532  10.167  64.219  1.00  0.00    -0.293 NA 
HETATM   20  C   UNL     1      -9.717  10.870  63.067  1.00  0.00    -0.350 A  
HETATM   21  N   UNL     1     -10.622  11.851  63.139  1.00  0.00    -0.337 NA 
ENDBRANCH  16  17
ENDBRANCH  13  16
ENDBRANCH   5   6
ENDBRANCH   4   5
ENDBRANCH   2   4
TORSDOF 5
ENDMDL
MODEL        9
REMARK 921   NORMALIZED FREE ENERGY PREDICTED BY IDOCK:   -5.85 KCAL/MOL
REMARK 922        TOTAL FREE ENERGY PREDICTED BY IDOCK:   -8.01 KCAL/MOL
REMARK 923 INTER-LIGAND FREE ENERGY PREDICTED BY IDOCK:   -7.78 KCAL/MOL
REMARK 924 INTRA-LIGAND FREE ENERGY PREDICTED BY IDOCK:   -0.24 KCAL/MOL
REMARK 927      BINDING AFFINITY PREDICTED BY RF-SCORE:    0.00 PKD
ROOT
HETATM    1  C   UNL     1     -10.918   7.653  72.948  1.00  0.00    -0.400 C  
HETATM    2  N   UNL     1     -11.842   7.961  71.850  1.00  0.00    -0.287 NA 
HETATM    3  C   UNL     1     -12.895   6.945  71.795  1.00  0.00    -0.304 C  
ENDROOT
BRANCH   2   4
HETATM    4  C   UNL     1     -12.384   9.324  72.031  1.00  0.00    -0.363 C  
BRANCH   4   5
HETATM    5  C   UNL     1     -12.063  10.295  70.882  1.00  0.00    -0.468 C  
BRANCH   5   6
HETATM    6  C   UNL     1     -12.545  11.694  71.143  1.00  0.00    -0.439 A  
HETATM    7  C   UNL     1     -13.340  12.100  72.197  1.00  0.00    -0.333 A  
HETATM    8  N   UNL     1     -13.490  13.457  72.127  1.00  0.00    -0.511 NA 
HETATM    9  C   UNL     1     -12.784  13.958  71.060  1.00  0.00    -0.357 A  
HETATM   10  H   UNL     1     -14.046  14.016  72.773  1.00  0.00     0.000 HD 
HETATM   11  C   UNL     1     -12.230  12.870  70.386  1.00  0.00    -0.381 A  
HETATM   12  C   UNL     1     -11.499  13.117  69.205  1.00  0.00    -0.358 A  
HETATM   13  C   UNL     1     -11.303  14.440  68.756  1.00  0.00    -0.299 A  
HETATM   14  C   UNL     1     -12.593  15.282  70.651  1.00  0.00    -0.471 A  
HETATM   15  C   UNL     1     -11.834  15.505  69.497  1.00  0.00    -0.390 A  
BRANCH  13  16
HETATM   16  C   UNL     1     -10.535  14.704  67.486  1.00  0.00    -0.247 C  
BRANCH  16  17
HETATM   17  N   UNL     1     -11.320  14.595  66.265  1.00  0.00    -0.345 NA 
HETATM   18  C   UNL     1     -12.412  13.832  65.986  1.00  0.00    -0.445 A  
HETATM   19  N   UNL     1     -12.816  14.064  64.757  1.00  0.00    -0.687 NA 
HETATM   20  C   UNL     1     -11.925  14.993  64.314  1.00  0.00    -0.295 A  
HETATM   21  N   UNL     1     -10.991  15.353  65.199  1.00  0.00    -0.399 NA 
ENDBRANCH  16  17
ENDBRANCH  13  16
ENDBRANCH   5   6
ENDBRANCH   4   5
ENDBRANCH   2   4
TORSDOF 5
ENDMDL
MODEL       10
REMARK 921   NORMALIZED FREE ENERGY PREDICTED BY IDOCK:   -5.84 KCAL/MOL
REMARK 922        TOTAL FREE ENERGY PREDICTED BY IDOCK:   -8.01 KCAL/MOL
REMARK 923 INTER-LIGAND FREE ENERGY PREDICTED BY IDOCK:   -7.59 KCAL/MOL
REMARK 924 INTRA-LIGAND FREE ENERGY PREDICTED BY IDOCK:   -0.41 KCAL/MOL
REMARK 927      BINDING AFFINITY PREDICTED BY RF-SCORE:    0.00 PKD
ROOT
HETATM    1  C   UNL     1     -10.229   5.769  71.260  1.00  0.00    -0.215 C  
HETATM    2  N   UNL     1     -11.247   5.886  72.310  1.00  0.00    -0.278 NA 
HETATM    3  C   UNL     1     -10.619   6.330  73.556  1.00  0.00    -0.269 C  
ENDROOT
BRANCH   2   4
HETATM    4  C   UNL     1     -12.314   6.806  71.860  1.00  0.00    -0.326 C  
BRANCH   4   5
HETATM    5  C   UNL     1     -11.843   7.897  70.884  1.00  0.00    -0.242 C  
BRANCH   5   6
HETATM    6  C   UNL     1     -12.377   9.260  71.224  1.00  0.00    -0.403 A  
HETATM    7  C   UNL     1     -13.148   9.583  72.324  1.00  0.00    -0.408 A  
HETATM    8  N   UNL     1     -13.361  10.933  72.321  1.00  0.00    -0.563 NA 
HETATM    9  C   UNL     1     -12.719  11.512  71.253  1.00  0.00    -0.364 A  
HETATM   10  H   UNL     1     -13.916  11.437  73.012  1.00  0.00     0.000 HD 
HETATM   11  C   UNL     1     -12.144  10.481  70.511  1.00  0.00    -0.437 A  
HETATM   12  C   UNL     1     -11.469  10.813  69.317  1.00  0.00    -0.369 A  
HETATM   13  C   UNL     1     -11.349  12.162  68.922  1.00  0.00    -0.335 A  
HETATM   14  C   UNL     1     -12.602  12.860  70.898  1.00  0.00    -0.355 A  
HETATM   15  C   UNL     1     -11.898  13.168  69.728  1.00  0.00    -0.386 A  
BRANCH  13  16
HETATM   16  C   UNL     1     -10.642  12.515  67.637  1.00  0.00    -0.217 C  
BRANCH  16  17
HETATM   17  N   UNL     1     -11.522  12.894  66.542  1.00  0.00    -0.323 NA 
HETATM   18  C   UNL     1     -12.116  14.085  66.261  1.00  0.00    -0.456 A  
HETATM   19  N   UNL     1     -12.817  13.985  65.155  1.00  0.00    -0.745 NA 
HETATM   20  C   UNL     1     -12.620  12.689  64.785  1.00  0.00    -0.454 A  
HETATM   21  N   UNL     1     -11.833  11.979  65.600  1.00  0.00    -0.447 NA 
ENDBRANCH  16  17
ENDBRANCH  13  16
ENDBRANCH   5   6
ENDBRANCH   4   5
ENDBRANCH   2   4
TORSDOF 5
ENDMDL
MODEL       11
REMARK 921   NORMALIZED FREE ENERGY PREDICTED BY IDOCK:   -5.78 KCAL/MOL
REMARK 922        TOTAL FREE ENERGY PREDICTED BY IDOCK:   -7.93 KCAL/MOL
REMARK 923 INTER-LIGAND FREE ENERGY PREDICTED BY IDOCK:   -7.72 KCAL/MOL
REMARK 924 INTRA-LIGAND FREE ENERGY PREDICTED BY IDOCK:   -0.21 KCAL/MOL
REMARK 927      BINDING AFFINITY PREDICTED BY RF-SCORE:    0.00 PKD
ROOT
HETATM    1  C   UNL     1     -12.341  15.933  74.454  1.00  0.00    -0.619 C  
HETATM    2  N   UNL     1     -12.718  15.180  73.253  1.00  0.00    -0.467 NA 
HETATM    3  C   UNL     1     -14.024  15.641  72.775  1.00  0.00    -0.482 C  
ENDROOT
BRANCH   2   4
HETATM    4  C   UNL     1     -11.662  15.325  72.230  1.00  0.00    -0.444 C  
BRANCH   4   5
HETATM    5  C   UNL     1     -12.172  15.754  70.844  1.00  0.00    -0.458 C  
BRANCH   5   6
HETATM    6  C   UNL     1     -11.984  14.695  69.795  1.00  0.00    -0.378 A  
HETATM    7  C   UNL     1     -11.553  14.897  68.498  1.00  0.00    -0.323 A  
HETATM    8  N   UNL     1     -11.434  13.681  67.887  1.00  0.00    -0.295 NA 
HETATM    9  C   UNL     1     -11.752  12.674  68.768  1.00  0.00    -0.323 A  
HETATM   10  H   UNL     1     -11.151  13.540  66.918  1.00  0.00     0.000 HD 
HETATM   11  C   UNL     1     -12.160  13.281  69.955  1.00  0.00    -0.377 A  
HETATM   12  C   UNL     1     -12.602  12.455  71.010  1.00  0.00    -0.349 A  
HETATM   13  C   UNL     1     -12.579  11.051  70.869  1.00  0.00    -0.488 A  
HETATM   14  C   UNL     1     -11.702  11.286  68.603  1.00  0.00    -0.391 A  
HETATM   15  C   UNL     1     -12.110  10.486  69.675  1.00  0.00    -0.241 A  
BRANCH  13  16
HETATM   16  C   UNL     1     -13.065  10.169  71.991  1.00  0.00    -0.437 C  
BRANCH  16  17
HETATM   17  N   UNL     1     -12.461   8.846  72.031  1.00  0.00    -0.367 NA 
HETATM   18  C   UNL     1     -11.206   8.462  72.392  1.00  0.00    -0.368 A  
HETATM   19  N   UNL     1     -11.094   7.156  72.296  1.00  0.00    -0.244 NA 
HETATM   20  C   UNL     1     -12.328   6.775  71.866  1.00  0.00    -0.326 A  
HETATM   21  N   UNL     1     -13.202   7.771  71.690  1.00  0.00    -0.344 NA 
ENDBRANCH  16  17
ENDBRANCH  13  16
ENDBRANCH   5   6
ENDBRANCH   4   5
ENDBRANCH   2   4
TORSDOF 5
ENDMDL
MODEL       12
REMARK 921   NORMALIZED FREE ENERGY PREDICTED BY IDOCK:   -5.78 KCAL/MOL
REMARK 922        TOTAL FREE ENERGY PREDICTED BY IDOCK:   -7.93 KCAL/MOL
REMARK 923 INTER-LIGAND FREE ENERGY PREDICTED BY IDOCK:   -7.56 KCAL/MOL
REMARK 924 INTRA-LIGAND FREE ENERGY PREDICTED BY IDOCK:   -0.36 KCAL/MOL
REMARK 927      BINDING AFFINITY PREDICTED BY RF-SCORE:    0.00 PKD
ROOT
HETATM    1  C   UNL     1     -11.229   4.920  73.047  1.00  0.00    -0.289 C  
HETATM    2  N   UNL     1     -10.777   5.798  71.962  1.00  0.00    -0.225 NA 
HETATM    3  C   UNL     1     -10.168   4.992  70.901  1.00  0.00    -0.217 C  
ENDROOT
BRANCH   2   4
HETATM    4  C   UNL     1     -11.917   6.603  71.473  1.00  0.00    -0.352 C  
BRANCH   4   5
HETATM    5  C   UNL     1     -11.521   7.941  70.828  1.00  0.00    -0.273 C  
BRANCH   5   6
HETATM    6  C   UNL     1     -12.337   9.099  71.328  1.00  0.00    -0.382 A  
HETATM    7  C   UNL     1     -13.250   9.067  72.364  1.00  0.00    -0.447 A  
HETATM    8  N   UNL     1     -13.720  10.334  72.565  1.00  0.00    -0.465 NA 
HETATM    9  C   UNL     1     -13.110  11.210  71.699  1.00  0.00    -0.424 A  
HETATM   10  H   UNL     1     -14.421  10.593  73.258  1.00  0.00     0.000 HD 
HETATM   11  C   UNL     1     -12.282  10.456  70.869  1.00  0.00    -0.484 A  
HETATM   12  C   UNL     1     -11.581  11.122  69.840  1.00  0.00    -0.416 A  
HETATM   13  C   UNL     1     -11.690  12.521  69.700  1.00  0.00    -0.372 A  
HETATM   14  C   UNL     1     -13.225  12.600  71.597  1.00  0.00    -0.394 A  
HETATM   15  C   UNL     1     -12.494  13.243  70.592  1.00  0.00    -0.373 A  
BRANCH  13  16
HETATM   16  C   UNL     1     -10.954  13.231  68.592  1.00  0.00    -0.264 C  
BRANCH  16  17
HETATM   17  N   UNL     1     -11.586  13.139  67.284  1.00  0.00    -0.334 NA 
HETATM   18  C   UNL     1     -11.593  12.122  66.380  1.00  0.00    -0.364 A  
HETATM   19  N   UNL     1     -12.310  12.462  65.332  1.00  0.00    -0.614 NA 
HETATM   20  C   UNL     1     -12.730  13.719  65.645  1.00  0.00    -0.478 A  
HETATM   21  N   UNL     1     -12.316  14.179  66.829  1.00  0.00    -0.394 NA 
ENDBRANCH  16  17
ENDBRANCH  13  16
ENDBRANCH   5   6
ENDBRANCH   4   5
ENDBRANCH   2   4
TORSDOF 5
ENDMDL
MODEL       13
REMARK 921   NORMALIZED FREE ENERGY PREDICTED BY IDOCK:   -5.75 KCAL/MOL
REMARK 922        TOTAL FREE ENERGY PREDICTED BY IDOCK:   -7.89 KCAL/MOL
REMARK 923 INTER-LIGAND FREE ENERGY PREDICTED BY IDOCK:   -7.40 KCAL/MOL
REMARK 924 INTRA-LIGAND FREE ENERGY PREDICTED BY IDOCK:   -0.49 KCAL/MOL
REMARK 927      BINDING AFFINITY PREDICTED BY RF-SCORE:    0.00 PKD
ROOT
HETATM    1  C   UNL     1     -11.149  15.717  64.856  1.00  0.00    -0.399 C  
HETATM    2  N   UNL     1     -10.025  16.244  65.638  1.00  0.00    -0.506 NA 
HETATM    3  C   UNL     1     -10.410  17.517  66.253  1.00  0.00    -0.335 C  
ENDROOT
BRANCH   2   4
HETATM    4  C   UNL     1      -9.609  15.239  66.639  1.00  0.00    -0.257 C  
BRANCH   4   5
HETATM    5  C   UNL     1     -10.663  14.940  67.718  1.00  0.00    -0.271 C  
BRANCH   5   6
HETATM    6  C   UNL     1     -10.709  13.491  68.109  1.00  0.00    -0.265 A  
HETATM    7  C   UNL     1      -9.993  12.464  67.525  1.00  0.00    -0.196 A  
HETATM    8  N   UNL     1     -10.246  11.312  68.215  1.00  0.00    -0.179 NA 
HETATM    9  C   UNL     1     -11.096  11.566  69.265  1.00  0.00    -0.246 A  
HETATM   10  H   UNL     1      -9.861  10.397  67.984  1.00  0.00     0.000 HD 
HETATM   11  C   UNL     1     -11.453  12.911  69.190  1.00  0.00    -0.360 A  
HETATM   12  C   UNL     1     -12.376  13.412  70.132  1.00  0.00    -0.322 A  
HETATM   13  C   UNL     1     -12.879  12.572  71.147  1.00  0.00    -0.303 A  
HETATM   14  C   UNL     1     -11.563  10.712  70.270  1.00  0.00    -0.424 A  
HETATM   15  C   UNL     1     -12.450  11.239  71.214  1.00  0.00    -0.441 A  
BRANCH  13  16
HETATM   16  C   UNL     1     -13.878  13.102  72.144  1.00  0.00    -0.414 C  
BRANCH  16  17
HETATM   17  N   UNL     1     -13.464  14.314  72.836  1.00  0.00    -0.647 NA 
HETATM   18  C   UNL     1     -13.890  15.598  72.693  1.00  0.00    -0.564 A  
HETATM   19  N   UNL     1     -13.254  16.377  73.540  1.00  0.00    -0.513 NA 
HETATM   20  C   UNL     1     -12.434  15.509  74.194  1.00  0.00    -0.662 A  
HETATM   21  N   UNL     1     -12.525  14.234  73.802  1.00  0.00    -0.096 NA 
ENDBRANCH  16  17
ENDBRANCH  13  16
ENDBRANCH   5   6
ENDBRANCH   4   5
ENDBRANCH   2   4
TORSDOF 5
ENDMDL
MODEL       14
REMARK 921   NORMALIZED FREE ENERGY PREDICTED BY IDOCK:   -5.71 KCAL/MOL
REMARK 922        TOTAL FREE ENERGY PREDICTED BY IDOCK:   -7.84 KCAL/MOL
REMARK 923 INTER-LIGAND FREE ENERGY PREDICTED BY IDOCK:   -7.36 KCAL/MOL
REMARK 924 INTRA-LIGAND FREE ENERGY PREDICTED BY IDOCK:   -0.48 KCAL/MOL
REMARK 927      BINDING AFFINITY PREDICTED BY RF-SCORE:    0.00 PKD
ROOT
HETATM    1  C   UNL     1     -10.879  15.580  65.317  1.00  0.00    -0.411 C  
HETATM    2  N   UNL     1     -11.724  14.382  65.284  1.00  0.00    -0.353 NA 
HETATM    3  C   UNL     1     -10.996  13.285  64.641  1.00  0.00    -0.370 C  
ENDROOT
BRANCH   2   4
HETATM    4  C   UNL     1     -12.151  14.043  66.658  1.00  0.00    -0.456 C  
BRANCH   4   5
HETATM    5  C   UNL     1     -11.110  14.361  67.744  1.00  0.00    -0.299 C  
BRANCH   5   6
HETATM    6  C   UNL     1     -11.700  14.419  69.125  1.00  0.00    -0.354 A  
HETATM    7  C   UNL     1     -12.057  15.563  69.813  1.00  0.00    -0.349 A  
HETATM    8  N   UNL     1     -12.630  15.194  70.997  1.00  0.00    -0.344 NA 
HETATM    9  C   UNL     1     -12.686  13.823  71.090  1.00  0.00    -0.362 A  
HETATM   10  H   UNL     1     -12.968  15.841  71.708  1.00  0.00     0.000 HD 
HETATM   11  C   UNL     1     -12.055  13.308  69.959  1.00  0.00    -0.385 A  
HETATM   12  C   UNL     1     -11.926  11.908  69.845  1.00  0.00    -0.398 A  
HETATM   13  C   UNL     1     -12.468  11.063  70.836  1.00  0.00    -0.509 A  
HETATM   14  C   UNL     1     -13.250  13.012  72.081  1.00  0.00    -0.558 A  
HETATM   15  C   UNL     1     -13.140  11.626  71.929  1.00  0.00    -0.490 A  
BRANCH  13  16
HETATM   16  C   UNL     1     -12.316   9.567  70.723  1.00  0.00    -0.162 C  
BRANCH  16  17
HETATM   17  N   UNL     1     -11.342   8.983  71.632  1.00  0.00    -0.335 NA 
HETATM   18  C   UNL     1     -11.521   8.193  72.726  1.00  0.00    -0.329 A  
HETATM   19  N   UNL     1     -10.356   7.875  73.243  1.00  0.00    -0.300 NA 
HETATM   20  C   UNL     1      -9.474   8.504  72.417  1.00  0.00    -0.280 A  
HETATM   21  N   UNL     1     -10.027   9.194  71.415  1.00  0.00    -0.314 NA 
ENDBRANCH  16  17
ENDBRANCH  13  16
ENDBRANCH   5   6
ENDBRANCH   4   5
ENDBRANCH   2   4
TORSDOF 5
ENDMDL
MODEL       15
REMARK 921   NORMALIZED FREE ENERGY PREDICTED BY IDOCK:   -5.66 KCAL/MOL
REMARK 922        TOTAL FREE ENERGY PREDICTED BY IDOCK:   -7.78 KCAL/MOL
REMARK 923 INTER-LIGAND FREE ENERGY PREDICTED BY IDOCK:   -7.33 KCAL/MOL
REMARK 924 INTRA-LIGAND FREE ENERGY PREDICTED BY IDOCK:   -0.45 KCAL/MOL
REMARK 927      BINDING AFFINITY PREDICTED BY RF-SCORE:    0.00 PKD
ROOT
HETATM    1  C   UNL     1      -7.904  18.534  68.250  1.00  0.00    -0.303 C  
HETATM    2  N   UNL     1      -9.360  18.375  68.343  1.00  0.00    -0.319 NA 
HETATM    3  C   UNL     1      -9.953  19.601  68.884  1.00  0.00    -0.438 C  
ENDROOT
BRANCH   2   4
HETATM    4  C   UNL     1      -9.903  18.028  67.012  1.00  0.00    -0.318 C  
BRANCH   4   5
HETATM    5  C   UNL     1      -9.475  16.646  66.491  1.00  0.00    -0.288 C  
BRANCH   5   6
HETATM    6  C   UNL     1     -10.476  16.037  65.551  1.00  0.00    -0.426 A  
HETATM    7  C   UNL     1     -11.216  16.711  64.598  1.00  0.00    -0.015 A  
HETATM    8  N   UNL     1     -11.947  15.797  63.893  1.00  0.00    -1.139 NA 
HETATM    9  C   UNL     1     -11.682  14.526  64.345  1.00  0.00    -0.367 A  
HETATM   10  H   UNL     1     -12.596  16.024  63.141  1.00  0.00     0.000 HD 
HETATM   11  C   UNL     1     -10.809  14.648  65.425  1.00  0.00    -0.365 A  
HETATM   12  C   UNL     1     -10.426  13.476  66.111  1.00  0.00    -0.296 A  
HETATM   13  C   UNL     1     -10.886  12.216  65.674  1.00  0.00    -0.323 A  
HETATM   14  C   UNL     1     -12.141  13.291  63.876  1.00  0.00    -0.531 A  
HETATM   15  C   UNL     1     -11.720  12.139  64.550  1.00  0.00    -0.410 A  
BRANCH  13  16
HETATM   16  C   UNL     1     -10.490  10.965  66.416  1.00  0.00    -0.250 C  
BRANCH  16  17
HETATM   17  N   UNL     1     -10.846  10.956  67.827  1.00  0.00    -0.237 NA 
HETATM   18  C   UNL     1     -10.066  10.792  68.930  1.00  0.00    -0.205 A  
HETATM   19  N   UNL     1     -10.804  10.873  70.015  1.00  0.00    -0.161 NA 
HETATM   20  C   UNL     1     -12.053  11.093  69.518  1.00  0.00    -0.326 A  
HETATM   21  N   UNL     1     -12.132  11.154  68.185  1.00  0.00    -0.610 NA 
ENDBRANCH  16  17
ENDBRANCH  13  16
ENDBRANCH   5   6
ENDBRANCH   4   5
ENDBRANCH   2   4
TORSDOF 5
ENDMDL
MODEL       16
REMARK 921   NORMALIZED FREE ENERGY PREDICTED BY IDOCK:   -5.65 KCAL/MOL
REMARK 922        TOTAL FREE ENERGY PREDICTED BY IDOCK:   -7.77 KCAL/MOL
REMARK 923 INTER-LIGAND FREE ENERGY PREDICTED BY IDOCK:   -7.09 KCAL/MOL
REMARK 924 INTRA-LIGAND FREE ENERGY PREDICTED BY IDOCK:   -0.67 KCAL/MOL
REMARK 927      BINDING AFFINITY PREDICTED BY RF-SCORE:    0.00 PKD
ROOT
HETATM    1  C   UNL     1     -10.475  19.739  66.289  1.00  0.00    -0.506 C  
HETATM    2  N   UNL     1      -9.631  20.001  67.460  1.00  0.00    -0.371 NA 
HETATM    3  C   UNL     1     -10.090  19.186  68.588  1.00  0.00    -0.398 C  
ENDROOT
BRANCH   2   4
HETATM    4  C   UNL     1      -8.218  19.740  67.116  1.00  0.00    -0.298 C  
BRANCH   4   5
HETATM    5  C   UNL     1      -8.016  18.735  65.970  1.00  0.00    -0.169 C  
BRANCH   5   6
HETATM    6  C   UNL     1      -7.594  17.375  66.447  1.00  0.00    -0.342 A  
HETATM    7  C   UNL     1      -6.313  16.994  66.795  1.00  0.00    -0.211 A  
HETATM    8  N   UNL     1      -6.354  15.707  67.254  1.00  0.00    -0.314 NA 
HETATM    9  C   UNL     1      -7.648  15.242  67.245  1.00  0.00    -0.210 A  
HETATM   10  H   UNL     1      -5.543  15.171  67.560  1.00  0.00     0.000 HD 
HETATM   11  C   UNL     1      -8.440  16.243  66.686  1.00  0.00    -0.306 A  
HETATM   12  C   UNL     1      -9.816  15.984  66.507  1.00  0.00    -0.284 A  
HETATM   13  C   UNL     1     -10.368  14.757  66.931  1.00  0.00    -0.267 A  
HETATM   14  C   UNL     1      -8.167  14.022  67.691  1.00  0.00    -0.185 A  
HETATM   15  C   UNL     1      -9.540  13.802  67.536  1.00  0.00    -0.219 A  
BRANCH  13  16
HETATM   16  C   UNL     1     -11.835  14.474  66.726  1.00  0.00    -0.371 C  
BRANCH  16  17
HETATM   17  N   UNL     1     -12.164  13.863  65.448  1.00  0.00    -0.417 NA 
HETATM   18  C   UNL     1     -12.282  14.417  64.211  1.00  0.00    -0.423 A  
HETATM   19  N   UNL     1     -12.577  13.488  63.331  1.00  0.00    -0.761 NA 
HETATM   20  C   UNL     1     -12.631  12.357  64.088  1.00  0.00    -0.403 A  
HETATM   21  N   UNL     1     -12.384  12.533  65.390  1.00  0.00    -0.635 NA 
ENDBRANCH  16  17
ENDBRANCH  13  16
ENDBRANCH   5   6
ENDBRANCH   4   5
ENDBRANCH   2   4
TORSDOF 5
ENDMDL
MODEL       17
REMARK 921   NORMALIZED FREE ENERGY PREDICTED BY IDOCK:   -5.65 KCAL/MOL
REMARK 922        TOTAL FREE ENERGY PREDICTED BY IDOCK:   -7.77 KCAL/MOL
REMARK 923 INTER-LIGAND FREE ENERGY PREDICTED BY IDOCK:   -7.24 KCAL/MOL
REMARK 924 INTRA-LIGAND FREE ENERGY PREDICTED BY IDOCK:   -0.52 KCAL/MOL
REMARK 927      BINDING AFFINITY PREDICTED BY RF-SCORE:    0.00 PKD
ROOT
HETATM    1  C   UNL     1     -13.688  13.592  72.380  1.00  0.00    -0.595 C  
HETATM    2  N   UNL     1     -13.793  15.041  72.168  1.00  0.00    -0.431 NA 
HETATM    3  C   UNL     1     -13.165  15.747  73.287  1.00  0.00    -0.581 C  
ENDROOT
BRANCH   2   4
HETATM    4  C   UNL     1     -13.183  15.393  70.868  1.00  0.00    -0.455 C  
BRANCH   4   5
HETATM    5  C   UNL     1     -11.825  14.724  70.599  1.00  0.00    -0.364 C  
BRANCH   5   6
HETATM    6  C   UNL     1     -11.668  14.262  69.179  1.00  0.00    -0.360 A  
HETATM    7  C   UNL     1     -11.962  13.002  68.693  1.00  0.00    -0.263 A  
HETATM    8  N   UNL     1     -11.763  13.003  67.341  1.00  0.00    -0.361 NA 
HETATM    9  C   UNL     1     -11.370  14.251  66.920  1.00  0.00    -0.343 A  
HETATM   10  H   UNL     1     -11.888  12.195  66.733  1.00  0.00     0.000 HD 
HETATM   11  C   UNL     1     -11.242  15.047  68.058  1.00  0.00    -0.324 A  
HETATM   12  C   UNL     1     -10.787  16.373  67.898  1.00  0.00    -0.328 A  
HETATM   13  C   UNL     1     -10.518  16.880  66.609  1.00  0.00    -0.257 A  
HETATM   14  C   UNL     1     -11.129  14.729  65.628  1.00  0.00    -0.342 A  
HETATM   15  C   UNL     1     -10.712  16.058  65.491  1.00  0.00    -0.374 A  
BRANCH  13  16
HETATM   16  C   UNL     1     -10.016  18.292  66.439  1.00  0.00    -0.380 C  
BRANCH  16  17
HETATM   17  N   UNL     1      -8.615  18.486  66.780  1.00  0.00    -0.275 NA 
HETATM   18  C   UNL     1      -8.045  19.022  67.893  1.00  0.00    -0.278 A  
HETATM   19  N   UNL     1      -6.736  18.983  67.788  1.00  0.00    -0.205 NA 
HETATM   20  C   UNL     1      -6.545  18.401  66.571  1.00  0.00    -0.195 A  
HETATM   21  N   UNL     1      -7.663  18.077  65.915  1.00  0.00    -0.534 NA 
ENDBRANCH  16  17
ENDBRANCH  13  16
ENDBRANCH   5   6
ENDBRANCH   4   5
ENDBRANCH   2   4
TORSDOF 5
ENDMDL
MODEL       18
REMARK 921   NORMALIZED FREE ENERGY PREDICTED BY IDOCK:   -5.63 KCAL/MOL
REMARK 922        TOTAL FREE ENERGY PREDICTED BY IDOCK:   -7.73 KCAL/MOL
REMARK 923 INTER-LIGAND FREE ENERGY PREDICTED BY IDOCK:   -7.29 KCAL/MOL
REMARK 924 INTRA-LIGAND FREE ENERGY PREDICTED BY IDOCK:   -0.44 KCAL/MOL
REMARK 927      BINDING AFFINITY PREDICTED BY RF-SCORE:    0.00 PKD
ROOT
HETATM    1  C   UNL     1     -10.514  11.872  63.649  1.00  0.00    -0.447 C  
HETATM    2  N   UNL     1     -10.867  11.019  64.790  1.00  0.00    -0.230 NA 
HETATM    3  C   UNL     1      -9.900   9.923  64.900  1.00  0.00    -0.212 C  
ENDROOT
BRANCH   2   4
HETATM    4  C   UNL     1     -10.928  11.839  66.017  1.00  0.00    -0.306 C  
BRANCH   4   5
HETATM    5  C   UNL     1     -11.961  12.978  65.971  1.00  0.00    -0.498 C  
BRANCH   5   6
HETATM    6  C   UNL     1     -11.341  14.340  66.097  1.00  0.00    -0.342 A  
HETATM    7  C   UNL     1     -10.984  15.174  65.056  1.00  0.00    -0.430 A  
HETATM    8  N   UNL     1     -10.531  16.352  65.581  1.00  0.00    -0.443 NA 
HETATM    9  C   UNL     1     -10.611  16.321  66.953  1.00  0.00    -0.270 A  
HETATM   10  H   UNL     1     -10.185  17.139  65.034  1.00  0.00     0.000 HD 
HETATM   11  C   UNL     1     -11.057  15.050  67.310  1.00  0.00    -0.334 A  
HETATM   12  C   UNL     1     -11.166  14.742  68.683  1.00  0.00    -0.288 A  
HETATM   13  C   UNL     1     -10.873  15.721  69.655  1.00  0.00    -0.300 A  
HETATM   14  C   UNL     1     -10.329  17.319  67.892  1.00  0.00    -0.360 A  
HETATM   15  C   UNL     1     -10.478  17.002  69.246  1.00  0.00    -0.293 A  
BRANCH  13  16
HETATM   16  C   UNL     1     -10.974  15.387  71.122  1.00  0.00    -0.225 C  
BRANCH  16  17
HETATM   17  N   UNL     1     -12.303  14.992  71.567  1.00  0.00    -0.312 NA 
HETATM   18  C   UNL     1     -12.701  13.925  72.310  1.00  0.00    -0.211 A  
HETATM   19  N   UNL     1     -14.001  13.968  72.494  1.00  0.00    -0.670 NA 
HETATM   20  C   UNL     1     -14.364  15.102  71.832  1.00  0.00    -0.596 A  
HETATM   21  N   UNL     1     -13.361  15.766  71.249  1.00  0.00    -0.523 NA 
ENDBRANCH  16  17
ENDBRANCH  13  16
ENDBRANCH   5   6
ENDBRANCH   4   5
ENDBRANCH   2   4
TORSDOF 5
ENDMDL
MODEL       19
REMARK 921   NORMALIZED FREE ENERGY PREDICTED BY IDOCK:   -5.59 KCAL/MOL
REMARK 922        TOTAL FREE ENERGY PREDICTED BY IDOCK:   -7.68 KCAL/MOL
REMARK 923 INTER-LIGAND FREE ENERGY PREDICTED BY IDOCK:   -7.28 KCAL/MOL
REMARK 924 INTRA-LIGAND FREE ENERGY PREDICTED BY IDOCK:   -0.40 KCAL/MOL
REMARK 927      BINDING AFFINITY PREDICTED BY RF-SCORE:    0.00 PKD
ROOT
HETATM    1  C   UNL     1     -10.179  11.200  63.376  1.00  0.00    -0.380 C  
HETATM    2  N   UNL     1     -10.987  12.385  63.685  1.00  0.00    -0.444 NA 
HETATM    3  C   UNL     1     -12.408  12.064  63.532  1.00  0.00    -0.551 C  
ENDROOT
BRANCH   2   4
HETATM    4  C   UNL     1     -10.661  12.862  65.046  1.00  0.00    -0.315 C  
BRANCH   4   5
HETATM    5  C   UNL     1     -11.834  12.805  66.038  1.00  0.00    -0.495 C  
BRANCH   5   6
HETATM    6  C   UNL     1     -11.518  13.447  67.359  1.00  0.00    -0.368 A  
HETATM    7  C   UNL     1     -11.563  12.834  68.596  1.00  0.00    -0.314 A  
HETATM    8  N   UNL     1     -11.129  13.726  69.536  1.00  0.00    -0.431 NA 
HETATM    9  C   UNL     1     -10.770  14.910  68.937  1.00  0.00    -0.245 A  
HETATM   10  H   UNL     1     -11.079  13.540  70.537  1.00  0.00     0.000 HD 
HETATM   11  C   UNL     1     -11.060  14.788  67.579  1.00  0.00    -0.323 A  
HETATM   12  C   UNL     1     -10.835  15.904  66.745  1.00  0.00    -0.228 A  
HETATM   13  C   UNL     1     -10.287  17.089  67.278  1.00  0.00    -0.311 A  
HETATM   14  C   UNL     1     -10.209  16.064  69.493  1.00  0.00    -0.274 A  
HETATM   15  C   UNL     1      -9.962  17.146  68.640  1.00  0.00    -0.313 A  
BRANCH  13  16
HETATM   16  C   UNL     1     -10.061  18.286  66.390  1.00  0.00    -0.396 C  
BRANCH  16  17
HETATM   17  N   UNL     1      -8.664  18.611  66.148  1.00  0.00    -0.485 NA 
HETATM   18  C   UNL     1      -8.016  19.806  66.201  1.00  0.00    -0.340 A  
HETATM   19  N   UNL     1      -6.742  19.636  65.928  1.00  0.00    -0.233 NA 
HETATM   20  C   UNL     1      -6.653  18.295  65.710  1.00  0.00    -0.282 A  
HETATM   21  N   UNL     1      -7.801  17.622  65.834  1.00  0.00    -0.553 NA 
ENDBRANCH  16  17
ENDBRANCH  13  16
ENDBRANCH   5   6
ENDBRANCH   4   5
ENDBRANCH   2   4
TORSDOF 5
ENDMDL
MODEL       20
REMARK 921   NORMALIZED FREE ENERGY PREDICTED BY IDOCK:   -5.55 KCAL/MOL
REMARK 922        TOTAL FREE ENERGY PREDICTED BY IDOCK:   -7.64 KCAL/MOL
REMARK 923 INTER-LIGAND FREE ENERGY PREDICTED BY IDOCK:   -7.26 KCAL/MOL
REMARK 924 INTRA-LIGAND FREE ENERGY PREDICTED BY IDOCK:   -0.38 KCAL/MOL
REMARK 927      BINDING AFFINITY PREDICTED BY RF-SCORE:    0.00 PKD
ROOT
HETATM    1  C   UNL     1     -10.984   7.756  72.742  1.00  0.00    -0.388 C  
HETATM    2  N   UNL     1     -10.547   7.877  71.347  1.00  0.00    -0.210 NA 
HETATM    3  C   UNL     1     -11.564   7.304  70.463  1.00  0.00    -0.258 C  
ENDROOT
BRANCH   2   4
HETATM    4  C   UNL     1     -10.269   9.296  71.040  1.00  0.00    -0.314 C  
BRANCH   4   5
HETATM    5  C   UNL     1     -11.301   9.961  70.114  1.00  0.00    -0.335 C  
BRANCH   5   6
HETATM    6  C   UNL     1     -12.176  10.953  70.825  1.00  0.00    -0.483 A  
HETATM    7  C   UNL     1     -12.971  10.700  71.926  1.00  0.00    -0.437 A  
HETATM    8  N   UNL     1     -13.544  11.874  72.325  1.00  0.00    -0.492 NA 
HETATM    9  C   UNL     1     -13.118  12.906  71.523  1.00  0.00    -0.298 A  
HETATM   10  H   UNL     1     -14.194  11.970  73.104  1.00  0.00     0.000 HD 
HETATM   11  C   UNL     1     -12.307  12.351  70.535  1.00  0.00    -0.346 A  
HETATM   12  C   UNL     1     -11.786  13.206  69.540  1.00  0.00    -0.383 A  
HETATM   13  C   UNL     1     -12.051  14.591  69.585  1.00  0.00    -0.369 A  
HETATM   14  C   UNL     1     -13.385  14.277  71.606  1.00  0.00    -0.442 A  
HETATM   15  C   UNL     1     -12.829  15.110  70.628  1.00  0.00    -0.440 A  
BRANCH  13  16
HETATM   16  C   UNL     1     -11.508  15.501  68.513  1.00  0.00    -0.361 C  
BRANCH  16  17
HETATM   17  N   UNL     1     -11.243  14.852  67.238  1.00  0.00    -0.337 NA 
HETATM   18  C   UNL     1     -10.071  14.658  66.575  1.00  0.00    -0.279 A  
HETATM   19  N   UNL     1     -10.292  14.003  65.458  1.00  0.00    -0.322 NA 
HETATM   20  C   UNL     1     -11.640  13.812  65.479  1.00  0.00    -0.326 A  
HETATM   21  N   UNL     1     -12.269  14.311  66.548  1.00  0.00    -0.437 NA 
ENDBRANCH  16  17
ENDBRANCH  13  16
ENDBRANCH   5   6
ENDBRANCH   4   5
ENDBRANCH   2   4
TORSDOF 5
ENDMDL
MODEL       21
REMARK 921   NORMALIZED FREE ENERGY PREDICTED BY IDOCK:   -5.54 KCAL/MOL
REMARK 922        TOTAL FREE ENERGY PREDICTED BY IDOCK:   -7.62 KCAL/MOL
REMARK 923 INTER-LIGAND FREE ENERGY PREDICTED BY IDOCK:   -7.29 KCAL/MOL
REMARK 924 INTRA-LIGAND FREE ENERGY PREDICTED BY IDOCK:   -0.33 KCAL/MOL
REMARK 927      BINDING AFFINITY PREDICTED BY RF-SCORE:    0.00 PKD
ROOT
HETATM    1  C   UNL     1     -10.394   5.534  69.322  1.00  0.00    -0.265 C  
HETATM    2  N   UNL     1     -10.192   6.724  68.487  1.00  0.00    -0.166 NA 
HETATM    3  C   UNL     1     -11.031   6.630  67.289  1.00  0.00    -0.385 C  
ENDROOT
BRANCH   2   4
HETATM    4  C   UNL     1     -10.480   7.937  69.281  1.00  0.00    -0.216 C  
BRANCH   4   5
HETATM    5  C   UNL     1     -10.642   9.220  68.448  1.00  0.00    -0.234 C  
BRANCH   5   6
HETATM    6  C   UNL     1     -11.206  10.366  69.238  1.00  0.00    -0.304 A  
HETATM    7  C   UNL     1     -11.505  10.359  70.587  1.00  0.00    -0.349 A  
HETATM    8  N   UNL     1     -11.919  11.611  70.944  1.00  0.00    -0.384 NA 
HETATM    9  C   UNL     1     -11.871  12.454  69.859  1.00  0.00    -0.305 A  
HETATM   10  H   UNL     1     -12.220  11.881  71.880  1.00  0.00     0.000 HD 
HETATM   11  C   UNL     1     -11.487  11.688  68.760  1.00  0.00    -0.346 A  
HETATM   12  C   UNL     1     -11.421  12.316  67.498  1.00  0.00    -0.414 A  
HETATM   13  C   UNL     1     -11.694  13.694  67.377  1.00  0.00    -0.416 A  
HETATM   14  C   UNL     1     -12.131  13.826  69.775  1.00  0.00    -0.400 A  
HETATM   15  C   UNL     1     -12.025  14.434  68.520  1.00  0.00    -0.333 A  
BRANCH  13  16
HETATM   16  C   UNL     1     -11.639  14.362  66.026  1.00  0.00    -0.363 C  
BRANCH  16  17
HETATM   17  N   UNL     1     -11.629  13.447  64.894  1.00  0.00    -0.319 NA 
HETATM   18  C   UNL     1     -10.595  13.007  64.127  1.00  0.00    -0.397 A  
HETATM   19  N   UNL     1     -11.038  12.167  63.219  1.00  0.00    -0.388 NA 
HETATM   20  C   UNL     1     -12.375  12.123  63.472  1.00  0.00    -0.574 A  
HETATM   21  N   UNL     1     -12.787  12.887  64.488  1.00  0.00    -0.729 NA 
ENDBRANCH  16  17
ENDBRANCH  13  16
ENDBRANCH   5   6
ENDBRANCH   4   5
ENDBRANCH   2   4
TORSDOF 5
ENDMDL
MODEL       22
REMARK 921   NORMALIZED FREE ENERGY PREDICTED BY IDOCK:   -5.52 KCAL/MOL
REMARK 922        TOTAL FREE ENERGY PREDICTED BY IDOCK:   -7.60 KCAL/MOL
REMARK 923 INTER-LIGAND FREE ENERGY PREDICTED BY IDOCK:   -7.08 KCAL/MOL
REMARK 924 INTRA-LIGAND FREE ENERGY PREDICTED BY IDOCK:   -0.52 KCAL/MOL
REMARK 927      BINDING AFFINITY PREDICTED BY RF-SCORE:    0.00 PKD
ROOT
HETATM    1  C   UNL     1     -11.755  12.452  63.332  1.00  0.00    -0.472 C  
HETATM    2  N   UNL     1     -11.641  13.240  64.565  1.00  0.00    -0.352 NA 
HETATM    3  C   UNL     1     -12.262  14.552  64.367  1.00  0.00    -0.458 C  
ENDROOT
BRANCH   2   4
HETATM    4  C   UNL     1     -12.251  12.491  65.684  1.00  0.00    -0.335 C  
BRANCH   4   5
HETATM    5  C   UNL     1     -11.248  11.990  66.736  1.00  0.00    -0.376 C  
BRANCH   5   6
HETATM    6  C   UNL     1     -11.548  12.489  68.120  1.00  0.00    -0.390 A  
HETATM    7  C   UNL     1     -11.916  11.717  69.205  1.00  0.00    -0.317 A  
HETATM    8  N   UNL     1     -12.019  12.529  70.299  1.00  0.00    -0.495 NA 
HETATM    9  C   UNL     1     -11.697  13.822  69.962  1.00  0.00    -0.257 A  
HETATM   10  H   UNL     1     -12.296  12.221  71.231  1.00  0.00     0.000 HD 
HETATM   11  C   UNL     1     -11.457  13.841  68.589  1.00  0.00    -0.336 A  
HETATM   12  C   UNL     1     -11.161  15.079  67.979  1.00  0.00    -0.324 A  
HETATM   13  C   UNL     1     -11.069  16.250  68.760  1.00  0.00    -0.355 A  
HETATM   14  C   UNL     1     -11.596  14.962  70.767  1.00  0.00    -0.345 A  
HETATM   15  C   UNL     1     -11.267  16.172  70.145  1.00  0.00    -0.374 A  
BRANCH  13  16
HETATM   16  C   UNL     1     -10.769  17.575  68.106  1.00  0.00    -0.329 C  
BRANCH  16  17
HETATM   17  N   UNL     1      -9.428  18.085  68.350  1.00  0.00    -0.298 NA 
HETATM   18  C   UNL     1      -9.001  19.351  68.609  1.00  0.00    -0.372 A  
HETATM   19  N   UNL     1      -7.698  19.355  68.785  1.00  0.00    -0.358 NA 
HETATM   20  C   UNL     1      -7.364  18.045  68.621  1.00  0.00    -0.282 A  
HETATM   21  N   UNL     1      -8.387  17.227  68.355  1.00  0.00    -0.252 NA 
ENDBRANCH  16  17
ENDBRANCH  13  16
ENDBRANCH   5   6
ENDBRANCH   4   5
ENDBRANCH   2   4
TORSDOF 5
ENDMDL
MODEL       23
REMARK 921   NORMALIZED FREE ENERGY PREDICTED BY IDOCK:   -5.51 KCAL/MOL
REMARK 922        TOTAL FREE ENERGY PREDICTED BY IDOCK:   -7.58 KCAL/MOL
REMARK 923 INTER-LIGAND FREE ENERGY PREDICTED BY IDOCK:   -7.23 KCAL/MOL
REMARK 924 INTRA-LIGAND FREE ENERGY PREDICTED BY IDOCK:   -0.35 KCAL/MOL
REMARK 927      BINDING AFFINITY PREDICTED BY RF-SCORE:    0.00 PKD
ROOT
HETATM    1  C   UNL     1      -8.399  19.721  66.164  1.00  0.00    -0.345 C  
HETATM    2  N   UNL     1      -8.208  18.275  66.007  1.00  0.00    -0.506 NA 
HETATM    3  C   UNL     1      -6.782  17.984  65.841  1.00  0.00    -0.288 C  
ENDROOT
BRANCH   2   4
HETATM    4  C   UNL     1      -8.794  17.572  67.167  1.00  0.00    -0.238 C  
BRANCH   4   5
HETATM    5  C   UNL     1     -10.322  17.410  67.109  1.00  0.00    -0.325 C  
BRANCH   5   6
HETATM    6  C   UNL     1     -10.752  16.102  66.510  1.00  0.00    -0.220 A  
HETATM    7  C   UNL     1     -10.743  15.776  65.168  1.00  0.00    -0.435 A  
HETATM    8  N   UNL     1     -11.127  14.471  65.037  1.00  0.00    -0.365 NA 
HETATM    9  C   UNL     1     -11.363  13.920  66.274  1.00  0.00    -0.324 A  
HETATM   10  H   UNL     1     -11.225  13.978  64.150  1.00  0.00     0.000 HD 
HETATM   11  C   UNL     1     -11.196  14.934  67.215  1.00  0.00    -0.348 A  
HETATM   12  C   UNL     1     -11.443  14.635  68.572  1.00  0.00    -0.327 A  
HETATM   13  C   UNL     1     -11.804  13.326  68.955  1.00  0.00    -0.367 A  
HETATM   14  C   UNL     1     -11.702  12.608  66.623  1.00  0.00    -0.464 A  
HETATM   15  C   UNL     1     -11.908  12.327  67.978  1.00  0.00    -0.368 A  
BRANCH  13  16
HETATM   16  C   UNL     1     -12.083  13.010  70.402  1.00  0.00    -0.314 C  
BRANCH  16  17
HETATM   17  N   UNL     1     -12.656  14.108  71.166  1.00  0.00    -0.346 NA 
HETATM   18  C   UNL     1     -12.049  15.107  71.863  1.00  0.00    -0.378 A  
HETATM   19  N   UNL     1     -12.956  15.900  72.389  1.00  0.00    -0.450 NA 
HETATM   20  C   UNL     1     -14.127  15.337  71.980  1.00  0.00    -0.562 A  
HETATM   21  N   UNL     1     -13.998  14.239  71.227  1.00  0.00    -0.264 NA 
ENDBRANCH  16  17
ENDBRANCH  13  16
ENDBRANCH   5   6
ENDBRANCH   4   5
ENDBRANCH   2   4
TORSDOF 5
ENDMDL
MODEL       24
REMARK 921   NORMALIZED FREE ENERGY PREDICTED BY IDOCK:   -5.51 KCAL/MOL
REMARK 922        TOTAL FREE ENERGY PREDICTED BY IDOCK:   -7.58 KCAL/MOL
REMARK 923 INTER-LIGAND FREE ENERGY PREDICTED BY IDOCK:   -7.07 KCAL/MOL
REMARK 924 INTRA-LIGAND FREE ENERGY PREDICTED BY IDOCK:   -0.50 KCAL/MOL
REMARK 927      BINDING AFFINITY PREDICTED BY RF-SCORE:    0.00 PKD
ROOT
HETATM    1  C   UNL     1     -14.222  15.393  72.273  1.00  0.00    -0.545 C  
HETATM    2  N   UNL     1     -12.828  15.805  72.468  1.00  0.00    -0.431 NA 
HETATM    3  C   UNL     1     -12.424  15.531  73.850  1.00  0.00    -0.636 C  
ENDROOT
BRANCH   2   4
HETATM    4  C   UNL     1     -11.968  15.114  71.484  1.00  0.00    -0.360 C  
BRANCH   4   5
HETATM    5  C   UNL     1     -12.736  14.305  70.425  1.00  0.00    -0.355 C  
BRANCH   5   6
HETATM    6  C   UNL     1     -11.835  13.646  69.420  1.00  0.00    -0.392 A  
HETATM    7  C   UNL     1     -11.470  12.314  69.401  1.00  0.00    -0.277 A  
HETATM    8  N   UNL     1     -10.710  12.090  68.287  1.00  0.00    -0.215 NA 
HETATM    9  C   UNL     1     -10.590  13.247  67.554  1.00  0.00    -0.246 A  
HETATM   10  H   UNL     1     -10.292  11.195  68.037  1.00  0.00     0.000 HD 
HETATM   11  C   UNL     1     -11.233  14.255  68.270  1.00  0.00    -0.298 A  
HETATM   12  C   UNL     1     -11.200  15.568  67.752  1.00  0.00    -0.302 A  
HETATM   13  C   UNL     1     -10.569  15.827  66.518  1.00  0.00    -0.306 A  
HETATM   14  C   UNL     1      -9.971  13.468  66.319  1.00  0.00    -0.302 A  
HETATM   15  C   UNL     1      -9.982  14.770  65.809  1.00  0.00    -0.375 A  
BRANCH  13  16
HETATM   16  C   UNL     1     -10.519  17.232  65.972  1.00  0.00    -0.282 C  
BRANCH  16  17
HETATM   17  N   UNL     1      -9.940  18.216  66.874  1.00  0.00    -0.324 NA 
HETATM   18  C   UNL     1      -8.773  18.190  67.572  1.00  0.00    -0.249 A  
HETATM   19  N   UNL     1      -8.635  19.306  68.252  1.00  0.00    -0.326 NA 
HETATM   20  C   UNL     1      -9.763  19.999  67.933  1.00  0.00    -0.390 A  
HETATM   21  N   UNL     1     -10.594  19.376  67.092  1.00  0.00    -0.460 NA 
ENDBRANCH  16  17
ENDBRANCH  13  16
ENDBRANCH   5   6
ENDBRANCH   4   5
ENDBRANCH   2   4
TORSDOF 5
ENDMDL
MODEL       25
REMARK 921   NORMALIZED FREE ENERGY PREDICTED BY IDOCK:   -5.50 KCAL/MOL
REMARK 922        TOTAL FREE ENERGY PREDICTED BY IDOCK:   -7.56 KCAL/MOL
REMARK 923 INTER-LIGAND FREE ENERGY PREDICTED BY IDOCK:   -7.18 KCAL/MOL
REMARK 924 INTRA-LIGAND FREE ENERGY PREDICTED BY IDOCK:   -0.39 KCAL/MOL
REMARK 927      BINDING AFFINITY PREDICTED BY RF-SCORE:    0.00 PKD
ROOT
HETATM    1  C   UNL     1      -8.883  19.882  67.114  1.00  0.00    -0.330 C  
HETATM    2  N   UNL     1      -8.903  18.815  66.106  1.00  0.00    -0.474 NA 
HETATM    3  C   UNL     1      -7.625  18.100  66.122  1.00  0.00    -0.243 C  
ENDROOT
BRANCH   2   4
HETATM    4  C   UNL     1     -10.052  17.920  66.362  1.00  0.00    -0.369 C  
BRANCH   4   5
HETATM    5  C   UNL     1      -9.741  16.423  66.199  1.00  0.00    -0.355 C  
BRANCH   5   6
HETATM    6  C   UNL     1     -10.740  15.706  65.337  1.00  0.00    -0.424 A  
HETATM    7  C   UNL     1     -11.620  16.291  64.447  1.00  0.00    -0.056 A  
HETATM    8  N   UNL     1     -12.302  15.300  63.798  1.00  0.00    -0.993 NA 
HETATM    9  C   UNL     1     -11.865  14.068  64.222  1.00  0.00    -0.410 A  
HETATM   10  H   UNL     1     -13.029  15.453  63.100  1.00  0.00     0.000 HD 
HETATM   11  C   UNL     1     -10.930  14.288  65.232  1.00  0.00    -0.347 A  
HETATM   12  C   UNL     1     -10.370  13.167  65.881  1.00  0.00    -0.295 A  
HETATM   13  C   UNL     1     -10.723  11.863  65.475  1.00  0.00    -0.329 A  
HETATM   14  C   UNL     1     -12.224  12.788  63.785  1.00  0.00    -0.572 A  
HETATM   15  C   UNL     1     -11.629  11.692  64.420  1.00  0.00    -0.270 A  
BRANCH  13  16
HETATM   16  C   UNL     1     -10.137  10.666  66.179  1.00  0.00    -0.249 C  
BRANCH  16  17
HETATM   17  N   UNL     1     -10.504  10.543  67.582  1.00  0.00    -0.217 NA 
HETATM   18  C   UNL     1      -9.762  10.158  68.655  1.00  0.00    -0.163 A  
HETATM   19  N   UNL     1     -10.494  10.212  69.746  1.00  0.00    -0.248 NA 
HETATM   20  C   UNL     1     -11.700  10.644  69.283  1.00  0.00    -0.264 A  
HETATM   21  N   UNL     1     -11.758  10.863  67.966  1.00  0.00    -0.569 NA 
ENDBRANCH  16  17
ENDBRANCH  13  16
ENDBRANCH   5   6
ENDBRANCH   4   5
ENDBRANCH   2   4
TORSDOF 5
ENDMDL
MODEL       26
REMARK 921   NORMALIZED FREE ENERGY PREDICTED BY IDOCK:   -5.44 KCAL/MOL
REMARK 922        TOTAL FREE ENERGY PREDICTED BY IDOCK:   -7.49 KCAL/MOL
REMARK 923 INTER-LIGAND FREE ENERGY PREDICTED BY IDOCK:   -7.14 KCAL/MOL
REMARK 924 INTRA-LIGAND FREE ENERGY PREDICTED BY IDOCK:   -0.35 KCAL/MOL
REMARK 927      BINDING AFFINITY PREDICTED BY RF-SCORE:    0.00 PKD
ROOT
HETATM    1  C   UNL     1     -10.442  18.364  66.714  1.00  0.00    -0.385 C  
HETATM    2  N   UNL     1      -9.632  18.406  67.937  1.00  0.00    -0.285 NA 
HETATM    3  C   UNL     1      -9.895  19.654  68.657  1.00  0.00    -0.427 C  
ENDROOT
BRANCH   2   4
HETATM    4  C   UNL     1      -9.921  17.212  68.759  1.00  0.00    -0.315 C  
BRANCH   4   5
HETATM    5  C   UNL     1     -11.353  16.670  68.615  1.00  0.00    -0.155 C  
BRANCH   5   6
HETATM    6  C   UNL     1     -11.660  15.556  69.574  1.00  0.00    -0.361 A  
HETATM    7  C   UNL     1     -12.070  15.698  70.886  1.00  0.00    -0.407 A  
HETATM    8  N   UNL     1     -12.325  14.457  71.397  1.00  0.00    -0.346 NA 
HETATM    9  C   UNL     1     -12.119  13.497  70.434  1.00  0.00    -0.345 A  
HETATM   10  H   UNL     1     -12.624  14.269  72.353  1.00  0.00     0.000 HD 
HETATM   11  C   UNL     1     -11.643  14.149  69.298  1.00  0.00    -0.350 A  
HETATM   12  C   UNL     1     -11.293  13.368  68.176  1.00  0.00    -0.321 A  
HETATM   13  C   UNL     1     -11.473  11.969  68.202  1.00  0.00    -0.383 A  
HETATM   14  C   UNL     1     -12.324  12.114  70.486  1.00  0.00    -0.358 A  
HETATM   15  C   UNL     1     -12.005  11.364  69.349  1.00  0.00    -0.407 A  
BRANCH  13  16
HETATM   16  C   UNL     1     -11.085  11.133  67.009  1.00  0.00    -0.273 C  
BRANCH  16  17
HETATM   17  N   UNL     1     -11.199  11.811  65.726  1.00  0.00    -0.311 NA 
HETATM   18  C   UNL     1     -10.258  12.063  64.777  1.00  0.00    -0.279 A  
HETATM   19  N   UNL     1     -10.806  12.690  63.760  1.00  0.00    -0.427 NA 
HETATM   20  C   UNL     1     -12.109  12.802  64.138  1.00  0.00    -0.438 A  
HETATM   21  N   UNL     1     -12.402  12.279  65.332  1.00  0.00    -0.563 NA 
ENDBRANCH  16  17
ENDBRANCH  13  16
ENDBRANCH   5   6
ENDBRANCH   4   5
ENDBRANCH   2   4
TORSDOF 5
ENDMDL
MODEL       27
REMARK 921   NORMALIZED FREE ENERGY PREDICTED BY IDOCK:   -5.44 KCAL/MOL
REMARK 922        TOTAL FREE ENERGY PREDICTED BY IDOCK:   -7.49 KCAL/MOL
REMARK 923 INTER-LIGAND FREE ENERGY PREDICTED BY IDOCK:   -6.94 KCAL/MOL
REMARK 924 INTRA-LIGAND FREE ENERGY PREDICTED BY IDOCK:   -0.54 KCAL/MOL
REMARK 927      BINDING AFFINITY PREDICTED BY RF-SCORE:    0.00 PKD
ROOT
HETATM    1  C   UNL     1     -10.486   6.700  66.869  1.00  0.00    -0.279 C  
HETATM    2  N   UNL     1     -10.194   8.118  66.629  1.00  0.00    -0.294 NA 
HETATM    3  C   UNL     1     -10.272   8.856  67.892  1.00  0.00    -0.222 C  
ENDROOT
BRANCH   2   4
HETATM    4  C   UNL     1      -8.870   8.245  65.984  1.00  0.00    -0.168 C  
BRANCH   4   5
HETATM    5  C   UNL     1      -8.448   9.690  65.674  1.00  0.00    -0.141 C  
BRANCH   5   6
HETATM    6  C   UNL     1      -9.292  10.334  64.611  1.00  0.00    -0.320 A  
HETATM    7  C   UNL     1      -9.302  10.008  63.268  1.00  0.00    -0.256 A  
HETATM    8  N   UNL     1     -10.260  10.760  62.648  1.00  0.00    -0.774 NA 
HETATM    9  C   UNL     1     -10.905  11.557  63.564  1.00  0.00    -0.398 A  
HETATM   10  H   UNL     1     -10.466  10.733  61.650  1.00  0.00     0.000 HD 
HETATM   11  C   UNL     1     -10.279  11.357  64.794  1.00  0.00    -0.338 A  
HETATM   12  C   UNL     1     -10.722  12.115  65.899  1.00  0.00    -0.302 A  
HETATM   13  C   UNL     1     -11.802  13.011  65.758  1.00  0.00    -0.453 A  
HETATM   14  C   UNL     1     -11.989  12.424  63.395  1.00  0.00    -0.595 A  
HETATM   15  C   UNL     1     -12.433  13.138  64.513  1.00  0.00    -0.406 A  
BRANCH  13  16
HETATM   16  C   UNL     1     -12.265  13.832  66.934  1.00  0.00    -0.366 C  
BRANCH  16  17
HETATM   17  N   UNL     1     -11.465  15.017  67.203  1.00  0.00    -0.332 NA 
HETATM   18  C   UNL     1     -10.508  15.623  66.449  1.00  0.00    -0.305 A  
HETATM   19  N   UNL     1     -10.054  16.687  67.074  1.00  0.00    -0.274 NA 
HETATM   20  C   UNL     1     -10.776  16.693  68.228  1.00  0.00    -0.351 A  
HETATM   21  N   UNL     1     -11.654  15.694  68.355  1.00  0.00    -0.371 NA 
ENDBRANCH  16  17
ENDBRANCH  13  16
ENDBRANCH   5   6
ENDBRANCH   4   5
ENDBRANCH   2   4
TORSDOF 5
ENDMDL
MODEL       28
REMARK 921   NORMALIZED FREE ENERGY PREDICTED BY IDOCK:   -5.43 KCAL/MOL
REMARK 922        TOTAL FREE ENERGY PREDICTED BY IDOCK:   -7.47 KCAL/MOL
REMARK 923 INTER-LIGAND FREE ENERGY PREDICTED BY IDOCK:   -7.03 KCAL/MOL
REMARK 924 INTRA-LIGAND FREE ENERGY PREDICTED BY IDOCK:   -0.45 KCAL/MOL
REMARK 927      BINDING AFFINITY PREDICTED BY RF-SCORE:    0.00 PKD
ROOT
HETATM    1  C   UNL     1     -10.712  11.382  63.778  1.00  0.00    -0.403 C  
HETATM    2  N   UNL     1     -10.290  10.748  65.032  1.00  0.00    -0.303 NA 
HETATM    3  C   UNL     1      -9.257   9.748  64.753  1.00  0.00    -0.261 C  
ENDROOT
BRANCH   2   4
HETATM    4  C   UNL     1      -9.827  11.787  65.976  1.00  0.00    -0.232 C  
BRANCH   4   5
HETATM    5  C   UNL     1      -9.162  11.239  67.250  1.00  0.00    -0.170 C  
BRANCH   5   6
HETATM    6  C   UNL     1     -10.153  10.730  68.258  1.00  0.00    -0.187 A  
HETATM    7  C   UNL     1     -10.354   9.409  68.609  1.00  0.00    -0.203 A  
HETATM    8  N   UNL     1     -11.279   9.365  69.614  1.00  0.00    -0.416 NA 
HETATM    9  C   UNL     1     -11.670  10.638  69.955  1.00  0.00    -0.317 A  
HETATM   10  H   UNL     1     -11.627   8.511  70.049  1.00  0.00     0.000 HD 
HETATM   11  C   UNL     1     -11.027  11.513  69.081  1.00  0.00    -0.276 A  
HETATM   12  C   UNL     1     -11.312  12.891  69.185  1.00  0.00    -0.329 A  
HETATM   13  C   UNL     1     -12.191  13.360  70.184  1.00  0.00    -0.385 A  
HETATM   14  C   UNL     1     -12.532  11.072  70.967  1.00  0.00    -0.512 A  
HETATM   15  C   UNL     1     -12.772  12.446  71.074  1.00  0.00    -0.315 A  
BRANCH  13  16
HETATM   16  C   UNL     1     -12.508  14.830  70.286  1.00  0.00    -0.340 C  
BRANCH  16  17
HETATM   17  N   UNL     1     -12.711  15.317  71.642  1.00  0.00    -0.351 NA 
HETATM   18  C   UNL     1     -13.861  15.589  72.316  1.00  0.00    -0.543 A  
HETATM   19  N   UNL     1     -13.580  15.992  73.535  1.00  0.00    -0.508 NA 
HETATM   20  C   UNL     1     -12.219  15.951  73.563  1.00  0.00    -0.523 A  
HETATM   21  N   UNL     1     -11.639  15.543  72.430  1.00  0.00    -0.452 NA 
ENDBRANCH  16  17
ENDBRANCH  13  16
ENDBRANCH   5   6
ENDBRANCH   4   5
ENDBRANCH   2   4
TORSDOF 5
ENDMDL
MODEL       29
REMARK 921   NORMALIZED FREE ENERGY PREDICTED BY IDOCK:   -5.41 KCAL/MOL
REMARK 922        TOTAL FREE ENERGY PREDICTED BY IDOCK:   -7.46 KCAL/MOL
REMARK 923 INTER-LIGAND FREE ENERGY PREDICTED BY IDOCK:   -6.91 KCAL/MOL
REMARK 924 INTRA-LIGAND FREE ENERGY PREDICTED BY IDOCK:   -0.55 KCAL/MOL
REMARK 927      BINDING AFFINITY PREDICTED BY RF-SCORE:    0.00 PKD
ROOT
HETATM    1  C   UNL     1      -9.165  15.766  69.348  1.00  0.00    -0.263 C  
HETATM    2  N   UNL     1     -10.549  16.247  69.268  1.00  0.00    -0.271 NA 
HETATM    3  C   UNL     1     -11.222  15.617  68.130  1.00  0.00    -0.345 C  
ENDROOT
BRANCH   2   4
HETATM    4  C   UNL     1     -11.238  15.977  70.548  1.00  0.00    -0.378 C  
BRANCH   4   5
HETATM    5  C   UNL     1     -12.691  15.496  70.400  1.00  0.00    -0.382 C  
BRANCH   5   6
HETATM    6  C   UNL     1     -12.988  14.267  71.211  1.00  0.00    -0.422 A  
HETATM    7  C   UNL     1     -13.732  14.216  72.374  1.00  0.00    -0.544 A  
HETATM    8  N   UNL     1     -13.842  12.909  72.760  1.00  0.00    -0.682 NA 
HETATM    9  C   UNL     1     -13.207  12.092  71.855  1.00  0.00    -0.369 A  
HETATM   10  H   UNL     1     -14.325  12.587  73.598  1.00  0.00     0.000 HD 
HETATM   11  C   UNL     1     -12.610  12.918  70.904  1.00  0.00    -0.355 A  
HETATM   12  C   UNL     1     -11.837  12.317  69.888  1.00  0.00    -0.383 A  
HETATM   13  C   UNL     1     -11.721  10.913  69.821  1.00  0.00    -0.413 A  
HETATM   14  C   UNL     1     -13.126  10.696  71.807  1.00  0.00    -0.571 A  
HETATM   15  C   UNL     1     -12.384  10.122  70.769  1.00  0.00    -0.422 A  
BRANCH  13  16
HETATM   16  C   UNL     1     -10.883  10.271  68.745  1.00  0.00    -0.230 C  
BRANCH  16  17
HETATM   17  N   UNL     1     -10.064   9.155  69.194  1.00  0.00    -0.188 NA 
HETATM   18  C   UNL     1      -8.950   9.139  69.975  1.00  0.00    -0.187 A  
HETATM   19  N   UNL     1      -8.542   7.902  70.146  1.00  0.00    -0.133 NA 
HETATM   20  C   UNL     1      -9.455   7.180  69.439  1.00  0.00    -0.153 A  
HETATM   21  N   UNL     1     -10.408   7.900  68.839  1.00  0.00    -0.213 NA 
ENDBRANCH  16  17
ENDBRANCH  13  16
ENDBRANCH   5   6
ENDBRANCH   4   5
ENDBRANCH   2   4
TORSDOF 5
ENDMDL
MODEL       30
REMARK 921   NORMALIZED FREE ENERGY PREDICTED BY IDOCK:   -5.40 KCAL/MOL
REMARK 922        TOTAL FREE ENERGY PREDICTED BY IDOCK:   -7.44 KCAL/MOL
REMARK 923 INTER-LIGAND FREE ENERGY PREDICTED BY IDOCK:   -7.05 KCAL/MOL
REMARK 924 INTRA-LIGAND FREE ENERGY PREDICTED BY IDOCK:   -0.39 KCAL/MOL
REMARK 927      BINDING AFFINITY PREDICTED BY RF-SCORE:    0.00 PKD
ROOT
HETATM    1  C   UNL     1      -9.842  19.851  66.089  1.00  0.00    -0.458 C  
HETATM    2  N   UNL     1      -8.438  19.427  66.092  1.00  0.00    -0.399 NA 
HETATM    3  C   UNL     1      -7.629  20.413  66.813  1.00  0.00    -0.272 C  
ENDROOT
BRANCH   2   4
HETATM    4  C   UNL     1      -8.334  18.075  66.682  1.00  0.00    -0.262 C  
BRANCH   4   5
HETATM    5  C   UNL     1      -9.564  17.182  66.447  1.00  0.00    -0.296 C  
BRANCH   5   6
HETATM    6  C   UNL     1     -10.183  16.686  67.723  1.00  0.00    -0.292 A  
HETATM    7  C   UNL     1     -10.439  17.440  68.853  1.00  0.00    -0.312 A  
HETATM    8  N   UNL     1     -11.080  16.648  69.764  1.00  0.00    -0.391 NA 
HETATM    9  C   UNL     1     -11.278  15.391  69.244  1.00  0.00    -0.296 A  
HETATM   10  H   UNL     1     -11.369  16.947  70.694  1.00  0.00     0.000 HD 
HETATM   11  C   UNL     1     -10.672  15.365  67.989  1.00  0.00    -0.279 A  
HETATM   12  C   UNL     1     -10.684  14.153  67.266  1.00  0.00    -0.279 A  
HETATM   13  C   UNL     1     -11.338  13.020  67.793  1.00  0.00    -0.333 A  
HETATM   14  C   UNL     1     -11.949  14.290  69.786  1.00  0.00    -0.394 A  
HETATM   15  C   UNL     1     -11.979  13.110  69.036  1.00  0.00    -0.329 A  
BRANCH  13  16
HETATM   16  C   UNL     1     -11.337  11.721  67.027  1.00  0.00    -0.321 C  
BRANCH  16  17
HETATM   17  N   UNL     1     -11.484  11.862  65.587  1.00  0.00    -0.298 NA 
HETATM   18  C   UNL     1     -10.655  11.486  64.576  1.00  0.00    -0.329 A  
HETATM   19  N   UNL     1     -11.196  11.791  63.418  1.00  0.00    -0.386 NA 
HETATM   20  C   UNL     1     -12.379  12.363  63.775  1.00  0.00    -0.528 A  
HETATM   21  N   UNL     1     -12.604  12.429  65.091  1.00  0.00    -0.599 NA 
ENDBRANCH  16  17
ENDBRANCH  13  16
ENDBRANCH   5   6
ENDBRANCH   4   5
ENDBRANCH   2   4
TORSDOF 5
ENDMDL
MODEL       31
REMARK 921   NORMALIZED FREE ENERGY PREDICTED BY IDOCK:   -5.39 KCAL/MOL
REMARK 922        TOTAL FREE ENERGY PREDICTED BY IDOCK:   -7.42 KCAL/MOL
REMARK 923 INTER-LIGAND FREE ENERGY PREDICTED BY IDOCK:   -6.92 KCAL/MOL
REMARK 924 INTRA-LIGAND FREE ENERGY PREDICTED BY IDOCK:   -0.50 KCAL/MOL
REMARK 927      BINDING AFFINITY PREDICTED BY RF-SCORE:    0.00 PKD
ROOT
HETATM    1  C   UNL     1     -13.724   9.140  72.253  1.00  0.00    -0.487 C  
HETATM    2  N   UNL     1     -12.563   8.246  72.335  1.00  0.00    -0.310 NA 
HETATM    3  C   UNL     1     -12.759   7.105  71.438  1.00  0.00    -0.391 C  
ENDROOT
BRANCH   2   4
HETATM    4  C   UNL     1     -11.335   9.006  72.018  1.00  0.00    -0.324 C  
BRANCH   4   5
HETATM    5  C   UNL     1     -11.549  10.196  71.068  1.00  0.00    -0.462 C  
BRANCH   5   6
HETATM    6  C   UNL     1     -10.954   9.976  69.706  1.00  0.00    -0.317 A  
HETATM    7  C   UNL     1     -10.213   8.881  69.307  1.00  0.00    -0.209 A  
HETATM    8  N   UNL     1      -9.924   9.015  67.978  1.00  0.00    -0.168 NA 
HETATM    9  C   UNL     1     -10.488  10.168  67.485  1.00  0.00    -0.253 A  
HETATM   10  H   UNL     1      -9.371   8.356  67.432  1.00  0.00     0.000 HD 
HETATM   11  C   UNL     1     -11.089  10.824  68.558  1.00  0.00    -0.317 A  
HETATM   12  C   UNL     1     -11.693  12.077  68.322  1.00  0.00    -0.396 A  
HETATM   13  C   UNL     1     -11.721  12.617  67.019  1.00  0.00    -0.438 A  
HETATM   14  C   UNL     1     -10.514  10.668  66.178  1.00  0.00    -0.260 A  
HETATM   15  C   UNL     1     -11.149  11.896  65.962  1.00  0.00    -0.369 A  
BRANCH  13  16
HETATM   16  C   UNL     1     -12.352  13.963  66.770  1.00  0.00    -0.330 C  
BRANCH  16  17
HETATM   17  N   UNL     1     -11.408  15.041  66.513  1.00  0.00    -0.319 NA 
HETATM   18  C   UNL     1     -10.863  15.473  65.344  1.00  0.00    -0.390 A  
HETATM   19  N   UNL     1     -10.068  16.494  65.573  1.00  0.00    -0.579 NA 
HETATM   20  C   UNL     1     -10.161  16.657  66.922  1.00  0.00    -0.291 A  
HETATM   21  N   UNL     1     -10.970  15.793  67.544  1.00  0.00    -0.315 NA 
ENDBRANCH  16  17
ENDBRANCH  13  16
ENDBRANCH   5   6
ENDBRANCH   4   5
ENDBRANCH   2   4
TORSDOF 5
ENDMDL
MODEL       32
REMARK 921   NORMALIZED FREE ENERGY PREDICTED BY IDOCK:   -5.38 KCAL/MOL
REMARK 922        TOTAL FREE ENERGY PREDICTED BY IDOCK:   -7.41 KCAL/MOL
REMARK 923 INTER-LIGAND FREE ENERGY PREDICTED BY IDOCK:   -7.00 KCAL/MOL
REMARK 924 INTRA-LIGAND FREE ENERGY PREDICTED BY IDOCK:   -0.41 KCAL/MOL
REMARK 927      BINDING AFFINITY PREDICTED BY RF-SCORE:    0.00 PKD
ROOT
HETATM    1  C   UNL     1     -10.410  17.992  66.337  1.00  0.00    -0.379 C  
HETATM    2  N   UNL     1     -10.066  17.576  67.701  1.00  0.00    -0.314 NA 
HETATM    3  C   UNL     1      -9.988  18.753  68.569  1.00  0.00    -0.400 C  
ENDROOT
BRANCH   2   4
HETATM    4  C   UNL     1     -11.059  16.590  68.179  1.00  0.00    -0.303 C  
BRANCH   4   5
HETATM    5  C   UNL     1     -10.499  15.546  69.159  1.00  0.00    -0.232 C  
BRANCH   5   6
HETATM    6  C   UNL     1     -11.366  15.351  70.370  1.00  0.00    -0.350 A  
HETATM    7  C   UNL     1     -11.802  16.341  71.229  1.00  0.00    -0.299 A  
HETATM    8  N   UNL     1     -12.633  15.775  72.154  1.00  0.00    -0.425 NA 
HETATM    9  C   UNL     1     -12.777  14.431  71.904  1.00  0.00    -0.349 A  
HETATM   10  H   UNL     1     -13.082  16.277  72.920  1.00  0.00     0.000 HD 
HETATM   11  C   UNL     1     -11.946  14.123  70.828  1.00  0.00    -0.377 A  
HETATM   12  C   UNL     1     -11.865  12.777  70.410  1.00  0.00    -0.238 A  
HETATM   13  C   UNL     1     -12.649  11.790  71.044  1.00  0.00    -0.409 A  
HETATM   14  C   UNL     1     -13.579  13.479  72.542  1.00  0.00    -0.674 A  
HETATM   15  C   UNL     1     -13.509  12.158  72.087  1.00  0.00    -0.383 A  
BRANCH  13  16
HETATM   16  C   UNL     1     -12.551  10.350  70.607  1.00  0.00    -0.348 C  
BRANCH  16  17
HETATM   17  N   UNL     1     -11.346   9.661  71.043  1.00  0.00    -0.342 NA 
HETATM   18  C   UNL     1     -10.092   9.661  70.513  1.00  0.00    -0.274 A  
HETATM   19  N   UNL     1      -9.299   8.910  71.244  1.00  0.00    -0.247 NA 
HETATM   20  C   UNL     1     -10.126   8.462  72.230  1.00  0.00    -0.312 A  
HETATM   21  N   UNL     1     -11.388   8.895  72.153  1.00  0.00    -0.346 NA 
ENDBRANCH  16  17
ENDBRANCH  13  16
ENDBRANCH   5   6
ENDBRANCH   4   5
ENDBRANCH   2   4
TORSDOF 5
ENDMDL
MODEL       33
REMARK 921   NORMALIZED FREE ENERGY PREDICTED BY IDOCK:   -5.37 KCAL/MOL
REMARK 922        TOTAL FREE ENERGY PREDICTED BY IDOCK:   -7.40 KCAL/MOL
REMARK 923 INTER-LIGAND FREE ENERGY PREDICTED BY IDOCK:   -6.96 KCAL/MOL
REMARK 924 INTRA-LIGAND FREE ENERGY PREDICTED BY IDOCK:   -0.43 KCAL/MOL
REMARK 927      BINDING AFFINITY PREDICTED BY RF-SCORE:    0.00 PKD
ROOT
HETATM    1  C   UNL     1      -9.866   9.949  65.425  1.00  0.00    -0.313 C  
HETATM    2  N   UNL     1      -9.822  11.315  64.891  1.00  0.00    -0.250 NA 
HETATM    3  C   UNL     1     -10.591  11.380  63.646  1.00  0.00    -0.412 C  
ENDROOT
BRANCH   2   4
HETATM    4  C   UNL     1     -10.325  12.258  65.913  1.00  0.00    -0.252 C  
BRANCH   4   5
HETATM    5  C   UNL     1     -11.191  11.610  67.006  1.00  0.00    -0.376 C  
BRANCH   5   6
HETATM    6  C   UNL     1     -11.477  12.535  68.155  1.00  0.00    -0.368 A  
HETATM    7  C   UNL     1     -11.338  13.910  68.150  1.00  0.00    -0.295 A  
HETATM    8  N   UNL     1     -11.775  14.392  69.351  1.00  0.00    -0.297 NA 
HETATM    9  C   UNL     1     -12.228  13.362  70.141  1.00  0.00    -0.315 A  
HETATM   10  H   UNL     1     -11.766  15.375  69.623  1.00  0.00     0.000 HD 
HETATM   11  C   UNL     1     -11.997  12.178  69.442  1.00  0.00    -0.329 A  
HETATM   12  C   UNL     1     -12.323  10.957  70.070  1.00  0.00    -0.385 A  
HETATM   13  C   UNL     1     -12.910  10.954  71.353  1.00  0.00    -0.554 A  
HETATM   14  C   UNL     1     -12.824  13.394  71.406  1.00  0.00    -0.420 A  
HETATM   15  C   UNL     1     -13.171  12.173  71.994  1.00  0.00    -0.496 A  
BRANCH  13  16
HETATM   16  C   UNL     1     -13.244   9.649  72.031  1.00  0.00    -0.453 C  
BRANCH  16  17
HETATM   17  N   UNL     1     -12.284   8.580  71.801  1.00  0.00    -0.313 NA 
HETATM   18  C   UNL     1     -12.420   7.403  71.133  1.00  0.00    -0.308 A  
HETATM   19  N   UNL     1     -11.285   6.742  71.156  1.00  0.00    -0.269 NA 
HETATM   20  C   UNL     1     -10.465   7.569  71.862  1.00  0.00    -0.202 A  
HETATM   21  N   UNL     1     -11.028   8.708  72.278  1.00  0.00    -0.357 NA 
ENDBRANCH  16  17
ENDBRANCH  13  16
ENDBRANCH   5   6
ENDBRANCH   4   5
ENDBRANCH   2   4
TORSDOF 5
ENDMDL
MODEL       34
REMARK 921   NORMALIZED FREE ENERGY PREDICTED BY IDOCK:   -5.36 KCAL/MOL
REMARK 922        TOTAL FREE ENERGY PREDICTED BY IDOCK:   -7.38 KCAL/MOL
REMARK 923 INTER-LIGAND FREE ENERGY PREDICTED BY IDOCK:   -7.05 KCAL/MOL
REMARK 924 INTRA-LIGAND FREE ENERGY PREDICTED BY IDOCK:   -0.33 KCAL/MOL
REMARK 927      BINDING AFFINITY PREDICTED BY RF-SCORE:    0.00 PKD
ROOT
HETATM    1  C   UNL     1     -10.994   6.093  69.062  1.00  0.00    -0.367 C  
HETATM    2  N   UNL     1     -10.273   7.369  69.130  1.00  0.00    -0.191 NA 
HETATM    3  C   UNL     1     -10.330   8.035  67.826  1.00  0.00    -0.231 C  
ENDROOT
BRANCH   2   4
HETATM    4  C   UNL     1     -10.844   8.200  70.211  1.00  0.00    -0.244 C  
BRANCH   4   5
HETATM    5  C   UNL     1     -11.119   9.660  69.815  1.00  0.00    -0.247 C  
BRANCH   5   6
HETATM    6  C   UNL     1     -12.092  10.344  70.732  1.00  0.00    -0.463 A  
HETATM    7  C   UNL     1     -12.841   9.742  71.724  1.00  0.00    -0.434 A  
HETATM    8  N   UNL     1     -13.540  10.711  72.387  1.00  0.00    -0.453 NA 
HETATM    9  C   UNL     1     -13.242  11.949  71.869  1.00  0.00    -0.362 A  
HETATM   10  H   UNL     1     -14.188  10.541  73.155  1.00  0.00     0.000 HD 
HETATM   11  C   UNL     1     -12.384  11.747  70.789  1.00  0.00    -0.433 A  
HETATM   12  C   UNL     1     -11.975  12.871  70.040  1.00  0.00    -0.380 A  
HETATM   13  C   UNL     1     -12.394  14.165  70.417  1.00  0.00    -0.428 A  
HETATM   14  C   UNL     1     -13.662  13.220  72.278  1.00  0.00    -0.686 A  
HETATM   15  C   UNL     1     -13.215  14.322  71.542  1.00  0.00    -0.420 A  
BRANCH  13  16
HETATM   16  C   UNL     1     -11.970  15.364  69.608  1.00  0.00    -0.343 C  
BRANCH  16  17
HETATM   17  N   UNL     1     -11.174  15.055  68.431  1.00  0.00    -0.279 NA 
HETATM   18  C   UNL     1     -11.559  14.679  67.181  1.00  0.00    -0.378 A  
HETATM   19  N   UNL     1     -10.502  14.520  66.417  1.00  0.00    -0.288 NA 
HETATM   20  C   UNL     1      -9.471  14.815  67.257  1.00  0.00    -0.214 A  
HETATM   21  N   UNL     1      -9.829  15.150  68.500  1.00  0.00    -0.214 NA 
ENDBRANCH  16  17
ENDBRANCH  13  16
ENDBRANCH   5   6
ENDBRANCH   4   5
ENDBRANCH   2   4
TORSDOF 5
ENDMDL
MODEL       35
REMARK 921   NORMALIZED FREE ENERGY PREDICTED BY IDOCK:   -5.35 KCAL/MOL
REMARK 922        TOTAL FREE ENERGY PREDICTED BY IDOCK:   -7.37 KCAL/MOL
REMARK 923 INTER-LIGAND FREE ENERGY PREDICTED BY IDOCK:   -7.05 KCAL/MOL
REMARK 924 INTRA-LIGAND FREE ENERGY PREDICTED BY IDOCK:   -0.32 KCAL/MOL
REMARK 927      BINDING AFFINITY PREDICTED BY RF-SCORE:    0.00 PKD
ROOT
HETATM    1  C   UNL     1     -12.783   7.404  71.390  1.00  0.00    -0.369 C  
HETATM    2  N   UNL     1     -12.339   8.455  72.313  1.00  0.00    -0.368 NA 
HETATM    3  C   UNL     1     -10.900   8.678  72.148  1.00  0.00    -0.354 C  
ENDROOT
BRANCH   2   4
HETATM    4  C   UNL     1     -13.129   9.682  72.077  1.00  0.00    -0.445 C  
BRANCH   4   5
HETATM    5  C   UNL     1     -12.661  10.519  70.875  1.00  0.00    -0.495 C  
BRANCH   5   6
HETATM    6  C   UNL     1     -12.778  11.998  71.107  1.00  0.00    -0.365 A  
HETATM    7  C   UNL     1     -13.169  12.612  72.281  1.00  0.00    -0.360 A  
HETATM    8  N   UNL     1     -13.067  13.965  72.116  1.00  0.00    -0.389 NA 
HETATM    9  C   UNL     1     -12.587  14.255  70.861  1.00  0.00    -0.356 A  
HETATM   10  H   UNL     1     -13.313  14.658  72.822  1.00  0.00     0.000 HD 
HETATM   11  C   UNL     1     -12.453  13.045  70.183  1.00  0.00    -0.166 A  
HETATM   12  C   UNL     1     -12.029  13.077  68.837  1.00  0.00    -0.303 A  
HETATM   13  C   UNL     1     -11.706  14.306  68.224  1.00  0.00    -0.377 A  
HETATM   14  C   UNL     1     -12.259  15.489  70.288  1.00  0.00    -0.432 A  
HETATM   15  C   UNL     1     -11.806  15.492  68.964  1.00  0.00    -0.373 A  
BRANCH  13  16
HETATM   16  C   UNL     1     -11.268  14.342  66.782  1.00  0.00    -0.337 C  
BRANCH  16  17
HETATM   17  N   UNL     1     -10.259  15.345  66.477  1.00  0.00    -0.271 NA 
HETATM   18  C   UNL     1     -10.311  16.423  65.648  1.00  0.00    -0.350 A  
HETATM   19  N   UNL     1      -9.171  17.074  65.690  1.00  0.00    -0.444 NA 
HETATM   20  C   UNL     1      -8.436  16.345  66.575  1.00  0.00    -0.301 A  
HETATM   21  N   UNL     1      -9.057  15.278  67.086  1.00  0.00    -0.200 NA 
ENDBRANCH  16  17
ENDBRANCH  13  16
ENDBRANCH   5   6
ENDBRANCH   4   5
ENDBRANCH   2   4
TORSDOF 5
ENDMDL
MODEL       36
REMARK 921   NORMALIZED FREE ENERGY PREDICTED BY IDOCK:   -5.30 KCAL/MOL
REMARK 922        TOTAL FREE ENERGY PREDICTED BY IDOCK:   -7.31 KCAL/MOL
REMARK 923 INTER-LIGAND FREE ENERGY PREDICTED BY IDOCK:   -6.92 KCAL/MOL
REMARK 924 INTRA-LIGAND FREE ENERGY PREDICTED BY IDOCK:   -0.39 KCAL/MOL
REMARK 927      BINDING AFFINITY PREDICTED BY RF-SCORE:    0.00 PKD
ROOT
HETATM    1  C   UNL     1     -12.513  16.047  73.277  1.00  0.00    -0.535 C  
HETATM    2  N   UNL     1     -13.336  14.943  72.769  1.00  0.00    -0.452 NA 
HETATM    3  C   UNL     1     -14.404  15.477  71.921  1.00  0.00    -0.472 C  
ENDROOT
BRANCH   2   4
HETATM    4  C   UNL     1     -12.476  13.979  72.050  1.00  0.00    -0.160 C  
BRANCH   4   5
HETATM    5  C   UNL     1     -13.189  12.687  71.619  1.00  0.00    -0.394 C  
BRANCH   5   6
HETATM    6  C   UNL     1     -12.352  11.826  70.716  1.00  0.00    -0.433 A  
HETATM    7  C   UNL     1     -11.914  10.544  70.988  1.00  0.00    -0.364 A  
HETATM    8  N   UNL     1     -11.253  10.072  69.889  1.00  0.00    -0.263 NA 
HETATM    9  C   UNL     1     -11.273  11.009  68.884  1.00  0.00    -0.265 A  
HETATM   10  H   UNL     1     -10.810   9.156  69.824  1.00  0.00     0.000 HD 
HETATM   11  C   UNL     1     -11.902  12.144  69.393  1.00  0.00    -0.370 A  
HETATM   12  C   UNL     1     -11.996  13.284  68.566  1.00  0.00    -0.340 A  
HETATM   13  C   UNL     1     -11.504  13.244  67.245  1.00  0.00    -0.378 A  
HETATM   14  C   UNL     1     -10.791  10.932  67.573  1.00  0.00    -0.324 A  
HETATM   15  C   UNL     1     -10.927  12.063  66.760  1.00  0.00    -0.329 A  
BRANCH  13  16
HETATM   16  C   UNL     1     -11.591  14.467  66.367  1.00  0.00    -0.375 C  
BRANCH  16  17
HETATM   17  N   UNL     1     -10.663  15.533  66.713  1.00  0.00    -0.306 NA 
HETATM   18  C   UNL     1      -9.463  15.869  66.165  1.00  0.00    -0.340 A  
HETATM   19  N   UNL     1      -8.970  16.920  66.781  1.00  0.00    -0.227 NA 
HETATM   20  C   UNL     1      -9.920  17.199  67.716  1.00  0.00    -0.290 A  
HETATM   21  N   UNL     1     -10.977  16.381  67.715  1.00  0.00    -0.302 NA 
ENDBRANCH  16  17
ENDBRANCH  13  16
ENDBRANCH   5   6
ENDBRANCH   4   5
ENDBRANCH   2   4
TORSDOF 5
ENDMDL
MODEL       37
REMARK 921   NORMALIZED FREE ENERGY PREDICTED BY IDOCK:   -5.28 KCAL/MOL
REMARK 922        TOTAL FREE ENERGY PREDICTED BY IDOCK:   -7.29 KCAL/MOL
REMARK 923 INTER-LIGAND FREE ENERGY PREDICTED BY IDOCK:   -6.84 KCAL/MOL
REMARK 924 INTRA-LIGAND FREE ENERGY PREDICTED BY IDOCK:   -0.45 KCAL/MOL
REMARK 927      BINDING AFFINITY PREDICTED BY RF-SCORE:    0.00 PKD
ROOT
HETATM    1  C   UNL     1     -11.596  14.977  64.682  1.00  0.00    -0.386 C  
HETATM    2  N   UNL     1     -12.474  13.805  64.577  1.00  0.00    -0.623 NA 
HETATM    3  C   UNL     1     -12.136  13.045  63.371  1.00  0.00    -0.515 C  
ENDROOT
BRANCH   2   4
HETATM    4  C   UNL     1     -12.356  12.992  65.806  1.00  0.00    -0.416 C  
BRANCH   4   5
HETATM    5  C   UNL     1     -10.910  12.723  66.256  1.00  0.00    -0.299 C  
BRANCH   5   6
HETATM    6  C   UNL     1     -10.538  11.269  66.198  1.00  0.00    -0.312 A  
HETATM    7  C   UNL     1     -10.148  10.570  65.071  1.00  0.00    -0.321 A  
HETATM    8  N   UNL     1      -9.816   9.298  65.445  1.00  0.00    -0.444 NA 
HETATM    9  C   UNL     1      -9.952   9.152  66.805  1.00  0.00    -0.254 A  
HETATM   10  H   UNL     1      -9.511   8.564  64.807  1.00  0.00     0.000 HD 
HETATM   11  C   UNL     1     -10.462  10.352  67.298  1.00  0.00    -0.304 A  
HETATM   12  C   UNL     1     -10.752  10.440  68.676  1.00  0.00    -0.250 A  
HETATM   13  C   UNL     1     -10.482   9.348  69.528  1.00  0.00    -0.229 A  
HETATM   14  C   UNL     1      -9.657   8.058  67.626  1.00  0.00    -0.185 A  
HETATM   15  C   UNL     1      -9.920   8.180  68.994  1.00  0.00    -0.191 A  
BRANCH  13  16
HETATM   16  C   UNL     1     -10.806   9.435  70.998  1.00  0.00    -0.336 C  
BRANCH  16  17
HETATM   17  N   UNL     1     -12.138   8.970  71.357  1.00  0.00    -0.311 NA 
HETATM   18  C   UNL     1     -12.668   7.717  71.338  1.00  0.00    -0.308 A  
HETATM   19  N   UNL     1     -13.910   7.751  71.765  1.00  0.00    -0.365 NA 
HETATM   20  C   UNL     1     -14.101   9.071  72.041  1.00  0.00    -0.368 A  
HETATM   21  N   UNL     1     -13.047   9.859  71.810  1.00  0.00    -0.419 NA 
ENDBRANCH  16  17
ENDBRANCH  13  16
ENDBRANCH   5   6
ENDBRANCH   4   5
ENDBRANCH   2   4
TORSDOF 5
ENDMDL
MODEL       38
REMARK 921   NORMALIZED FREE ENERGY PREDICTED BY IDOCK:   -5.22 KCAL/MOL
REMARK 922        TOTAL FREE ENERGY PREDICTED BY IDOCK:   -7.20 KCAL/MOL
REMARK 923 INTER-LIGAND FREE ENERGY PREDICTED BY IDOCK:   -7.39 KCAL/MOL
REMARK 924 INTRA-LIGAND FREE ENERGY PREDICTED BY IDOCK:    0.18 KCAL/MOL
REMARK 927      BINDING AFFINITY PREDICTED BY RF-SCORE:    0.00 PKD
ROOT
HETATM    1  C   UNL     1     -10.355  12.116  65.527  1.00  0.00    -0.263 C  
HETATM    2  N   UNL     1     -10.815  13.186  64.634  1.00  0.00    -0.345 NA 
HETATM    3  C   UNL     1     -12.012  12.744  63.915  1.00  0.00    -0.480 C  
ENDROOT
BRANCH   2   4
HETATM    4  C   UNL     1     -11.053  14.414  65.422  1.00  0.00    -0.331 C  
BRANCH   4   5
HETATM    5  C   UNL     1     -11.979  14.223  66.635  1.00  0.00    -0.454 C  
BRANCH   5   6
HETATM    6  C   UNL     1     -11.530  14.993  67.844  1.00  0.00    -0.354 A  
HETATM    7  C   UNL     1     -10.795  16.163  67.840  1.00  0.00    -0.332 A  
HETATM    8  N   UNL     1     -10.661  16.593  69.130  1.00  0.00    -0.323 NA 
HETATM    9  C   UNL     1     -11.321  15.743  69.985  1.00  0.00    -0.351 A  
HETATM   10  H   UNL     1     -10.145  17.425  69.416  1.00  0.00     0.000 HD 
HETATM   11  C   UNL     1     -11.825  14.696  69.215  1.00  0.00    -0.357 A  
HETATM   12  C   UNL     1     -12.501  13.647  69.874  1.00  0.00    -0.226 A  
HETATM   13  C   UNL     1     -12.695  13.696  71.271  1.00  0.00    -0.443 A  
HETATM   14  C   UNL     1     -11.512  15.829  71.368  1.00  0.00    -0.496 A  
HETATM   15  C   UNL     1     -12.216  14.796  71.995  1.00  0.00    -0.408 A  
BRANCH  13  16
HETATM   16  C   UNL     1     -13.403  12.568  71.977  1.00  0.00    -0.426 C  
BRANCH  16  17
HETATM   17  N   UNL     1     -12.923  11.237  71.635  1.00  0.00    -0.458 NA 
HETATM   18  C   UNL     1     -13.389  10.012  72.000  1.00  0.00    -0.409 A  
HETATM   19  N   UNL     1     -12.659   9.072  71.442  1.00  0.00    -0.315 NA 
HETATM   20  C   UNL     1     -11.741   9.782  70.730  1.00  0.00    -0.328 A  
HETATM   21  N   UNL     1     -11.860  11.111  70.813  1.00  0.00    -0.290 NA 
ENDBRANCH  16  17
ENDBRANCH  13  16
ENDBRANCH   5   6
ENDBRANCH   4   5
ENDBRANCH   2   4
TORSDOF 5
ENDMDL
MODEL       39
REMARK 921   NORMALIZED FREE ENERGY PREDICTED BY IDOCK:   -5.22 KCAL/MOL
REMARK 922        TOTAL FREE ENERGY PREDICTED BY IDOCK:   -7.20 KCAL/MOL
REMARK 923 INTER-LIGAND FREE ENERGY PREDICTED BY IDOCK:   -6.79 KCAL/MOL
REMARK 924 INTRA-LIGAND FREE ENERGY PREDICTED BY IDOCK:   -0.41 KCAL/MOL
REMARK 927      BINDING AFFINITY PREDICTED BY RF-SCORE:    0.00 PKD
ROOT
HETATM    1  C   UNL     1     -14.285  14.941  71.872  1.00  0.00    -0.548 C  
HETATM    2  N   UNL     1     -13.060  15.725  71.682  1.00  0.00    -0.475 NA 
HETATM    3  C   UNL     1     -12.157  15.507  72.815  1.00  0.00    -0.444 C  
ENDROOT
BRANCH   2   4
HETATM    4  C   UNL     1     -12.439  15.362  70.390  1.00  0.00    -0.404 C  
BRANCH   4   5
HETATM    5  C   UNL     1     -12.086  13.872  70.250  1.00  0.00    -0.423 C  
BRANCH   5   6
HETATM    6  C   UNL     1     -11.872  13.450  68.824  1.00  0.00    -0.386 A  
HETATM    7  C   UNL     1     -11.988  14.257  67.708  1.00  0.00    -0.349 A  
HETATM    8  N   UNL     1     -11.635  13.526  66.608  1.00  0.00    -0.346 NA 
HETATM    9  C   UNL     1     -11.260  12.258  66.982  1.00  0.00    -0.310 A  
HETATM   10  H   UNL     1     -11.649  13.872  65.650  1.00  0.00     0.000 HD 
HETATM   11  C   UNL     1     -11.456  12.160  68.359  1.00  0.00    -0.356 A  
HETATM   12  C   UNL     1     -11.197  10.922  68.984  1.00  0.00    -0.327 A  
HETATM   13  C   UNL     1     -10.708   9.834  68.230  1.00  0.00    -0.277 A  
HETATM   14  C   UNL     1     -10.760  11.204  66.209  1.00  0.00    -0.298 A  
HETATM   15  C   UNL     1     -10.477   9.997  66.857  1.00  0.00    -0.284 A  
BRANCH  13  16
HETATM   16  C   UNL     1     -10.447   8.507  68.895  1.00  0.00    -0.188 C  
BRANCH  16  17
HETATM   17  N   UNL     1     -10.053   8.593  70.294  1.00  0.00    -0.183 NA 
HETATM   18  C   UNL     1      -8.894   9.029  70.856  1.00  0.00    -0.240 A  
HETATM   19  N   UNL     1      -8.976   8.950  72.166  1.00  0.00    -0.384 NA 
HETATM   20  C   UNL     1     -10.228   8.452  72.363  1.00  0.00    -0.329 A  
HETATM   21  N   UNL     1     -10.929   8.218  71.249  1.00  0.00    -0.237 NA 
ENDBRANCH  16  17
ENDBRANCH  13  16
ENDBRANCH   5   6
ENDBRANCH   4   5
ENDBRANCH   2   4
TORSDOF 5
ENDMDL
MODEL       40
REMARK 921   NORMALIZED FREE ENERGY PREDICTED BY IDOCK:   -5.20 KCAL/MOL
REMARK 922        TOTAL FREE ENERGY PREDICTED BY IDOCK:   -7.18 KCAL/MOL
REMARK 923 INTER-LIGAND FREE ENERGY PREDICTED BY IDOCK:   -6.83 KCAL/MOL
REMARK 924 INTRA-LIGAND FREE ENERGY PREDICTED BY IDOCK:   -0.35 KCAL/MOL
REMARK 927      BINDING AFFINITY PREDICTED BY RF-SCORE:    0.00 PKD
ROOT
HETATM    1  C   UNL     1     -11.219   6.974  70.962  1.00  0.00    -0.274 C  
HETATM    2  N   UNL     1     -10.575   8.199  70.474  1.00  0.00    -0.216 NA 
HETATM    3  C   UNL     1     -10.564   8.196  69.009  1.00  0.00    -0.151 C  
ENDROOT
BRANCH   2   4
HETATM    4  C   UNL     1     -11.274   9.377  71.029  1.00  0.00    -0.342 C  
BRANCH   4   5
HETATM    5  C   UNL     1     -11.690  10.422  69.981  1.00  0.00    -0.366 C  
BRANCH   5   6
HETATM    6  C   UNL     1     -12.286  11.660  70.590  1.00  0.00    -0.461 A  
HETATM    7  C   UNL     1     -13.051  11.717  71.739  1.00  0.00    -0.375 A  
HETATM    8  N   UNL     1     -13.332  13.028  72.006  1.00  0.00    -0.494 NA 
HETATM    9  C   UNL     1     -12.741  13.840  71.069  1.00  0.00    -0.343 A  
HETATM   10  H   UNL     1     -13.899  13.355  72.788  1.00  0.00     0.000 HD 
HETATM   11  C   UNL     1     -12.128  13.009  70.132  1.00  0.00    -0.377 A  
HETATM   12  C   UNL     1     -11.495  13.606  69.021  1.00  0.00    -0.346 A  
HETATM   13  C   UNL     1     -11.450  15.011  68.901  1.00  0.00    -0.333 A  
HETATM   14  C   UNL     1     -12.699  15.236  70.987  1.00  0.00    -0.487 A  
HETATM   15  C   UNL     1     -12.035  15.807  69.896  1.00  0.00    -0.346 A  
BRANCH  13  16
HETATM   16  C   UNL     1     -10.788  15.649  67.707  1.00  0.00    -0.307 C  
BRANCH  16  17
HETATM   17  N   UNL     1     -10.069  16.881  67.994  1.00  0.00    -0.280 NA 
HETATM   18  C   UNL     1      -8.878  17.080  68.621  1.00  0.00    -0.267 A  
HETATM   19  N   UNL     1      -8.595  18.363  68.646  1.00  0.00    -0.318 NA 
HETATM   20  C   UNL     1      -9.661  18.923  68.011  1.00  0.00    -0.337 A  
HETATM   21  N   UNL     1     -10.591  18.059  67.591  1.00  0.00    -0.413 NA 
ENDBRANCH  16  17
ENDBRANCH  13  16
ENDBRANCH   5   6
ENDBRANCH   4   5
ENDBRANCH   2   4
TORSDOF 5
ENDMDL
MODEL       41
REMARK 921   NORMALIZED FREE ENERGY PREDICTED BY IDOCK:   -5.20 KCAL/MOL
REMARK 922        TOTAL FREE ENERGY PREDICTED BY IDOCK:   -7.18 KCAL/MOL
REMARK 923 INTER-LIGAND FREE ENERGY PREDICTED BY IDOCK:   -6.89 KCAL/MOL
REMARK 924 INTRA-LIGAND FREE ENERGY PREDICTED BY IDOCK:   -0.29 KCAL/MOL
REMARK 927      BINDING AFFINITY PREDICTED BY RF-SCORE:    0.00 PKD
ROOT
HETATM    1  C   UNL     1     -12.198  12.707  64.964  1.00  0.00    -0.476 C  
HETATM    2  N   UNL     1     -11.407  13.652  65.760  1.00  0.00    -0.303 NA 
HETATM    3  C   UNL     1     -11.078  14.824  64.946  1.00  0.00    -0.407 C  
ENDROOT
BRANCH   2   4
HETATM    4  C   UNL     1     -12.154  14.009  66.985  1.00  0.00    -0.420 C  
BRANCH   4   5
HETATM    5  C   UNL     1     -11.272  14.251  68.221  1.00  0.00    -0.298 C  
BRANCH   5   6
HETATM    6  C   UNL     1     -11.924  13.815  69.503  1.00  0.00    -0.399 A  
HETATM    7  C   UNL     1     -12.653  14.616  70.360  1.00  0.00    -0.343 A  
HETATM    8  N   UNL     1     -13.147  13.834  71.366  1.00  0.00    -0.347 NA 
HETATM    9  C   UNL     1     -12.781  12.523  71.172  1.00  0.00    -0.245 A  
HETATM   10  H   UNL     1     -13.707  14.173  72.148  1.00  0.00     0.000 HD 
HETATM   11  C   UNL     1     -11.962  12.489  70.045  1.00  0.00    -0.372 A  
HETATM   12  C   UNL     1     -11.399  11.251  69.665  1.00  0.00    -0.359 A  
HETATM   13  C   UNL     1     -11.706  10.081  70.390  1.00  0.00    -0.365 A  
HETATM   14  C   UNL     1     -13.118  11.378  71.901  1.00  0.00    -0.505 A  
HETATM   15  C   UNL     1     -12.577  10.157  71.485  1.00  0.00    -0.537 A  
BRANCH  13  16
HETATM   16  C   UNL     1     -11.092   8.761  69.994  1.00  0.00    -0.162 C  
BRANCH  16  17
HETATM   17  N   UNL     1     -11.102   7.747  71.038  1.00  0.00    -0.253 NA 
HETATM   18  C   UNL     1     -10.312   7.606  72.136  1.00  0.00    -0.221 A  
HETATM   19  N   UNL     1     -10.686   6.550  72.823  1.00  0.00    -0.229 NA 
HETATM   20  C   UNL     1     -11.730   6.066  72.094  1.00  0.00    -0.279 A  
HETATM   21  N   UNL     1     -12.026   6.764  70.993  1.00  0.00    -0.370 NA 
ENDBRANCH  16  17
ENDBRANCH  13  16
ENDBRANCH   5   6
ENDBRANCH   4   5
ENDBRANCH   2   4
TORSDOF 5
ENDMDL
MODEL       42
REMARK 921   NORMALIZED FREE ENERGY PREDICTED BY IDOCK:   -5.19 KCAL/MOL
REMARK 922        TOTAL FREE ENERGY PREDICTED BY IDOCK:   -7.17 KCAL/MOL
REMARK 923 INTER-LIGAND FREE ENERGY PREDICTED BY IDOCK:   -6.57 KCAL/MOL
REMARK 924 INTRA-LIGAND FREE ENERGY PREDICTED BY IDOCK:   -0.60 KCAL/MOL
REMARK 927      BINDING AFFINITY PREDICTED BY RF-SCORE:    0.00 PKD
ROOT
HETATM    1  C   UNL     1      -8.133  15.505  69.376  1.00  0.00    -0.241 C  
HETATM    2  N   UNL     1      -9.276  15.937  68.564  1.00  0.00    -0.193 NA 
HETATM    3  C   UNL     1      -9.659  14.863  67.644  1.00  0.00    -0.200 C  
ENDROOT
BRANCH   2   4
HETATM    4  C   UNL     1     -10.387  16.339  69.452  1.00  0.00    -0.278 C  
BRANCH   4   5
HETATM    5  C   UNL     1     -11.745  15.709  69.099  1.00  0.00    -0.402 C  
BRANCH   5   6
HETATM    6  C   UNL     1     -12.411  15.052  70.274  1.00  0.00    -0.385 A  
HETATM    7  C   UNL     1     -13.178  15.682  71.235  1.00  0.00    -0.443 A  
HETATM    8  N   UNL     1     -13.672  14.732  72.085  1.00  0.00    -0.396 NA 
HETATM    9  C   UNL     1     -13.269  13.481  71.684  1.00  0.00    -0.366 A  
HETATM   10  H   UNL     1     -14.256  14.924  72.898  1.00  0.00     0.000 HD 
HETATM   11  C   UNL     1     -12.426  13.653  70.587  1.00  0.00    -0.417 A  
HETATM   12  C   UNL     1     -11.824  12.509  70.020  1.00  0.00    -0.363 A  
HETATM   13  C   UNL     1     -12.115  11.227  70.533  1.00  0.00    -0.481 A  
HETATM   14  C   UNL     1     -13.591  12.223  72.204  1.00  0.00    -0.348 A  
HETATM   15  C   UNL     1     -13.010  11.100  71.604  1.00  0.00    -0.548 A  
BRANCH  13  16
HETATM   16  C   UNL     1     -11.460  10.006  69.938  1.00  0.00    -0.215 C  
BRANCH  16  17
HETATM   17  N   UNL     1     -10.173   9.660  70.522  1.00  0.00    -0.281 NA 
HETATM   18  C   UNL     1      -9.875   9.091  71.722  1.00  0.00    -0.260 A  
HETATM   19  N   UNL     1      -8.575   8.938  71.833  1.00  0.00    -0.371 NA 
HETATM   20  C   UNL     1      -8.108   9.436  70.655  1.00  0.00    -0.161 A  
HETATM   21  N   UNL     1      -9.046   9.889  69.817  1.00  0.00    -0.225 NA 
ENDBRANCH  16  17
ENDBRANCH  13  16
ENDBRANCH   5   6
ENDBRANCH   4   5
ENDBRANCH   2   4
TORSDOF 5
ENDMDL
MODEL       43
REMARK 921   NORMALIZED FREE ENERGY PREDICTED BY IDOCK:   -5.18 KCAL/MOL
REMARK 922        TOTAL FREE ENERGY PREDICTED BY IDOCK:   -7.15 KCAL/MOL
REMARK 923 INTER-LIGAND FREE ENERGY PREDICTED BY IDOCK:   -6.67 KCAL/MOL
REMARK 924 INTRA-LIGAND FREE ENERGY PREDICTED BY IDOCK:   -0.48 KCAL/MOL
REMARK 927      BINDING AFFINITY PREDICTED BY RF-SCORE:    0.00 PKD
ROOT
HETATM    1  C   UNL     1     -12.491   7.350  71.400  1.00  0.00    -0.368 C  
HETATM    2  N   UNL     1     -11.760   8.169  72.374  1.00  0.00    -0.378 NA 
HETATM    3  C   UNL     1     -10.892   7.310  73.184  1.00  0.00    -0.357 C  
ENDROOT
BRANCH   2   4
HETATM    4  C   UNL     1     -11.003   9.221  71.662  1.00  0.00    -0.363 C  
BRANCH   4   5
HETATM    5  C   UNL     1     -11.861  10.396  71.165  1.00  0.00    -0.432 C  
BRANCH   5   6
HETATM    6  C   UNL     1     -11.670  10.686  69.703  1.00  0.00    -0.368 A  
HETATM    7  C   UNL     1     -11.531   9.749  68.697  1.00  0.00     0.198 A  
HETATM    8  N   UNL     1     -11.463  10.407  67.501  1.00  0.00    -0.538 NA 
HETATM    9  C   UNL     1     -11.584  11.762  67.697  1.00  0.00    -0.294 A  
HETATM   10  H   UNL     1     -11.340   9.958  66.595  1.00  0.00     0.000 HD 
HETATM   11  C   UNL     1     -11.654  11.973  69.073  1.00  0.00    -0.370 A  
HETATM   12  C   UNL     1     -11.723  13.303  69.543  1.00  0.00    -0.384 A  
HETATM   13  C   UNL     1     -11.766  14.376  68.629  1.00  0.00    -0.367 A  
HETATM   14  C   UNL     1     -11.643  12.804  66.765  1.00  0.00    -0.431 A  
HETATM   15  C   UNL     1     -11.747  14.111  67.253  1.00  0.00    -0.421 A  
BRANCH  13  16
HETATM   16  C   UNL     1     -11.824  15.797  69.131  1.00  0.00    -0.354 C  
BRANCH  16  17
HETATM   17  N   UNL     1     -10.719  16.640  68.699  1.00  0.00    -0.330 NA 
HETATM   18  C   UNL     1     -10.706  17.719  67.871  1.00  0.00    -0.319 A  
HETATM   19  N   UNL     1      -9.485  18.193  67.773  1.00  0.00    -0.264 NA 
HETATM   20  C   UNL     1      -8.768  17.357  68.575  1.00  0.00    -0.277 A  
HETATM   21  N   UNL     1      -9.478  16.391  69.166  1.00  0.00    -0.257 NA 
ENDBRANCH  16  17
ENDBRANCH  13  16
ENDBRANCH   5   6
ENDBRANCH   4   5
ENDBRANCH   2   4
TORSDOF 5
ENDMDL
MODEL       44
REMARK 921   NORMALIZED FREE ENERGY PREDICTED BY IDOCK:   -5.16 KCAL/MOL
REMARK 922        TOTAL FREE ENERGY PREDICTED BY IDOCK:   -7.12 KCAL/MOL
REMARK 923 INTER-LIGAND FREE ENERGY PREDICTED BY IDOCK:   -6.77 KCAL/MOL
REMARK 924 INTRA-LIGAND FREE ENERGY PREDICTED BY IDOCK:   -0.35 KCAL/MOL
REMARK 927      BINDING AFFINITY PREDICTED BY RF-SCORE:    0.00 PKD
ROOT
HETATM    1  C   UNL     1      -9.468   7.504  67.265  1.00  0.00    -0.151 C  
HETATM    2  N   UNL     1      -9.566   7.070  68.663  1.00  0.00    -0.138 NA 
HETATM    3  C   UNL     1      -8.336   7.428  69.375  1.00  0.00    -0.132 C  
ENDROOT
BRANCH   2   4
HETATM    4  C   UNL     1     -10.768   7.670  69.281  1.00  0.00    -0.161 C  
BRANCH   4   5
HETATM    5  C   UNL     1     -10.581   8.109  70.742  1.00  0.00    -0.234 C  
BRANCH   5   6
HETATM    6  C   UNL     1     -11.610   9.106  71.193  1.00  0.00    -0.386 A  
HETATM    7  C   UNL     1     -12.528   8.928  72.210  1.00  0.00    -0.369 A  
HETATM    8  N   UNL     1     -13.230  10.090  72.367  1.00  0.00    -0.554 NA 
HETATM    9  C   UNL     1     -12.771  11.044  71.490  1.00  0.00    -0.415 A  
HETATM   10  H   UNL     1     -13.985  10.229  73.038  1.00  0.00     0.000 HD 
HETATM   11  C   UNL     1     -11.797  10.438  70.698  1.00  0.00    -0.445 A  
HETATM   12  C   UNL     1     -11.206  11.199  69.667  1.00  0.00    -0.333 A  
HETATM   13  C   UNL     1     -11.569  12.551  69.486  1.00  0.00    -0.348 A  
HETATM   14  C   UNL     1     -13.140  12.385  71.347  1.00  0.00    -0.299 A  
HETATM   15  C   UNL     1     -12.515  13.130  70.342  1.00  0.00    -0.280 A  
BRANCH  13  16
HETATM   16  C   UNL     1     -10.949  13.359  68.375  1.00  0.00    -0.267 C  
BRANCH  16  17
HETATM   17  N   UNL     1     -11.625  13.249  67.091  1.00  0.00    -0.337 NA 
HETATM   18  C   UNL     1     -12.203  14.205  66.315  1.00  0.00    -0.449 A  
HETATM   19  N   UNL     1     -12.682  13.662  65.219  1.00  0.00    -0.664 NA 
HETATM   20  C   UNL     1     -12.367  12.345  65.369  1.00  0.00    -0.237 A  
HETATM   21  N   UNL     1     -11.718  12.041  66.497  1.00  0.00    -0.575 NA 
ENDBRANCH  16  17
ENDBRANCH  13  16
ENDBRANCH   5   6
ENDBRANCH   4   5
ENDBRANCH   2   4
TORSDOF 5
ENDMDL
MODEL       45
REMARK 921   NORMALIZED FREE ENERGY PREDICTED BY IDOCK:   -5.15 KCAL/MOL
REMARK 922        TOTAL FREE ENERGY PREDICTED BY IDOCK:   -7.12 KCAL/MOL
REMARK 923 INTER-LIGAND FREE ENERGY PREDICTED BY IDOCK:   -6.78 KCAL/MOL
REMARK 924 INTRA-LIGAND FREE ENERGY PREDICTED BY IDOCK:   -0.33 KCAL/MOL
REMARK 927      BINDING AFFINITY PREDICTED BY RF-SCORE:    0.00 PKD
ROOT
HETATM    1  C   UNL     1     -10.005   9.880  68.756  1.00  0.00    -0.173 C  
HETATM    2  N   UNL     1      -9.807  10.982  67.808  1.00  0.00    -0.171 NA 
HETATM    3  C   UNL     1      -8.480  10.871  67.197  1.00  0.00    -0.128 C  
ENDROOT
BRANCH   2   4
HETATM    4  C   UNL     1     -10.891  10.968  66.803  1.00  0.00    -0.251 C  
BRANCH   4   5
HETATM    5  C   UNL     1     -10.414  11.120  65.349  1.00  0.00    -0.321 C  
BRANCH   5   6
HETATM    6  C   UNL     1     -11.053  12.279  64.639  1.00  0.00    -0.358 A  
HETATM    7  C   UNL     1     -12.022  12.200  63.656  1.00  0.00    -0.534 A  
HETATM    8  N   UNL     1     -12.403  13.469  63.323  1.00  0.00    -1.017 NA 
HETATM    9  C   UNL     1     -11.723  14.386  64.090  1.00  0.00    -0.227 A  
HETATM   10  H   UNL     1     -13.092  13.703  62.609  1.00  0.00     0.000 HD 
HETATM   11  C   UNL     1     -10.825  13.673  64.882  1.00  0.00    -0.382 A  
HETATM   12  C   UNL     1      -9.956  14.398  65.725  1.00  0.00    -0.354 A  
HETATM   13  C   UNL     1     -10.040  15.805  65.789  1.00  0.00    -0.399 A  
HETATM   14  C   UNL     1     -11.843  15.779  64.142  1.00  0.00    -0.035 A  
HETATM   15  C   UNL     1     -10.996  16.474  65.012  1.00  0.00    -0.222 A  
BRANCH  13  16
HETATM   16  C   UNL     1      -9.102  16.581  66.678  1.00  0.00    -0.255 C  
BRANCH  16  17
HETATM   17  N   UNL     1      -9.488  17.964  66.911  1.00  0.00    -0.271 NA 
HETATM   18  C   UNL     1     -10.167  18.526  67.948  1.00  0.00    -0.384 A  
HETATM   19  N   UNL     1     -10.279  19.821  67.759  1.00  0.00    -0.417 NA 
HETATM   20  C   UNL     1      -9.640  20.012  66.571  1.00  0.00    -0.420 A  
HETATM   21  N   UNL     1      -9.136  18.907  66.013  1.00  0.00    -0.463 NA 
ENDBRANCH  16  17
ENDBRANCH  13  16
ENDBRANCH   5   6
ENDBRANCH   4   5
ENDBRANCH   2   4
TORSDOF 5
ENDMDL
MODEL       46
REMARK 921   NORMALIZED FREE ENERGY PREDICTED BY IDOCK:   -5.13 KCAL/MOL
REMARK 922        TOTAL FREE ENERGY PREDICTED BY IDOCK:   -7.09 KCAL/MOL
REMARK 923 INTER-LIGAND FREE ENERGY PREDICTED BY IDOCK:   -6.68 KCAL/MOL
REMARK 924 INTRA-LIGAND FREE ENERGY PREDICTED BY IDOCK:   -0.41 KCAL/MOL
REMARK 927      BINDING AFFINITY PREDICTED BY RF-SCORE:    0.00 PKD
ROOT
HETATM    1  C   UNL     1     -10.481   7.487  67.303  1.00  0.00    -0.321 C  
HETATM    2  N   UNL     1     -10.826   6.116  67.695  1.00  0.00    -0.312 NA 
HETATM    3  C   UNL     1      -9.893   5.177  67.068  1.00  0.00    -0.177 C  
ENDROOT
BRANCH   2   4
HETATM    4  C   UNL     1     -10.824   6.011  69.169  1.00  0.00    -0.352 C  
BRANCH   4   5
HETATM    5  C   UNL     1     -10.389   7.292  69.899  1.00  0.00    -0.226 C  
BRANCH   5   6
HETATM    6  C   UNL     1     -11.490   7.908  70.715  1.00  0.00    -0.273 A  
HETATM    7  C   UNL     1     -12.270   7.259  71.652  1.00  0.00    -0.343 A  
HETATM    8  N   UNL     1     -13.099   8.178  72.233  1.00  0.00    -0.525 NA 
HETATM    9  C   UNL     1     -12.859   9.428  71.716  1.00  0.00    -0.399 A  
HETATM   10  H   UNL     1     -13.795   7.965  72.947  1.00  0.00     0.000 HD 
HETATM   11  C   UNL     1     -11.897   9.282  70.718  1.00  0.00    -0.303 A  
HETATM   12  C   UNL     1     -11.517  10.426  69.983  1.00  0.00    -0.382 A  
HETATM   13  C   UNL     1     -12.070  11.685  70.296  1.00  0.00    -0.443 A  
HETATM   14  C   UNL     1     -13.413  10.665  72.062  1.00  0.00    -0.310 A  
HETATM   15  C   UNL     1     -12.994  11.791  71.344  1.00  0.00    -0.408 A  
BRANCH  13  16
HETATM   16  C   UNL     1     -11.676  12.904  69.502  1.00  0.00    -0.323 C  
BRANCH  16  17
HETATM   17  N   UNL     1     -11.159  12.623  68.171  1.00  0.00    -0.234 NA 
HETATM   18  C   UNL     1      -9.882  12.640  67.700  1.00  0.00    -0.210 A  
HETATM   19  N   UNL     1      -9.869  12.301  66.431  1.00  0.00    -0.225 NA 
HETATM   20  C   UNL     1     -11.186  12.080  66.161  1.00  0.00    -0.343 A  
HETATM   21  N   UNL     1     -12.016  12.262  67.193  1.00  0.00    -0.576 NA 
ENDBRANCH  16  17
ENDBRANCH  13  16
ENDBRANCH   5   6
ENDBRANCH   4   5
ENDBRANCH   2   4
TORSDOF 5
ENDMDL
MODEL       47
REMARK 921   NORMALIZED FREE ENERGY PREDICTED BY IDOCK:   -5.12 KCAL/MOL
REMARK 922        TOTAL FREE ENERGY PREDICTED BY IDOCK:   -7.07 KCAL/MOL
REMARK 923 INTER-LIGAND FREE ENERGY PREDICTED BY IDOCK:   -6.46 KCAL/MOL
REMARK 924 INTRA-LIGAND FREE ENERGY PREDICTED BY IDOCK:   -0.61 KCAL/MOL
REMARK 927      BINDING AFFINITY PREDICTED BY RF-SCORE:    0.00 PKD
ROOT
HETATM    1  C   UNL     1     -11.278  16.075  68.179  1.00  0.00    -0.325 C  
HETATM    2  N   UNL     1     -11.230  14.721  67.616  1.00  0.00    -0.310 NA 
HETATM    3  C   UNL     1     -12.157  13.853  68.346  1.00  0.00    -0.291 C  
ENDROOT
BRANCH   2   4
HETATM    4  C   UNL     1     -11.535  14.779  66.171  1.00  0.00    -0.311 C  
BRANCH   4   5
HETATM    5  C   UNL     1     -12.546  13.725  65.690  1.00  0.00    -0.551 C  
BRANCH   5   6
HETATM    6  C   UNL     1     -11.921  12.656  64.839  1.00  0.00    -0.459 A  
HETATM    7  C   UNL     1     -12.110  12.480  63.481  1.00  0.00    -0.562 A  
HETATM    8  N   UNL     1     -11.307  11.456  63.063  1.00  0.00    -0.852 NA 
HETATM    9  C   UNL     1     -10.569  10.971  64.117  1.00  0.00    -0.342 A  
HETATM   10  H   UNL     1     -11.263  11.103  62.108  1.00  0.00     0.000 HD 
HETATM   11  C   UNL     1     -10.976  11.662  65.256  1.00  0.00    -0.327 A  
HETATM   12  C   UNL     1     -10.405  11.304  66.496  1.00  0.00    -0.284 A  
HETATM   13  C   UNL     1      -9.413  10.302  66.556  1.00  0.00    -0.212 A  
HETATM   14  C   UNL     1      -9.576   9.985  64.140  1.00  0.00    -0.274 A  
HETATM   15  C   UNL     1      -8.998   9.671  65.375  1.00  0.00    -0.231 A  
BRANCH  13  16
HETATM   16  C   UNL     1      -8.814   9.907  67.882  1.00  0.00    -0.129 C  
BRANCH  16  17
HETATM   17  N   UNL     1      -9.655   9.046  68.699  1.00  0.00    -0.151 NA 
HETATM   18  C   UNL     1     -10.194   7.826  68.426  1.00  0.00    -0.200 A  
HETATM   19  N   UNL     1     -10.876   7.398  69.465  1.00  0.00    -0.222 NA 
HETATM   20  C   UNL     1     -10.723   8.406  70.367  1.00  0.00    -0.231 A  
HETATM   21  N   UNL     1      -9.983   9.437  69.948  1.00  0.00    -0.197 NA 
ENDBRANCH  16  17
ENDBRANCH  13  16
ENDBRANCH   5   6
ENDBRANCH   4   5
ENDBRANCH   2   4
TORSDOF 5
ENDMDL
MODEL       48
REMARK 921   NORMALIZED FREE ENERGY PREDICTED BY IDOCK:   -5.12 KCAL/MOL
REMARK 922        TOTAL FREE ENERGY PREDICTED BY IDOCK:   -7.07 KCAL/MOL
REMARK 923 INTER-LIGAND FREE ENERGY PREDICTED BY IDOCK:   -6.69 KCAL/MOL
REMARK 924 INTRA-LIGAND FREE ENERGY PREDICTED BY IDOCK:   -0.38 KCAL/MOL
REMARK 927      BINDING AFFINITY PREDICTED BY RF-SCORE:    0.00 PKD
ROOT
HETATM    1  C   UNL     1     -10.489  12.313  63.483  1.00  0.00    -0.424 C  
HETATM    2  N   UNL     1     -11.837  12.882  63.367  1.00  0.00    -0.539 NA 
HETATM    3  C   UNL     1     -12.831  11.852  63.678  1.00  0.00    -0.305 C  
ENDROOT
BRANCH   2   4
HETATM    4  C   UNL     1     -11.951  14.060  64.252  1.00  0.00    -0.435 C  
BRANCH   4   5
HETATM    5  C   UNL     1     -12.636  13.780  65.600  1.00  0.00    -0.551 C  
BRANCH   5   6
HETATM    6  C   UNL     1     -11.660  13.554  66.720  1.00  0.00    -0.397 A  
HETATM    7  C   UNL     1     -11.669  12.497  67.609  1.00  0.00    -0.361 A  
HETATM    8  N   UNL     1     -10.574  12.605  68.421  1.00  0.00    -0.238 NA 
HETATM    9  C   UNL     1      -9.826  13.702  68.063  1.00  0.00    -0.244 A  
HETATM   10  H   UNL     1     -10.347  11.966  69.181  1.00  0.00     0.000 HD 
HETATM   11  C   UNL     1     -10.513  14.352  67.039  1.00  0.00    -0.268 A  
HETATM   12  C   UNL     1      -9.975  15.554  66.533  1.00  0.00    -0.283 A  
HETATM   13  C   UNL     1      -8.750  16.047  67.028  1.00  0.00    -0.236 A  
HETATM   14  C   UNL     1      -8.600  14.155  68.563  1.00  0.00    -0.163 A  
HETATM   15  C   UNL     1      -8.069  15.330  68.021  1.00  0.00    -0.141 A  
BRANCH  13  16
HETATM   16  C   UNL     1      -8.183  17.340  66.498  1.00  0.00    -0.276 C  
BRANCH  16  17
HETATM   17  N   UNL     1      -8.914  18.534  66.895  1.00  0.00    -0.272 NA 
HETATM   18  C   UNL     1      -8.819  19.290  68.023  1.00  0.00    -0.317 A  
HETATM   19  N   UNL     1      -9.661  20.296  67.958  1.00  0.00    -0.327 NA 
HETATM   20  C   UNL     1     -10.262  20.114  66.749  1.00  0.00    -0.430 A  
HETATM   21  N   UNL     1      -9.838  19.051  66.059  1.00  0.00    -0.481 NA 
ENDBRANCH  16  17
ENDBRANCH  13  16
ENDBRANCH   5   6
ENDBRANCH   4   5
ENDBRANCH   2   4
TORSDOF 5
ENDMDL
MODEL       49
REMARK 921   NORMALIZED FREE ENERGY PREDICTED BY IDOCK:   -5.10 KCAL/MOL
REMARK 922        TOTAL FREE ENERGY PREDICTED BY IDOCK:   -7.05 KCAL/MOL
REMARK 923 INTER-LIGAND FREE ENERGY PREDICTED BY IDOCK:   -6.58 KCAL/MOL
REMARK 924 INTRA-LIGAND FREE ENERGY PREDICTED BY IDOCK:   -0.47 KCAL/MOL
REMARK 927      BINDING AFFINITY PREDICTED BY RF-SCORE:    0.00 PKD
ROOT
HETATM    1  C   UNL     1     -10.698  18.839  67.232  1.00  0.00    -0.425 C  
HETATM    2  N   UNL     1     -10.093  17.523  67.464  1.00  0.00    -0.313 NA 
HETATM    3  C   UNL     1     -10.603  16.962  68.718  1.00  0.00    -0.355 C  
ENDROOT
BRANCH   2   4
HETATM    4  C   UNL     1     -10.364  16.646  66.305  1.00  0.00    -0.317 C  
BRANCH   4   5
HETATM    5  C   UNL     1     -10.941  15.268  66.670  1.00  0.00    -0.297 C  
BRANCH   5   6
HETATM    6  C   UNL     1     -11.340  14.460  65.468  1.00  0.00    -0.334 A  
HETATM    7  C   UNL     1     -12.240  14.841  64.491  1.00  0.00    -0.428 A  
HETATM    8  N   UNL     1     -12.268  13.871  63.528  1.00  0.00    -1.050 NA 
HETATM    9  C   UNL     1     -11.379  12.870  63.838  1.00  0.00    -0.436 A  
HETATM   10  H   UNL     1     -12.862  13.889  62.700  1.00  0.00     0.000 HD 
HETATM   11  C   UNL     1     -10.826  13.180  65.079  1.00  0.00    -0.331 A  
HETATM   12  C   UNL     1      -9.917  12.266  65.653  1.00  0.00    -0.271 A  
HETATM   13  C   UNL     1      -9.551  11.096  64.955  1.00  0.00    -0.279 A  
HETATM   14  C   UNL     1     -11.024  11.727  63.112  1.00  0.00    -0.275 A  
HETATM   15  C   UNL     1     -10.094  10.854  63.685  1.00  0.00    -0.414 A  
BRANCH  13  16
HETATM   16  C   UNL     1      -8.592  10.111  65.575  1.00  0.00    -0.151 C  
BRANCH  16  17
HETATM   17  N   UNL     1      -9.081   9.463  66.783  1.00  0.00    -0.137 NA 
HETATM   18  C   UNL     1      -8.628   9.533  68.064  1.00  0.00    -0.120 A  
HETATM   19  N   UNL     1      -9.384   8.796  68.846  1.00  0.00    -0.144 NA 
HETATM   20  C   UNL     1     -10.306   8.284  67.983  1.00  0.00    -0.213 A  
HETATM   21  N   UNL     1     -10.165   8.663  66.710  1.00  0.00    -0.290 NA 
ENDBRANCH  16  17
ENDBRANCH  13  16
ENDBRANCH   5   6
ENDBRANCH   4   5
ENDBRANCH   2   4
TORSDOF 5
ENDMDL
MODEL       50
REMARK 921   NORMALIZED FREE ENERGY PREDICTED BY IDOCK:   -5.10 KCAL/MOL
REMARK 922        TOTAL FREE ENERGY PREDICTED BY IDOCK:   -7.05 KCAL/MOL
REMARK 923 INTER-LIGAND FREE ENERGY PREDICTED BY IDOCK:   -6.49 KCAL/MOL
REMARK 924 INTRA-LIGAND FREE ENERGY PREDICTED BY IDOCK:   -0.56 KCAL/MOL
REMARK 927      BINDING AFFINITY PREDICTED BY RF-SCORE:    0.00 PKD
ROOT
HETATM    1  C   UNL     1      -8.537   9.445  65.765  1.00  0.00    -0.145 C  
HETATM    2  N   UNL     1      -8.253  10.282  64.594  1.00  0.00    -0.163 NA 
HETATM    3  C   UNL     1      -6.957   9.906  64.024  1.00  0.00    -0.125 C  
ENDROOT
BRANCH   2   4
HETATM    4  C   UNL     1      -9.355  10.152  63.618  1.00  0.00    -0.290 C  
BRANCH   4   5
HETATM    5  C   UNL     1      -9.849  11.486  63.033  1.00  0.00    -0.367 C  
BRANCH   5   6
HETATM    6  C   UNL     1     -10.984  12.085  63.813  1.00  0.00    -0.492 A  
HETATM    7  C   UNL     1     -12.325  11.793  63.658  1.00  0.00    -0.379 A  
HETATM    8  N   UNL     1     -13.030  12.481  64.606  1.00  0.00    -0.844 NA 
HETATM    9  C   UNL     1     -12.174  13.200  65.404  1.00  0.00    -0.461 A  
HETATM   10  H   UNL     1     -14.044  12.462  64.706  1.00  0.00     0.000 HD 
HETATM   11  C   UNL     1     -10.889  13.022  64.895  1.00  0.00    -0.343 A  
HETATM   12  C   UNL     1      -9.823  13.714  65.509  1.00  0.00    -0.175 A  
HETATM   13  C   UNL     1     -10.063  14.524  66.639  1.00  0.00    -0.275 A  
HETATM   14  C   UNL     1     -12.441  13.983  66.533  1.00  0.00    -0.351 A  
HETATM   15  C   UNL     1     -11.364  14.631  67.147  1.00  0.00    -0.365 A  
BRANCH  13  16
HETATM   16  C   UNL     1      -8.927  15.276  67.286  1.00  0.00    -0.195 C  
BRANCH  16  17
HETATM   17  N   UNL     1      -9.000  16.724  67.152  1.00  0.00    -0.201 NA 
HETATM   18  C   UNL     1      -9.237  17.684  68.086  1.00  0.00    -0.282 A  
HETATM   19  N   UNL     1      -9.193  18.872  67.526  1.00  0.00    -0.288 NA 
HETATM   20  C   UNL     1      -8.920  18.585  66.223  1.00  0.00    -0.207 A  
HETATM   21  N   UNL     1      -8.791  17.285  65.942  1.00  0.00    -0.541 NA 
ENDBRANCH  16  17
ENDBRANCH  13  16
ENDBRANCH   5   6
ENDBRANCH   4   5
ENDBRANCH   2   4
TORSDOF 5
ENDMDL
MODEL       51
REMARK 921   NORMALIZED FREE ENERGY PREDICTED BY IDOCK:   -5.09 KCAL/MOL
REMARK 922        TOTAL FREE ENERGY PREDICTED BY IDOCK:   -7.04 KCAL/MOL
REMARK 923 INTER-LIGAND FREE ENERGY PREDICTED BY IDOCK:   -6.67 KCAL/MOL
REMARK 924 INTRA-LIGAND FREE ENERGY PREDICTED BY IDOCK:   -0.36 KCAL/MOL
REMARK 927      BINDING AFFINITY PREDICTED BY RF-SCORE:    0.00 PKD
ROOT
HETATM    1  C   UNL     1     -13.208   9.684  72.074  1.00  0.00    -0.453 C  
HETATM    2  N   UNL     1     -13.170  10.853  71.188  1.00  0.00    -0.230 NA 
HETATM    3  C   UNL     1     -13.254  12.078  71.987  1.00  0.00    -0.375 C  
ENDROOT
BRANCH   2   4
HETATM    4  C   UNL     1     -11.945  10.803  70.362  1.00  0.00    -0.357 C  
BRANCH   4   5
HETATM    5  C   UNL     1     -11.788  11.980  69.384  1.00  0.00    -0.384 C  
BRANCH   5   6
HETATM    6  C   UNL     1     -11.232  11.567  68.051  1.00  0.00    -0.335 A  
HETATM    7  C   UNL     1     -10.913  10.280  67.663  1.00  0.00    -0.294 A  
HETATM    8  N   UNL     1     -10.517  10.309  66.356  1.00  0.00    -0.199 NA 
HETATM    9  C   UNL     1     -10.598  11.590  65.863  1.00  0.00    -0.268 A  
HETATM   10  H   UNL     1     -10.206   9.497  65.823  1.00  0.00     0.000 HD 
HETATM   11  C   UNL     1     -10.985  12.412  66.920  1.00  0.00    -0.307 A  
HETATM   12  C   UNL     1     -11.082  13.800  66.685  1.00  0.00    -0.316 A  
HETATM   13  C   UNL     1     -10.837  14.321  65.397  1.00  0.00    -0.348 A  
HETATM   14  C   UNL     1     -10.365  12.072  64.571  1.00  0.00    -0.334 A  
HETATM   15  C   UNL     1     -10.502  13.447  64.353  1.00  0.00    -0.403 A  
BRANCH  13  16
HETATM   16  C   UNL     1     -10.926  15.805  65.150  1.00  0.00    -0.382 C  
BRANCH  16  17
HETATM   17  N   UNL     1     -10.137  16.623  66.059  1.00  0.00    -0.368 NA 
HETATM   18  C   UNL     1     -10.484  17.223  67.229  1.00  0.00    -0.319 A  
HETATM   19  N   UNL     1      -9.447  17.852  67.734  1.00  0.00    -0.259 NA 
HETATM   20  C   UNL     1      -8.466  17.603  66.822  1.00  0.00    -0.251 A  
HETATM   21  N   UNL     1      -8.837  16.854  65.779  1.00  0.00    -0.493 NA 
ENDBRANCH  16  17
ENDBRANCH  13  16
ENDBRANCH   5   6
ENDBRANCH   4   5
ENDBRANCH   2   4
TORSDOF 5
ENDMDL
MODEL       52
REMARK 921   NORMALIZED FREE ENERGY PREDICTED BY IDOCK:   -5.07 KCAL/MOL
REMARK 922        TOTAL FREE ENERGY PREDICTED BY IDOCK:   -7.01 KCAL/MOL
REMARK 923 INTER-LIGAND FREE ENERGY PREDICTED BY IDOCK:   -6.56 KCAL/MOL
REMARK 924 INTRA-LIGAND FREE ENERGY PREDICTED BY IDOCK:   -0.45 KCAL/MOL
REMARK 927      BINDING AFFINITY PREDICTED BY RF-SCORE:    0.00 PKD
ROOT
HETATM    1  C   UNL     1      -8.382  19.448  67.585  1.00  0.00    -0.299 C  
HETATM    2  N   UNL     1      -8.084  18.819  66.293  1.00  0.00    -0.359 NA 
HETATM    3  C   UNL     1      -6.735  19.193  65.864  1.00  0.00    -0.251 C  
ENDROOT
BRANCH   2   4
HETATM    4  C   UNL     1      -8.251  17.354  66.410  1.00  0.00    -0.271 C  
BRANCH   4   5
HETATM    5  C   UNL     1      -9.614  16.911  66.969  1.00  0.00    -0.252 C  
BRANCH   5   6
HETATM    6  C   UNL     1     -10.506  16.303  65.925  1.00  0.00    -0.359 A  
HETATM    7  C   UNL     1     -10.929  16.909  64.758  1.00  0.00     0.091 A  
HETATM    8  N   UNL     1     -11.658  16.003  64.040  1.00  0.00    -1.278 NA 
HETATM    9  C   UNL     1     -11.699  14.797  64.699  1.00  0.00    -0.422 A  
HETATM   10  H   UNL     1     -12.105  16.193  63.144  1.00  0.00     0.000 HD 
HETATM   11  C   UNL     1     -11.038  14.971  65.914  1.00  0.00    -0.334 A  
HETATM   12  C   UNL     1     -10.994  13.884  66.813  1.00  0.00    -0.301 A  
HETATM   13  C   UNL     1     -11.568  12.645  66.455  1.00  0.00    -0.441 A  
HETATM   14  C   UNL     1     -12.262  13.578  64.308  1.00  0.00    -0.450 A  
HETATM   15  C   UNL     1     -12.175  12.504  65.200  1.00  0.00    -0.509 A  
BRANCH  13  16
HETATM   16  C   UNL     1     -11.535  11.488  67.421  1.00  0.00    -0.274 C  
BRANCH  16  17
HETATM   17  N   UNL     1     -10.358  10.639  67.315  1.00  0.00    -0.208 NA 
HETATM   18  C   UNL     1      -9.175  10.685  67.986  1.00  0.00    -0.148 A  
HETATM   19  N   UNL     1      -8.395   9.706  67.584  1.00  0.00    -0.121 NA 
HETATM   20  C   UNL     1      -9.157   9.074  66.649  1.00  0.00    -0.160 A  
HETATM   21  N   UNL     1     -10.367   9.604  66.448  1.00  0.00    -0.214 NA 
ENDBRANCH  16  17
ENDBRANCH  13  16
ENDBRANCH   5   6
ENDBRANCH   4   5
ENDBRANCH   2   4
TORSDOF 5
ENDMDL
MODEL       53
REMARK 921   NORMALIZED FREE ENERGY PREDICTED BY IDOCK:   -5.06 KCAL/MOL
REMARK 922        TOTAL FREE ENERGY PREDICTED BY IDOCK:   -7.00 KCAL/MOL
REMARK 923 INTER-LIGAND FREE ENERGY PREDICTED BY IDOCK:   -6.55 KCAL/MOL
REMARK 924 INTRA-LIGAND FREE ENERGY PREDICTED BY IDOCK:   -0.46 KCAL/MOL
REMARK 927      BINDING AFFINITY PREDICTED BY RF-SCORE:    0.00 PKD
ROOT
HETATM    1  C   UNL     1     -12.811  10.184  71.918  1.00  0.00    -0.427 C  
HETATM    2  N   UNL     1     -13.023  11.387  71.105  1.00  0.00    -0.316 NA 
HETATM    3  C   UNL     1     -13.387  12.509  71.975  1.00  0.00    -0.426 C  
ENDROOT
BRANCH   2   4
HETATM    4  C   UNL     1     -11.809  11.664  70.310  1.00  0.00    -0.326 C  
BRANCH   4   5
HETATM    5  C   UNL     1     -11.806  13.031  69.606  1.00  0.00    -0.385 C  
BRANCH   5   6
HETATM    6  C   UNL     1     -11.662  12.925  68.115  1.00  0.00    -0.395 A  
HETATM    7  C   UNL     1     -11.898  11.799  67.350  1.00  0.00    -0.135 A  
HETATM    8  N   UNL     1     -11.737  12.128  66.034  1.00  0.00    -0.504 NA 
HETATM    9  C   UNL     1     -11.427  13.462  65.913  1.00  0.00    -0.321 A  
HETATM   10  H   UNL     1     -11.832  11.479  65.254  1.00  0.00     0.000 HD 
HETATM   11  C   UNL     1     -11.312  13.976  67.204  1.00  0.00    -0.348 A  
HETATM   12  C   UNL     1     -10.937  15.328  67.355  1.00  0.00    -0.321 A  
HETATM   13  C   UNL     1     -10.733  16.138  66.218  1.00  0.00    -0.213 A  
HETATM   14  C   UNL     1     -11.248  14.243  64.767  1.00  0.00    -0.387 A  
HETATM   15  C   UNL     1     -10.911  15.590  64.941  1.00  0.00    -0.452 A  
BRANCH  13  16
HETATM   16  C   UNL     1     -10.316  17.578  66.379  1.00  0.00    -0.334 C  
BRANCH  16  17
HETATM   17  N   UNL     1      -9.079  17.776  67.119  1.00  0.00    -0.242 NA 
HETATM   18  C   UNL     1      -7.808  17.384  66.831  1.00  0.00    -0.226 A  
HETATM   19  N   UNL     1      -6.990  17.795  67.773  1.00  0.00    -0.184 NA 
HETATM   20  C   UNL     1      -7.820  18.447  68.634  1.00  0.00    -0.299 A  
HETATM   21  N   UNL     1      -9.108  18.466  68.279  1.00  0.00    -0.304 NA 
ENDBRANCH  16  17
ENDBRANCH  13  16
ENDBRANCH   5   6
ENDBRANCH   4   5
ENDBRANCH   2   4
TORSDOF 5
ENDMDL
MODEL       54
REMARK 921   NORMALIZED FREE ENERGY PREDICTED BY IDOCK:   -5.05 KCAL/MOL
REMARK 922        TOTAL FREE ENERGY PREDICTED BY IDOCK:   -6.98 KCAL/MOL
REMARK 923 INTER-LIGAND FREE ENERGY PREDICTED BY IDOCK:   -6.52 KCAL/MOL
REMARK 924 INTRA-LIGAND FREE ENERGY PREDICTED BY IDOCK:   -0.46 KCAL/MOL
REMARK 927      BINDING AFFINITY PREDICTED BY RF-SCORE:    0.00 PKD
ROOT
HETATM    1  C   UNL     1      -8.703  20.440  67.414  1.00  0.00    -0.320 C  
HETATM    2  N   UNL     1      -9.640  19.482  68.012  1.00  0.00    -0.341 NA 
HETATM    3  C   UNL     1     -10.879  19.454  67.231  1.00  0.00    -0.448 C  
ENDROOT
BRANCH   2   4
HETATM    4  C   UNL     1      -8.997  18.154  68.096  1.00  0.00    -0.290 C  
BRANCH   4   5
HETATM    5  C   UNL     1      -9.721  17.046  67.312  1.00  0.00    -0.253 C  
BRANCH   5   6
HETATM    6  C   UNL     1     -10.073  15.858  68.161  1.00  0.00    -0.229 A  
HETATM    7  C   UNL     1      -9.970  15.779  69.537  1.00  0.00    -0.283 A  
HETATM    8  N   UNL     1     -10.462  14.569  69.938  1.00  0.00    -0.446 NA 
HETATM    9  C   UNL     1     -10.915  13.857  68.853  1.00  0.00    -0.263 A  
HETATM   10  H   UNL     1     -10.489  14.241  70.903  1.00  0.00     0.000 HD 
HETATM   11  C   UNL     1     -10.629  14.614  67.717  1.00  0.00    -0.251 A  
HETATM   12  C   UNL     1     -10.945  14.069  66.454  1.00  0.00    -0.308 A  
HETATM   13  C   UNL     1     -11.577  12.811  66.363  1.00  0.00    -0.435 A  
HETATM   14  C   UNL     1     -11.557  12.616  68.797  1.00  0.00    -0.355 A  
HETATM   15  C   UNL     1     -11.893  12.112  67.535  1.00  0.00    -0.307 A  
BRANCH  13  16
HETATM   16  C   UNL     1     -11.900  12.222  65.013  1.00  0.00    -0.357 C  
BRANCH  16  17
HETATM   17  N   UNL     1     -10.777  11.588  64.340  1.00  0.00    -0.325 NA 
HETATM   18  C   UNL     1     -10.117  10.433  64.625  1.00  0.00    -0.308 A  
HETATM   19  N   UNL     1      -9.170  10.228  63.737  1.00  0.00    -0.253 NA 
HETATM   20  C   UNL     1      -9.290  11.304  62.911  1.00  0.00    -0.352 A  
HETATM   21  N   UNL     1     -10.259  12.165  63.235  1.00  0.00    -0.394 NA 
ENDBRANCH  16  17
ENDBRANCH  13  16
ENDBRANCH   5   6
ENDBRANCH   4   5
ENDBRANCH   2   4
TORSDOF 5
ENDMDL
MODEL       55
REMARK 921   NORMALIZED FREE ENERGY PREDICTED BY IDOCK:   -5.01 KCAL/MOL
REMARK 922        TOTAL FREE ENERGY PREDICTED BY IDOCK:   -6.93 KCAL/MOL
REMARK 923 INTER-LIGAND FREE ENERGY PREDICTED BY IDOCK:   -6.50 KCAL/MOL
REMARK 924 INTRA-LIGAND FREE ENERGY PREDICTED BY IDOCK:   -0.43 KCAL/MOL
REMARK 927      BINDING AFFINITY PREDICTED BY RF-SCORE:    0.00 PKD
ROOT
HETATM    1  C   UNL     1      -9.240   8.665  70.459  1.00  0.00    -0.175 C  
HETATM    2  N   UNL     1     -10.598   8.666  69.904  1.00  0.00    -0.223 NA 
HETATM    3  C   UNL     1     -11.335   9.825  70.413  1.00  0.00    -0.297 C  
ENDROOT
BRANCH   2   4
HETATM    4  C   UNL     1     -10.526   8.649  68.428  1.00  0.00    -0.176 C  
BRANCH   4   5
HETATM    5  C   UNL     1      -9.216   9.208  67.848  1.00  0.00    -0.144 C  
BRANCH   5   6
HETATM    6  C   UNL     1      -9.295   9.480  66.373  1.00  0.00    -0.231 A  
HETATM    7  C   UNL     1      -8.740   8.709  65.370  1.00  0.00    -0.174 A  
HETATM    8  N   UNL     1      -9.101   9.242  64.165  1.00  0.00    -0.429 NA 
HETATM    9  C   UNL     1      -9.912  10.337  64.354  1.00  0.00    -0.261 A  
HETATM   10  H   UNL     1      -8.812   8.881  63.257  1.00  0.00     0.000 HD 
HETATM   11  C   UNL     1     -10.002  10.548  65.729  1.00  0.00    -0.318 A  
HETATM   12  C   UNL     1     -10.738  11.662  66.187  1.00  0.00    -0.325 A  
HETATM   13  C   UNL     1     -11.398  12.502  65.267  1.00  0.00    -0.363 A  
HETATM   14  C   UNL     1     -10.569  11.141  63.417  1.00  0.00    -0.340 A  
HETATM   15  C   UNL     1     -11.322  12.218  63.896  1.00  0.00    -0.501 A  
BRANCH  13  16
HETATM   16  C   UNL     1     -12.171  13.701  65.755  1.00  0.00    -0.464 C  
BRANCH  16  17
HETATM   17  N   UNL     1     -11.587  14.987  65.403  1.00  0.00    -0.281 NA 
HETATM   18  C   UNL     1     -11.738  15.746  64.284  1.00  0.00    -0.162 A  
HETATM   19  N   UNL     1     -11.037  16.852  64.397  1.00  0.00    -1.060 NA 
HETATM   20  C   UNL     1     -10.462  16.725  65.625  1.00  0.00    -0.269 A  
HETATM   21  N   UNL     1     -10.769  15.602  66.283  1.00  0.00    -0.309 NA 
ENDBRANCH  16  17
ENDBRANCH  13  16
ENDBRANCH   5   6
ENDBRANCH   4   5
ENDBRANCH   2   4
TORSDOF 5
ENDMDL
MODEL       56
REMARK 921   NORMALIZED FREE ENERGY PREDICTED BY IDOCK:   -5.00 KCAL/MOL
REMARK 922        TOTAL FREE ENERGY PREDICTED BY IDOCK:   -6.92 KCAL/MOL
REMARK 923 INTER-LIGAND FREE ENERGY PREDICTED BY IDOCK:   -6.57 KCAL/MOL
REMARK 924 INTRA-LIGAND FREE ENERGY PREDICTED BY IDOCK:   -0.35 KCAL/MOL
REMARK 927      BINDING AFFINITY PREDICTED BY RF-SCORE:    0.00 PKD
ROOT
HETATM    1  C   UNL     1     -10.398   5.181  70.080  1.00  0.00    -0.276 C  
HETATM    2  N   UNL     1     -11.038   5.828  71.230  1.00  0.00    -0.238 NA 
HETATM    3  C   UNL     1     -10.010   6.300  72.162  1.00  0.00    -0.166 C  
ENDROOT
BRANCH   2   4
HETATM    4  C   UNL     1     -11.912   6.922  70.756  1.00  0.00    -0.373 C  
BRANCH   4   5
HETATM    5  C   UNL     1     -11.205   8.278  70.596  1.00  0.00    -0.270 C  
BRANCH   5   6
HETATM    6  C   UNL     1     -12.032   9.434  71.083  1.00  0.00    -0.413 A  
HETATM    7  C   UNL     1     -12.901   9.420  72.157  1.00  0.00    -0.401 A  
HETATM    8  N   UNL     1     -13.397  10.682  72.328  1.00  0.00    -0.581 NA 
HETATM    9  C   UNL     1     -12.848  11.537  71.402  1.00  0.00    -0.384 A  
HETATM   10  H   UNL     1     -14.076  10.950  73.039  1.00  0.00     0.000 HD 
HETATM   11  C   UNL     1     -12.034  10.772  70.569  1.00  0.00    -0.456 A  
HETATM   12  C   UNL     1     -11.395  11.413  69.486  1.00  0.00    -0.357 A  
HETATM   13  C   UNL     1     -11.549  12.803  69.294  1.00  0.00    -0.372 A  
HETATM   14  C   UNL     1     -13.006  12.918  71.250  1.00  0.00    -0.317 A  
HETATM   15  C   UNL     1     -12.335  13.539  70.191  1.00  0.00    -0.345 A  
BRANCH  13  16
HETATM   16  C   UNL     1     -10.879  13.486  68.129  1.00  0.00    -0.254 C  
BRANCH  16  17
HETATM   17  N   UNL     1     -10.503  14.871  68.368  1.00  0.00    -0.238 NA 
HETATM   18  C   UNL     1     -11.136  16.026  68.027  1.00  0.00    -0.334 A  
HETATM   19  N   UNL     1     -10.447  17.058  68.462  1.00  0.00    -0.351 NA 
HETATM   20  C   UNL     1      -9.381  16.475  69.077  1.00  0.00    -0.239 A  
HETATM   21  N   UNL     1      -9.369  15.138  69.049  1.00  0.00    -0.210 NA 
ENDBRANCH  16  17
ENDBRANCH  13  16
ENDBRANCH   5   6
ENDBRANCH   4   5
ENDBRANCH   2   4
TORSDOF 5
ENDMDL
MODEL       57
REMARK 921   NORMALIZED FREE ENERGY PREDICTED BY IDOCK:   -4.99 KCAL/MOL
REMARK 922        TOTAL FREE ENERGY PREDICTED BY IDOCK:   -6.91 KCAL/MOL
REMARK 923 INTER-LIGAND FREE ENERGY PREDICTED BY IDOCK:   -6.47 KCAL/MOL
REMARK 924 INTRA-LIGAND FREE ENERGY PREDICTED BY IDOCK:   -0.44 KCAL/MOL
REMARK 927      BINDING AFFINITY PREDICTED BY RF-SCORE:    0.00 PKD
ROOT
HETATM    1  C   UNL     1     -13.137  10.293  71.322  1.00  0.00    -0.398 C  
HETATM    2  N   UNL     1     -13.108   9.209  72.310  1.00  0.00    -0.425 NA 
HETATM    3  C   UNL     1     -14.301   8.372  72.154  1.00  0.00    -0.427 C  
ENDROOT
BRANCH   2   4
HETATM    4  C   UNL     1     -11.856   8.438  72.158  1.00  0.00    -0.375 C  
BRANCH   4   5
HETATM    5  C   UNL     1     -10.792   9.119  71.282  1.00  0.00    -0.402 C  
BRANCH   5   6
HETATM    6  C   UNL     1     -10.476   8.346  70.033  1.00  0.00    -0.224 A  
HETATM    7  C   UNL     1     -10.406   6.971  69.920  1.00  0.00    -0.210 A  
HETATM    8  N   UNL     1     -10.177   6.656  68.610  1.00  0.00    -0.161 NA 
HETATM    9  C   UNL     1     -10.125   7.800  67.849  1.00  0.00    -0.185 A  
HETATM   10  H   UNL     1     -10.062   5.709  68.250  1.00  0.00     0.000 HD 
HETATM   11  C   UNL     1     -10.248   8.879  68.722  1.00  0.00    -0.224 A  
HETATM   12  C   UNL     1     -10.163  10.183  68.189  1.00  0.00    -0.200 A  
HETATM   13  C   UNL     1     -10.006  10.372  66.799  1.00  0.00    -0.256 A  
HETATM   14  C   UNL     1      -9.985   7.953  66.466  1.00  0.00    -0.267 A  
HETATM   15  C   UNL     1      -9.940   9.255  65.956  1.00  0.00    -0.325 A  
BRANCH  13  16
HETATM   16  C   UNL     1      -9.900  11.764  66.231  1.00  0.00    -0.221 C  
BRANCH  16  17
HETATM   17  N   UNL     1     -11.014  12.163  65.384  1.00  0.00    -0.293 NA 
HETATM   18  C   UNL     1     -11.157  12.104  64.032  1.00  0.00    -0.386 A  
HETATM   19  N   UNL     1     -12.342  12.556  63.688  1.00  0.00    -0.633 NA 
HETATM   20  C   UNL     1     -12.901  12.886  64.886  1.00  0.00    -0.295 A  
HETATM   21  N   UNL     1     -12.130  12.664  65.954  1.00  0.00    -0.563 NA 
ENDBRANCH  16  17
ENDBRANCH  13  16
ENDBRANCH   5   6
ENDBRANCH   4   5
ENDBRANCH   2   4
TORSDOF 5
ENDMDL
MODEL       58
REMARK 921   NORMALIZED FREE ENERGY PREDICTED BY IDOCK:   -4.98 KCAL/MOL
REMARK 922        TOTAL FREE ENERGY PREDICTED BY IDOCK:   -6.89 KCAL/MOL
REMARK 923 INTER-LIGAND FREE ENERGY PREDICTED BY IDOCK:   -6.50 KCAL/MOL
REMARK 924 INTRA-LIGAND FREE ENERGY PREDICTED BY IDOCK:   -0.39 KCAL/MOL
REMARK 927      BINDING AFFINITY PREDICTED BY RF-SCORE:    0.00 PKD
ROOT
HETATM    1  C   UNL     1     -14.319  15.210  71.883  1.00  0.00    -0.596 C  
HETATM    2  N   UNL     1     -13.166  15.841  72.534  1.00  0.00    -0.474 NA 
HETATM    3  C   UNL     1     -12.700  14.994  73.635  1.00  0.00    -0.512 C  
ENDROOT
BRANCH   2   4
HETATM    4  C   UNL     1     -12.110  16.089  71.530  1.00  0.00    -0.452 C  
BRANCH   4   5
HETATM    5  C   UNL     1     -11.412  14.820  71.012  1.00  0.00    -0.263 C  
BRANCH   5   6
HETATM    6  C   UNL     1     -11.624  14.591  69.542  1.00  0.00    -0.350 A  
HETATM    7  C   UNL     1     -11.880  15.562  68.594  1.00  0.00    -0.300 A  
HETATM    8  N   UNL     1     -11.928  14.965  67.366  1.00  0.00    -0.433 NA 
HETATM    9  C   UNL     1     -11.680  13.618  67.483  1.00  0.00    -0.371 A  
HETATM   10  H   UNL     1     -12.121  15.448  66.489  1.00  0.00     0.000 HD 
HETATM   11  C   UNL     1     -11.546  13.342  68.843  1.00  0.00    -0.356 A  
HETATM   12  C   UNL     1     -11.343  12.002  69.237  1.00  0.00    -0.330 A  
HETATM   13  C   UNL     1     -11.233  10.986  68.264  1.00  0.00    -0.340 A  
HETATM   14  C   UNL     1     -11.559  12.636  66.494  1.00  0.00    -0.441 A  
HETATM   15  C   UNL     1     -11.322  11.321  66.906  1.00  0.00    -0.231 A  
BRANCH  13  16
HETATM   16  C   UNL     1     -11.032   9.553  68.685  1.00  0.00    -0.072 C  
BRANCH  16  17
HETATM   17  N   UNL     1     -10.170   8.775  67.808  1.00  0.00    -0.215 NA 
HETATM   18  C   UNL     1     -10.468   7.757  66.956  1.00  0.00    -0.349 A  
HETATM   19  N   UNL     1      -9.379   7.355  66.341  1.00  0.00    -0.174 NA 
HETATM   20  C   UNL     1      -8.419   8.172  66.857  1.00  0.00    -0.119 A  
HETATM   21  N   UNL     1      -8.851   9.059  67.757  1.00  0.00    -0.125 NA 
ENDBRANCH  16  17
ENDBRANCH  13  16
ENDBRANCH   5   6
ENDBRANCH   4   5
ENDBRANCH   2   4
TORSDOF 5
ENDMDL
MODEL       59
REMARK 921   NORMALIZED FREE ENERGY PREDICTED BY IDOCK:   -4.97 KCAL/MOL
REMARK 922        TOTAL FREE ENERGY PREDICTED BY IDOCK:   -6.89 KCAL/MOL
REMARK 923 INTER-LIGAND FREE ENERGY PREDICTED BY IDOCK:   -6.46 KCAL/MOL
REMARK 924 INTRA-LIGAND FREE ENERGY PREDICTED BY IDOCK:   -0.43 KCAL/MOL
REMARK 927      BINDING AFFINITY PREDICTED BY RF-SCORE:    0.00 PKD
ROOT
HETATM    1  C   UNL     1     -10.832  19.362  67.034  1.00  0.00    -0.432 C  
HETATM    2  N   UNL     1      -9.966  18.184  67.158  1.00  0.00    -0.321 NA 
HETATM    3  C   UNL     1     -10.119  17.601  68.493  1.00  0.00    -0.375 C  
ENDROOT
BRANCH   2   4
HETATM    4  C   UNL     1     -10.289  17.221  66.083  1.00  0.00    -0.317 C  
BRANCH   4   5
HETATM    5  C   UNL     1     -10.662  15.814  66.579  1.00  0.00    -0.283 C  
BRANCH   5   6
HETATM    6  C   UNL     1     -11.212  14.934  65.493  1.00  0.00    -0.348 A  
HETATM    7  C   UNL     1     -12.105  15.313  64.510  1.00  0.00    -0.245 A  
HETATM    8  N   UNL     1     -12.295  14.254  63.667  1.00  0.00    -1.109 NA 
HETATM    9  C   UNL     1     -11.519  13.190  64.061  1.00  0.00    -0.406 A  
HETATM   10  H   UNL     1     -12.922  14.253  62.864  1.00  0.00     0.000 HD 
HETATM   11  C   UNL     1     -10.874  13.565  65.238  1.00  0.00    -0.316 A  
HETATM   12  C   UNL     1     -10.054  12.614  65.883  1.00  0.00    -0.276 A  
HETATM   13  C   UNL     1      -9.865  11.337  65.313  1.00  0.00    -0.291 A  
HETATM   14  C   UNL     1     -11.338  11.939  63.461  1.00  0.00    -0.516 A  
HETATM   15  C   UNL     1     -10.493  11.025  64.100  1.00  0.00    -0.434 A  
BRANCH  13  16
HETATM   16  C   UNL     1      -9.003  10.316  66.010  1.00  0.00    -0.152 C  
BRANCH  16  17
HETATM   17  N   UNL     1      -7.604  10.323  65.608  1.00  0.00    -0.144 NA 
HETATM   18  C   UNL     1      -6.997   9.770  64.524  1.00  0.00    -0.125 A  
HETATM   19  N   UNL     1      -5.711  10.040  64.545  1.00  0.00    -0.101 NA 
HETATM   20  C   UNL     1      -5.573  10.776  65.683  1.00  0.00    -0.135 A  
HETATM   21  N   UNL     1      -6.703  10.979  66.369  1.00  0.00    -0.133 NA 
ENDBRANCH  16  17
ENDBRANCH  13  16
ENDBRANCH   5   6
ENDBRANCH   4   5
ENDBRANCH   2   4
TORSDOF 5
ENDMDL
MODEL       60
REMARK 921   NORMALIZED FREE ENERGY PREDICTED BY IDOCK:   -4.97 KCAL/MOL
REMARK 922        TOTAL FREE ENERGY PREDICTED BY IDOCK:   -6.88 KCAL/MOL
REMARK 923 INTER-LIGAND FREE ENERGY PREDICTED BY IDOCK:   -6.48 KCAL/MOL
REMARK 924 INTRA-LIGAND FREE ENERGY PREDICTED BY IDOCK:   -0.40 KCAL/MOL
REMARK 927      BINDING AFFINITY PREDICTED BY RF-SCORE:    0.00 PKD
ROOT
HETATM    1  C   UNL     1     -12.255  16.068  72.639  1.00  0.00    -0.522 C  
HETATM    2  N   UNL     1     -12.938  14.985  71.921  1.00  0.00    -0.323 NA 
HETATM    3  C   UNL     1     -14.371  15.278  71.840  1.00  0.00    -0.589 C  
ENDROOT
BRANCH   2   4
HETATM    4  C   UNL     1     -12.322  14.815  70.588  1.00  0.00    -0.337 C  
BRANCH   4   5
HETATM    5  C   UNL     1     -11.035  15.628  70.373  1.00  0.00    -0.366 C  
BRANCH   5   6
HETATM    6  C   UNL     1     -10.937  16.221  68.997  1.00  0.00    -0.325 A  
HETATM    7  C   UNL     1     -10.742  17.555  68.695  1.00  0.00    -0.201 A  
HETATM    8  N   UNL     1     -10.628  17.679  67.338  1.00  0.00    -0.346 NA 
HETATM    9  C   UNL     1     -10.715  16.445  66.740  1.00  0.00    -0.180 A  
HETATM   10  H   UNL     1     -10.498  18.560  66.842  1.00  0.00     0.000 HD 
HETATM   11  C   UNL     1     -10.971  15.517  67.748  1.00  0.00    -0.317 A  
HETATM   12  C   UNL     1     -11.165  14.168  67.382  1.00  0.00    -0.334 A  
HETATM   13  C   UNL     1     -11.053  13.777  66.031  1.00  0.00    -0.291 A  
HETATM   14  C   UNL     1     -10.581  16.087  65.394  1.00  0.00    -0.428 A  
HETATM   15  C   UNL     1     -10.743  14.738  65.059  1.00  0.00    -0.452 A  
BRANCH  13  16
HETATM   16  C   UNL     1     -11.276  12.339  65.637  1.00  0.00    -0.333 C  
BRANCH  16  17
HETATM   17  N   UNL     1     -10.695  11.361  66.544  1.00  0.00    -0.267 NA 
HETATM   18  C   UNL     1      -9.394  11.121  66.863  1.00  0.00    -0.175 A  
HETATM   19  N   UNL     1      -9.323  10.152  67.747  1.00  0.00    -0.141 NA 
HETATM   20  C   UNL     1     -10.630   9.823  67.945  1.00  0.00    -0.259 A  
HETATM   21  N   UNL     1     -11.509  10.535  67.234  1.00  0.00    -0.296 NA 
ENDBRANCH  16  17
ENDBRANCH  13  16
ENDBRANCH   5   6
ENDBRANCH   4   5
ENDBRANCH   2   4
TORSDOF 5
ENDMDL
MODEL       61
REMARK 921   NORMALIZED FREE ENERGY PREDICTED BY IDOCK:   -4.96 KCAL/MOL
REMARK 922        TOTAL FREE ENERGY PREDICTED BY IDOCK:   -6.86 KCAL/MOL
REMARK 923 INTER-LIGAND FREE ENERGY PREDICTED BY IDOCK:   -6.39 KCAL/MOL
REMARK 924 INTRA-LIGAND FREE ENERGY PREDICTED BY IDOCK:   -0.48 KCAL/MOL
REMARK 927      BINDING AFFINITY PREDICTED BY RF-SCORE:    0.00 PKD
ROOT
HETATM    1  C   UNL     1     -12.709  13.814  65.244  1.00  0.00    -0.439 C  
HETATM    2  N   UNL     1     -11.258  13.609  65.187  1.00  0.00    -0.302 NA 
HETATM    3  C   UNL     1     -10.914  12.874  63.967  1.00  0.00    -0.411 C  
ENDROOT
BRANCH   2   4
HETATM    4  C   UNL     1     -10.573  14.917  65.267  1.00  0.00    -0.401 C  
BRANCH   4   5
HETATM    5  C   UNL     1      -9.595  15.052  66.447  1.00  0.00    -0.314 C  
BRANCH   5   6
HETATM    6  C   UNL     1     -10.252  15.556  67.700  1.00  0.00    -0.255 A  
HETATM    7  C   UNL     1     -10.369  16.878  68.085  1.00  0.00    -0.336 A  
HETATM    8  N   UNL     1     -11.100  16.929  69.239  1.00  0.00    -0.298 NA 
HETATM    9  C   UNL     1     -11.492  15.664  69.608  1.00  0.00    -0.340 A  
HETATM   10  H   UNL     1     -11.321  17.781  69.751  1.00  0.00     0.000 HD 
HETATM   11  C   UNL     1     -10.925  14.775  68.696  1.00  0.00    -0.262 A  
HETATM   12  C   UNL     1     -11.130  13.393  68.894  1.00  0.00    -0.307 A  
HETATM   13  C   UNL     1     -11.932  12.941  69.963  1.00  0.00    -0.380 A  
HETATM   14  C   UNL     1     -12.306  15.249  70.668  1.00  0.00    -0.427 A  
HETATM   15  C   UNL     1     -12.525  13.876  70.823  1.00  0.00    -0.445 A  
BRANCH  13  16
HETATM   16  C   UNL     1     -12.139  11.464  70.184  1.00  0.00    -0.357 C  
BRANCH  16  17
HETATM   17  N   UNL     1     -11.181  10.606  69.503  1.00  0.00    -0.251 NA 
HETATM   18  C   UNL     1     -10.019  10.057  69.948  1.00  0.00    -0.237 A  
HETATM   19  N   UNL     1      -9.476   9.328  68.999  1.00  0.00    -0.153 NA 
HETATM   20  C   UNL     1     -10.358   9.463  67.970  1.00  0.00    -0.220 A  
HETATM   21  N   UNL     1     -11.419  10.233  68.228  1.00  0.00    -0.252 NA 
ENDBRANCH  16  17
ENDBRANCH  13  16
ENDBRANCH   5   6
ENDBRANCH   4   5
ENDBRANCH   2   4
TORSDOF 5
ENDMDL
MODEL       62
REMARK 921   NORMALIZED FREE ENERGY PREDICTED BY IDOCK:   -4.95 KCAL/MOL
REMARK 922        TOTAL FREE ENERGY PREDICTED BY IDOCK:   -6.86 KCAL/MOL
REMARK 923 INTER-LIGAND FREE ENERGY PREDICTED BY IDOCK:   -6.39 KCAL/MOL
REMARK 924 INTRA-LIGAND FREE ENERGY PREDICTED BY IDOCK:   -0.48 KCAL/MOL
REMARK 927      BINDING AFFINITY PREDICTED BY RF-SCORE:    0.00 PKD
ROOT
HETATM    1  C   UNL     1     -11.485   6.559  70.697  1.00  0.00    -0.374 C  
HETATM    2  N   UNL     1     -10.847   7.860  70.924  1.00  0.00    -0.230 NA 
HETATM    3  C   UNL     1     -10.002   8.200  69.776  1.00  0.00    -0.191 C  
ENDROOT
BRANCH   2   4
HETATM    4  C   UNL     1     -11.886   8.880  71.179  1.00  0.00    -0.298 C  
BRANCH   4   5
HETATM    5  C   UNL     1     -11.766  10.142  70.310  1.00  0.00    -0.361 C  
BRANCH   5   6
HETATM    6  C   UNL     1     -12.428  11.344  70.923  1.00  0.00    -0.478 A  
HETATM    7  C   UNL     1     -13.220  11.350  72.055  1.00  0.00    -0.327 A  
HETATM    8  N   UNL     1     -13.563  12.643  72.335  1.00  0.00    -0.593 NA 
HETATM    9  C   UNL     1     -12.986  13.495  71.423  1.00  0.00    -0.339 A  
HETATM   10  H   UNL     1     -14.161  12.933  73.108  1.00  0.00     0.000 HD 
HETATM   11  C   UNL     1     -12.318  12.705  70.489  1.00  0.00    -0.350 A  
HETATM   12  C   UNL     1     -11.686  13.347  69.402  1.00  0.00    -0.382 A  
HETATM   13  C   UNL     1     -11.699  14.754  69.304  1.00  0.00    -0.347 A  
HETATM   14  C   UNL     1     -13.003  14.893  71.364  1.00  0.00    -0.427 A  
HETATM   15  C   UNL     1     -12.340  15.508  70.297  1.00  0.00    -0.431 A  
BRANCH  13  16
HETATM   16  C   UNL     1     -11.038  15.438  68.135  1.00  0.00    -0.309 C  
BRANCH  16  17
HETATM   17  N   UNL     1      -9.591  15.289  68.080  1.00  0.00    -0.202 NA 
HETATM   18  C   UNL     1      -8.621  15.813  68.877  1.00  0.00    -0.220 A  
HETATM   19  N   UNL     1      -7.441  15.399  68.475  1.00  0.00    -0.113 NA 
HETATM   20  C   UNL     1      -7.742  14.607  67.409  1.00  0.00    -0.201 A  
HETATM   21  N   UNL     1      -9.045  14.505  67.127  1.00  0.00    -0.214 NA 
ENDBRANCH  16  17
ENDBRANCH  13  16
ENDBRANCH   5   6
ENDBRANCH   4   5
ENDBRANCH   2   4
TORSDOF 5
ENDMDL
MODEL       63
REMARK 921   NORMALIZED FREE ENERGY PREDICTED BY IDOCK:   -4.94 KCAL/MOL
REMARK 922        TOTAL FREE ENERGY PREDICTED BY IDOCK:   -6.84 KCAL/MOL
REMARK 923 INTER-LIGAND FREE ENERGY PREDICTED BY IDOCK:   -6.23 KCAL/MOL
REMARK 924 INTRA-LIGAND FREE ENERGY PREDICTED BY IDOCK:   -0.60 KCAL/MOL
REMARK 927      BINDING AFFINITY PREDICTED BY RF-SCORE:    0.00 PKD
ROOT
HETATM    1  C   UNL     1     -12.019  12.894  65.367  1.00  0.00    -0.426 C  
HETATM    2  N   UNL     1     -11.234  13.550  66.419  1.00  0.00    -0.303 NA 
HETATM    3  C   UNL     1     -10.228  14.422  65.808  1.00  0.00    -0.337 C  
ENDROOT
BRANCH   2   4
HETATM    4  C   UNL     1     -12.142  14.287  67.323  1.00  0.00    -0.355 C  
BRANCH   4   5
HETATM    5  C   UNL     1     -11.500  14.731  68.647  1.00  0.00    -0.325 C  
BRANCH   5   6
HETATM    6  C   UNL     1     -12.157  14.122  69.853  1.00  0.00    -0.405 A  
HETATM    7  C   UNL     1     -12.974  14.776  70.755  1.00  0.00    -0.352 A  
HETATM    8  N   UNL     1     -13.438  13.863  71.659  1.00  0.00    -0.357 NA 
HETATM    9  C   UNL     1     -12.964  12.609  71.353  1.00  0.00    -0.258 A  
HETATM   10  H   UNL     1     -14.047  14.080  72.447  1.00  0.00     0.000 HD 
HETATM   11  C   UNL     1     -12.109  12.749  70.262  1.00  0.00    -0.373 A  
HETATM   12  C   UNL     1     -11.439  11.601  69.787  1.00  0.00    -0.339 A  
HETATM   13  C   UNL     1     -11.676  10.344  70.382  1.00  0.00    -0.419 A  
HETATM   14  C   UNL     1     -13.234  11.375  71.954  1.00  0.00    -0.485 A  
HETATM   15  C   UNL     1     -12.586  10.246  71.443  1.00  0.00    -0.539 A  
BRANCH  13  16
HETATM   16  C   UNL     1     -10.948   9.121  69.884  1.00  0.00    -0.204 C  
BRANCH  16  17
HETATM   17  N   UNL     1      -9.512   9.128  70.119  1.00  0.00    -0.192 NA 
HETATM   18  C   UNL     1      -8.477   9.239  69.243  1.00  0.00    -0.137 A  
HETATM   19  N   UNL     1      -7.336   9.218  69.894  1.00  0.00    -0.065 NA 
HETATM   20  C   UNL     1      -7.729   9.092  71.192  1.00  0.00    -0.078 A  
HETATM   21  N   UNL     1      -9.050   9.035  71.384  1.00  0.00    -0.282 NA 
ENDBRANCH  16  17
ENDBRANCH  13  16
ENDBRANCH   5   6
ENDBRANCH   4   5
ENDBRANCH   2   4
TORSDOF 5
ENDMDL
MODEL       64
REMARK 921   NORMALIZED FREE ENERGY PREDICTED BY IDOCK:   -4.93 KCAL/MOL
REMARK 922        TOTAL FREE ENERGY PREDICTED BY IDOCK:   -6.83 KCAL/MOL
REMARK 923 INTER-LIGAND FREE ENERGY PREDICTED BY IDOCK:   -6.36 KCAL/MOL
REMARK 924 INTRA-LIGAND FREE ENERGY PREDICTED BY IDOCK:   -0.47 KCAL/MOL
REMARK 927      BINDING AFFINITY PREDICTED BY RF-SCORE:    0.00 PKD
ROOT
HETATM    1  C   UNL     1     -13.779   9.079  72.286  1.00  0.00    -0.492 C  
HETATM    2  N   UNL     1     -12.312   9.069  72.323  1.00  0.00    -0.356 NA 
HETATM    3  C   UNL     1     -11.833   7.687  72.394  1.00  0.00    -0.289 C  
ENDROOT
BRANCH   2   4
HETATM    4  C   UNL     1     -11.786   9.787  71.143  1.00  0.00    -0.382 C  
BRANCH   4   5
HETATM    5  C   UNL     1     -10.318   9.475  70.810  1.00  0.00    -0.377 C  
BRANCH   5   6
HETATM    6  C   UNL     1     -10.128   8.968  69.409  1.00  0.00    -0.198 A  
HETATM    7  C   UNL     1     -10.088   7.643  69.018  1.00  0.00    -0.198 A  
HETATM    8  N   UNL     1      -9.984   7.597  67.656  1.00  0.00    -0.163 NA 
HETATM    9  C   UNL     1      -9.984   8.870  67.137  1.00  0.00    -0.226 A  
HETATM   10  H   UNL     1      -9.915   6.742  67.105  1.00  0.00     0.000 HD 
HETATM   11  C   UNL     1     -10.012   9.753  68.215  1.00  0.00    -0.175 A  
HETATM   12  C   UNL     1      -9.957  11.138  67.946  1.00  0.00    -0.189 A  
HETATM   13  C   UNL     1      -9.923  11.600  66.614  1.00  0.00    -0.230 A  
HETATM   14  C   UNL     1      -9.968   9.297  65.805  1.00  0.00    -0.215 A  
HETATM   15  C   UNL     1      -9.950  10.675  65.562  1.00  0.00    -0.333 A  
BRANCH  13  16
HETATM   16  C   UNL     1      -9.848  13.079  66.327  1.00  0.00    -0.278 C  
BRANCH  16  17
HETATM   17  N   UNL     1     -11.026  13.633  65.676  1.00  0.00    -0.288 NA 
HETATM   18  C   UNL     1     -12.347  13.393  65.894  1.00  0.00    -0.437 A  
HETATM   19  N   UNL     1     -13.075  14.132  65.087  1.00  0.00    -0.720 NA 
HETATM   20  C   UNL     1     -12.138  14.823  64.380  1.00  0.00    -0.440 A  
HETATM   21  N   UNL     1     -10.869  14.555  64.703  1.00  0.00    -0.373 NA 
ENDBRANCH  16  17
ENDBRANCH  13  16
ENDBRANCH   5   6
ENDBRANCH   4   5
ENDBRANCH   2   4
TORSDOF 5
ENDMDL
MODEL       65
REMARK 921   NORMALIZED FREE ENERGY PREDICTED BY IDOCK:   -4.90 KCAL/MOL
REMARK 922        TOTAL FREE ENERGY PREDICTED BY IDOCK:   -6.79 KCAL/MOL
REMARK 923 INTER-LIGAND FREE ENERGY PREDICTED BY IDOCK:   -6.75 KCAL/MOL
REMARK 924 INTRA-LIGAND FREE ENERGY PREDICTED BY IDOCK:   -0.05 KCAL/MOL
REMARK 927      BINDING AFFINITY PREDICTED BY RF-SCORE:    0.00 PKD
ROOT
HETATM    1  C   UNL     1     -11.184  15.816  70.547  1.00  0.00    -0.374 C  
HETATM    2  N   UNL     1     -11.657  14.622  71.256  1.00  0.00    -0.263 NA 
HETATM    3  C   UNL     1     -12.463  15.023  72.411  1.00  0.00    -0.346 C  
ENDROOT
BRANCH   2   4
HETATM    4  C   UNL     1     -12.408  13.759  70.319  1.00  0.00    -0.337 C  
BRANCH   4   5
HETATM    5  C   UNL     1     -12.292  12.253  70.607  1.00  0.00    -0.375 C  
BRANCH   5   6
HETATM    6  C   UNL     1     -11.364  11.544  69.662  1.00  0.00    -0.329 A  
HETATM    7  C   UNL     1     -10.451  10.563  69.998  1.00  0.00    -0.109 A  
HETATM    8  N   UNL     1      -9.859  10.113  68.851  1.00  0.00    -0.180 NA 
HETATM    9  C   UNL     1     -10.387  10.760  67.759  1.00  0.00    -0.193 A  
HETATM   10  H   UNL     1      -9.131   9.401  68.812  1.00  0.00     0.000 HD 
HETATM   11  C   UNL     1     -11.290  11.707  68.240  1.00  0.00    -0.348 A  
HETATM   12  C   UNL     1     -11.929  12.553  67.309  1.00  0.00    -0.286 A  
HETATM   13  C   UNL     1     -11.686  12.400  65.928  1.00  0.00    -0.476 A  
HETATM   14  C   UNL     1     -10.138  10.571  66.396  1.00  0.00    -0.285 A  
HETATM   15  C   UNL     1     -10.810  11.397  65.489  1.00  0.00    -0.282 A  
BRANCH  13  16
HETATM   16  C   UNL     1     -12.357  13.314  64.934  1.00  0.00    -0.425 C  
BRANCH  16  17
HETATM   17  N   UNL     1     -11.771  14.642  64.835  1.00  0.00    -0.388 NA 
HETATM   18  C   UNL     1     -12.142  15.714  64.085  1.00  0.00     0.009 A  
HETATM   19  N   UNL     1     -11.336  16.725  64.321  1.00  0.00    -1.111 NA 
HETATM   20  C   UNL     1     -10.470  16.216  65.240  1.00  0.00    -0.331 A  
HETATM   21  N   UNL     1     -10.694  14.945  65.590  1.00  0.00    -0.321 NA 
ENDBRANCH  16  17
ENDBRANCH  13  16
ENDBRANCH   5   6
ENDBRANCH   4   5
ENDBRANCH   2   4
TORSDOF 5
ENDMDL
MODEL       66
REMARK 921   NORMALIZED FREE ENERGY PREDICTED BY IDOCK:   -4.89 KCAL/MOL
REMARK 922        TOTAL FREE ENERGY PREDICTED BY IDOCK:   -6.78 KCAL/MOL
REMARK 923 INTER-LIGAND FREE ENERGY PREDICTED BY IDOCK:   -6.55 KCAL/MOL
REMARK 924 INTRA-LIGAND FREE ENERGY PREDICTED BY IDOCK:   -0.23 KCAL/MOL
REMARK 927      BINDING AFFINITY PREDICTED BY RF-SCORE:    0.00 PKD
ROOT
HETATM    1  C   UNL     1     -11.475  15.297  64.595  1.00  0.00    -0.354 C  
HETATM    2  N   UNL     1     -12.547  14.316  64.395  1.00  0.00    -0.679 NA 
HETATM    3  C   UNL     1     -12.212  13.447  63.264  1.00  0.00    -0.243 C  
ENDROOT
BRANCH   2   4
HETATM    4  C   UNL     1     -12.757  13.555  65.645  1.00  0.00    -0.421 C  
BRANCH   4   5
HETATM    5  C   UNL     1     -11.478  13.313  66.465  1.00  0.00    -0.372 C  
BRANCH   5   6
HETATM    6  C   UNL     1     -10.988  11.895  66.386  1.00  0.00    -0.337 A  
HETATM    7  C   UNL     1     -10.402  11.294  65.289  1.00  0.00    -0.280 A  
HETATM    8  N   UNL     1     -10.022  10.029  65.640  1.00  0.00    -0.288 NA 
HETATM    9  C   UNL     1     -10.322   9.794  66.961  1.00  0.00    -0.239 A  
HETATM   10  H   UNL     1      -9.581   9.358  65.014  1.00  0.00     0.000 HD 
HETATM   11  C   UNL     1     -10.984  10.923  67.440  1.00  0.00    -0.353 A  
HETATM   12  C   UNL     1     -11.456  10.907  68.769  1.00  0.00    -0.376 A  
HETATM   13  C   UNL     1     -11.215   9.789  69.595  1.00  0.00    -0.216 A  
HETATM   14  C   UNL     1     -10.051   8.677  67.759  1.00  0.00    -0.266 A  
HETATM   15  C   UNL     1     -10.498   8.698  69.084  1.00  0.00    -0.223 A  
BRANCH  13  16
HETATM   16  C   UNL     1     -11.732   9.766  71.010  1.00  0.00    -0.370 C  
BRANCH  16  17
HETATM   17  N   UNL     1     -11.694   8.460  71.652  1.00  0.00    -0.281 NA 
HETATM   18  C   UNL     1     -12.474   7.362  71.461  1.00  0.00    -0.361 A  
HETATM   19  N   UNL     1     -12.074   6.387  72.246  1.00  0.00    -0.259 NA 
HETATM   20  C   UNL     1     -11.025   6.945  72.912  1.00  0.00    -0.281 A  
HETATM   21  N   UNL     1     -10.751   8.211  72.584  1.00  0.00    -0.350 NA 
ENDBRANCH  16  17
ENDBRANCH  13  16
ENDBRANCH   5   6
ENDBRANCH   4   5
ENDBRANCH   2   4
TORSDOF 5
ENDMDL
MODEL       67
REMARK 921   NORMALIZED FREE ENERGY PREDICTED BY IDOCK:   -4.88 KCAL/MOL
REMARK 922        TOTAL FREE ENERGY PREDICTED BY IDOCK:   -6.77 KCAL/MOL
REMARK 923 INTER-LIGAND FREE ENERGY PREDICTED BY IDOCK:   -6.22 KCAL/MOL
REMARK 924 INTRA-LIGAND FREE ENERGY PREDICTED BY IDOCK:   -0.54 KCAL/MOL
REMARK 927      BINDING AFFINITY PREDICTED BY RF-SCORE:    0.00 PKD
ROOT
HETATM    1  C   UNL     1      -7.286   8.734  67.331  1.00  0.00    -0.081 C  
HETATM    2  N   UNL     1      -7.804   9.971  66.736  1.00  0.00    -0.109 NA 
HETATM    3  C   UNL     1      -6.982  11.104  67.167  1.00  0.00    -0.112 C  
ENDROOT
BRANCH   2   4
HETATM    4  C   UNL     1      -7.843   9.831  65.265  1.00  0.00    -0.120 C  
BRANCH   4   5
HETATM    5  C   UNL     1      -9.248   9.602  64.684  1.00  0.00    -0.293 C  
BRANCH   5   6
HETATM    6  C   UNL     1      -9.971  10.882  64.373  1.00  0.00    -0.381 A  
HETATM    7  C   UNL     1     -10.147  11.435  63.119  1.00  0.00    -0.352 A  
HETATM    8  N   UNL     1     -10.925  12.552  63.246  1.00  0.00    -0.678 NA 
HETATM    9  C   UNL     1     -11.290  12.730  64.559  1.00  0.00    -0.334 A  
HETATM   10  H   UNL     1     -11.195  13.165  62.477  1.00  0.00     0.000 HD 
HETATM   11  C   UNL     1     -10.657  11.733  65.300  1.00  0.00    -0.327 A  
HETATM   12  C   UNL     1     -10.825  11.733  66.701  1.00  0.00    -0.318 A  
HETATM   13  C   UNL     1     -11.654  12.695  67.316  1.00  0.00    -0.428 A  
HETATM   14  C   UNL     1     -12.132  13.686  65.137  1.00  0.00    -0.426 A  
HETATM   15  C   UNL     1     -12.311  13.645  66.523  1.00  0.00    -0.412 A  
BRANCH  13  16
HETATM   16  C   UNL     1     -11.821  12.705  68.814  1.00  0.00    -0.300 C  
BRANCH  16  17
HETATM   17  N   UNL     1     -11.622  14.003  69.441  1.00  0.00    -0.278 NA 
HETATM   18  C   UNL     1     -12.454  14.736  70.230  1.00  0.00    -0.340 A  
HETATM   19  N   UNL     1     -11.857  15.849  70.595  1.00  0.00    -0.374 NA 
HETATM   20  C   UNL     1     -10.638  15.752  69.995  1.00  0.00    -0.326 A  
HETATM   21  N   UNL     1     -10.444  14.641  69.279  1.00  0.00    -0.235 NA 
ENDBRANCH  16  17
ENDBRANCH  13  16
ENDBRANCH   5   6
ENDBRANCH   4   5
ENDBRANCH   2   4
TORSDOF 5
ENDMDL
MODEL       68
REMARK 921   NORMALIZED FREE ENERGY PREDICTED BY IDOCK:   -4.87 KCAL/MOL
REMARK 922        TOTAL FREE ENERGY PREDICTED BY IDOCK:   -6.75 KCAL/MOL
REMARK 923 INTER-LIGAND FREE ENERGY PREDICTED BY IDOCK:   -6.43 KCAL/MOL
REMARK 924 INTRA-LIGAND FREE ENERGY PREDICTED BY IDOCK:   -0.32 KCAL/MOL
REMARK 927      BINDING AFFINITY PREDICTED BY RF-SCORE:    0.00 PKD
ROOT
HETATM    1  C   UNL     1      -9.981  11.505  63.211  1.00  0.00    -0.409 C  
HETATM    2  N   UNL     1     -10.773  12.453  64.004  1.00  0.00    -0.369 NA 
HETATM    3  C   UNL     1     -12.056  12.694  63.340  1.00  0.00    -0.525 C  
ENDROOT
BRANCH   2   4
HETATM    4  C   UNL     1     -10.938  11.929  65.376  1.00  0.00    -0.301 C  
BRANCH   4   5
HETATM    5  C   UNL     1     -10.049  12.610  66.429  1.00  0.00    -0.263 C  
BRANCH   5   6
HETATM    6  C   UNL     1     -10.683  13.831  67.033  1.00  0.00    -0.283 A  
HETATM    7  C   UNL     1     -11.899  13.881  67.686  1.00  0.00    -0.386 A  
HETATM    8  N   UNL     1     -12.084  15.150  68.159  1.00  0.00    -0.510 NA 
HETATM    9  C   UNL     1     -10.996  15.933  67.855  1.00  0.00    -0.327 A  
HETATM   10  H   UNL     1     -12.909  15.469  68.665  1.00  0.00     0.000 HD 
HETATM   11  C   UNL     1     -10.127  15.151  67.096  1.00  0.00    -0.239 A  
HETATM   12  C   UNL     1      -8.948  15.749  66.602  1.00  0.00    -0.313 A  
HETATM   13  C   UNL     1      -8.648  17.091  66.917  1.00  0.00    -0.250 A  
HETATM   14  C   UNL     1     -10.719  17.260  68.200  1.00  0.00    -0.363 A  
HETATM   15  C   UNL     1      -9.527  17.821  67.729  1.00  0.00    -0.262 A  
BRANCH  13  16
HETATM   16  C   UNL     1      -7.397  17.736  66.377  1.00  0.00    -0.275 C  
BRANCH  16  17
HETATM   17  N   UNL     1      -6.989  18.949  67.069  1.00  0.00    -0.202 NA 
HETATM   18  C   UNL     1      -6.323  19.111  68.244  1.00  0.00    -0.229 A  
HETATM   19  N   UNL     1      -6.145  20.391  68.484  1.00  0.00    -0.289 NA 
HETATM   20  C   UNL     1      -6.730  20.987  67.408  1.00  0.00    -0.383 A  
HETATM   21  N   UNL     1      -7.259  20.148  66.512  1.00  0.00    -0.254 NA 
ENDBRANCH  16  17
ENDBRANCH  13  16
ENDBRANCH   5   6
ENDBRANCH   4   5
ENDBRANCH   2   4
TORSDOF 5
ENDMDL
MODEL       69
REMARK 921   NORMALIZED FREE ENERGY PREDICTED BY IDOCK:   -4.84 KCAL/MOL
REMARK 922        TOTAL FREE ENERGY PREDICTED BY IDOCK:   -6.72 KCAL/MOL
REMARK 923 INTER-LIGAND FREE ENERGY PREDICTED BY IDOCK:   -6.39 KCAL/MOL
REMARK 924 INTRA-LIGAND FREE ENERGY PREDICTED BY IDOCK:   -0.33 KCAL/MOL
REMARK 927      BINDING AFFINITY PREDICTED BY RF-SCORE:    0.00 PKD
ROOT
HETATM    1  C   UNL     1      -6.396   7.794  66.288  1.00  0.00    -0.046 C  
HETATM    2  N   UNL     1      -7.371   7.751  65.193  1.00  0.00    -0.068 NA 
HETATM    3  C   UNL     1      -7.687   6.357  64.872  1.00  0.00    -0.104 C  
ENDROOT
BRANCH   2   4
HETATM    4  C   UNL     1      -8.571   8.526  65.573  1.00  0.00    -0.180 C  
BRANCH   4   5
HETATM    5  C   UNL     1      -8.415  10.050  65.435  1.00  0.00    -0.158 C  
BRANCH   5   6
HETATM    6  C   UNL     1      -9.494  10.678  64.599  1.00  0.00    -0.308 A  
HETATM    7  C   UNL     1      -9.784  10.379  63.281  1.00  0.00    -0.255 A  
HETATM    8  N   UNL     1     -10.881  11.102  62.906  1.00  0.00    -0.806 NA 
HETATM    9  C   UNL     1     -11.340  11.852  63.962  1.00  0.00    -0.397 A  
HETATM   10  H   UNL     1     -11.299  11.087  61.976  1.00  0.00     0.000 HD 
HETATM   11  C   UNL     1     -10.455  11.654  65.021  1.00  0.00    -0.336 A  
HETATM   12  C   UNL     1     -10.674  12.370  66.218  1.00  0.00    -0.287 A  
HETATM   13  C   UNL     1     -11.791  13.223  66.339  1.00  0.00    -0.446 A  
HETATM   14  C   UNL     1     -12.466  12.676  64.057  1.00  0.00    -0.487 A  
HETATM   15  C   UNL     1     -12.682  13.348  65.265  1.00  0.00    -0.481 A  
BRANCH  13  16
HETATM   16  C   UNL     1     -12.016  13.999  67.612  1.00  0.00    -0.368 C  
BRANCH  16  17
HETATM   17  N   UNL     1     -11.299  15.263  67.690  1.00  0.00    -0.329 NA 
HETATM   18  C   UNL     1     -10.498  15.878  66.778  1.00  0.00    -0.309 A  
HETATM   19  N   UNL     1     -10.070  17.023  67.261  1.00  0.00    -0.287 NA 
HETATM   20  C   UNL     1     -10.646  17.069  68.494  1.00  0.00    -0.370 A  
HETATM   21  N   UNL     1     -11.409  16.016  68.804  1.00  0.00    -0.365 NA 
ENDBRANCH  16  17
ENDBRANCH  13  16
ENDBRANCH   5   6
ENDBRANCH   4   5
ENDBRANCH   2   4
TORSDOF 5
ENDMDL
MODEL       70
REMARK 921   NORMALIZED FREE ENERGY PREDICTED BY IDOCK:   -4.83 KCAL/MOL
REMARK 922        TOTAL FREE ENERGY PREDICTED BY IDOCK:   -6.71 KCAL/MOL
REMARK 923 INTER-LIGAND FREE ENERGY PREDICTED BY IDOCK:   -6.29 KCAL/MOL
REMARK 924 INTRA-LIGAND FREE ENERGY PREDICTED BY IDOCK:   -0.41 KCAL/MOL
REMARK 927      BINDING AFFINITY PREDICTED BY RF-SCORE:    0.00 PKD
ROOT
HETATM    1  C   UNL     1      -8.428  19.380  66.529  1.00  0.00    -0.337 C  
HETATM    2  N   UNL     1      -9.865  19.496  66.799  1.00  0.00    -0.353 NA 
HETATM    3  C   UNL     1     -10.537  20.079  65.635  1.00  0.00    -0.275 C  
ENDROOT
BRANCH   2   4
HETATM    4  C   UNL     1     -10.407  18.167  67.154  1.00  0.00    -0.379 C  
BRANCH   4   5
HETATM    5  C   UNL     1     -10.061  17.697  68.577  1.00  0.00    -0.375 C  
BRANCH   5   6
HETATM    6  C   UNL     1      -9.103  16.541  68.598  1.00  0.00    -0.239 A  
HETATM    7  C   UNL     1      -7.802  16.567  69.063  1.00  0.00    -0.226 A  
HETATM    8  N   UNL     1      -7.291  15.302  68.988  1.00  0.00    -0.142 NA 
HETATM    9  C   UNL     1      -8.243  14.433  68.509  1.00  0.00    -0.151 A  
HETATM   10  H   UNL     1      -6.342  15.040  69.251  1.00  0.00     0.000 HD 
HETATM   11  C   UNL     1      -9.370  15.191  68.197  1.00  0.00    -0.192 A  
HETATM   12  C   UNL     1     -10.480  14.533  67.623  1.00  0.00    -0.246 A  
HETATM   13  C   UNL     1     -10.450  13.137  67.422  1.00  0.00    -0.243 A  
HETATM   14  C   UNL     1      -8.188  13.046  68.338  1.00  0.00    -0.123 A  
HETATM   15  C   UNL     1      -9.313  12.410  67.800  1.00  0.00    -0.196 A  
BRANCH  13  16
HETATM   16  C   UNL     1     -11.629  12.437  66.795  1.00  0.00    -0.379 C  
BRANCH  16  17
HETATM   17  N   UNL     1     -11.922  12.843  65.428  1.00  0.00    -0.399 NA 
HETATM   18  C   UNL     1     -12.607  13.920  64.958  1.00  0.00    -0.390 A  
HETATM   19  N   UNL     1     -12.614  13.906  63.644  1.00  0.00    -0.794 NA 
HETATM   20  C   UNL     1     -11.908  12.780  63.348  1.00  0.00    -0.518 A  
HETATM   21  N   UNL     1     -11.461  12.094  64.404  1.00  0.00    -0.336 NA 
ENDBRANCH  16  17
ENDBRANCH  13  16
ENDBRANCH   5   6
ENDBRANCH   4   5
ENDBRANCH   2   4
TORSDOF 5
ENDMDL
MODEL       71
REMARK 921   NORMALIZED FREE ENERGY PREDICTED BY IDOCK:   -4.78 KCAL/MOL
REMARK 922        TOTAL FREE ENERGY PREDICTED BY IDOCK:   -6.64 KCAL/MOL
REMARK 923 INTER-LIGAND FREE ENERGY PREDICTED BY IDOCK:   -6.17 KCAL/MOL
REMARK 924 INTRA-LIGAND FREE ENERGY PREDICTED BY IDOCK:   -0.47 KCAL/MOL
REMARK 927      BINDING AFFINITY PREDICTED BY RF-SCORE:    0.00 PKD
ROOT
HETATM    1  C   UNL     1      -5.556  17.139  66.845  1.00  0.00    -0.180 C  
HETATM    2  N   UNL     1      -6.163  18.442  67.139  1.00  0.00    -0.168 NA 
HETATM    3  C   UNL     1      -5.221  19.258  67.910  1.00  0.00    -0.171 C  
ENDROOT
BRANCH   2   4
HETATM    4  C   UNL     1      -6.568  19.093  65.876  1.00  0.00    -0.239 C  
BRANCH   4   5
HETATM    5  C   UNL     1      -8.031  19.565  65.843  1.00  0.00    -0.233 C  
BRANCH   5   6
HETATM    6  C   UNL     1      -8.807  19.161  67.065  1.00  0.00    -0.318 A  
HETATM    7  C   UNL     1      -9.166  19.987  68.112  1.00  0.00    -0.228 A  
HETATM    8  N   UNL     1      -9.931  19.267  68.987  1.00  0.00    -0.505 NA 
HETATM    9  C   UNL     1     -10.108  17.987  68.519  1.00  0.00    -0.393 A  
HETATM   10  H   UNL     1     -10.315  19.628  69.859  1.00  0.00     0.000 HD 
HETATM   11  C   UNL     1      -9.364  17.871  67.346  1.00  0.00    -0.257 A  
HETATM   12  C   UNL     1      -9.331  16.619  66.697  1.00  0.00    -0.272 A  
HETATM   13  C   UNL     1     -10.075  15.535  67.208  1.00  0.00    -0.250 A  
HETATM   14  C   UNL     1     -10.870  16.936  69.042  1.00  0.00    -0.255 A  
HETATM   15  C   UNL     1     -10.851  15.714  68.361  1.00  0.00    -0.290 A  
BRANCH  13  16
HETATM   16  C   UNL     1     -10.027  14.192  66.523  1.00  0.00    -0.283 C  
BRANCH  16  17
HETATM   17  N   UNL     1     -11.127  13.937  65.604  1.00  0.00    -0.295 NA 
HETATM   18  C   UNL     1     -11.544  14.637  64.515  1.00  0.00    -0.370 A  
HETATM   19  N   UNL     1     -12.572  14.033  63.962  1.00  0.00    -0.678 NA 
HETATM   20  C   UNL     1     -12.752  12.946  64.763  1.00  0.00    -0.370 A  
HETATM   21  N   UNL     1     -11.893  12.840  65.781  1.00  0.00    -0.411 NA 
ENDBRANCH  16  17
ENDBRANCH  13  16
ENDBRANCH   5   6
ENDBRANCH   4   5
ENDBRANCH   2   4
TORSDOF 5
ENDMDL
MODEL       72
REMARK 921   NORMALIZED FREE ENERGY PREDICTED BY IDOCK:   -4.77 KCAL/MOL
REMARK 922        TOTAL FREE ENERGY PREDICTED BY IDOCK:   -6.63 KCAL/MOL
REMARK 923 INTER-LIGAND FREE ENERGY PREDICTED BY IDOCK:   -6.30 KCAL/MOL
REMARK 924 INTRA-LIGAND FREE ENERGY PREDICTED BY IDOCK:   -0.33 KCAL/MOL
REMARK 927      BINDING AFFINITY PREDICTED BY RF-SCORE:    0.00 PKD
ROOT
HETATM    1  C   UNL     1     -10.630  16.743  67.347  1.00  0.00    -0.291 C  
HETATM    2  N   UNL     1     -10.692  15.284  67.490  1.00  0.00    -0.278 NA 
HETATM    3  C   UNL     1     -11.310  14.942  68.773  1.00  0.00    -0.287 C  
ENDROOT
BRANCH   2   4
HETATM    4  C   UNL     1     -11.424  14.708  66.342  1.00  0.00    -0.347 C  
BRANCH   4   5
HETATM    5  C   UNL     1     -10.537  14.344  65.139  1.00  0.00    -0.429 C  
BRANCH   5   6
HETATM    6  C   UNL     1     -10.519  12.870  64.847  1.00  0.00    -0.351 A  
HETATM    7  C   UNL     1     -10.728  12.280  63.616  1.00  0.00    -0.467 A  
HETATM    8  N   UNL     1     -10.549  10.931  63.747  1.00  0.00    -0.528 NA 
HETATM    9  C   UNL     1     -10.196  10.623  65.039  1.00  0.00    -0.310 A  
HETATM   10  H   UNL     1     -10.661  10.252  62.995  1.00  0.00     0.000 HD 
HETATM   11  C   UNL     1     -10.228  11.811  65.768  1.00  0.00    -0.276 A  
HETATM   12  C   UNL     1      -9.959  11.753  67.153  1.00  0.00    -0.221 A  
HETATM   13  C   UNL     1      -9.621  10.525  67.759  1.00  0.00    -0.173 A  
HETATM   14  C   UNL     1      -9.847   9.393  65.607  1.00  0.00    -0.294 A  
HETATM   15  C   UNL     1      -9.549   9.366  66.974  1.00  0.00    -0.209 A  
BRANCH  13  16
HETATM   16  C   UNL     1      -9.349  10.460  69.240  1.00  0.00    -0.187 C  
BRANCH  16  17
HETATM   17  N   UNL     1     -10.525  10.229  70.066  1.00  0.00    -0.265 NA 
HETATM   18  C   UNL     1     -10.785   9.248  70.972  1.00  0.00    -0.316 A  
HETATM   19  N   UNL     1     -11.971   9.437  71.506  1.00  0.00    -0.356 NA 
HETATM   20  C   UNL     1     -12.408  10.568  70.885  1.00  0.00    -0.390 A  
HETATM   21  N   UNL     1     -11.559  11.093  69.996  1.00  0.00    -0.321 NA 
ENDBRANCH  16  17
ENDBRANCH  13  16
ENDBRANCH   5   6
ENDBRANCH   4   5
ENDBRANCH   2   4
TORSDOF 5
ENDMDL
MODEL       73
REMARK 921   NORMALIZED FREE ENERGY PREDICTED BY IDOCK:   -4.76 KCAL/MOL
REMARK 922        TOTAL FREE ENERGY PREDICTED BY IDOCK:   -6.62 KCAL/MOL
REMARK 923 INTER-LIGAND FREE ENERGY PREDICTED BY IDOCK:   -6.17 KCAL/MOL
REMARK 924 INTRA-LIGAND FREE ENERGY PREDICTED BY IDOCK:   -0.45 KCAL/MOL
REMARK 927      BINDING AFFINITY PREDICTED BY RF-SCORE:    0.00 PKD
ROOT
HETATM    1  C   UNL     1     -11.273   7.643  70.291  1.00  0.00    -0.216 C  
HETATM    2  N   UNL     1     -10.270   8.612  69.835  1.00  0.00    -0.198 NA 
HETATM    3  C   UNL     1      -9.745   8.197  68.532  1.00  0.00    -0.162 C  
ENDROOT
BRANCH   2   4
HETATM    4  C   UNL     1     -10.872   9.961  69.795  1.00  0.00    -0.269 C  
BRANCH   4   5
HETATM    5  C   UNL     1     -11.173  10.483  68.380  1.00  0.00    -0.339 C  
BRANCH   5   6
HETATM    6  C   UNL     1     -10.605  11.849  68.124  1.00  0.00    -0.233 A  
HETATM    7  C   UNL     1      -9.575  12.156  67.255  1.00  0.00    -0.185 A  
HETATM    8  N   UNL     1      -9.408  13.512  67.244  1.00  0.00    -0.224 NA 
HETATM    9  C   UNL     1     -10.330  14.110  68.070  1.00  0.00    -0.231 A  
HETATM   10  H   UNL     1      -8.702  14.008  66.702  1.00  0.00     0.000 HD 
HETATM   11  C   UNL     1     -11.055  13.090  68.684  1.00  0.00    -0.305 A  
HETATM   12  C   UNL     1     -12.034  13.446  69.635  1.00  0.00    -0.386 A  
HETATM   13  C   UNL     1     -12.294  14.805  69.912  1.00  0.00    -0.328 A  
HETATM   14  C   UNL     1     -10.575  15.467  68.309  1.00  0.00    -0.253 A  
HETATM   15  C   UNL     1     -11.575  15.796  69.230  1.00  0.00    -0.380 A  
BRANCH  13  16
HETATM   16  C   UNL     1     -13.329  15.184  70.940  1.00  0.00    -0.408 C  
BRANCH  16  17
HETATM   17  N   UNL     1     -12.803  15.421  72.276  1.00  0.00    -0.350 NA 
HETATM   18  C   UNL     1     -12.014  16.424  72.746  1.00  0.00    -0.490 A  
HETATM   19  N   UNL     1     -11.794  16.255  74.031  1.00  0.00    -0.135 NA 
HETATM   20  C   UNL     1     -12.482  15.113  74.310  1.00  0.00    -0.488 A  
HETATM   21  N   UNL     1     -13.119  14.565  73.270  1.00  0.00    -0.589 NA 
ENDBRANCH  16  17
ENDBRANCH  13  16
ENDBRANCH   5   6
ENDBRANCH   4   5
ENDBRANCH   2   4
TORSDOF 5
ENDMDL
MODEL       74
REMARK 921   NORMALIZED FREE ENERGY PREDICTED BY IDOCK:   -4.75 KCAL/MOL
REMARK 922        TOTAL FREE ENERGY PREDICTED BY IDOCK:   -6.60 KCAL/MOL
REMARK 923 INTER-LIGAND FREE ENERGY PREDICTED BY IDOCK:   -6.14 KCAL/MOL
REMARK 924 INTRA-LIGAND FREE ENERGY PREDICTED BY IDOCK:   -0.45 KCAL/MOL
REMARK 927      BINDING AFFINITY PREDICTED BY RF-SCORE:    0.00 PKD
ROOT
HETATM    1  C   UNL     1     -11.899  11.976  63.357  1.00  0.00    -0.447 C  
HETATM    2  N   UNL     1     -12.199  13.261  63.998  1.00  0.00    -0.580 NA 
HETATM    3  C   UNL     1     -12.926  13.027  65.249  1.00  0.00    -0.021 C  
ENDROOT
BRANCH   2   4
HETATM    4  C   UNL     1     -10.942  14.009  64.210  1.00  0.00    -0.144 C  
BRANCH   4   5
HETATM    5  C   UNL     1     -11.119  15.366  64.911  1.00  0.00    -0.435 C  
BRANCH   5   6
HETATM    6  C   UNL     1     -10.166  15.566  66.055  1.00  0.00    -0.349 A  
HETATM    7  C   UNL     1      -8.849  15.971  65.960  1.00  0.00    -0.279 A  
HETATM    8  N   UNL     1      -8.348  16.113  67.224  1.00  0.00    -0.170 NA 
HETATM    9  C   UNL     1      -9.322  15.836  68.154  1.00  0.00    -0.194 A  
HETATM   10  H   UNL     1      -7.391  16.384  67.444  1.00  0.00     0.000 HD 
HETATM   11  C   UNL     1     -10.456  15.430  67.453  1.00  0.00    -0.277 A  
HETATM   12  C   UNL     1     -11.590  15.028  68.191  1.00  0.00    -0.360 A  
HETATM   13  C   UNL     1     -11.575  15.086  69.601  1.00  0.00    -0.333 A  
HETATM   14  C   UNL     1      -9.281  15.922  69.550  1.00  0.00    -0.175 A  
HETATM   15  C   UNL     1     -10.429  15.551  70.259  1.00  0.00    -0.282 A  
BRANCH  13  16
HETATM   16  C   UNL     1     -12.781  14.642  70.390  1.00  0.00    -0.316 C  
BRANCH  16  17
HETATM   17  N   UNL     1     -12.709  13.279  70.896  1.00  0.00    -0.293 NA 
HETATM   18  C   UNL     1     -13.290  12.714  71.988  1.00  0.00    -0.454 A  
HETATM   19  N   UNL     1     -12.970  11.442  72.057  1.00  0.00    -0.387 NA 
HETATM   20  C   UNL     1     -12.177  11.268  70.964  1.00  0.00    -0.311 A  
HETATM   21  N   UNL     1     -11.987  12.362  70.219  1.00  0.00    -0.337 NA 
ENDBRANCH  16  17
ENDBRANCH  13  16
ENDBRANCH   5   6
ENDBRANCH   4   5
ENDBRANCH   2   4
TORSDOF 5
ENDMDL
MODEL       75
REMARK 921   NORMALIZED FREE ENERGY PREDICTED BY IDOCK:   -4.75 KCAL/MOL
REMARK 922        TOTAL FREE ENERGY PREDICTED BY IDOCK:   -6.60 KCAL/MOL
REMARK 923 INTER-LIGAND FREE ENERGY PREDICTED BY IDOCK:   -6.26 KCAL/MOL
REMARK 924 INTRA-LIGAND FREE ENERGY PREDICTED BY IDOCK:   -0.33 KCAL/MOL
REMARK 927      BINDING AFFINITY PREDICTED BY RF-SCORE:    0.00 PKD
ROOT
HETATM    1  C   UNL     1      -6.196   9.368  66.642  1.00  0.00    -0.065 C  
HETATM    2  N   UNL     1      -7.222   9.350  65.593  1.00  0.00    -0.090 NA 
HETATM    3  C   UNL     1      -6.630   8.882  64.337  1.00  0.00    -0.071 C  
ENDROOT
BRANCH   2   4
HETATM    4  C   UNL     1      -8.356   8.508  66.028  1.00  0.00    -0.130 C  
BRANCH   4   5
HETATM    5  C   UNL     1      -9.714   9.230  66.051  1.00  0.00    -0.359 C  
BRANCH   5   6
HETATM    6  C   UNL     1     -10.306   9.324  67.428  1.00  0.00    -0.327 A  
HETATM    7  C   UNL     1     -10.336   8.318  68.375  1.00  0.00    -0.199 A  
HETATM    8  N   UNL     1     -10.884   8.820  69.522  1.00  0.00    -0.372 NA 
HETATM    9  C   UNL     1     -11.191  10.150  69.358  1.00  0.00    -0.215 A  
HETATM   10  H   UNL     1     -11.042   8.285  70.375  1.00  0.00     0.000 HD 
HETATM   11  C   UNL     1     -10.897  10.480  68.036  1.00  0.00    -0.312 A  
HETATM   12  C   UNL     1     -11.183  11.790  67.595  1.00  0.00    -0.345 A  
HETATM   13  C   UNL     1     -11.709  12.742  68.494  1.00  0.00    -0.371 A  
HETATM   14  C   UNL     1     -11.696  11.075  70.278  1.00  0.00    -0.445 A  
HETATM   15  C   UNL     1     -11.938  12.377  69.827  1.00  0.00    -0.359 A  
BRANCH  13  16
HETATM   16  C   UNL     1     -12.030  14.136  68.019  1.00  0.00    -0.337 C  
BRANCH  16  17
HETATM   17  N   UNL     1     -11.924  14.329  66.580  1.00  0.00    -0.427 NA 
HETATM   18  C   UNL     1     -12.771  13.966  65.579  1.00  0.00    -0.499 A  
HETATM   19  N   UNL     1     -12.288  14.360  64.422  1.00  0.00    -0.638 NA 
HETATM   20  C   UNL     1     -11.122  14.972  64.770  1.00  0.00    -0.376 A  
HETATM   21  N   UNL     1     -10.854  14.981  66.079  1.00  0.00    -0.327 NA 
ENDBRANCH  16  17
ENDBRANCH  13  16
ENDBRANCH   5   6
ENDBRANCH   4   5
ENDBRANCH   2   4
TORSDOF 5
ENDMDL
MODEL       76
REMARK 921   NORMALIZED FREE ENERGY PREDICTED BY IDOCK:   -4.74 KCAL/MOL
REMARK 922        TOTAL FREE ENERGY PREDICTED BY IDOCK:   -6.58 KCAL/MOL
REMARK 923 INTER-LIGAND FREE ENERGY PREDICTED BY IDOCK:   -6.17 KCAL/MOL
REMARK 924 INTRA-LIGAND FREE ENERGY PREDICTED BY IDOCK:   -0.41 KCAL/MOL
REMARK 927      BINDING AFFINITY PREDICTED BY RF-SCORE:    0.00 PKD
ROOT
HETATM    1  C   UNL     1     -11.555  15.958  71.315  1.00  0.00    -0.452 C  
HETATM    2  N   UNL     1     -12.050  14.667  71.806  1.00  0.00    -0.341 NA 
HETATM    3  C   UNL     1     -12.922  14.885  72.963  1.00  0.00    -0.499 C  
ENDROOT
BRANCH   2   4
HETATM    4  C   UNL     1     -12.739  13.956  70.709  1.00  0.00    -0.313 C  
BRANCH   4   5
HETATM    5  C   UNL     1     -12.066  12.641  70.282  1.00  0.00    -0.372 C  
BRANCH   5   6
HETATM    6  C   UNL     1     -12.455  11.474  71.144  1.00  0.00    -0.442 A  
HETATM    7  C   UNL     1     -13.507  11.435  72.039  1.00  0.00    -0.183 A  
HETATM    8  N   UNL     1     -13.581  10.176  72.565  1.00  0.00    -0.554 NA 
HETATM    9  C   UNL     1     -12.613   9.373  72.011  1.00  0.00    -0.384 A  
HETATM   10  H   UNL     1     -14.256   9.876  73.267  1.00  0.00     0.000 HD 
HETATM   11  C   UNL     1     -11.851  10.174  71.161  1.00  0.00    -0.472 A  
HETATM   12  C   UNL     1     -10.743   9.592  70.509  1.00  0.00    -0.359 A  
HETATM   13  C   UNL     1     -10.455   8.222  70.686  1.00  0.00    -0.224 A  
HETATM   14  C   UNL     1     -12.364   8.008  72.194  1.00  0.00    -0.358 A  
HETATM   15  C   UNL     1     -11.281   7.445  71.510  1.00  0.00    -0.271 A  
BRANCH  13  16
HETATM   16  C   UNL     1      -9.262   7.604  70.003  1.00  0.00    -0.151 C  
BRANCH  16  17
HETATM   17  N   UNL     1      -9.566   6.896  68.768  1.00  0.00    -0.135 NA 
HETATM   18  C   UNL     1     -10.409   7.223  67.751  1.00  0.00    -0.209 A  
HETATM   19  N   UNL     1     -10.360   6.300  66.816  1.00  0.00    -0.219 NA 
HETATM   20  C   UNL     1      -9.455   5.412  67.313  1.00  0.00    -0.123 A  
HETATM   21  N   UNL     1      -8.938   5.732  68.503  1.00  0.00    -0.112 NA 
ENDBRANCH  16  17
ENDBRANCH  13  16
ENDBRANCH   5   6
ENDBRANCH   4   5
ENDBRANCH   2   4
TORSDOF 5
ENDMDL
MODEL       77
REMARK 921   NORMALIZED FREE ENERGY PREDICTED BY IDOCK:   -4.73 KCAL/MOL
REMARK 922        TOTAL FREE ENERGY PREDICTED BY IDOCK:   -6.57 KCAL/MOL
REMARK 923 INTER-LIGAND FREE ENERGY PREDICTED BY IDOCK:   -6.15 KCAL/MOL
REMARK 924 INTRA-LIGAND FREE ENERGY PREDICTED BY IDOCK:   -0.42 KCAL/MOL
REMARK 927      BINDING AFFINITY PREDICTED BY RF-SCORE:    0.00 PKD
ROOT
HETATM    1  C   UNL     1      -9.956  17.875  67.168  1.00  0.00    -0.327 C  
HETATM    2  N   UNL     1     -10.155  16.506  67.656  1.00  0.00    -0.259 NA 
HETATM    3  C   UNL     1     -10.805  16.543  68.968  1.00  0.00    -0.329 C  
ENDROOT
BRANCH   2   4
HETATM    4  C   UNL     1     -10.937  15.739  66.663  1.00  0.00    -0.179 C  
BRANCH   4   5
HETATM    5  C   UNL     1     -11.874  14.681  67.269  1.00  0.00    -0.375 C  
BRANCH   5   6
HETATM    6  C   UNL     1     -11.513  13.278  66.872  1.00  0.00    -0.376 A  
HETATM    7  C   UNL     1     -11.134  12.859  65.612  1.00  0.00    -0.279 A  
HETATM    8  N   UNL     1     -10.809  11.533  65.677  1.00  0.00    -0.272 NA 
HETATM    9  C   UNL     1     -10.940  11.076  66.967  1.00  0.00    -0.272 A  
HETATM   10  H   UNL     1     -10.513  10.965  64.884  1.00  0.00     0.000 HD 
HETATM   11  C   UNL     1     -11.438  12.131  67.728  1.00  0.00    -0.398 A  
HETATM   12  C   UNL     1     -11.720  11.897  69.091  1.00  0.00    -0.380 A  
HETATM   13  C   UNL     1     -11.454  10.636  69.664  1.00  0.00    -0.361 A  
HETATM   14  C   UNL     1     -10.649   9.819  67.508  1.00  0.00    -0.335 A  
HETATM   15  C   UNL     1     -10.903   9.621  68.870  1.00  0.00    -0.201 A  
BRANCH  13  16
HETATM   16  C   UNL     1     -11.770  10.381  71.116  1.00  0.00    -0.296 C  
BRANCH  16  17
HETATM   17  N   UNL     1     -12.545   9.175  71.369  1.00  0.00    -0.320 NA 
HETATM   18  C   UNL     1     -12.162   7.973  71.878  1.00  0.00    -0.319 A  
HETATM   19  N   UNL     1     -13.198   7.169  71.952  1.00  0.00    -0.274 NA 
HETATM   20  C   UNL     1     -14.215   7.936  71.469  1.00  0.00    -0.420 A  
HETATM   21  N   UNL     1     -13.867   9.173  71.100  1.00  0.00    -0.178 NA 
ENDBRANCH  16  17
ENDBRANCH  13  16
ENDBRANCH   5   6
ENDBRANCH   4   5
ENDBRANCH   2   4
TORSDOF 5
ENDMDL
MODEL       78
REMARK 921   NORMALIZED FREE ENERGY PREDICTED BY IDOCK:   -4.71 KCAL/MOL
REMARK 922        TOTAL FREE ENERGY PREDICTED BY IDOCK:   -6.55 KCAL/MOL
REMARK 923 INTER-LIGAND FREE ENERGY PREDICTED BY IDOCK:   -6.16 KCAL/MOL
REMARK 924 INTRA-LIGAND FREE ENERGY PREDICTED BY IDOCK:   -0.40 KCAL/MOL
REMARK 927      BINDING AFFINITY PREDICTED BY RF-SCORE:    0.00 PKD
ROOT
HETATM    1  C   UNL     1     -12.654  14.117  64.971  1.00  0.00    -0.380 C  
HETATM    2  N   UNL     1     -12.246  12.710  64.886  1.00  0.00    -0.449 NA 
HETATM    3  C   UNL     1     -11.936  12.373  63.494  1.00  0.00    -0.538 C  
ENDROOT
BRANCH   2   4
HETATM    4  C   UNL     1     -11.101  12.475  65.790  1.00  0.00    -0.308 C  
BRANCH   4   5
HETATM    5  C   UNL     1     -10.084  13.627  65.843  1.00  0.00    -0.320 C  
BRANCH   5   6
HETATM    6  C   UNL     1      -9.214  13.588  67.067  1.00  0.00    -0.248 A  
HETATM    7  C   UNL     1      -8.830  12.456  67.760  1.00  0.00    -0.176 A  
HETATM    8  N   UNL     1      -7.977  12.829  68.759  1.00  0.00    -0.326 NA 
HETATM    9  C   UNL     1      -7.766  14.187  68.721  1.00  0.00    -0.121 A  
HETATM   10  H   UNL     1      -7.557  12.193  69.436  1.00  0.00     0.000 HD 
HETATM   11  C   UNL     1      -8.576  14.700  67.709  1.00  0.00    -0.175 A  
HETATM   12  C   UNL     1      -8.588  16.096  67.505  1.00  0.00    -0.189 A  
HETATM   13  C   UNL     1      -7.760  16.933  68.282  1.00  0.00    -0.205 A  
HETATM   14  C   UNL     1      -6.921  14.988  69.496  1.00  0.00    -0.187 A  
HETATM   15  C   UNL     1      -6.923  16.365  69.252  1.00  0.00    -0.223 A  
BRANCH  13  16
HETATM   16  C   UNL     1      -7.784  18.426  68.075  1.00  0.00    -0.261 C  
BRANCH  16  17
HETATM   17  N   UNL     1      -9.001  18.937  67.462  1.00  0.00    -0.283 NA 
HETATM   18  C   UNL     1     -10.195  19.270  68.022  1.00  0.00    -0.408 A  
HETATM   19  N   UNL     1     -11.015  19.711  67.094  1.00  0.00    -0.410 NA 
HETATM   20  C   UNL     1     -10.265  19.629  65.960  1.00  0.00    -0.493 A  
HETATM   21  N   UNL     1      -9.024  19.163  66.132  1.00  0.00    -0.455 NA 
ENDBRANCH  16  17
ENDBRANCH  13  16
ENDBRANCH   5   6
ENDBRANCH   4   5
ENDBRANCH   2   4
TORSDOF 5
ENDMDL
MODEL       79
REMARK 921   NORMALIZED FREE ENERGY PREDICTED BY IDOCK:   -4.70 KCAL/MOL
REMARK 922        TOTAL FREE ENERGY PREDICTED BY IDOCK:   -6.53 KCAL/MOL
REMARK 923 INTER-LIGAND FREE ENERGY PREDICTED BY IDOCK:   -6.09 KCAL/MOL
REMARK 924 INTRA-LIGAND FREE ENERGY PREDICTED BY IDOCK:   -0.44 KCAL/MOL
REMARK 927      BINDING AFFINITY PREDICTED BY RF-SCORE:    0.00 PKD
ROOT
HETATM    1  C   UNL     1      -7.696   5.402  71.643  1.00  0.00    -0.106 C  
HETATM    2  N   UNL     1      -7.767   6.771  72.168  1.00  0.00    -0.094 NA 
HETATM    3  C   UNL     1      -6.452   7.171  72.676  1.00  0.00    -0.052 C  
ENDROOT
BRANCH   2   4
HETATM    4  C   UNL     1      -8.262   7.678  71.111  1.00  0.00    -0.100 C  
BRANCH   4   5
HETATM    5  C   UNL     1      -9.536   7.192  70.400  1.00  0.00    -0.169 C  
BRANCH   5   6
HETATM    6  C   UNL     1     -10.794   7.549  71.140  1.00  0.00    -0.254 A  
HETATM    7  C   UNL     1     -11.468   6.745  72.040  1.00  0.00    -0.282 A  
HETATM    8  N   UNL     1     -12.513   7.457  72.557  1.00  0.00    -0.508 NA 
HETATM    9  C   UNL     1     -12.525   8.729  72.035  1.00  0.00    -0.386 A  
HETATM   10  H   UNL     1     -13.187   7.097  73.231  1.00  0.00     0.000 HD 
HETATM   11  C   UNL     1     -11.496   8.798  71.098  1.00  0.00    -0.344 A  
HETATM   12  C   UNL     1     -11.334   9.997  70.370  1.00  0.00    -0.392 A  
HETATM   13  C   UNL     1     -12.170  11.102  70.630  1.00  0.00    -0.492 A  
HETATM   14  C   UNL     1     -13.359   9.813  72.329  1.00  0.00    -0.472 A  
HETATM   15  C   UNL     1     -13.158  11.002  71.620  1.00  0.00    -0.543 A  
BRANCH  13  16
HETATM   16  C   UNL     1     -12.008  12.377  69.841  1.00  0.00    -0.299 C  
BRANCH  16  17
HETATM   17  N   UNL     1     -11.295  12.228  68.582  1.00  0.00    -0.266 NA 
HETATM   18  C   UNL     1      -9.994  12.480  68.272  1.00  0.00    -0.229 A  
HETATM   19  N   UNL     1      -9.770  12.184  67.011  1.00  0.00    -0.199 NA 
HETATM   20  C   UNL     1     -10.985  11.745  66.581  1.00  0.00    -0.294 A  
HETATM   21  N   UNL     1     -11.952  11.751  67.504  1.00  0.00    -0.607 NA 
ENDBRANCH  16  17
ENDBRANCH  13  16
ENDBRANCH   5   6
ENDBRANCH   4   5
ENDBRANCH   2   4
TORSDOF 5
ENDMDL
MODEL       80
REMARK 921   NORMALIZED FREE ENERGY PREDICTED BY IDOCK:   -4.69 KCAL/MOL
REMARK 922        TOTAL FREE ENERGY PREDICTED BY IDOCK:   -6.52 KCAL/MOL
REMARK 923 INTER-LIGAND FREE ENERGY PREDICTED BY IDOCK:   -6.42 KCAL/MOL
REMARK 924 INTRA-LIGAND FREE ENERGY PREDICTED BY IDOCK:   -0.10 KCAL/MOL
REMARK 927      BINDING AFFINITY PREDICTED BY RF-SCORE:    0.00 PKD
ROOT
HETATM    1  C   UNL     1      -8.682  11.348  66.134  1.00  0.00    -0.153 C  
HETATM    2  N   UNL     1     -10.071  11.146  65.708  1.00  0.00    -0.239 NA 
HETATM    3  C   UNL     1     -10.804  10.423  66.750  1.00  0.00    -0.116 C  
ENDROOT
BRANCH   2   4
HETATM    4  C   UNL     1     -10.685  12.454  65.394  1.00  0.00    -0.282 C  
BRANCH   4   5
HETATM    5  C   UNL     1     -11.836  12.858  66.329  1.00  0.00    -0.477 C  
BRANCH   5   6
HETATM    6  C   UNL     1     -11.429  13.872  67.360  1.00  0.00    -0.374 A  
HETATM    7  C   UNL     1     -10.782  15.068  67.117  1.00  0.00    -0.303 A  
HETATM    8  N   UNL     1     -10.662  15.742  68.300  1.00  0.00    -0.270 NA 
HETATM    9  C   UNL     1     -11.245  15.024  69.316  1.00  0.00    -0.286 A  
HETATM   10  H   UNL     1     -10.206  16.647  68.411  1.00  0.00     0.000 HD 
HETATM   11  C   UNL     1     -11.681  13.818  68.770  1.00  0.00    -0.391 A  
HETATM   12  C   UNL     1     -12.267  12.867  69.632  1.00  0.00    -0.203 A  
HETATM   13  C   UNL     1     -12.444  13.163  71.000  1.00  0.00    -0.406 A  
HETATM   14  C   UNL     1     -11.422  15.355  70.664  1.00  0.00    -0.361 A  
HETATM   15  C   UNL     1     -12.037  14.411  71.493  1.00  0.00    -0.373 A  
BRANCH  13  16
HETATM   16  C   UNL     1     -13.056  12.141  71.924  1.00  0.00    -0.369 C  
BRANCH  16  17
HETATM   17  N   UNL     1     -12.668  10.765  71.653  1.00  0.00    -0.424 NA 
HETATM   18  C   UNL     1     -11.542  10.265  71.076  1.00  0.00    -0.343 A  
HETATM   19  N   UNL     1     -11.600   8.953  71.048  1.00  0.00    -0.284 NA 
HETATM   20  C   UNL     1     -12.802   8.688  71.631  1.00  0.00    -0.345 A  
HETATM   21  N   UNL     1     -13.494   9.763  72.020  1.00  0.00    -0.420 NA 
ENDBRANCH  16  17
ENDBRANCH  13  16
ENDBRANCH   5   6
ENDBRANCH   4   5
ENDBRANCH   2   4
TORSDOF 5
ENDMDL
MODEL       81
REMARK 921   NORMALIZED FREE ENERGY PREDICTED BY IDOCK:   -4.68 KCAL/MOL
REMARK 922        TOTAL FREE ENERGY PREDICTED BY IDOCK:   -6.51 KCAL/MOL
REMARK 923 INTER-LIGAND FREE ENERGY PREDICTED BY IDOCK:   -6.12 KCAL/MOL
REMARK 924 INTRA-LIGAND FREE ENERGY PREDICTED BY IDOCK:   -0.39 KCAL/MOL
REMARK 927      BINDING AFFINITY PREDICTED BY RF-SCORE:    0.00 PKD
ROOT
HETATM    1  C   UNL     1      -8.540   8.855  69.147  1.00  0.00    -0.134 C  
HETATM    2  N   UNL     1      -8.373  10.009  68.256  1.00  0.00    -0.109 NA 
HETATM    3  C   UNL     1      -6.963  10.139  67.881  1.00  0.00    -0.083 C  
ENDROOT
BRANCH   2   4
HETATM    4  C   UNL     1      -9.256   9.854  67.081  1.00  0.00    -0.138 C  
BRANCH   4   5
HETATM    5  C   UNL     1      -8.609  10.246  65.742  1.00  0.00    -0.163 C  
BRANCH   5   6
HETATM    6  C   UNL     1      -9.565  10.926  64.804  1.00  0.00    -0.301 A  
HETATM    7  C   UNL     1      -9.906  10.497  63.535  1.00  0.00    -0.278 A  
HETATM    8  N   UNL     1     -10.863  11.337  63.038  1.00  0.00    -0.826 NA 
HETATM    9  C   UNL     1     -11.181  12.298  63.969  1.00  0.00    -0.392 A  
HETATM   10  H   UNL     1     -11.280  11.263  62.111  1.00  0.00     0.000 HD 
HETATM   11  C   UNL     1     -10.340  12.103  65.064  1.00  0.00    -0.320 A  
HETATM   12  C   UNL     1     -10.428  13.008  66.143  1.00  0.00    -0.289 A  
HETATM   13  C   UNL     1     -11.379  14.049  66.120  1.00  0.00    -0.322 A  
HETATM   14  C   UNL     1     -12.147  13.309  63.923  1.00  0.00    -0.531 A  
HETATM   15  C   UNL     1     -12.239  14.172  65.020  1.00  0.00    -0.450 A  
BRANCH  13  16
HETATM   16  C   UNL     1     -11.463  15.026  67.266  1.00  0.00    -0.304 C  
BRANCH  16  17
HETATM   17  N   UNL     1     -10.542  16.149  67.177  1.00  0.00    -0.306 NA 
HETATM   18  C   UNL     1      -9.857  16.644  66.110  1.00  0.00    -0.318 A  
HETATM   19  N   UNL     1      -9.150  17.689  66.479  1.00  0.00    -0.274 NA 
HETATM   20  C   UNL     1      -9.440  17.800  67.805  1.00  0.00    -0.262 A  
HETATM   21  N   UNL     1     -10.289  16.883  68.281  1.00  0.00    -0.315 NA 
ENDBRANCH  16  17
ENDBRANCH  13  16
ENDBRANCH   5   6
ENDBRANCH   4   5
ENDBRANCH   2   4
TORSDOF 5
ENDMDL
MODEL       82
REMARK 921   NORMALIZED FREE ENERGY PREDICTED BY IDOCK:   -4.68 KCAL/MOL
REMARK 922        TOTAL FREE ENERGY PREDICTED BY IDOCK:   -6.51 KCAL/MOL
REMARK 923 INTER-LIGAND FREE ENERGY PREDICTED BY IDOCK:   -6.04 KCAL/MOL
REMARK 924 INTRA-LIGAND FREE ENERGY PREDICTED BY IDOCK:   -0.47 KCAL/MOL
REMARK 927      BINDING AFFINITY PREDICTED BY RF-SCORE:    0.00 PKD
ROOT
HETATM    1  C   UNL     1     -11.302   6.824  70.041  1.00  0.00    -0.342 C  
HETATM    2  N   UNL     1     -11.603   7.411  71.352  1.00  0.00    -0.266 NA 
HETATM    3  C   UNL     1     -10.690   6.859  72.356  1.00  0.00    -0.226 C  
ENDROOT
BRANCH   2   4
HETATM    4  C   UNL     1     -11.517   8.884  71.262  1.00  0.00    -0.299 C  
BRANCH   4   5
HETATM    5  C   UNL     1     -12.873   9.606  71.334  1.00  0.00    -0.471 C  
BRANCH   5   6
HETATM    6  C   UNL     1     -12.761  11.089  71.129  1.00  0.00    -0.521 A  
HETATM    7  C   UNL     1     -13.048  12.067  72.062  1.00  0.00    -0.351 A  
HETATM    8  N   UNL     1     -12.742  13.284  71.522  1.00  0.00    -0.319 NA 
HETATM    9  C   UNL     1     -12.229  13.126  70.256  1.00  0.00    -0.306 A  
HETATM   10  H   UNL     1     -12.874  14.180  71.990  1.00  0.00     0.000 HD 
HETATM   11  C   UNL     1     -12.285  11.765  69.957  1.00  0.00    -0.317 A  
HETATM   12  C   UNL     1     -11.868  11.345  68.676  1.00  0.00    -0.377 A  
HETATM   13  C   UNL     1     -11.365  12.283  67.751  1.00  0.00    -0.362 A  
HETATM   14  C   UNL     1     -11.719  14.078  69.368  1.00  0.00    -0.365 A  
HETATM   15  C   UNL     1     -11.278  13.633  68.117  1.00  0.00    -0.303 A  
BRANCH  13  16
HETATM   16  C   UNL     1     -10.934  11.836  66.377  1.00  0.00    -0.294 C  
BRANCH  16  17
HETATM   17  N   UNL     1      -9.915  10.797  66.366  1.00  0.00    -0.209 NA 
HETATM   18  C   UNL     1      -9.877   9.608  65.705  1.00  0.00    -0.302 A  
HETATM   19  N   UNL     1      -8.750   8.986  65.970  1.00  0.00    -0.150 NA 
HETATM   20  C   UNL     1      -8.116   9.848  66.812  1.00  0.00    -0.117 A  
HETATM   21  N   UNL     1      -8.786  10.972  67.085  1.00  0.00    -0.139 NA 
ENDBRANCH  16  17
ENDBRANCH  13  16
ENDBRANCH   5   6
ENDBRANCH   4   5
ENDBRANCH   2   4
TORSDOF 5
ENDMDL
MODEL       83
REMARK 921   NORMALIZED FREE ENERGY PREDICTED BY IDOCK:   -4.64 KCAL/MOL
REMARK 922        TOTAL FREE ENERGY PREDICTED BY IDOCK:   -6.46 KCAL/MOL
REMARK 923 INTER-LIGAND FREE ENERGY PREDICTED BY IDOCK:   -6.13 KCAL/MOL
REMARK 924 INTRA-LIGAND FREE ENERGY PREDICTED BY IDOCK:   -0.34 KCAL/MOL
REMARK 927      BINDING AFFINITY PREDICTED BY RF-SCORE:    0.00 PKD
ROOT
HETATM    1  C   UNL     1      -7.068   8.057  66.963  1.00  0.00    -0.082 C  
HETATM    2  N   UNL     1      -8.491   7.803  66.716  1.00  0.00    -0.123 NA 
HETATM    3  C   UNL     1      -8.851   6.482  67.238  1.00  0.00    -0.112 C  
ENDROOT
BRANCH   2   4
HETATM    4  C   UNL     1      -9.296   8.885  67.321  1.00  0.00    -0.140 C  
BRANCH   4   5
HETATM    5  C   UNL     1      -8.985   9.159  68.802  1.00  0.00    -0.136 C  
BRANCH   5   6
HETATM    6  C   UNL     1     -10.179   8.983  69.697  1.00  0.00    -0.211 A  
HETATM    7  C   UNL     1     -10.582   7.806  70.297  1.00  0.00    -0.231 A  
HETATM    8  N   UNL     1     -11.659   8.075  71.095  1.00  0.00    -0.280 NA 
HETATM    9  C   UNL     1     -11.956   9.416  71.054  1.00  0.00    -0.315 A  
HETATM   10  H   UNL     1     -12.168   7.380  71.640  1.00  0.00     0.000 HD 
HETATM   11  C   UNL     1     -11.084  10.003  70.139  1.00  0.00    -0.371 A  
HETATM   12  C   UNL     1     -11.226  11.380  69.868  1.00  0.00    -0.221 A  
HETATM   13  C   UNL     1     -12.199  12.140  70.551  1.00  0.00    -0.392 A  
HETATM   14  C   UNL     1     -12.920  10.145  71.760  1.00  0.00    -0.567 A  
HETATM   15  C   UNL     1     -13.018  11.516  71.502  1.00  0.00    -0.485 A  
BRANCH  13  16
HETATM   16  C   UNL     1     -12.362  13.609  70.251  1.00  0.00    -0.322 C  
BRANCH  16  17
HETATM   17  N   UNL     1     -12.549  14.453  71.422  1.00  0.00    -0.334 NA 
HETATM   18  C   UNL     1     -11.638  15.120  72.181  1.00  0.00    -0.400 A  
HETATM   19  N   UNL     1     -12.252  15.781  73.137  1.00  0.00    -0.452 NA 
HETATM   20  C   UNL     1     -13.563  15.484  72.919  1.00  0.00    -0.544 A  
HETATM   21  N   UNL     1     -13.798  14.676  71.880  1.00  0.00    -0.409 NA 
ENDBRANCH  16  17
ENDBRANCH  13  16
ENDBRANCH   5   6
ENDBRANCH   4   5
ENDBRANCH   2   4
TORSDOF 5
ENDMDL
MODEL       84
REMARK 921   NORMALIZED FREE ENERGY PREDICTED BY IDOCK:   -4.64 KCAL/MOL
REMARK 922        TOTAL FREE ENERGY PREDICTED BY IDOCK:   -6.46 KCAL/MOL
REMARK 923 INTER-LIGAND FREE ENERGY PREDICTED BY IDOCK:   -6.14 KCAL/MOL
REMARK 924 INTRA-LIGAND FREE ENERGY PREDICTED BY IDOCK:   -0.32 KCAL/MOL
REMARK 927      BINDING AFFINITY PREDICTED BY RF-SCORE:    0.00 PKD
ROOT
HETATM    1  C   UNL     1     -11.190  13.242  65.291  1.00  0.00    -0.295 C  
HETATM    2  N   UNL     1     -10.828  14.321  66.217  1.00  0.00    -0.305 NA 
HETATM    3  C   UNL     1     -10.751  15.589  65.486  1.00  0.00    -0.381 C  
ENDROOT
BRANCH   2   4
HETATM    4  C   UNL     1     -11.806  14.369  67.324  1.00  0.00    -0.405 C  
BRANCH   4   5
HETATM    5  C   UNL     1     -11.197  14.697  68.698  1.00  0.00    -0.293 C  
BRANCH   5   6
HETATM    6  C   UNL     1     -11.967  14.098  69.840  1.00  0.00    -0.398 A  
HETATM    7  C   UNL     1     -12.837  14.768  70.678  1.00  0.00    -0.343 A  
HETATM    8  N   UNL     1     -13.398  13.861  71.533  1.00  0.00    -0.346 NA 
HETATM    9  C   UNL     1     -12.934  12.597  71.256  1.00  0.00    -0.214 A  
HETATM   10  H   UNL     1     -14.063  14.090  72.271  1.00  0.00     0.000 HD 
HETATM   11  C   UNL     1     -11.989  12.721  70.239  1.00  0.00    -0.358 A  
HETATM   12  C   UNL     1     -11.313  11.559  69.809  1.00  0.00    -0.303 A  
HETATM   13  C   UNL     1     -11.632  10.305  70.371  1.00  0.00    -0.411 A  
HETATM   14  C   UNL     1     -13.286  11.367  71.821  1.00  0.00    -0.472 A  
HETATM   15  C   UNL     1     -12.628  10.223  71.354  1.00  0.00    -0.539 A  
BRANCH  13  16
HETATM   16  C   UNL     1     -10.900   9.065  69.924  1.00  0.00    -0.218 C  
BRANCH  16  17
HETATM   17  N   UNL     1     -10.055   9.246  68.753  1.00  0.00    -0.189 NA 
HETATM   18  C   UNL     1     -10.389   9.418  67.445  1.00  0.00    -0.263 A  
HETATM   19  N   UNL     1      -9.301   9.563  66.722  1.00  0.00    -0.148 NA 
HETATM   20  C   UNL     1      -8.306   9.471  67.648  1.00  0.00    -0.125 A  
HETATM   21  N   UNL     1      -8.715   9.278  68.905  1.00  0.00    -0.130 NA 
ENDBRANCH  16  17
ENDBRANCH  13  16
ENDBRANCH   5   6
ENDBRANCH   4   5
ENDBRANCH   2   4
TORSDOF 5
ENDMDL
MODEL       85
REMARK 921   NORMALIZED FREE ENERGY PREDICTED BY IDOCK:   -4.63 KCAL/MOL
REMARK 922        TOTAL FREE ENERGY PREDICTED BY IDOCK:   -6.44 KCAL/MOL
REMARK 923 INTER-LIGAND FREE ENERGY PREDICTED BY IDOCK:   -6.03 KCAL/MOL
REMARK 924 INTRA-LIGAND FREE ENERGY PREDICTED BY IDOCK:   -0.41 KCAL/MOL
REMARK 927      BINDING AFFINITY PREDICTED BY RF-SCORE:    0.00 PKD
ROOT
HETATM    1  C   UNL     1      -6.725   8.204  65.755  1.00  0.00    -0.055 C  
HETATM    2  N   UNL     1      -8.105   8.385  66.220  1.00  0.00    -0.102 NA 
HETATM    3  C   UNL     1      -8.180   8.102  67.655  1.00  0.00    -0.127 C  
ENDROOT
BRANCH   2   4
HETATM    4  C   UNL     1      -8.558   9.754  65.892  1.00  0.00    -0.137 C  
BRANCH   4   5
HETATM    5  C   UNL     1     -10.027   9.849  65.449  1.00  0.00    -0.349 C  
BRANCH   5   6
HETATM    6  C   UNL     1     -10.365  11.166  64.811  1.00  0.00    -0.387 A  
HETATM    7  C   UNL     1     -10.737  11.364  63.495  1.00  0.00    -0.381 A  
HETATM    8  N   UNL     1     -11.038  12.686  63.325  1.00  0.00    -0.701 NA 
HETATM    9  C   UNL     1     -10.901  13.361  64.515  1.00  0.00    -0.406 A  
HETATM   10  H   UNL     1     -11.325  13.110  62.444  1.00  0.00     0.000 HD 
HETATM   11  C   UNL     1     -10.420  12.447  65.452  1.00  0.00    -0.306 A  
HETATM   12  C   UNL     1     -10.134  12.913  66.753  1.00  0.00    -0.238 A  
HETATM   13  C   UNL     1     -10.379  14.260  67.094  1.00  0.00    -0.262 A  
HETATM   14  C   UNL     1     -11.170  14.698  64.826  1.00  0.00    -0.395 A  
HETATM   15  C   UNL     1     -10.913  15.128  66.132  1.00  0.00    -0.331 A  
BRANCH  13  16
HETATM   16  C   UNL     1     -10.059  14.761  68.480  1.00  0.00    -0.230 C  
BRANCH  16  17
HETATM   17  N   UNL     1     -11.198  14.821  69.384  1.00  0.00    -0.271 NA 
HETATM   18  C   UNL     1     -11.796  15.890  69.976  1.00  0.00    -0.311 A  
HETATM   19  N   UNL     1     -12.812  15.487  70.705  1.00  0.00    -0.478 NA 
HETATM   20  C   UNL     1     -12.798  14.136  70.526  1.00  0.00    -0.247 A  
HETATM   21  N   UNL     1     -11.831  13.679  69.725  1.00  0.00    -0.312 NA 
ENDBRANCH  16  17
ENDBRANCH  13  16
ENDBRANCH   5   6
ENDBRANCH   4   5
ENDBRANCH   2   4
TORSDOF 5
ENDMDL
MODEL       86
REMARK 921   NORMALIZED FREE ENERGY PREDICTED BY IDOCK:   -4.58 KCAL/MOL
REMARK 922        TOTAL FREE ENERGY PREDICTED BY IDOCK:   -6.38 KCAL/MOL
REMARK 923 INTER-LIGAND FREE ENERGY PREDICTED BY IDOCK:   -5.92 KCAL/MOL
REMARK 924 INTRA-LIGAND FREE ENERGY PREDICTED BY IDOCK:   -0.47 KCAL/MOL
REMARK 927      BINDING AFFINITY PREDICTED BY RF-SCORE:    0.00 PKD
ROOT
HETATM    1  C   UNL     1     -10.364  19.587  67.534  1.00  0.00    -0.444 C  
HETATM    2  N   UNL     1      -9.191  18.713  67.418  1.00  0.00    -0.277 NA 
HETATM    3  C   UNL     1      -9.202  17.731  68.504  1.00  0.00    -0.281 C  
ENDROOT
BRANCH   2   4
HETATM    4  C   UNL     1      -9.183  18.076  66.084  1.00  0.00    -0.113 C  
BRANCH   4   5
HETATM    5  C   UNL     1      -8.893  16.566  66.101  1.00  0.00    -0.342 C  
BRANCH   5   6
HETATM    6  C   UNL     1     -10.095  15.733  65.759  1.00  0.00    -0.399 A  
HETATM    7  C   UNL     1     -10.925  15.906  64.668  1.00  0.00    -0.305 A  
HETATM    8  N   UNL     1     -11.850  14.900  64.665  1.00  0.00    -0.469 NA 
HETATM    9  C   UNL     1     -11.627  14.047  65.720  1.00  0.00    -0.339 A  
HETATM   10  H   UNL     1     -12.597  14.797  63.980  1.00  0.00     0.000 HD 
HETATM   11  C   UNL     1     -10.571  14.577  66.460  1.00  0.00    -0.297 A  
HETATM   12  C   UNL     1     -10.184  13.910  67.643  1.00  0.00    -0.242 A  
HETATM   13  C   UNL     1     -10.827  12.715  68.026  1.00  0.00    -0.249 A  
HETATM   14  C   UNL     1     -12.274  12.855  66.064  1.00  0.00    -0.431 A  
HETATM   15  C   UNL     1     -11.849  12.194  67.221  1.00  0.00    -0.293 A  
BRANCH  13  16
HETATM   16  C   UNL     1     -10.425  12.012  69.298  1.00  0.00     0.132 C  
BRANCH  16  17
HETATM   17  N   UNL     1     -11.524  11.714  70.204  1.00  0.00    -0.194 NA 
HETATM   18  C   UNL     1     -12.044  10.518  70.592  1.00  0.00    -0.356 A  
HETATM   19  N   UNL     1     -13.025  10.714  71.445  1.00  0.00    -0.422 NA 
HETATM   20  C   UNL     1     -13.070  12.071  71.551  1.00  0.00    -0.261 A  
HETATM   21  N   UNL     1     -12.170  12.729  70.813  1.00  0.00    -0.334 NA 
ENDBRANCH  16  17
ENDBRANCH  13  16
ENDBRANCH   5   6
ENDBRANCH   4   5
ENDBRANCH   2   4
TORSDOF 5
ENDMDL
MODEL       87
REMARK 921   NORMALIZED FREE ENERGY PREDICTED BY IDOCK:   -4.58 KCAL/MOL
REMARK 922        TOTAL FREE ENERGY PREDICTED BY IDOCK:   -6.38 KCAL/MOL
REMARK 923 INTER-LIGAND FREE ENERGY PREDICTED BY IDOCK:   -5.76 KCAL/MOL
REMARK 924 INTRA-LIGAND FREE ENERGY PREDICTED BY IDOCK:   -0.62 KCAL/MOL
REMARK 927      BINDING AFFINITY PREDICTED BY RF-SCORE:    0.00 PKD
ROOT
HETATM    1  C   UNL     1     -10.493  16.768  66.928  1.00  0.00    -0.269 C  
HETATM    2  N   UNL     1     -10.787  15.330  66.936  1.00  0.00    -0.315 NA 
HETATM    3  C   UNL     1     -11.598  15.002  68.111  1.00  0.00    -0.340 C  
ENDROOT
BRANCH   2   4
HETATM    4  C   UNL     1     -11.455  14.958  65.671  1.00  0.00    -0.290 C  
BRANCH   4   5
HETATM    5  C   UNL     1     -12.254  13.646  65.734  1.00  0.00    -0.503 C  
BRANCH   5   6
HETATM    6  C   UNL     1     -11.713  12.584  64.819  1.00  0.00    -0.411 A  
HETATM    7  C   UNL     1     -12.157  12.304  63.541  1.00  0.00    -0.553 A  
HETATM    8  N   UNL     1     -11.360  11.330  63.010  1.00  0.00    -0.827 NA 
HETATM    9  C   UNL     1     -10.377  10.981  63.905  1.00  0.00    -0.372 A  
HETATM   10  H   UNL     1     -11.477  10.921  62.083  1.00  0.00     0.000 HD 
HETATM   11  C   UNL     1     -10.608  11.706  65.073  1.00  0.00    -0.342 A  
HETATM   12  C   UNL     1      -9.762  11.480  66.179  1.00  0.00    -0.249 A  
HETATM   13  C   UNL     1      -8.684  10.576  66.074  1.00  0.00    -0.174 A  
HETATM   14  C   UNL     1      -9.307  10.091  63.763  1.00  0.00    -0.307 A  
HETATM   15  C   UNL     1      -8.460   9.910  64.861  1.00  0.00    -0.168 A  
BRANCH  13  16
HETATM   16  C   UNL     1      -7.789  10.323  67.260  1.00  0.00    -0.103 C  
BRANCH  16  17
HETATM   17  N   UNL     1      -7.034  11.482  67.713  1.00  0.00    -0.074 NA 
HETATM   18  C   UNL     1      -6.960  12.058  68.943  1.00  0.00    -0.104 A  
HETATM   19  N   UNL     1      -6.137  13.082  68.908  1.00  0.00    -0.078 NA 
HETATM   20  C   UNL     1      -5.723  13.095  67.610  1.00  0.00    -0.102 A  
HETATM   21  N   UNL     1      -6.242  12.135  66.838  1.00  0.00    -0.179 NA 
ENDBRANCH  16  17
ENDBRANCH  13  16
ENDBRANCH   5   6
ENDBRANCH   4   5
ENDBRANCH   2   4
TORSDOF 5
ENDMDL
MODEL       88
REMARK 921   NORMALIZED FREE ENERGY PREDICTED BY IDOCK:   -4.57 KCAL/MOL
REMARK 922        TOTAL FREE ENERGY PREDICTED BY IDOCK:   -6.37 KCAL/MOL
REMARK 923 INTER-LIGAND FREE ENERGY PREDICTED BY IDOCK:   -5.91 KCAL/MOL
REMARK 924 INTRA-LIGAND FREE ENERGY PREDICTED BY IDOCK:   -0.45 KCAL/MOL
REMARK 927      BINDING AFFINITY PREDICTED BY RF-SCORE:    0.00 PKD
ROOT
HETATM    1  C   UNL     1      -7.024  11.053  67.644  1.00  0.00    -0.083 C  
HETATM    2  N   UNL     1      -8.080  10.045  67.496  1.00  0.00    -0.110 NA 
HETATM    3  C   UNL     1      -7.475   8.722  67.324  1.00  0.00    -0.089 C  
ENDROOT
BRANCH   2   4
HETATM    4  C   UNL     1      -8.982  10.103  68.666  1.00  0.00    -0.136 C  
BRANCH   4   5
HETATM    5  C   UNL     1     -10.477  10.175  68.315  1.00  0.00    -0.244 C  
BRANCH   5   6
HETATM    6  C   UNL     1     -10.830  11.376  67.484  1.00  0.00    -0.291 A  
HETATM    7  C   UNL     1     -11.116  11.378  66.133  1.00  0.00    -0.198 A  
HETATM    8  N   UNL     1     -11.466  12.648  65.767  1.00  0.00    -0.339 NA 
HETATM    9  C   UNL     1     -11.445  13.479  66.862  1.00  0.00    -0.344 A  
HETATM   10  H   UNL     1     -11.708  12.936  64.820  1.00  0.00     0.000 HD 
HETATM   11  C   UNL     1     -10.990  12.725  67.942  1.00  0.00    -0.262 A  
HETATM   12  C   UNL     1     -10.820  13.372  69.185  1.00  0.00    -0.156 A  
HETATM   13  C   UNL     1     -11.151  14.736  69.325  1.00  0.00    -0.283 A  
HETATM   14  C   UNL     1     -11.798  14.828  66.972  1.00  0.00    -0.290 A  
HETATM   15  C   UNL     1     -11.654  15.440  68.222  1.00  0.00    -0.361 A  
BRANCH  13  16
HETATM   16  C   UNL     1     -10.954  15.431  70.648  1.00  0.00    -0.319 C  
BRANCH  16  17
HETATM   17  N   UNL     1     -12.150  15.524  71.472  1.00  0.00    -0.351 NA 
HETATM   18  C   UNL     1     -13.408  15.052  71.254  1.00  0.00    -0.438 A  
HETATM   19  N   UNL     1     -14.179  15.347  72.277  1.00  0.00    -0.561 NA 
HETATM   20  C   UNL     1     -13.334  16.012  73.113  1.00  0.00    -0.533 A  
HETATM   21  N   UNL     1     -12.081  16.146  72.667  1.00  0.00    -0.525 NA 
ENDBRANCH  16  17
ENDBRANCH  13  16
ENDBRANCH   5   6
ENDBRANCH   4   5
ENDBRANCH   2   4
TORSDOF 5
ENDMDL
MODEL       89
REMARK 921   NORMALIZED FREE ENERGY PREDICTED BY IDOCK:   -4.56 KCAL/MOL
REMARK 922        TOTAL FREE ENERGY PREDICTED BY IDOCK:   -6.35 KCAL/MOL
REMARK 923 INTER-LIGAND FREE ENERGY PREDICTED BY IDOCK:   -5.97 KCAL/MOL
REMARK 924 INTRA-LIGAND FREE ENERGY PREDICTED BY IDOCK:   -0.38 KCAL/MOL
REMARK 927      BINDING AFFINITY PREDICTED BY RF-SCORE:    0.00 PKD
ROOT
HETATM    1  C   UNL     1      -8.546   6.408  67.530  1.00  0.00    -0.115 C  
HETATM    2  N   UNL     1      -9.679   7.173  68.062  1.00  0.00    -0.137 NA 
HETATM    3  C   UNL     1     -10.728   7.267  67.044  1.00  0.00    -0.336 C  
ENDROOT
BRANCH   2   4
HETATM    4  C   UNL     1     -10.160   6.538  69.307  1.00  0.00    -0.168 C  
BRANCH   4   5
HETATM    5  C   UNL     1      -9.747   7.269  70.595  1.00  0.00    -0.175 C  
BRANCH   5   6
HETATM    6  C   UNL     1     -10.891   7.978  71.261  1.00  0.00    -0.267 A  
HETATM    7  C   UNL     1     -11.534   7.583  72.418  1.00  0.00    -0.315 A  
HETATM    8  N   UNL     1     -12.462   8.532  72.743  1.00  0.00    -0.563 NA 
HETATM    9  C   UNL     1     -12.422   9.564  71.836  1.00  0.00    -0.384 A  
HETATM   10  H   UNL     1     -13.091   8.482  73.543  1.00  0.00     0.000 HD 
HETATM   11  C   UNL     1     -11.490   9.217  70.860  1.00  0.00    -0.367 A  
HETATM   12  C   UNL     1     -11.305  10.095  69.770  1.00  0.00    -0.312 A  
HETATM   13  C   UNL     1     -12.019  11.310  69.709  1.00  0.00    -0.431 A  
HETATM   14  C   UNL     1     -13.133  10.769  71.814  1.00  0.00    -0.573 A  
HETATM   15  C   UNL     1     -12.907  11.640  70.742  1.00  0.00    -0.197 A  
BRANCH  13  16
HETATM   16  C   UNL     1     -11.834  12.240  68.537  1.00  0.00    -0.307 C  
BRANCH  16  17
HETATM   17  N   UNL     1     -11.327  13.560  68.881  1.00  0.00    -0.271 NA 
HETATM   18  C   UNL     1     -11.940  14.606  69.498  1.00  0.00    -0.319 A  
HETATM   19  N   UNL     1     -11.098  15.606  69.626  1.00  0.00    -0.272 NA 
HETATM   20  C   UNL     1      -9.958  15.118  69.062  1.00  0.00    -0.239 A  
HETATM   21  N   UNL     1     -10.045  13.870  68.593  1.00  0.00    -0.225 NA 
ENDBRANCH  16  17
ENDBRANCH  13  16
ENDBRANCH   5   6
ENDBRANCH   4   5
ENDBRANCH   2   4
TORSDOF 5
ENDMDL
MODEL       90
REMARK 921   NORMALIZED FREE ENERGY PREDICTED BY IDOCK:   -4.55 KCAL/MOL
REMARK 922        TOTAL FREE ENERGY PREDICTED BY IDOCK:   -6.35 KCAL/MOL
REMARK 923 INTER-LIGAND FREE ENERGY PREDICTED BY IDOCK:   -5.89 KCAL/MOL
REMARK 924 INTRA-LIGAND FREE ENERGY PREDICTED BY IDOCK:   -0.46 KCAL/MOL
REMARK 927      BINDING AFFINITY PREDICTED BY RF-SCORE:    0.00 PKD
ROOT
HETATM    1  C   UNL     1      -9.195   5.387  66.412  1.00  0.00    -0.147 C  
HETATM    2  N   UNL     1     -10.412   5.645  67.190  1.00  0.00    -0.248 NA 
HETATM    3  C   UNL     1     -10.191   5.268  68.588  1.00  0.00    -0.153 C  
ENDROOT
BRANCH   2   4
HETATM    4  C   UNL     1     -10.796   7.065  67.045  1.00  0.00    -0.343 C  
BRANCH   4   5
HETATM    5  C   UNL     1      -9.629   8.009  66.705  1.00  0.00    -0.297 C  
BRANCH   5   6
HETATM    6  C   UNL     1     -10.069   9.425  66.468  1.00  0.00    -0.332 A  
HETATM    7  C   UNL     1     -10.011  10.108  65.268  1.00  0.00    -0.311 A  
HETATM    8  N   UNL     1     -10.579  11.339  65.443  1.00  0.00    -0.266 NA 
HETATM    9  C   UNL     1     -11.037  11.470  66.732  1.00  0.00    -0.302 A  
HETATM   10  H   UNL     1     -10.651  12.055  64.722  1.00  0.00     0.000 HD 
HETATM   11  C   UNL     1     -10.678  10.311  67.417  1.00  0.00    -0.339 A  
HETATM   12  C   UNL     1     -10.985  10.223  68.791  1.00  0.00    -0.285 A  
HETATM   13  C   UNL     1     -11.681  11.271  69.430  1.00  0.00    -0.409 A  
HETATM   14  C   UNL     1     -11.743  12.519  67.332  1.00  0.00    -0.432 A  
HETATM   15  C   UNL     1     -12.068  12.395  68.687  1.00  0.00    -0.139 A  
BRANCH  13  16
HETATM   16  C   UNL     1     -11.995  11.185  70.902  1.00  0.00    -0.257 C  
BRANCH  16  17
HETATM   17  N   UNL     1     -12.419   9.870  71.359  1.00  0.00    -0.367 NA 
HETATM   18  C   UNL     1     -13.624   9.247  71.251  1.00  0.00    -0.225 A  
HETATM   19  N   UNL     1     -13.558   8.051  71.790  1.00  0.00    -0.350 NA 
HETATM   20  C   UNL     1     -12.268   7.982  72.223  1.00  0.00    -0.318 A  
HETATM   21  N   UNL     1     -11.529   9.070  71.982  1.00  0.00    -0.367 NA 
ENDBRANCH  16  17
ENDBRANCH  13  16
ENDBRANCH   5   6
ENDBRANCH   4   5
ENDBRANCH   2   4
TORSDOF 5
ENDMDL
MODEL       91
REMARK 921   NORMALIZED FREE ENERGY PREDICTED BY IDOCK:   -4.55 KCAL/MOL
REMARK 922        TOTAL FREE ENERGY PREDICTED BY IDOCK:   -6.34 KCAL/MOL
REMARK 923 INTER-LIGAND FREE ENERGY PREDICTED BY IDOCK:   -5.91 KCAL/MOL
REMARK 924 INTRA-LIGAND FREE ENERGY PREDICTED BY IDOCK:   -0.43 KCAL/MOL
REMARK 927      BINDING AFFINITY PREDICTED BY RF-SCORE:    0.00 PKD
ROOT
HETATM    1  C   UNL     1     -10.451   3.857  64.590  1.00  0.00    -0.182 C  
HETATM    2  N   UNL     1      -9.510   3.810  65.715  1.00  0.00    -0.167 NA 
HETATM    3  C   UNL     1      -8.186   4.248  65.266  1.00  0.00    -0.106 C  
ENDROOT
BRANCH   2   4
HETATM    4  C   UNL     1     -10.029   4.638  66.825  1.00  0.00    -0.225 C  
BRANCH   4   5
HETATM    5  C   UNL     1     -10.390   6.079  66.430  1.00  0.00    -0.134 C  
BRANCH   5   6
HETATM    6  C   UNL     1     -10.662   6.963  67.614  1.00  0.00    -0.344 A  
HETATM    7  C   UNL     1     -11.030   6.544  68.878  1.00  0.00    -0.314 A  
HETATM    8  N   UNL     1     -11.103   7.639  69.692  1.00  0.00    -0.435 NA 
HETATM    9  C   UNL     1     -10.760   8.773  68.994  1.00  0.00    -0.112 A  
HETATM   10  H   UNL     1     -11.372   7.618  70.675  1.00  0.00     0.000 HD 
HETATM   11  C   UNL     1     -10.537   8.390  67.672  1.00  0.00    -0.265 A  
HETATM   12  C   UNL     1     -10.226   9.393  66.730  1.00  0.00    -0.320 A  
HETATM   13  C   UNL     1     -10.100  10.737  67.139  1.00  0.00    -0.243 A  
HETATM   14  C   UNL     1     -10.625  10.093  69.436  1.00  0.00    -0.261 A  
HETATM   15  C   UNL     1     -10.281  11.065  68.490  1.00  0.00    -0.203 A  
BRANCH  13  16
HETATM   16  C   UNL     1      -9.783  11.811  66.130  1.00  0.00    -0.229 C  
BRANCH  16  17
HETATM   17  N   UNL     1     -10.915  12.242  65.323  1.00  0.00    -0.297 NA 
HETATM   18  C   UNL     1     -12.047  12.907  65.679  1.00  0.00    -0.458 A  
HETATM   19  N   UNL     1     -12.798  13.111  64.620  1.00  0.00    -0.720 NA 
HETATM   20  C   UNL     1     -12.071  12.543  63.618  1.00  0.00    -0.554 A  
HETATM   21  N   UNL     1     -10.910  11.999  63.996  1.00  0.00    -0.340 NA 
ENDBRANCH  16  17
ENDBRANCH  13  16
ENDBRANCH   5   6
ENDBRANCH   4   5
ENDBRANCH   2   4
TORSDOF 5
ENDMDL
MODEL       92
REMARK 921   NORMALIZED FREE ENERGY PREDICTED BY IDOCK:   -4.53 KCAL/MOL
REMARK 922        TOTAL FREE ENERGY PREDICTED BY IDOCK:   -6.32 KCAL/MOL
REMARK 923 INTER-LIGAND FREE ENERGY PREDICTED BY IDOCK:   -5.76 KCAL/MOL
REMARK 924 INTRA-LIGAND FREE ENERGY PREDICTED BY IDOCK:   -0.56 KCAL/MOL
REMARK 927      BINDING AFFINITY PREDICTED BY RF-SCORE:    0.00 PKD
ROOT
HETATM    1  C   UNL     1     -12.207  11.708  69.987  1.00  0.00    -0.263 C  
HETATM    2  N   UNL     1     -11.067  10.991  69.405  1.00  0.00    -0.244 NA 
HETATM    3  C   UNL     1     -10.713   9.855  70.259  1.00  0.00    -0.310 C  
ENDROOT
BRANCH   2   4
HETATM    4  C   UNL     1     -11.401  10.576  68.026  1.00  0.00    -0.246 C  
BRANCH   4   5
HETATM    5  C   UNL     1     -11.154  11.655  66.958  1.00  0.00    -0.359 C  
BRANCH   5   6
HETATM    6  C   UNL     1      -9.778  12.253  67.034  1.00  0.00    -0.207 A  
HETATM    7  C   UNL     1      -8.601  11.644  66.643  1.00  0.00    -0.179 A  
HETATM    8  N   UNL     1      -7.581  12.541  66.792  1.00  0.00    -0.381 NA 
HETATM    9  C   UNL     1      -8.068  13.744  67.247  1.00  0.00    -0.139 A  
HETATM   10  H   UNL     1      -6.600  12.347  66.595  1.00  0.00     0.000 HD 
HETATM   11  C   UNL     1      -9.435  13.576  67.466  1.00  0.00    -0.222 A  
HETATM   12  C   UNL     1     -10.164  14.661  67.998  1.00  0.00    -0.231 A  
HETATM   13  C   UNL     1      -9.522  15.891  68.251  1.00  0.00    -0.201 A  
HETATM   14  C   UNL     1      -7.406  14.955  67.471  1.00  0.00    -0.229 A  
HETATM   15  C   UNL     1      -8.157  16.027  67.965  1.00  0.00    -0.148 A  
BRANCH  13  16
HETATM   16  C   UNL     1     -10.298  17.045  68.834  1.00  0.00    -0.337 C  
BRANCH  16  17
HETATM   17  N   UNL     1     -10.223  18.279  68.066  1.00  0.00    -0.366 NA 
HETATM   18  C   UNL     1     -10.499  18.518  66.755  1.00  0.00    -0.394 A  
HETATM   19  N   UNL     1     -10.314  19.791  66.485  1.00  0.00    -0.472 NA 
HETATM   20  C   UNL     1      -9.918  20.302  67.683  1.00  0.00    -0.410 A  
HETATM   21  N   UNL     1      -9.848  19.419  68.683  1.00  0.00    -0.421 NA 
ENDBRANCH  16  17
ENDBRANCH  13  16
ENDBRANCH   5   6
ENDBRANCH   4   5
ENDBRANCH   2   4
TORSDOF 5
ENDMDL
MODEL       93
REMARK 921   NORMALIZED FREE ENERGY PREDICTED BY IDOCK:   -4.53 KCAL/MOL
REMARK 922        TOTAL FREE ENERGY PREDICTED BY IDOCK:   -6.31 KCAL/MOL
REMARK 923 INTER-LIGAND FREE ENERGY PREDICTED BY IDOCK:   -5.93 KCAL/MOL
REMARK 924 INTRA-LIGAND FREE ENERGY PREDICTED BY IDOCK:   -0.39 KCAL/MOL
REMARK 927      BINDING AFFINITY PREDICTED BY RF-SCORE:    0.00 PKD
ROOT
HETATM    1  C   UNL     1     -11.501  16.115  71.026  1.00  0.00    -0.382 C  
HETATM    2  N   UNL     1     -11.981  15.005  71.857  1.00  0.00    -0.365 NA 
HETATM    3  C   UNL     1     -12.601  15.536  73.074  1.00  0.00    -0.448 C  
ENDROOT
BRANCH   2   4
HETATM    4  C   UNL     1     -12.911  14.168  71.071  1.00  0.00    -0.329 C  
BRANCH   4   5
HETATM    5  C   UNL     1     -12.912  12.680  71.458  1.00  0.00    -0.380 C  
BRANCH   5   6
HETATM    6  C   UNL     1     -12.209  11.811  70.454  1.00  0.00    -0.416 A  
HETATM    7  C   UNL     1     -11.720  12.213  69.226  1.00  0.00    -0.328 A  
HETATM    8  N   UNL     1     -11.079  11.154  68.648  1.00  0.00    -0.217 NA 
HETATM    9  C   UNL     1     -11.111  10.065  69.486  1.00  0.00    -0.238 A  
HETATM   10  H   UNL     1     -10.641  11.169  67.728  1.00  0.00     0.000 HD 
HETATM   11  C   UNL     1     -11.866  10.427  70.601  1.00  0.00    -0.445 A  
HETATM   12  C   UNL     1     -12.101   9.452  71.594  1.00  0.00    -0.462 A  
HETATM   13  C   UNL     1     -11.540   8.163  71.469  1.00  0.00    -0.315 A  
HETATM   14  C   UNL     1     -10.527   8.802  69.341  1.00  0.00    -0.228 A  
HETATM   15  C   UNL     1     -10.744   7.863  70.355  1.00  0.00    -0.233 A  
BRANCH  13  16
HETATM   16  C   UNL     1     -11.804   7.117  72.522  1.00  0.00    -0.126 C  
BRANCH  16  17
HETATM   17  N   UNL     1     -10.616   6.622  73.201  1.00  0.00    -0.253 NA 
HETATM   18  C   UNL     1     -10.251   5.351  73.523  1.00  0.00    -0.205 A  
HETATM   19  N   UNL     1      -9.080   5.361  74.119  1.00  0.00    -0.118 NA 
HETATM   20  C   UNL     1      -8.759   6.684  74.140  1.00  0.00    -0.149 A  
HETATM   21  N   UNL     1      -9.665   7.497  73.588  1.00  0.00    -0.289 NA 
ENDBRANCH  16  17
ENDBRANCH  13  16
ENDBRANCH   5   6
ENDBRANCH   4   5
ENDBRANCH   2   4
TORSDOF 5
ENDMDL
MODEL       94
REMARK 921   NORMALIZED FREE ENERGY PREDICTED BY IDOCK:   -4.53 KCAL/MOL
REMARK 922        TOTAL FREE ENERGY PREDICTED BY IDOCK:   -6.31 KCAL/MOL
REMARK 923 INTER-LIGAND FREE ENERGY PREDICTED BY IDOCK:   -5.86 KCAL/MOL
REMARK 924 INTRA-LIGAND FREE ENERGY PREDICTED BY IDOCK:   -0.45 KCAL/MOL
REMARK 927      BINDING AFFINITY PREDICTED BY RF-SCORE:    0.00 PKD
ROOT
HETATM    1  C   UNL     1     -12.013   6.830  71.864  1.00  0.00    -0.333 C  
HETATM    2  N   UNL     1     -10.751   7.379  72.375  1.00  0.00    -0.236 NA 
HETATM    3  C   UNL     1      -9.629   6.589  71.862  1.00  0.00    -0.150 C  
ENDROOT
BRANCH   2   4
HETATM    4  C   UNL     1     -10.650   8.806  72.005  1.00  0.00    -0.344 C  
BRANCH   4   5
HETATM    5  C   UNL     1     -11.699   9.274  70.982  1.00  0.00    -0.378 C  
BRANCH   5   6
HETATM    6  C   UNL     1     -11.104   9.615  69.645  1.00  0.00    -0.223 A  
HETATM    7  C   UNL     1     -10.442   8.745  68.800  1.00  0.00    -0.191 A  
HETATM    8  N   UNL     1     -10.127   9.414  67.651  1.00  0.00    -0.197 NA 
HETATM    9  C   UNL     1     -10.595  10.705  67.710  1.00  0.00    -0.236 A  
HETATM   10  H   UNL     1      -9.618   9.013  66.864  1.00  0.00     0.000 HD 
HETATM   11  C   UNL     1     -11.159  10.880  68.972  1.00  0.00    -0.302 A  
HETATM   12  C   UNL     1     -11.664  12.154  69.308  1.00  0.00    -0.386 A  
HETATM   13  C   UNL     1     -11.634  13.200  68.362  1.00  0.00    -0.372 A  
HETATM   14  C   UNL     1     -10.567  11.716  66.744  1.00  0.00    -0.280 A  
HETATM   15  C   UNL     1     -11.105  12.961  67.087  1.00  0.00    -0.309 A  
BRANCH  13  16
HETATM   16  C   UNL     1     -12.159  14.566  68.726  1.00  0.00    -0.221 C  
BRANCH  16  17
HETATM   17  N   UNL     1     -12.156  14.861  70.151  1.00  0.00    -0.307 NA 
HETATM   18  C   UNL     1     -11.120  15.114  70.996  1.00  0.00    -0.238 A  
HETATM   19  N   UNL     1     -11.577  15.349  72.205  1.00  0.00    -0.449 NA 
HETATM   20  C   UNL     1     -12.925  15.228  72.050  1.00  0.00    -0.370 A  
HETATM   21  N   UNL     1     -13.331  14.932  70.811  1.00  0.00    -0.340 NA 
ENDBRANCH  16  17
ENDBRANCH  13  16
ENDBRANCH   5   6
ENDBRANCH   4   5
ENDBRANCH   2   4
TORSDOF 5
ENDMDL
MODEL       95
REMARK 921   NORMALIZED FREE ENERGY PREDICTED BY IDOCK:   -4.53 KCAL/MOL
REMARK 922        TOTAL FREE ENERGY PREDICTED BY IDOCK:   -6.31 KCAL/MOL
REMARK 923 INTER-LIGAND FREE ENERGY PREDICTED BY IDOCK:   -6.51 KCAL/MOL
REMARK 924 INTRA-LIGAND FREE ENERGY PREDICTED BY IDOCK:    0.20 KCAL/MOL
REMARK 927      BINDING AFFINITY PREDICTED BY RF-SCORE:    0.00 PKD
ROOT
HETATM    1  C   UNL     1      -9.362  15.359  69.543  1.00  0.00    -0.252 C  
HETATM    2  N   UNL     1     -10.045  15.816  68.327  1.00  0.00    -0.220 NA 
HETATM    3  C   UNL     1      -9.315  15.344  67.148  1.00  0.00    -0.214 C  
ENDROOT
BRANCH   2   4
HETATM    4  C   UNL     1     -11.447  15.346  68.345  1.00  0.00    -0.355 C  
BRANCH   4   5
HETATM    5  C   UNL     1     -11.807  14.370  67.213  1.00  0.00    -0.434 C  
BRANCH   5   6
HETATM    6  C   UNL     1     -11.665  12.929  67.612  1.00  0.00    -0.422 A  
HETATM    7  C   UNL     1     -11.116  11.920  66.844  1.00  0.00    -0.305 A  
HETATM    8  N   UNL     1     -11.094  10.774  67.589  1.00  0.00    -0.305 NA 
HETATM    9  C   UNL     1     -11.593  11.016  68.847  1.00  0.00    -0.314 A  
HETATM   10  H   UNL     1     -10.756   9.871  67.259  1.00  0.00     0.000 HD 
HETATM   11  C   UNL     1     -12.016  12.344  68.872  1.00  0.00    -0.289 A  
HETATM   12  C   UNL     1     -12.629  12.827  70.048  1.00  0.00     0.073 A  
HETATM   13  C   UNL     1     -12.760  11.989  71.175  1.00  0.00    -0.365 A  
HETATM   14  C   UNL     1     -11.692  10.165  69.953  1.00  0.00    -0.248 A  
HETATM   15  C   UNL     1     -12.271  10.677  71.119  1.00  0.00    -0.479 A  
BRANCH  13  16
HETATM   16  C   UNL     1     -13.429  12.500  72.426  1.00  0.00    -0.267 C  
BRANCH  16  17
HETATM   17  N   UNL     1     -13.335  13.939  72.623  1.00  0.00    -0.545 NA 
HETATM   18  C   UNL     1     -12.640  14.658  73.546  1.00  0.00    -0.332 A  
HETATM   19  N   UNL     1     -12.827  15.943  73.345  1.00  0.00    -0.527 NA 
HETATM   20  C   UNL     1     -13.659  15.965  72.267  1.00  0.00    -0.286 A  
HETATM   21  N   UNL     1     -13.998  14.764  71.786  1.00  0.00    -0.430 NA 
ENDBRANCH  16  17
ENDBRANCH  13  16
ENDBRANCH   5   6
ENDBRANCH   4   5
ENDBRANCH   2   4
TORSDOF 5
ENDMDL
MODEL       96
REMARK 921   NORMALIZED FREE ENERGY PREDICTED BY IDOCK:   -4.52 KCAL/MOL
REMARK 922        TOTAL FREE ENERGY PREDICTED BY IDOCK:   -6.30 KCAL/MOL
REMARK 923 INTER-LIGAND FREE ENERGY PREDICTED BY IDOCK:   -5.67 KCAL/MOL
REMARK 924 INTRA-LIGAND FREE ENERGY PREDICTED BY IDOCK:   -0.63 KCAL/MOL
REMARK 927      BINDING AFFINITY PREDICTED BY RF-SCORE:    0.00 PKD
ROOT
HETATM    1  C   UNL     1      -7.138   7.977  68.667  1.00  0.00    -0.072 C  
HETATM    2  N   UNL     1      -7.398   6.994  67.609  1.00  0.00    -0.094 NA 
HETATM    3  C   UNL     1      -8.387   6.019  68.078  1.00  0.00    -0.116 C  
ENDROOT
BRANCH   2   4
HETATM    4  C   UNL     1      -7.837   7.694  66.384  1.00  0.00    -0.094 C  
BRANCH   4   5
HETATM    5  C   UNL     1      -9.362   7.804  66.224  1.00  0.00    -0.210 C  
BRANCH   5   6
HETATM    6  C   UNL     1      -9.861   9.219  66.297  1.00  0.00    -0.361 A  
HETATM    7  C   UNL     1      -9.911  10.122  65.253  1.00  0.00    -0.319 A  
HETATM    8  N   UNL     1     -10.502  11.270  65.702  1.00  0.00    -0.259 NA 
HETATM    9  C   UNL     1     -10.871  11.130  67.018  1.00  0.00    -0.284 A  
HETATM   10  H   UNL     1     -10.648  12.108  65.141  1.00  0.00     0.000 HD 
HETATM   11  C   UNL     1     -10.428   9.877  67.438  1.00  0.00    -0.325 A  
HETATM   12  C   UNL     1     -10.633   9.513  68.786  1.00  0.00    -0.240 A  
HETATM   13  C   UNL     1     -11.313  10.386  69.661  1.00  0.00    -0.333 A  
HETATM   14  C   UNL     1     -11.563  12.011  67.856  1.00  0.00    -0.405 A  
HETATM   15  C   UNL     1     -11.787  11.613  69.178  1.00  0.00    -0.390 A  
BRANCH  13  16
HETATM   16  C   UNL     1     -11.519  10.004  71.105  1.00  0.00    -0.354 C  
BRANCH  16  17
HETATM   17  N   UNL     1     -12.480   8.933  71.321  1.00  0.00    -0.297 NA 
HETATM   18  C   UNL     1     -12.300   7.585  71.373  1.00  0.00    -0.345 A  
HETATM   19  N   UNL     1     -13.447   6.990  71.610  1.00  0.00    -0.334 NA 
HETATM   20  C   UNL     1     -14.319   8.033  71.699  1.00  0.00    -0.473 A  
HETATM   21  N   UNL     1     -13.776   9.243  71.531  1.00  0.00    -0.362 NA 
ENDBRANCH  16  17
ENDBRANCH  13  16
ENDBRANCH   5   6
ENDBRANCH   4   5
ENDBRANCH   2   4
TORSDOF 5
ENDMDL
MODEL       97
REMARK 921   NORMALIZED FREE ENERGY PREDICTED BY IDOCK:   -4.51 KCAL/MOL
REMARK 922        TOTAL FREE ENERGY PREDICTED BY IDOCK:   -6.29 KCAL/MOL
REMARK 923 INTER-LIGAND FREE ENERGY PREDICTED BY IDOCK:   -5.77 KCAL/MOL
REMARK 924 INTRA-LIGAND FREE ENERGY PREDICTED BY IDOCK:   -0.51 KCAL/MOL
REMARK 927      BINDING AFFINITY PREDICTED BY RF-SCORE:    0.00 PKD
ROOT
HETATM    1  C   UNL     1     -12.426  15.354  73.982  1.00  0.00    -0.642 C  
HETATM    2  N   UNL     1     -12.318  14.668  72.690  1.00  0.00    -0.275 NA 
HETATM    3  C   UNL     1     -13.461  13.768  72.515  1.00  0.00    -0.578 C  
ENDROOT
BRANCH   2   4
HETATM    4  C   UNL     1     -12.220  15.669  71.607  1.00  0.00    -0.426 C  
BRANCH   4   5
HETATM    5  C   UNL     1     -12.729  15.182  70.240  1.00  0.00    -0.340 C  
BRANCH   5   6
HETATM    6  C   UNL     1     -11.745  15.414  69.129  1.00  0.00    -0.364 A  
HETATM    7  C   UNL     1     -11.223  16.633  68.743  1.00  0.00    -0.217 A  
HETATM    8  N   UNL     1     -10.304  16.416  67.755  1.00  0.00    -0.279 NA 
HETATM    9  C   UNL     1     -10.189  15.070  67.502  1.00  0.00    -0.234 A  
HETATM   10  H   UNL     1      -9.780  17.147  67.275  1.00  0.00     0.000 HD 
HETATM   11  C   UNL     1     -11.124  14.419  68.304  1.00  0.00    -0.275 A  
HETATM   12  C   UNL     1     -11.248  13.019  68.185  1.00  0.00    -0.305 A  
HETATM   13  C   UNL     1     -10.407  12.305  67.306  1.00  0.00    -0.228 A  
HETATM   14  C   UNL     1      -9.328  14.390  66.634  1.00  0.00    -0.297 A  
HETATM   15  C   UNL     1      -9.445  12.998  66.558  1.00  0.00    -0.246 A  
BRANCH  13  16
HETATM   16  C   UNL     1     -10.550  10.810  67.167  1.00  0.00    -0.256 C  
BRANCH  16  17
HETATM   17  N   UNL     1     -10.102  10.045  68.321  1.00  0.00    -0.153 NA 
HETATM   18  C   UNL     1     -10.746   9.094  69.050  1.00  0.00    -0.153 A  
HETATM   19  N   UNL     1      -9.955   8.648  70.000  1.00  0.00    -0.182 NA 
HETATM   20  C   UNL     1      -8.815   9.369  69.811  1.00  0.00    -0.183 A  
HETATM   21  N   UNL     1      -8.853  10.236  68.795  1.00  0.00    -0.140 NA 
ENDBRANCH  16  17
ENDBRANCH  13  16
ENDBRANCH   5   6
ENDBRANCH   4   5
ENDBRANCH   2   4
TORSDOF 5
ENDMDL
MODEL       98
REMARK 921   NORMALIZED FREE ENERGY PREDICTED BY IDOCK:   -4.50 KCAL/MOL
REMARK 922        TOTAL FREE ENERGY PREDICTED BY IDOCK:   -6.27 KCAL/MOL
REMARK 923 INTER-LIGAND FREE ENERGY PREDICTED BY IDOCK:   -6.03 KCAL/MOL
REMARK 924 INTRA-LIGAND FREE ENERGY PREDICTED BY IDOCK:   -0.24 KCAL/MOL
REMARK 927      BINDING AFFINITY PREDICTED BY RF-SCORE:    0.00 PKD
ROOT
HETATM    1  C   UNL     1     -12.683  13.899  65.374  1.00  0.00    -0.490 C  
HETATM    2  N   UNL     1     -12.369  12.524  64.972  1.00  0.00    -0.530 NA 
HETATM    3  C   UNL     1     -12.257  12.453  63.513  1.00  0.00    -0.563 C  
ENDROOT
BRANCH   2   4
HETATM    4  C   UNL     1     -11.133  12.083  65.653  1.00  0.00    -0.313 C  
BRANCH   4   5
HETATM    5  C   UNL     1     -11.291  11.835  67.162  1.00  0.00    -0.387 C  
BRANCH   5   6
HETATM    6  C   UNL     1     -10.019  11.383  67.820  1.00  0.00    -0.192 A  
HETATM    7  C   UNL     1      -8.776  11.970  67.682  1.00  0.00    -0.166 A  
HETATM    8  N   UNL     1      -7.897  11.318  68.502  1.00  0.00    -0.131 NA 
HETATM    9  C   UNL     1      -8.546  10.329  69.202  1.00  0.00    -0.164 A  
HETATM   10  H   UNL     1      -6.904  11.535  68.582  1.00  0.00     0.000 HD 
HETATM   11  C   UNL     1      -9.865  10.304  68.752  1.00  0.00    -0.184 A  
HETATM   12  C   UNL     1     -10.732   9.324  69.279  1.00  0.00    -0.211 A  
HETATM   13  C   UNL     1     -10.274   8.430  70.270  1.00  0.00    -0.204 A  
HETATM   14  C   UNL     1      -8.066   9.469  70.196  1.00  0.00    -0.186 A  
HETATM   15  C   UNL     1      -8.954   8.529  70.729  1.00  0.00    -0.193 A  
BRANCH  13  16
HETATM   16  C   UNL     1     -11.197   7.373  70.822  1.00  0.00    -0.271 C  
BRANCH  16  17
HETATM   17  N   UNL     1     -12.388   7.887  71.480  1.00  0.00    -0.308 NA 
HETATM   18  C   UNL     1     -12.620   9.094  72.063  1.00  0.00    -0.390 A  
HETATM   19  N   UNL     1     -13.851   9.139  72.521  1.00  0.00    -0.467 NA 
HETATM   20  C   UNL     1     -14.345   7.914  72.189  1.00  0.00    -0.307 A  
HETATM   21  N   UNL     1     -13.490   7.111  71.549  1.00  0.00    -0.372 NA 
ENDBRANCH  16  17
ENDBRANCH  13  16
ENDBRANCH   5   6
ENDBRANCH   4   5
ENDBRANCH   2   4
TORSDOF 5
ENDMDL
MODEL       99
REMARK 921   NORMALIZED FREE ENERGY PREDICTED BY IDOCK:   -4.48 KCAL/MOL
REMARK 922        TOTAL FREE ENERGY PREDICTED BY IDOCK:   -6.25 KCAL/MOL
REMARK 923 INTER-LIGAND FREE ENERGY PREDICTED BY IDOCK:   -5.80 KCAL/MOL
REMARK 924 INTRA-LIGAND FREE ENERGY PREDICTED BY IDOCK:   -0.45 KCAL/MOL
REMARK 927      BINDING AFFINITY PREDICTED BY RF-SCORE:    0.00 PKD
ROOT
HETATM    1  C   UNL     1     -11.543  16.113  71.337  1.00  0.00    -0.431 C  
HETATM    2  N   UNL     1     -11.970  14.793  71.816  1.00  0.00    -0.356 NA 
HETATM    3  C   UNL     1     -12.804  14.951  73.010  1.00  0.00    -0.486 C  
ENDROOT
BRANCH   2   4
HETATM    4  C   UNL     1     -12.674  14.080  70.728  1.00  0.00    -0.326 C  
BRANCH   4   5
HETATM    5  C   UNL     1     -11.962  12.809  70.235  1.00  0.00    -0.358 C  
BRANCH   5   6
HETATM    6  C   UNL     1     -12.381  11.574  70.980  1.00  0.00    -0.434 A  
HETATM    7  C   UNL     1     -13.391  11.490  71.919  1.00  0.00    -0.303 A  
HETATM    8  N   UNL     1     -13.517  10.185  72.303  1.00  0.00    -0.587 NA 
HETATM    9  C   UNL     1     -12.626   9.399  71.612  1.00  0.00    -0.375 A  
HETATM   10  H   UNL     1     -14.177   9.844  73.001  1.00  0.00     0.000 HD 
HETATM   11  C   UNL     1     -11.857  10.249  70.819  1.00  0.00    -0.459 A  
HETATM   12  C   UNL     1     -10.818   9.686  70.048  1.00  0.00    -0.302 A  
HETATM   13  C   UNL     1     -10.605   8.292  70.055  1.00  0.00    -0.235 A  
HETATM   14  C   UNL     1     -12.453   8.011  71.627  1.00  0.00    -0.347 A  
HETATM   15  C   UNL     1     -11.439   7.472  70.828  1.00  0.00    -0.305 A  
BRANCH  13  16
HETATM   16  C   UNL     1      -9.485   7.692  69.244  1.00  0.00    -0.158 C  
BRANCH  16  17
HETATM   17  N   UNL     1      -8.157   7.876  69.810  1.00  0.00    -0.114 NA 
HETATM   18  C   UNL     1      -7.013   8.340  69.239  1.00  0.00    -0.058 A  
HETATM   19  N   UNL     1      -6.045   8.358  70.127  1.00  0.00    -0.031 NA 
HETATM   20  C   UNL     1      -6.654   7.888  71.251  1.00  0.00    -0.041 A  
HETATM   21  N   UNL     1      -7.947   7.580  71.110  1.00  0.00    -0.094 NA 
ENDBRANCH  16  17
ENDBRANCH  13  16
ENDBRANCH   5   6
ENDBRANCH   4   5
ENDBRANCH   2   4
TORSDOF 5
ENDMDL
MODEL      100
REMARK 921   NORMALIZED FREE ENERGY PREDICTED BY IDOCK:   -4.48 KCAL/MOL
REMARK 922        TOTAL FREE ENERGY PREDICTED BY IDOCK:   -6.24 KCAL/MOL
REMARK 923 INTER-LIGAND FREE ENERGY PREDICTED BY IDOCK:   -5.94 KCAL/MOL
REMARK 924 INTRA-LIGAND FREE ENERGY PREDICTED BY IDOCK:   -0.30 KCAL/MOL
REMARK 927      BINDING AFFINITY PREDICTED BY RF-SCORE:    0.00 PKD
ROOT
HETATM    1  C   UNL     1     -10.488  17.038  67.409  1.00  0.00    -0.322 C  
HETATM    2  N   UNL     1     -10.656  16.050  66.337  1.00  0.00    -0.305 NA 
HETATM    3  C   UNL     1      -9.341  15.609  65.866  1.00  0.00    -0.321 C  
ENDROOT
BRANCH   2   4
HETATM    4  C   UNL     1     -11.483  14.928  66.828  1.00  0.00    -0.301 C  
BRANCH   4   5
HETATM    5  C   UNL     1     -10.711  13.876  67.642  1.00  0.00    -0.255 C  
BRANCH   5   6
HETATM    6  C   UNL     1     -11.406  13.494  68.918  1.00  0.00    -0.332 A  
HETATM    7  C   UNL     1     -12.104  14.345  69.753  1.00  0.00    -0.334 A  
HETATM    8  N   UNL     1     -12.655  13.604  70.761  1.00  0.00    -0.340 NA 
HETATM    9  C   UNL     1     -12.357  12.274  70.590  1.00  0.00    -0.286 A  
HETATM   10  H   UNL     1     -13.208  13.984  71.529  1.00  0.00     0.000 HD 
HETATM   11  C   UNL     1     -11.523  12.179  69.477  1.00  0.00    -0.334 A  
HETATM   12  C   UNL     1     -11.022  10.909  69.123  1.00  0.00    -0.290 A  
HETATM   13  C   UNL     1     -11.402   9.766  69.859  1.00  0.00    -0.238 A  
HETATM   14  C   UNL     1     -12.767  11.159  71.329  1.00  0.00    -0.531 A  
HETATM   15  C   UNL     1     -12.285   9.905  70.938  1.00  0.00    -0.420 A  
BRANCH  13  16
HETATM   16  C   UNL     1     -10.854   8.411  69.491  1.00  0.00    -0.117 C  
BRANCH  16  17
HETATM   17  N   UNL     1     -10.771   7.467  70.595  1.00  0.00    -0.225 NA 
HETATM   18  C   UNL     1      -9.767   7.238  71.484  1.00  0.00    -0.159 A  
HETATM   19  N   UNL     1     -10.127   6.301  72.333  1.00  0.00    -0.176 NA 
HETATM   20  C   UNL     1     -11.384   5.980  71.918  1.00  0.00    -0.279 A  
HETATM   21  N   UNL     1     -11.825   6.666  70.859  1.00  0.00    -0.377 NA 
ENDBRANCH  16  17
ENDBRANCH  13  16
ENDBRANCH   5   6
ENDBRANCH   4   5
ENDBRANCH   2   4
TORSDOF 5
ENDMDL
MODEL      101
REMARK 921   NORMALIZED FREE ENERGY PREDICTED BY IDOCK:   -4.46 KCAL/MOL
REMARK 922        TOTAL FREE ENERGY PREDICTED BY IDOCK:   -6.23 KCAL/MOL
REMARK 923 INTER-LIGAND FREE ENERGY PREDICTED BY IDOCK:   -5.74 KCAL/MOL
REMARK 924 INTRA-LIGAND FREE ENERGY PREDICTED BY IDOCK:   -0.49 KCAL/MOL
REMARK 927      BINDING AFFINITY PREDICTED BY RF-SCORE:    0.00 PKD
ROOT
HETATM    1  C   UNL     1      -9.504   5.021  70.009  1.00  0.00    -0.166 C  
HETATM    2  N   UNL     1     -10.782   5.613  70.423  1.00  0.00    -0.292 NA 
HETATM    3  C   UNL     1     -10.595   6.360  71.669  1.00  0.00    -0.222 C  
ENDROOT
BRANCH   2   4
HETATM    4  C   UNL     1     -11.308   6.461  69.333  1.00  0.00    -0.377 C  
BRANCH   4   5
HETATM    5  C   UNL     1     -10.717   7.880  69.288  1.00  0.00    -0.145 C  
BRANCH   5   6
HETATM    6  C   UNL     1     -10.228   8.270  67.922  1.00  0.00    -0.276 A  
HETATM    7  C   UNL     1      -9.503   7.474  67.056  1.00  0.00    -0.162 A  
HETATM    8  N   UNL     1      -9.323   8.159  65.887  1.00  0.00    -0.398 NA 
HETATM    9  C   UNL     1      -9.942   9.384  65.955  1.00  0.00    -0.281 A  
HETATM   10  H   UNL     1      -8.804   7.811  65.082  1.00  0.00     0.000 HD 
HETATM   11  C   UNL     1     -10.466   9.509  67.241  1.00  0.00    -0.328 A  
HETATM   12  C   UNL     1     -11.107  10.717  67.587  1.00  0.00    -0.384 A  
HETATM   13  C   UNL     1     -11.247  11.745  66.631  1.00  0.00    -0.383 A  
HETATM   14  C   UNL     1     -10.079  10.377  64.980  1.00  0.00    -0.379 A  
HETATM   15  C   UNL     1     -10.749  11.553  65.335  1.00  0.00    -0.335 A  
BRANCH  13  16
HETATM   16  C   UNL     1     -11.918  13.043  67.005  1.00  0.00    -0.347 C  
BRANCH  16  17
HETATM   17  N   UNL     1     -11.009  14.101  67.421  1.00  0.00    -0.293 NA 
HETATM   18  C   UNL     1     -10.385  15.063  66.689  1.00  0.00    -0.278 A  
HETATM   19  N   UNL     1      -9.665  15.828  67.478  1.00  0.00    -0.225 NA 
HETATM   20  C   UNL     1      -9.883  15.286  68.709  1.00  0.00    -0.217 A  
HETATM   21  N   UNL     1     -10.700  14.228  68.728  1.00  0.00    -0.249 NA 
ENDBRANCH  16  17
ENDBRANCH  13  16
ENDBRANCH   5   6
ENDBRANCH   4   5
ENDBRANCH   2   4
TORSDOF 5
ENDMDL
MODEL      102
REMARK 921   NORMALIZED FREE ENERGY PREDICTED BY IDOCK:   -4.46 KCAL/MOL
REMARK 922        TOTAL FREE ENERGY PREDICTED BY IDOCK:   -6.23 KCAL/MOL
REMARK 923 INTER-LIGAND FREE ENERGY PREDICTED BY IDOCK:   -5.85 KCAL/MOL
REMARK 924 INTRA-LIGAND FREE ENERGY PREDICTED BY IDOCK:   -0.37 KCAL/MOL
REMARK 927      BINDING AFFINITY PREDICTED BY RF-SCORE:    0.00 PKD
ROOT
HETATM    1  C   UNL     1      -6.226   9.599  70.717  1.00  0.00    -0.092 C  
HETATM    2  N   UNL     1      -7.282  10.307  69.984  1.00  0.00    -0.158 NA 
HETATM    3  C   UNL     1      -6.753  11.568  69.458  1.00  0.00    -0.106 C  
ENDROOT
BRANCH   2   4
HETATM    4  C   UNL     1      -7.813   9.431  68.919  1.00  0.00    -0.083 C  
BRANCH   4   5
HETATM    5  C   UNL     1      -9.125   8.714  69.279  1.00  0.00    -0.149 C  
BRANCH   5   6
HETATM    6  C   UNL     1     -10.224   9.660  69.669  1.00  0.00    -0.239 A  
HETATM    7  C   UNL     1     -11.077   9.521  70.747  1.00  0.00    -0.323 A  
HETATM    8  N   UNL     1     -11.879  10.626  70.809  1.00  0.00    -0.347 NA 
HETATM    9  C   UNL     1     -11.551  11.508  69.807  1.00  0.00    -0.326 A  
HETATM   10  H   UNL     1     -12.614  10.774  71.499  1.00  0.00     0.000 HD 
HETATM   11  C   UNL     1     -10.558  10.904  69.037  1.00  0.00    -0.248 A  
HETATM   12  C   UNL     1     -10.087  11.589  67.897  1.00  0.00    -0.202 A  
HETATM   13  C   UNL     1     -10.584  12.871  67.585  1.00  0.00    -0.232 A  
HETATM   14  C   UNL     1     -12.052  12.785  69.534  1.00  0.00    -0.265 A  
HETATM   15  C   UNL     1     -11.544  13.460  68.419  1.00  0.00    -0.368 A  
BRANCH  13  16
HETATM   16  C   UNL     1     -10.092  13.597  66.358  1.00  0.00    -0.295 C  
BRANCH  16  17
HETATM   17  N   UNL     1     -11.026  13.609  65.242  1.00  0.00    -0.300 NA 
HETATM   18  C   UNL     1     -11.888  14.576  64.826  1.00  0.00    -0.441 A  
HETATM   19  N   UNL     1     -12.533  14.170  63.755  1.00  0.00    -0.806 NA 
HETATM   20  C   UNL     1     -12.023  12.924  63.547  1.00  0.00    -0.556 A  
HETATM   21  N   UNL     1     -11.096  12.535  64.428  1.00  0.00    -0.318 NA 
ENDBRANCH  16  17
ENDBRANCH  13  16
ENDBRANCH   5   6
ENDBRANCH   4   5
ENDBRANCH   2   4
TORSDOF 5
ENDMDL
MODEL      103
REMARK 921   NORMALIZED FREE ENERGY PREDICTED BY IDOCK:   -4.46 KCAL/MOL
REMARK 922        TOTAL FREE ENERGY PREDICTED BY IDOCK:   -6.23 KCAL/MOL
REMARK 923 INTER-LIGAND FREE ENERGY PREDICTED BY IDOCK:   -6.25 KCAL/MOL
REMARK 924 INTRA-LIGAND FREE ENERGY PREDICTED BY IDOCK:    0.02 KCAL/MOL
REMARK 927      BINDING AFFINITY PREDICTED BY RF-SCORE:    0.00 PKD
ROOT
HETATM    1  C   UNL     1      -7.654   5.615  71.576  1.00  0.00    -0.105 C  
HETATM    2  N   UNL     1      -7.454   6.829  72.376  1.00  0.00    -0.088 NA 
HETATM    3  C   UNL     1      -6.058   6.903  72.813  1.00  0.00    -0.052 C  
ENDROOT
BRANCH   2   4
HETATM    4  C   UNL     1      -7.860   8.010  71.586  1.00  0.00    -0.103 C  
BRANCH   4   5
HETATM    5  C   UNL     1      -9.065   7.774  70.660  1.00  0.00    -0.153 C  
BRANCH   5   6
HETATM    6  C   UNL     1     -10.379   8.092  71.313  1.00  0.00    -0.243 A  
HETATM    7  C   UNL     1     -11.031   7.320  72.255  1.00  0.00    -0.249 A  
HETATM    8  N   UNL     1     -12.151   7.988  72.662  1.00  0.00    -0.593 NA 
HETATM    9  C   UNL     1     -12.236   9.204  72.027  1.00  0.00    -0.373 A  
HETATM   10  H   UNL     1     -12.827   7.636  73.340  1.00  0.00     0.000 HD 
HETATM   11  C   UNL     1     -11.172   9.273  71.129  1.00  0.00    -0.413 A  
HETATM   12  C   UNL     1     -11.069  10.411  70.301  1.00  0.00    -0.379 A  
HETATM   13  C   UNL     1     -11.999  11.464  70.424  1.00  0.00    -0.465 A  
HETATM   14  C   UNL     1     -13.164  10.239  72.185  1.00  0.00    -0.443 A  
HETATM   15  C   UNL     1     -13.021  11.373  71.379  1.00  0.00    -0.468 A  
BRANCH  13  16
HETATM   16  C   UNL     1     -11.898  12.673  69.529  1.00  0.00    -0.312 C  
BRANCH  16  17
HETATM   17  N   UNL     1     -12.089  13.949  70.203  1.00  0.00    -0.329 NA 
HETATM   18  C   UNL     1     -13.127  14.398  70.960  1.00  0.00    -0.353 A  
HETATM   19  N   UNL     1     -12.872  15.612  71.393  1.00  0.00    -0.466 NA 
HETATM   20  C   UNL     1     -11.642  15.871  70.867  1.00  0.00    -0.421 A  
HETATM   21  N   UNL     1     -11.119  14.884  70.132  1.00  0.00    -0.238 NA 
ENDBRANCH  16  17
ENDBRANCH  13  16
ENDBRANCH   5   6
ENDBRANCH   4   5
ENDBRANCH   2   4
TORSDOF 5
ENDMDL
MODEL      104
REMARK 921   NORMALIZED FREE ENERGY PREDICTED BY IDOCK:   -4.46 KCAL/MOL
REMARK 922        TOTAL FREE ENERGY PREDICTED BY IDOCK:   -6.22 KCAL/MOL
REMARK 923 INTER-LIGAND FREE ENERGY PREDICTED BY IDOCK:   -5.74 KCAL/MOL
REMARK 924 INTRA-LIGAND FREE ENERGY PREDICTED BY IDOCK:   -0.48 KCAL/MOL
REMARK 927      BINDING AFFINITY PREDICTED BY RF-SCORE:    0.00 PKD
ROOT
HETATM    1  C   UNL     1     -10.681  19.399  67.000  1.00  0.00    -0.474 C  
HETATM    2  N   UNL     1      -9.651  18.830  66.124  1.00  0.00    -0.477 NA 
HETATM    3  C   UNL     1      -8.443  19.657  66.186  1.00  0.00    -0.334 C  
ENDROOT
BRANCH   2   4
HETATM    4  C   UNL     1      -9.393  17.428  66.514  1.00  0.00    -0.270 C  
BRANCH   4   5
HETATM    5  C   UNL     1     -10.384  16.410  65.925  1.00  0.00    -0.378 C  
BRANCH   5   6
HETATM    6  C   UNL     1     -10.930  15.459  66.951  1.00  0.00    -0.294 A  
HETATM    7  C   UNL     1     -11.559  15.804  68.131  1.00  0.00    -0.255 A  
HETATM    8  N   UNL     1     -11.981  14.660  68.747  1.00  0.00    -0.485 NA 
HETATM    9  C   UNL     1     -11.666  13.564  67.979  1.00  0.00    -0.359 A  
HETATM   10  H   UNL     1     -12.459  14.624  69.647  1.00  0.00     0.000 HD 
HETATM   11  C   UNL     1     -10.952  14.027  66.875  1.00  0.00    -0.301 A  
HETATM   12  C   UNL     1     -10.457  13.080  65.954  1.00  0.00    -0.293 A  
HETATM   13  C   UNL     1     -10.726  11.707  66.134  1.00  0.00    -0.325 A  
HETATM   14  C   UNL     1     -11.965  12.212  68.177  1.00  0.00    -0.242 A  
HETATM   15  C   UNL     1     -11.494  11.294  67.232  1.00  0.00    -0.265 A  
BRANCH  13  16
HETATM   16  C   UNL     1     -10.184  10.694  65.159  1.00  0.00    -0.299 C  
BRANCH  16  17
HETATM   17  N   UNL     1      -9.038   9.937  65.640  1.00  0.00    -0.165 NA 
HETATM   18  C   UNL     1      -8.953   8.651  66.077  1.00  0.00    -0.184 A  
HETATM   19  N   UNL     1      -7.710   8.371  66.401  1.00  0.00    -0.093 NA 
HETATM   20  C   UNL     1      -7.057   9.538  66.141  1.00  0.00    -0.092 A  
HETATM   21  N   UNL     1      -7.825  10.526  65.672  1.00  0.00    -0.157 NA 
ENDBRANCH  16  17
ENDBRANCH  13  16
ENDBRANCH   5   6
ENDBRANCH   4   5
ENDBRANCH   2   4
TORSDOF 5
ENDMDL
MODEL      105
REMARK 921   NORMALIZED FREE ENERGY PREDICTED BY IDOCK:   -4.43 KCAL/MOL
REMARK 922        TOTAL FREE ENERGY PREDICTED BY IDOCK:   -6.18 KCAL/MOL
REMARK 923 INTER-LIGAND FREE ENERGY PREDICTED BY IDOCK:   -5.95 KCAL/MOL
REMARK 924 INTRA-LIGAND FREE ENERGY PREDICTED BY IDOCK:   -0.23 KCAL/MOL
REMARK 927      BINDING AFFINITY PREDICTED BY RF-SCORE:    0.00 PKD
ROOT
HETATM    1  C   UNL     1     -10.850   5.116  72.472  1.00  0.00    -0.223 C  
HETATM    2  N   UNL     1     -10.272   5.222  73.816  1.00  0.00    -0.202 NA 
HETATM    3  C   UNL     1      -9.040   4.432  73.884  1.00  0.00    -0.104 C  
ENDROOT
BRANCH   2   4
HETATM    4  C   UNL     1     -10.045   6.646  74.142  1.00  0.00    -0.364 C  
BRANCH   4   5
HETATM    5  C   UNL     1     -10.680   7.635  73.151  1.00  0.00    -0.445 C  
BRANCH   5   6
HETATM    6  C   UNL     1      -9.666   8.344  72.298  1.00  0.00    -0.386 A  
HETATM    7  C   UNL     1      -8.293   8.220  72.388  1.00  0.00    -0.170 A  
HETATM    8  N   UNL     1      -7.726   8.960  71.389  1.00  0.00    -0.246 NA 
HETATM    9  C   UNL     1      -8.702   9.548  70.621  1.00  0.00    -0.133 A  
HETATM   10  H   UNL     1      -6.723   9.060  71.236  1.00  0.00     0.000 HD 
HETATM   11  C   UNL     1      -9.929   9.231  71.203  1.00  0.00    -0.356 A  
HETATM   12  C   UNL     1     -11.099   9.772  70.630  1.00  0.00    -0.398 A  
HETATM   13  C   UNL     1     -11.017  10.573  69.471  1.00  0.00    -0.312 A  
HETATM   14  C   UNL     1      -8.588  10.324  69.463  1.00  0.00    -0.153 A  
HETATM   15  C   UNL     1      -9.765  10.821  68.892  1.00  0.00    -0.207 A  
BRANCH  13  16
HETATM   16  C   UNL     1     -12.266  11.164  68.869  1.00  0.00    -0.076 C  
BRANCH  16  17
HETATM   17  N   UNL     1     -12.031  12.197  67.870  1.00  0.00    -0.512 NA 
HETATM   18  C   UNL     1     -11.828  13.534  68.018  1.00  0.00    -0.365 A  
HETATM   19  N   UNL     1     -11.637  14.089  66.842  1.00  0.00    -0.365 NA 
HETATM   20  C   UNL     1     -11.733  13.033  65.987  1.00  0.00    -0.393 A  
HETATM   21  N   UNL     1     -11.972  11.853  66.567  1.00  0.00    -0.545 NA 
ENDBRANCH  16  17
ENDBRANCH  13  16
ENDBRANCH   5   6
ENDBRANCH   4   5
ENDBRANCH   2   4
TORSDOF 5
ENDMDL
MODEL      106
REMARK 921   NORMALIZED FREE ENERGY PREDICTED BY IDOCK:   -4.43 KCAL/MOL
REMARK 922        TOTAL FREE ENERGY PREDICTED BY IDOCK:   -6.18 KCAL/MOL
REMARK 923 INTER-LIGAND FREE ENERGY PREDICTED BY IDOCK:   -5.58 KCAL/MOL
REMARK 924 INTRA-LIGAND FREE ENERGY PREDICTED BY IDOCK:   -0.60 KCAL/MOL
REMARK 927      BINDING AFFINITY PREDICTED BY RF-SCORE:    0.00 PKD
ROOT
HETATM    1  C   UNL     1     -13.088  10.525  71.913  1.00  0.00    -0.462 C  
HETATM    2  N   UNL     1     -13.171   9.148  72.413  1.00  0.00    -0.445 NA 
HETATM    3  C   UNL     1     -14.300   8.463  71.779  1.00  0.00    -0.472 C  
ENDROOT
BRANCH   2   4
HETATM    4  C   UNL     1     -11.886   8.459  72.168  1.00  0.00    -0.375 C  
BRANCH   4   5
HETATM    5  C   UNL     1     -11.780   7.777  70.794  1.00  0.00    -0.242 C  
BRANCH   5   6
HETATM    6  C   UNL     1     -10.580   8.222  70.008  1.00  0.00    -0.235 A  
HETATM    7  C   UNL     1      -9.351   7.593  69.968  1.00  0.00    -0.154 A  
HETATM    8  N   UNL     1      -8.554   8.257  69.078  1.00  0.00    -0.134 NA 
HETATM    9  C   UNL     1      -9.246   9.298  68.506  1.00  0.00    -0.135 A  
HETATM   10  H   UNL     1      -7.587   8.015  68.868  1.00  0.00     0.000 HD 
HETATM   11  C   UNL     1     -10.500   9.340  69.114  1.00  0.00    -0.231 A  
HETATM   12  C   UNL     1     -11.390  10.370  68.740  1.00  0.00    -0.275 A  
HETATM   13  C   UNL     1     -11.022  11.297  67.742  1.00  0.00    -0.305 A  
HETATM   14  C   UNL     1      -8.859  10.191  67.502  1.00  0.00    -0.126 A  
HETATM   15  C   UNL     1      -9.770  11.182  67.122  1.00  0.00    -0.199 A  
BRANCH  13  16
HETATM   16  C   UNL     1     -11.965  12.407  67.354  1.00  0.00    -0.175 C  
BRANCH  16  17
HETATM   17  N   UNL     1     -11.655  13.703  67.939  1.00  0.00    -0.320 NA 
HETATM   18  C   UNL     1     -11.062  14.798  67.389  1.00  0.00    -0.324 A  
HETATM   19  N   UNL     1     -10.997  15.764  68.278  1.00  0.00    -0.310 NA 
HETATM   20  C   UNL     1     -11.573  15.205  69.378  1.00  0.00    -0.323 A  
HETATM   21  N   UNL     1     -11.994  13.946  69.222  1.00  0.00    -0.341 NA 
ENDBRANCH  16  17
ENDBRANCH  13  16
ENDBRANCH   5   6
ENDBRANCH   4   5
ENDBRANCH   2   4
TORSDOF 5
ENDMDL
MODEL      107
REMARK 921   NORMALIZED FREE ENERGY PREDICTED BY IDOCK:   -4.42 KCAL/MOL
REMARK 922        TOTAL FREE ENERGY PREDICTED BY IDOCK:   -6.17 KCAL/MOL
REMARK 923 INTER-LIGAND FREE ENERGY PREDICTED BY IDOCK:   -5.80 KCAL/MOL
REMARK 924 INTRA-LIGAND FREE ENERGY PREDICTED BY IDOCK:   -0.37 KCAL/MOL
REMARK 927      BINDING AFFINITY PREDICTED BY RF-SCORE:    0.00 PKD
ROOT
HETATM    1  C   UNL     1      -6.082  18.333  66.199  1.00  0.00    -0.200 C  
HETATM    2  N   UNL     1      -7.233  18.754  67.007  1.00  0.00    -0.208 NA 
HETATM    3  C   UNL     1      -8.200  19.453  66.158  1.00  0.00    -0.311 C  
ENDROOT
BRANCH   2   4
HETATM    4  C   UNL     1      -7.821  17.574  67.676  1.00  0.00    -0.201 C  
BRANCH   4   5
HETATM    5  C   UNL     1      -8.205  16.428  66.725  1.00  0.00    -0.286 C  
BRANCH   5   6
HETATM    6  C   UNL     1      -9.565  15.858  67.009  1.00  0.00    -0.232 A  
HETATM    7  C   UNL     1     -10.422  16.255  68.018  1.00  0.00    -0.293 A  
HETATM    8  N   UNL     1     -11.589  15.555  67.894  1.00  0.00    -0.283 NA 
HETATM    9  C   UNL     1     -11.529  14.723  66.802  1.00  0.00    -0.338 A  
HETATM   10  H   UNL     1     -12.388  15.639  68.521  1.00  0.00     0.000 HD 
HETATM   11  C   UNL     1     -10.250  14.845  66.262  1.00  0.00    -0.306 A  
HETATM   12  C   UNL     1      -9.913  14.038  65.154  1.00  0.00    -0.257 A  
HETATM   13  C   UNL     1     -10.872  13.170  64.590  1.00  0.00    -0.383 A  
HETATM   14  C   UNL     1     -12.508  13.886  66.255  1.00  0.00    -0.454 A  
HETATM   15  C   UNL     1     -12.162  13.122  65.136  1.00  0.00    -0.497 A  
BRANCH  13  16
HETATM   16  C   UNL     1     -10.507  12.297  63.417  1.00  0.00    -0.368 C  
BRANCH  16  17
HETATM   17  N   UNL     1      -9.789  11.080  63.764  1.00  0.00    -0.297 NA 
HETATM   18  C   UNL     1      -8.847  10.385  63.070  1.00  0.00    -0.222 A  
HETATM   19  N   UNL     1      -8.449   9.348  63.771  1.00  0.00    -0.184 NA 
HETATM   20  C   UNL     1      -9.189   9.449  64.911  1.00  0.00    -0.183 A  
HETATM   21  N   UNL     1     -10.022  10.493  64.956  1.00  0.00    -0.301 NA 
ENDBRANCH  16  17
ENDBRANCH  13  16
ENDBRANCH   5   6
ENDBRANCH   4   5
ENDBRANCH   2   4
TORSDOF 5
ENDMDL
MODEL      108
REMARK 921   NORMALIZED FREE ENERGY PREDICTED BY IDOCK:   -4.41 KCAL/MOL
REMARK 922        TOTAL FREE ENERGY PREDICTED BY IDOCK:   -6.16 KCAL/MOL
REMARK 923 INTER-LIGAND FREE ENERGY PREDICTED BY IDOCK:   -5.66 KCAL/MOL
REMARK 924 INTRA-LIGAND FREE ENERGY PREDICTED BY IDOCK:   -0.50 KCAL/MOL
REMARK 927      BINDING AFFINITY PREDICTED BY RF-SCORE:    0.00 PKD
ROOT
HETATM    1  C   UNL     1      -9.069  14.875  67.451  1.00  0.00    -0.189 C  
HETATM    2  N   UNL     1     -10.258  15.238  68.230  1.00  0.00    -0.224 NA 
HETATM    3  C   UNL     1     -10.057  16.550  68.849  1.00  0.00    -0.266 C  
ENDROOT
BRANCH   2   4
HETATM    4  C   UNL     1     -11.449  15.207  67.354  1.00  0.00    -0.277 C  
BRANCH   4   5
HETATM    5  C   UNL     1     -12.150  13.840  67.281  1.00  0.00    -0.393 C  
BRANCH   5   6
HETATM    6  C   UNL     1     -11.868  13.102  66.004  1.00  0.00    -0.457 A  
HETATM    7  C   UNL     1     -12.257  13.487  64.735  1.00  0.00    -0.409 A  
HETATM    8  N   UNL     1     -11.739  12.599  63.836  1.00  0.00    -0.415 NA 
HETATM    9  C   UNL     1     -10.989  11.648  64.486  1.00  0.00    -0.314 A  
HETATM   10  H   UNL     1     -11.888  12.636  62.828  1.00  0.00     0.000 HD 
HETATM   11  C   UNL     1     -11.100  11.900  65.852  1.00  0.00    -0.365 A  
HETATM   12  C   UNL     1     -10.463  11.017  66.749  1.00  0.00    -0.300 A  
HETATM   13  C   UNL     1      -9.697   9.939  66.258  1.00  0.00    -0.281 A  
HETATM   14  C   UNL     1     -10.223  10.598  63.967  1.00  0.00    -0.334 A  
HETATM   15  C   UNL     1      -9.571   9.756  64.874  1.00  0.00    -0.316 A  
BRANCH  13  16
HETATM   16  C   UNL     1      -9.029   8.986  67.217  1.00  0.00    -0.127 C  
BRANCH  16  17
HETATM   17  N   UNL     1      -9.371   7.585  67.021  1.00  0.00    -0.142 NA 
HETATM   18  C   UNL     1      -8.595   6.534  66.641  1.00  0.00    -0.118 A  
HETATM   19  N   UNL     1      -9.315   5.435  66.611  1.00  0.00    -0.134 NA 
HETATM   20  C   UNL     1     -10.550   5.869  66.988  1.00  0.00    -0.305 A  
HETATM   21  N   UNL     1     -10.636   7.177  67.253  1.00  0.00    -0.296 NA 
ENDBRANCH  16  17
ENDBRANCH  13  16
ENDBRANCH   5   6
ENDBRANCH   4   5
ENDBRANCH   2   4
TORSDOF 5
ENDMDL
MODEL      109
REMARK 921   NORMALIZED FREE ENERGY PREDICTED BY IDOCK:   -4.41 KCAL/MOL
REMARK 922        TOTAL FREE ENERGY PREDICTED BY IDOCK:   -6.16 KCAL/MOL
REMARK 923 INTER-LIGAND FREE ENERGY PREDICTED BY IDOCK:   -5.78 KCAL/MOL
REMARK 924 INTRA-LIGAND FREE ENERGY PREDICTED BY IDOCK:   -0.38 KCAL/MOL
REMARK 927      BINDING AFFINITY PREDICTED BY RF-SCORE:    0.00 PKD
ROOT
HETATM    1  C   UNL     1      -8.194   8.077  70.828  1.00  0.00    -0.113 C  
HETATM    2  N   UNL     1      -9.495   8.348  70.207  1.00  0.00    -0.163 NA 
HETATM    3  C   UNL     1     -10.126   7.084  69.820  1.00  0.00    -0.189 C  
ENDROOT
BRANCH   2   4
HETATM    4  C   UNL     1     -10.332   9.132  71.140  1.00  0.00    -0.317 C  
BRANCH   4   5
HETATM    5  C   UNL     1     -11.775   9.362  70.661  1.00  0.00    -0.302 C  
BRANCH   5   6
HETATM    6  C   UNL     1     -12.294  10.732  70.995  1.00  0.00    -0.509 A  
HETATM    7  C   UNL     1     -13.091  11.062  72.074  1.00  0.00    -0.344 A  
HETATM    8  N   UNL     1     -13.279  12.415  72.075  1.00  0.00    -0.469 NA 
HETATM    9  C   UNL     1     -12.594  12.990  71.031  1.00  0.00    -0.299 A  
HETATM   10  H   UNL     1     -13.845  12.925  72.752  1.00  0.00     0.000 HD 
HETATM   11  C   UNL     1     -12.016  11.954  70.299  1.00  0.00    -0.416 A  
HETATM   12  C   UNL     1     -11.300  12.281  69.128  1.00  0.00    -0.330 A  
HETATM   13  C   UNL     1     -11.143  13.630  68.747  1.00  0.00    -0.302 A  
HETATM   14  C   UNL     1     -12.442  14.338  70.689  1.00  0.00    -0.428 A  
HETATM   15  C   UNL     1     -11.698  14.641  69.544  1.00  0.00    -0.366 A  
BRANCH  13  16
HETATM   16  C   UNL     1     -10.392  13.980  67.487  1.00  0.00    -0.245 C  
BRANCH  16  17
HETATM   17  N   UNL     1      -9.646  12.878  66.897  1.00  0.00    -0.234 NA 
HETATM   18  C   UNL     1      -9.923  12.110  65.809  1.00  0.00    -0.249 A  
HETATM   19  N   UNL     1      -8.960  11.236  65.622  1.00  0.00    -0.194 NA 
HETATM   20  C   UNL     1      -8.096  11.512  66.638  1.00  0.00    -0.139 A  
HETATM   21  N   UNL     1      -8.469  12.510  67.446  1.00  0.00    -0.172 NA 
ENDBRANCH  16  17
ENDBRANCH  13  16
ENDBRANCH   5   6
ENDBRANCH   4   5
ENDBRANCH   2   4
TORSDOF 5
ENDMDL
MODEL      110
REMARK 921   NORMALIZED FREE ENERGY PREDICTED BY IDOCK:   -4.39 KCAL/MOL
REMARK 922        TOTAL FREE ENERGY PREDICTED BY IDOCK:   -6.13 KCAL/MOL
REMARK 923 INTER-LIGAND FREE ENERGY PREDICTED BY IDOCK:   -5.79 KCAL/MOL
REMARK 924 INTRA-LIGAND FREE ENERGY PREDICTED BY IDOCK:   -0.35 KCAL/MOL
REMARK 927      BINDING AFFINITY PREDICTED BY RF-SCORE:    0.00 PKD
ROOT
HETATM    1  C   UNL     1     -12.409  15.942  72.264  1.00  0.00    -0.483 C  
HETATM    2  N   UNL     1     -13.606  15.094  72.300  1.00  0.00    -0.416 NA 
HETATM    3  C   UNL     1     -14.407  15.323  71.095  1.00  0.00    -0.276 C  
ENDROOT
BRANCH   2   4
HETATM    4  C   UNL     1     -13.201  13.679  72.446  1.00  0.00    -0.484 C  
BRANCH   4   5
HETATM    5  C   UNL     1     -12.530  13.077  71.200  1.00  0.00    -0.364 C  
BRANCH   5   6
HETATM    6  C   UNL     1     -12.418  11.581  71.258  1.00  0.00    -0.399 A  
HETATM    7  C   UNL     1     -13.159  10.737  72.062  1.00  0.00    -0.371 A  
HETATM    8  N   UNL     1     -12.821   9.447  71.764  1.00  0.00    -0.368 NA 
HETATM    9  C   UNL     1     -11.888   9.423  70.754  1.00  0.00    -0.256 A  
HETATM   10  H   UNL     1     -13.205   8.622  72.224  1.00  0.00     0.000 HD 
HETATM   11  C   UNL     1     -11.570  10.747  70.458  1.00  0.00    -0.425 A  
HETATM   12  C   UNL     1     -10.578  10.994  69.484  1.00  0.00    -0.182 A  
HETATM   13  C   UNL     1      -9.969   9.918  68.804  1.00  0.00    -0.183 A  
HETATM   14  C   UNL     1     -11.316   8.335  70.086  1.00  0.00    -0.060 A  
HETATM   15  C   UNL     1     -10.361   8.606  69.099  1.00  0.00    -0.227 A  
BRANCH  13  16
HETATM   16  C   UNL     1      -8.899  10.181  67.774  1.00  0.00    -0.125 C  
BRANCH  16  17
HETATM   17  N   UNL     1      -9.388  10.334  66.412  1.00  0.00    -0.161 NA 
HETATM   18  C   UNL     1      -9.161   9.576  65.305  1.00  0.00    -0.247 A  
HETATM   19  N   UNL     1      -9.822  10.070  64.283  1.00  0.00    -0.207 NA 
HETATM   20  C   UNL     1     -10.452  11.151  64.821  1.00  0.00    -0.323 A  
HETATM   21  N   UNL     1     -10.221  11.355  66.121  1.00  0.00    -0.231 NA 
ENDBRANCH  16  17
ENDBRANCH  13  16
ENDBRANCH   5   6
ENDBRANCH   4   5
ENDBRANCH   2   4
TORSDOF 5
ENDMDL
MODEL      111
REMARK 921   NORMALIZED FREE ENERGY PREDICTED BY IDOCK:   -4.36 KCAL/MOL
REMARK 922        TOTAL FREE ENERGY PREDICTED BY IDOCK:   -6.09 KCAL/MOL
REMARK 923 INTER-LIGAND FREE ENERGY PREDICTED BY IDOCK:   -6.06 KCAL/MOL
REMARK 924 INTRA-LIGAND FREE ENERGY PREDICTED BY IDOCK:   -0.03 KCAL/MOL
REMARK 927      BINDING AFFINITY PREDICTED BY RF-SCORE:    0.00 PKD
ROOT
HETATM    1  C   UNL     1      -5.497  10.196  64.659  1.00  0.00    -0.110 C  
HETATM    2  N   UNL     1      -5.959   8.905  65.182  1.00  0.00    -0.058 NA 
HETATM    3  C   UNL     1      -5.651   8.816  66.611  1.00  0.00    -0.040 C  
ENDROOT
BRANCH   2   4
HETATM    4  C   UNL     1      -7.403   8.752  64.907  1.00  0.00    -0.093 C  
BRANCH   4   5
HETATM    5  C   UNL     1      -8.293   9.818  65.569  1.00  0.00    -0.141 C  
BRANCH   5   6
HETATM    6  C   UNL     1      -9.192  10.522  64.593  1.00  0.00    -0.274 A  
HETATM    7  C   UNL     1      -9.426  10.150  63.283  1.00  0.00    -0.257 A  
HETATM    8  N   UNL     1     -10.362  10.993  62.755  1.00  0.00    -0.771 NA 
HETATM    9  C   UNL     1     -10.773  11.900  63.703  1.00  0.00    -0.442 A  
HETATM   10  H   UNL     1     -10.706  10.955  61.796  1.00  0.00     0.000 HD 
HETATM   11  C   UNL     1     -10.012  11.670  64.848  1.00  0.00    -0.293 A  
HETATM   12  C   UNL     1     -10.203  12.520  65.959  1.00  0.00    -0.269 A  
HETATM   13  C   UNL     1     -11.175  13.541  65.912  1.00  0.00    -0.310 A  
HETATM   14  C   UNL     1     -11.756  12.893  63.630  1.00  0.00    -0.572 A  
HETATM   15  C   UNL     1     -11.952  13.700  64.756  1.00  0.00    -0.426 A  
BRANCH  13  16
HETATM   16  C   UNL     1     -11.368  14.458  67.092  1.00  0.00    -0.343 C  
BRANCH  16  17
HETATM   17  N   UNL     1     -11.688  13.785  68.342  1.00  0.00    -0.338 NA 
HETATM   18  C   UNL     1     -11.700  12.460  68.650  1.00  0.00    -0.326 A  
HETATM   19  N   UNL     1     -12.032  12.297  69.911  1.00  0.00    -0.327 NA 
HETATM   20  C   UNL     1     -12.217  13.575  70.344  1.00  0.00    -0.356 A  
HETATM   21  N   UNL     1     -12.017  14.522  69.423  1.00  0.00    -0.318 NA 
ENDBRANCH  16  17
ENDBRANCH  13  16
ENDBRANCH   5   6
ENDBRANCH   4   5
ENDBRANCH   2   4
TORSDOF 5
ENDMDL
MODEL      112
REMARK 921   NORMALIZED FREE ENERGY PREDICTED BY IDOCK:   -4.35 KCAL/MOL
REMARK 922        TOTAL FREE ENERGY PREDICTED BY IDOCK:   -6.08 KCAL/MOL
REMARK 923 INTER-LIGAND FREE ENERGY PREDICTED BY IDOCK:   -5.86 KCAL/MOL
REMARK 924 INTRA-LIGAND FREE ENERGY PREDICTED BY IDOCK:   -0.21 KCAL/MOL
REMARK 927      BINDING AFFINITY PREDICTED BY RF-SCORE:    0.00 PKD
ROOT
HETATM    1  C   UNL     1      -8.162  10.097  64.096  1.00  0.00    -0.165 C  
HETATM    2  N   UNL     1      -8.919   9.169  64.943  1.00  0.00    -0.185 NA 
HETATM    3  C   UNL     1      -8.043   8.079  65.381  1.00  0.00    -0.135 C  
ENDROOT
BRANCH   2   4
HETATM    4  C   UNL     1      -9.507   9.909  66.080  1.00  0.00    -0.202 C  
BRANCH   4   5
HETATM    5  C   UNL     1     -10.234  11.206  65.687  1.00  0.00    -0.310 C  
BRANCH   5   6
HETATM    6  C   UNL     1     -10.921  11.869  66.847  1.00  0.00    -0.335 A  
HETATM    7  C   UNL     1     -11.637  11.234  67.844  1.00  0.00    -0.256 A  
HETATM    8  N   UNL     1     -12.033  12.171  68.756  1.00  0.00    -0.288 NA 
HETATM    9  C   UNL     1     -11.566  13.412  68.394  1.00  0.00    -0.332 A  
HETATM   10  H   UNL     1     -12.594  11.978  69.585  1.00  0.00     0.000 HD 
HETATM   11  C   UNL     1     -10.916  13.266  67.169  1.00  0.00    -0.288 A  
HETATM   12  C   UNL     1     -10.394  14.420  66.548  1.00  0.00    -0.281 A  
HETATM   13  C   UNL     1     -10.492  15.675  67.185  1.00  0.00    -0.303 A  
HETATM   14  C   UNL     1     -11.664  14.639  69.060  1.00  0.00    -0.339 A  
HETATM   15  C   UNL     1     -11.108  15.763  68.441  1.00  0.00    -0.341 A  
BRANCH  13  16
HETATM   16  C   UNL     1      -9.948  16.910  66.514  1.00  0.00    -0.301 C  
BRANCH  16  17
HETATM   17  N   UNL     1      -9.894  18.091  67.362  1.00  0.00    -0.299 NA 
HETATM   18  C   UNL     1     -10.726  19.165  67.431  1.00  0.00    -0.481 A  
HETATM   19  N   UNL     1     -10.308  19.995  68.360  1.00  0.00    -0.407 NA 
HETATM   20  C   UNL     1      -9.196  19.376  68.844  1.00  0.00    -0.339 A  
HETATM   21  N   UNL     1      -8.900  18.207  68.268  1.00  0.00    -0.277 NA 
ENDBRANCH  16  17
ENDBRANCH  13  16
ENDBRANCH   5   6
ENDBRANCH   4   5
ENDBRANCH   2   4
TORSDOF 5
ENDMDL
MODEL      113
REMARK 921   NORMALIZED FREE ENERGY PREDICTED BY IDOCK:   -4.34 KCAL/MOL
REMARK 922        TOTAL FREE ENERGY PREDICTED BY IDOCK:   -6.07 KCAL/MOL
REMARK 923 INTER-LIGAND FREE ENERGY PREDICTED BY IDOCK:   -5.46 KCAL/MOL
REMARK 924 INTRA-LIGAND FREE ENERGY PREDICTED BY IDOCK:   -0.61 KCAL/MOL
REMARK 927      BINDING AFFINITY PREDICTED BY RF-SCORE:    0.00 PKD
ROOT
HETATM    1  C   UNL     1     -10.259  19.585  65.850  1.00  0.00    -0.422 C  
HETATM    2  N   UNL     1      -9.682  20.237  67.030  1.00  0.00    -0.437 NA 
HETATM    3  C   UNL     1     -10.381  19.780  68.234  1.00  0.00    -0.410 C  
ENDROOT
BRANCH   2   4
HETATM    4  C   UNL     1      -8.231  19.962  67.084  1.00  0.00    -0.312 C  
BRANCH   4   5
HETATM    5  C   UNL     1      -7.697  19.628  68.488  1.00  0.00    -0.369 C  
BRANCH   5   6
HETATM    6  C   UNL     1      -6.877  18.370  68.521  1.00  0.00    -0.263 A  
HETATM    7  C   UNL     1      -5.499  18.295  68.562  1.00  0.00    -0.178 A  
HETATM    8  N   UNL     1      -5.140  16.980  68.666  1.00  0.00    -0.123 NA 
HETATM    9  C   UNL     1      -6.260  16.186  68.724  1.00  0.00    -0.117 A  
HETATM   10  H   UNL     1      -4.180  16.638  68.696  1.00  0.00     0.000 HD 
HETATM   11  C   UNL     1      -7.365  17.022  68.573  1.00  0.00    -0.220 A  
HETATM   12  C   UNL     1      -8.648  16.435  68.537  1.00  0.00    -0.223 A  
HETATM   13  C   UNL     1      -8.795  15.042  68.697  1.00  0.00    -0.185 A  
HETATM   14  C   UNL     1      -6.373  14.803  68.903  1.00  0.00    -0.087 A  
HETATM   15  C   UNL     1      -7.657  14.248  68.899  1.00  0.00    -0.113 A  
BRANCH  13  16
HETATM   16  C   UNL     1     -10.164  14.412  68.643  1.00  0.00    -0.245 C  
BRANCH  16  17
HETATM   17  N   UNL     1     -10.668  14.166  67.300  1.00  0.00    -0.277 NA 
HETATM   18  C   UNL     1     -10.012  13.791  66.168  1.00  0.00    -0.308 A  
HETATM   19  N   UNL     1     -10.867  13.663  65.178  1.00  0.00    -0.317 NA 
HETATM   20  C   UNL     1     -12.058  13.975  65.762  1.00  0.00    -0.427 A  
HETATM   21  N   UNL     1     -11.990  14.288  67.059  1.00  0.00    -0.431 NA 
ENDBRANCH  16  17
ENDBRANCH  13  16
ENDBRANCH   5   6
ENDBRANCH   4   5
ENDBRANCH   2   4
TORSDOF 5
ENDMDL
MODEL      114
REMARK 921   NORMALIZED FREE ENERGY PREDICTED BY IDOCK:   -4.34 KCAL/MOL
REMARK 922        TOTAL FREE ENERGY PREDICTED BY IDOCK:   -6.06 KCAL/MOL
REMARK 923 INTER-LIGAND FREE ENERGY PREDICTED BY IDOCK:   -5.61 KCAL/MOL
REMARK 924 INTRA-LIGAND FREE ENERGY PREDICTED BY IDOCK:   -0.45 KCAL/MOL
REMARK 927      BINDING AFFINITY PREDICTED BY RF-SCORE:    0.00 PKD
ROOT
HETATM    1  C   UNL     1      -9.927  15.613  69.478  1.00  0.00    -0.285 C  
HETATM    2  N   UNL     1      -9.955  15.167  68.080  1.00  0.00    -0.219 NA 
HETATM    3  C   UNL     1      -8.606  15.240  67.515  1.00  0.00    -0.177 C  
ENDROOT
BRANCH   2   4
HETATM    4  C   UNL     1     -10.522  13.804  68.010  1.00  0.00    -0.244 C  
BRANCH   4   5
HETATM    5  C   UNL     1     -11.852  13.706  67.245  1.00  0.00    -0.429 C  
BRANCH   5   6
HETATM    6  C   UNL     1     -11.675  13.310  65.806  1.00  0.00    -0.395 A  
HETATM    7  C   UNL     1     -12.098  14.028  64.704  1.00  0.00    -0.440 A  
HETATM    8  N   UNL     1     -11.677  13.378  63.578  1.00  0.00    -0.704 NA 
HETATM    9  C   UNL     1     -10.958  12.257  63.918  1.00  0.00    -0.406 A  
HETATM   10  H   UNL     1     -11.870  13.681  62.624  1.00  0.00     0.000 HD 
HETATM   11  C   UNL     1     -10.991  12.154  65.307  1.00  0.00    -0.349 A  
HETATM   12  C   UNL     1     -10.368  11.039  65.909  1.00  0.00    -0.315 A  
HETATM   13  C   UNL     1      -9.693  10.089  65.114  1.00  0.00    -0.380 A  
HETATM   14  C   UNL     1     -10.283  11.342  63.103  1.00  0.00    -0.367 A  
HETATM   15  C   UNL     1      -9.643  10.264  63.725  1.00  0.00    -0.344 A  
BRANCH  13  16
HETATM   16  C   UNL     1      -9.042   8.890  65.756  1.00  0.00    -0.221 C  
BRANCH  16  17
HETATM   17  N   UNL     1      -7.648   9.081  66.129  1.00  0.00    -0.094 NA 
HETATM   18  C   UNL     1      -7.093   9.393  67.331  1.00  0.00    -0.086 A  
HETATM   19  N   UNL     1      -5.785   9.448  67.219  1.00  0.00    -0.041 NA 
HETATM   20  C   UNL     1      -5.580   9.156  65.904  1.00  0.00    -0.045 A  
HETATM   21  N   UNL     1      -6.688   8.921  65.194  1.00  0.00    -0.071 NA 
ENDBRANCH  16  17
ENDBRANCH  13  16
ENDBRANCH   5   6
ENDBRANCH   4   5
ENDBRANCH   2   4
TORSDOF 5
ENDMDL
MODEL      115
REMARK 921   NORMALIZED FREE ENERGY PREDICTED BY IDOCK:   -4.31 KCAL/MOL
REMARK 922        TOTAL FREE ENERGY PREDICTED BY IDOCK:   -6.04 KCAL/MOL
REMARK 923 INTER-LIGAND FREE ENERGY PREDICTED BY IDOCK:   -6.06 KCAL/MOL
REMARK 924 INTRA-LIGAND FREE ENERGY PREDICTED BY IDOCK:    0.03 KCAL/MOL
REMARK 927      BINDING AFFINITY PREDICTED BY RF-SCORE:    0.00 PKD
ROOT
HETATM    1  C   UNL     1      -9.129   9.460  68.416  1.00  0.00    -0.128 C  
HETATM    2  N   UNL     1      -7.994  10.177  67.825  1.00  0.00    -0.102 NA 
HETATM    3  C   UNL     1      -6.741   9.627  68.348  1.00  0.00    -0.057 C  
ENDROOT
BRANCH   2   4
HETATM    4  C   UNL     1      -8.073  10.093  66.351  1.00  0.00    -0.122 C  
BRANCH   4   5
HETATM    5  C   UNL     1      -9.446   9.660  65.811  1.00  0.00    -0.308 C  
BRANCH   5   6
HETATM    6  C   UNL     1     -10.166  10.761  65.085  1.00  0.00    -0.365 A  
HETATM    7  C   UNL     1     -10.349  10.853  63.718  1.00  0.00    -0.317 A  
HETATM    8  N   UNL     1     -11.121  11.951  63.459  1.00  0.00    -0.541 NA 
HETATM    9  C   UNL     1     -11.475  12.570  64.635  1.00  0.00    -0.327 A  
HETATM   10  H   UNL     1     -11.393  12.266  62.529  1.00  0.00     0.000 HD 
HETATM   11  C   UNL     1     -10.841  11.883  65.668  1.00  0.00    -0.333 A  
HETATM   12  C   UNL     1     -10.998  12.363  66.986  1.00  0.00    -0.303 A  
HETATM   13  C   UNL     1     -11.818  13.483  67.239  1.00  0.00    -0.427 A  
HETATM   14  C   UNL     1     -12.308  13.672  64.854  1.00  0.00    -0.442 A  
HETATM   15  C   UNL     1     -12.477  14.109  66.172  1.00  0.00    -0.426 A  
BRANCH  13  16
HETATM   16  C   UNL     1     -11.974  14.007  68.644  1.00  0.00    -0.354 C  
BRANCH  16  17
HETATM   17  N   UNL     1     -12.203  12.984  69.653  1.00  0.00    -0.214 NA 
HETATM   18  C   UNL     1     -12.013  11.637  69.602  1.00  0.00    -0.324 A  
HETATM   19  N   UNL     1     -12.334  11.096  70.755  1.00  0.00    -0.382 NA 
HETATM   20  C   UNL     1     -12.723  12.170  71.498  1.00  0.00    -0.243 A  
HETATM   21  N   UNL     1     -12.660  13.348  70.870  1.00  0.00    -0.349 NA 
ENDBRANCH  16  17
ENDBRANCH  13  16
ENDBRANCH   5   6
ENDBRANCH   4   5
ENDBRANCH   2   4
TORSDOF 5
ENDMDL
MODEL      116
REMARK 921   NORMALIZED FREE ENERGY PREDICTED BY IDOCK:   -4.31 KCAL/MOL
REMARK 922        TOTAL FREE ENERGY PREDICTED BY IDOCK:   -6.03 KCAL/MOL
REMARK 923 INTER-LIGAND FREE ENERGY PREDICTED BY IDOCK:   -5.62 KCAL/MOL
REMARK 924 INTRA-LIGAND FREE ENERGY PREDICTED BY IDOCK:   -0.41 KCAL/MOL
REMARK 927      BINDING AFFINITY PREDICTED BY RF-SCORE:    0.00 PKD
ROOT
HETATM    1  C   UNL     1      -8.564   6.364  66.252  1.00  0.00    -0.140 C  
HETATM    2  N   UNL     1      -9.630   6.622  67.226  1.00  0.00    -0.128 NA 
HETATM    3  C   UNL     1     -10.215   5.352  67.661  1.00  0.00    -0.186 C  
ENDROOT
BRANCH   2   4
HETATM    4  C   UNL     1      -9.086   7.407  68.354  1.00  0.00    -0.132 C  
BRANCH   4   5
HETATM    5  C   UNL     1      -9.570   8.865  68.408  1.00  0.00    -0.157 C  
BRANCH   5   6
HETATM    6  C   UNL     1     -10.660   9.087  69.418  1.00  0.00    -0.231 A  
HETATM    7  C   UNL     1     -11.216   8.127  70.242  1.00  0.00    -0.182 A  
HETATM    8  N   UNL     1     -12.114   8.738  71.071  1.00  0.00    -0.407 NA 
HETATM    9  C   UNL     1     -12.140  10.091  70.828  1.00  0.00    -0.327 A  
HETATM   10  H   UNL     1     -12.683   8.260  71.768  1.00  0.00     0.000 HD 
HETATM   11  C   UNL     1     -11.284  10.332  69.755  1.00  0.00    -0.339 A  
HETATM   12  C   UNL     1     -11.179  11.652  69.268  1.00  0.00    -0.328 A  
HETATM   13  C   UNL     1     -11.893  12.697  69.891  1.00  0.00    -0.364 A  
HETATM   14  C   UNL     1     -12.848  11.107  71.479  1.00  0.00    -0.542 A  
HETATM   15  C   UNL     1     -12.701  12.414  71.001  1.00  0.00    -0.315 A  
BRANCH  13  16
HETATM   16  C   UNL     1     -11.793  14.105  69.360  1.00  0.00    -0.330 C  
BRANCH  16  17
HETATM   17  N   UNL     1     -11.437  14.202  67.953  1.00  0.00    -0.294 NA 
HETATM   18  C   UNL     1     -12.186  13.980  66.838  1.00  0.00    -0.380 A  
HETATM   19  N   UNL     1     -11.464  14.206  65.763  1.00  0.00    -0.321 NA 
HETATM   20  C   UNL     1     -10.257  14.572  66.278  1.00  0.00    -0.297 A  
HETATM   21  N   UNL     1     -10.190  14.587  67.613  1.00  0.00    -0.225 NA 
ENDBRANCH  16  17
ENDBRANCH  13  16
ENDBRANCH   5   6
ENDBRANCH   4   5
ENDBRANCH   2   4
TORSDOF 5
ENDMDL
MODEL      117
REMARK 921   NORMALIZED FREE ENERGY PREDICTED BY IDOCK:   -4.30 KCAL/MOL
REMARK 922        TOTAL FREE ENERGY PREDICTED BY IDOCK:   -6.02 KCAL/MOL
REMARK 923 INTER-LIGAND FREE ENERGY PREDICTED BY IDOCK:   -5.63 KCAL/MOL
REMARK 924 INTRA-LIGAND FREE ENERGY PREDICTED BY IDOCK:   -0.39 KCAL/MOL
REMARK 927      BINDING AFFINITY PREDICTED BY RF-SCORE:    0.00 PKD
ROOT
HETATM    1  C   UNL     1     -10.875   5.637  70.924  1.00  0.00    -0.224 C  
HETATM    2  N   UNL     1     -11.192   6.459  72.097  1.00  0.00    -0.264 NA 
HETATM    3  C   UNL     1     -10.101   6.366  73.070  1.00  0.00    -0.189 C  
ENDROOT
BRANCH   2   4
HETATM    4  C   UNL     1     -11.445   7.851  71.667  1.00  0.00    -0.263 C  
BRANCH   4   5
HETATM    5  C   UNL     1     -11.103   8.135  70.195  1.00  0.00    -0.187 C  
BRANCH   5   6
HETATM    6  C   UNL     1      -9.948   9.083  70.032  1.00  0.00    -0.207 A  
HETATM    7  C   UNL     1      -8.924   9.284  70.937  1.00  0.00    -0.209 A  
HETATM    8  N   UNL     1      -8.029  10.160  70.389  1.00  0.00    -0.429 NA 
HETATM    9  C   UNL     1      -8.431  10.519  69.124  1.00  0.00    -0.147 A  
HETATM   10  H   UNL     1      -7.186  10.498  70.851  1.00  0.00     0.000 HD 
HETATM   11  C   UNL     1      -9.663   9.908  68.895  1.00  0.00    -0.176 A  
HETATM   12  C   UNL     1     -10.323  10.171  67.676  1.00  0.00    -0.265 A  
HETATM   13  C   UNL     1      -9.717  10.995  66.705  1.00  0.00    -0.226 A  
HETATM   14  C   UNL     1      -7.796  11.327  68.175  1.00  0.00    -0.127 A  
HETATM   15  C   UNL     1      -8.453  11.545  66.959  1.00  0.00    -0.164 A  
BRANCH  13  16
HETATM   16  C   UNL     1     -10.429  11.289  65.409  1.00  0.00    -0.268 C  
BRANCH  16  17
HETATM   17  N   UNL     1     -11.380  12.389  65.471  1.00  0.00    -0.332 NA 
HETATM   18  C   UNL     1     -12.469  12.656  64.701  1.00  0.00    -0.466 A  
HETATM   19  N   UNL     1     -13.058  13.752  65.124  1.00  0.00    -0.751 NA 
HETATM   20  C   UNL     1     -12.280  14.128  66.177  1.00  0.00    -0.442 A  
HETATM   21  N   UNL     1     -11.241  13.326  66.432  1.00  0.00    -0.296 NA 
ENDBRANCH  16  17
ENDBRANCH  13  16
ENDBRANCH   5   6
ENDBRANCH   4   5
ENDBRANCH   2   4
TORSDOF 5
ENDMDL
MODEL      118
REMARK 921   NORMALIZED FREE ENERGY PREDICTED BY IDOCK:   -4.30 KCAL/MOL
REMARK 922        TOTAL FREE ENERGY PREDICTED BY IDOCK:   -6.01 KCAL/MOL
REMARK 923 INTER-LIGAND FREE ENERGY PREDICTED BY IDOCK:   -5.62 KCAL/MOL
REMARK 924 INTRA-LIGAND FREE ENERGY PREDICTED BY IDOCK:   -0.40 KCAL/MOL
REMARK 927      BINDING AFFINITY PREDICTED BY RF-SCORE:    0.00 PKD
ROOT
HETATM    1  C   UNL     1      -8.318   8.140  64.812  1.00  0.00    -0.104 C  
HETATM    2  N   UNL     1      -8.109   9.369  64.037  1.00  0.00    -0.140 NA 
HETATM    3  C   UNL     1      -8.680   9.207  62.697  1.00  0.00    -0.199 C  
ENDROOT
BRANCH   2   4
HETATM    4  C   UNL     1      -8.696  10.514  64.763  1.00  0.00    -0.185 C  
BRANCH   4   5
HETATM    5  C   UNL     1     -10.230  10.478  64.878  1.00  0.00    -0.371 C  
BRANCH   5   6
HETATM    6  C   UNL     1     -10.892  11.692  64.292  1.00  0.00    -0.418 A  
HETATM    7  C   UNL     1     -11.835  11.701  63.283  1.00  0.00    -0.127 A  
HETATM    8  N   UNL     1     -12.252  12.989  63.092  1.00  0.00    -0.855 NA 
HETATM    9  C   UNL     1     -11.620  13.828  63.978  1.00  0.00    -0.275 A  
HETATM   10  H   UNL     1     -12.932  13.284  62.393  1.00  0.00     0.000 HD 
HETATM   11  C   UNL     1     -10.716  13.054  64.704  1.00  0.00    -0.386 A  
HETATM   12  C   UNL     1      -9.891  13.701  65.649  1.00  0.00    -0.196 A  
HETATM   13  C   UNL     1     -10.024  15.087  65.876  1.00  0.00    -0.353 A  
HETATM   14  C   UNL     1     -11.788  15.200  64.192  1.00  0.00    -0.164 A  
HETATM   15  C   UNL     1     -10.984  15.813  65.159  1.00  0.00    -0.394 A  
BRANCH  13  16
HETATM   16  C   UNL     1      -9.132  15.780  66.874  1.00  0.00    -0.235 C  
BRANCH  16  17
HETATM   17  N   UNL     1      -9.724  15.974  68.189  1.00  0.00    -0.216 NA 
HETATM   18  C   UNL     1     -10.636  16.889  68.618  1.00  0.00    -0.360 A  
HETATM   19  N   UNL     1     -10.907  16.688  69.888  1.00  0.00    -0.295 NA 
HETATM   20  C   UNL     1     -10.124  15.618  70.201  1.00  0.00    -0.131 A  
HETATM   21  N   UNL     1      -9.383  15.143  69.196  1.00  0.00    -0.215 NA 
ENDBRANCH  16  17
ENDBRANCH  13  16
ENDBRANCH   5   6
ENDBRANCH   4   5
ENDBRANCH   2   4
TORSDOF 5
ENDMDL
MODEL      119
REMARK 921   NORMALIZED FREE ENERGY PREDICTED BY IDOCK:   -4.27 KCAL/MOL
REMARK 922        TOTAL FREE ENERGY PREDICTED BY IDOCK:   -5.97 KCAL/MOL
REMARK 923 INTER-LIGAND FREE ENERGY PREDICTED BY IDOCK:   -5.48 KCAL/MOL
REMARK 924 INTRA-LIGAND FREE ENERGY PREDICTED BY IDOCK:   -0.50 KCAL/MOL
REMARK 927      BINDING AFFINITY PREDICTED BY RF-SCORE:    0.00 PKD
ROOT
HETATM    1  C   UNL     1     -11.719  12.711  68.522  1.00  0.00    -0.330 C  
HETATM    2  N   UNL     1     -11.811  12.269  67.126  1.00  0.00    -0.566 NA 
HETATM    3  C   UNL     1     -12.152  13.409  66.272  1.00  0.00    -0.422 C  
ENDROOT
BRANCH   2   4
HETATM    4  C   UNL     1     -10.539  11.629  66.728  1.00  0.00    -0.244 C  
BRANCH   4   5
HETATM    5  C   UNL     1     -10.638  10.739  65.478  1.00  0.00    -0.205 C  
BRANCH   5   6
HETATM    6  C   UNL     1      -9.675   9.586  65.499  1.00  0.00    -0.344 A  
HETATM    7  C   UNL     1      -8.574   9.428  64.680  1.00  0.00    -0.187 A  
HETATM    8  N   UNL     1      -7.909   8.298  65.064  1.00  0.00    -0.118 NA 
HETATM    9  C   UNL     1      -8.537   7.721  66.142  1.00  0.00    -0.151 A  
HETATM   10  H   UNL     1      -7.069   7.934  64.615  1.00  0.00     0.000 HD 
HETATM   11  C   UNL     1      -9.682   8.472  66.400  1.00  0.00    -0.328 A  
HETATM   12  C   UNL     1     -10.542   8.045  67.435  1.00  0.00    -0.337 A  
HETATM   13  C   UNL     1     -10.212   6.913  68.210  1.00  0.00    -0.201 A  
HETATM   14  C   UNL     1      -8.172   6.605  66.903  1.00  0.00    -0.113 A  
HETATM   15  C   UNL     1      -9.022   6.221  67.947  1.00  0.00    -0.113 A  
BRANCH  13  16
HETATM   16  C   UNL     1     -11.138   6.448  69.305  1.00  0.00    -0.373 C  
BRANCH  16  17
HETATM   17  N   UNL     1     -11.118   7.265  70.508  1.00  0.00    -0.261 NA 
HETATM   18  C   UNL     1     -12.142   7.734  71.271  1.00  0.00    -0.306 A  
HETATM   19  N   UNL     1     -11.666   8.420  72.286  1.00  0.00    -0.369 NA 
HETATM   20  C   UNL     1     -10.319   8.343  72.100  1.00  0.00    -0.327 A  
HETATM   21  N   UNL     1      -9.932   7.646  71.027  1.00  0.00    -0.182 NA 
ENDBRANCH  16  17
ENDBRANCH  13  16
ENDBRANCH   5   6
ENDBRANCH   4   5
ENDBRANCH   2   4
TORSDOF 5
ENDMDL
MODEL      120
REMARK 921   NORMALIZED FREE ENERGY PREDICTED BY IDOCK:   -4.26 KCAL/MOL
REMARK 922        TOTAL FREE ENERGY PREDICTED BY IDOCK:   -5.96 KCAL/MOL
REMARK 923 INTER-LIGAND FREE ENERGY PREDICTED BY IDOCK:   -5.68 KCAL/MOL
REMARK 924 INTRA-LIGAND FREE ENERGY PREDICTED BY IDOCK:   -0.28 KCAL/MOL
REMARK 927      BINDING AFFINITY PREDICTED BY RF-SCORE:    0.00 PKD
ROOT
HETATM    1  C   UNL     1      -5.626  17.013  66.783  1.00  0.00    -0.166 C  
HETATM    2  N   UNL     1      -6.780  17.760  67.296  1.00  0.00    -0.162 NA 
HETATM    3  C   UNL     1      -6.355  19.103  67.698  1.00  0.00    -0.207 C  
ENDROOT
BRANCH   2   4
HETATM    4  C   UNL     1      -7.843  17.789  66.269  1.00  0.00    -0.264 C  
BRANCH   4   5
HETATM    5  C   UNL     1      -8.854  16.635  66.366  1.00  0.00    -0.337 C  
BRANCH   5   6
HETATM    6  C   UNL     1      -9.642  16.649  67.644  1.00  0.00    -0.239 A  
HETATM    7  C   UNL     1      -9.802  17.728  68.492  1.00  0.00    -0.355 A  
HETATM    8  N   UNL     1     -10.653  17.364  69.498  1.00  0.00    -0.322 NA 
HETATM    9  C   UNL     1     -11.082  16.071  69.313  1.00  0.00    -0.331 A  
HETATM   10  H   UNL     1     -10.930  17.965  70.274  1.00  0.00     0.000 HD 
HETATM   11  C   UNL     1     -10.418  15.575  68.192  1.00  0.00    -0.259 A  
HETATM   12  C   UNL     1     -10.642  14.232  67.823  1.00  0.00    -0.253 A  
HETATM   13  C   UNL     1     -11.554  13.439  68.551  1.00  0.00    -0.368 A  
HETATM   14  C   UNL     1     -12.004  15.317  70.045  1.00  0.00    -0.375 A  
HETATM   15  C   UNL     1     -12.237  13.998  69.639  1.00  0.00    -0.383 A  
BRANCH  13  16
HETATM   16  C   UNL     1     -11.782  11.999  68.167  1.00  0.00    -0.333 C  
BRANCH  16  17
HETATM   17  N   UNL     1     -11.274  11.025  69.122  1.00  0.00    -0.232 NA 
HETATM   18  C   UNL     1     -10.024  10.510  69.273  1.00  0.00    -0.213 A  
HETATM   19  N   UNL     1     -10.007   9.668  70.282  1.00  0.00    -0.257 NA 
HETATM   20  C   UNL     1     -11.293   9.702  70.728  1.00  0.00    -0.340 A  
HETATM   21  N   UNL     1     -12.108  10.518  70.053  1.00  0.00    -0.288 NA 
ENDBRANCH  16  17
ENDBRANCH  13  16
ENDBRANCH   5   6
ENDBRANCH   4   5
ENDBRANCH   2   4
TORSDOF 5
ENDMDL
MODEL      121
REMARK 921   NORMALIZED FREE ENERGY PREDICTED BY IDOCK:   -4.25 KCAL/MOL
REMARK 922        TOTAL FREE ENERGY PREDICTED BY IDOCK:   -5.95 KCAL/MOL
REMARK 923 INTER-LIGAND FREE ENERGY PREDICTED BY IDOCK:   -5.54 KCAL/MOL
REMARK 924 INTRA-LIGAND FREE ENERGY PREDICTED BY IDOCK:   -0.41 KCAL/MOL
REMARK 927      BINDING AFFINITY PREDICTED BY RF-SCORE:    0.00 PKD
ROOT
HETATM    1  C   UNL     1     -11.763  14.549  64.822  1.00  0.00    -0.422 C  
HETATM    2  N   UNL     1     -12.170  13.161  64.573  1.00  0.00    -0.437 NA 
HETATM    3  C   UNL     1     -11.412  12.623  63.442  1.00  0.00    -0.435 C  
ENDROOT
BRANCH   2   4
HETATM    4  C   UNL     1     -11.983  12.366  65.805  1.00  0.00    -0.372 C  
BRANCH   4   5
HETATM    5  C   UNL     1     -11.000  12.980  66.816  1.00  0.00    -0.299 C  
BRANCH   5   6
HETATM    6  C   UNL     1     -11.281  12.569  68.234  1.00  0.00    -0.309 A  
HETATM    7  C   UNL     1     -11.793  13.377  69.231  1.00  0.00    -0.334 A  
HETATM    8  N   UNL     1     -11.980  12.615  70.350  1.00  0.00    -0.522 NA 
HETATM    9  C   UNL     1     -11.629  11.310  70.100  1.00  0.00    -0.305 A  
HETATM   10  H   UNL     1     -12.330  12.964  71.241  1.00  0.00     0.000 HD 
HETATM   11  C   UNL     1     -11.129  11.261  68.800  1.00  0.00    -0.288 A  
HETATM   12  C   UNL     1     -10.638  10.028  68.318  1.00  0.00    -0.264 A  
HETATM   13  C   UNL     1     -10.703   8.874  69.127  1.00  0.00    -0.162 A  
HETATM   14  C   UNL     1     -11.723  10.181  70.921  1.00  0.00    -0.468 A  
HETATM   15  C   UNL     1     -11.263   8.962  70.409  1.00  0.00    -0.259 A  
BRANCH  13  16
HETATM   16  C   UNL     1     -10.165   7.561  68.619  1.00  0.00    -0.197 C  
BRANCH  16  17
HETATM   17  N   UNL     1      -8.804   7.259  69.034  1.00  0.00    -0.132 NA 
HETATM   18  C   UNL     1      -7.760   8.089  69.303  1.00  0.00    -0.102 A  
HETATM   19  N   UNL     1      -6.711   7.386  69.666  1.00  0.00    -0.040 NA 
HETATM   20  C   UNL     1      -7.167   6.104  69.603  1.00  0.00    -0.074 A  
HETATM   21  N   UNL     1      -8.442   5.972  69.224  1.00  0.00    -0.114 NA 
ENDBRANCH  16  17
ENDBRANCH  13  16
ENDBRANCH   5   6
ENDBRANCH   4   5
ENDBRANCH   2   4
TORSDOF 5
ENDMDL
MODEL      122
REMARK 921   NORMALIZED FREE ENERGY PREDICTED BY IDOCK:   -4.24 KCAL/MOL
REMARK 922        TOTAL FREE ENERGY PREDICTED BY IDOCK:   -5.94 KCAL/MOL
REMARK 923 INTER-LIGAND FREE ENERGY PREDICTED BY IDOCK:   -5.47 KCAL/MOL
REMARK 924 INTRA-LIGAND FREE ENERGY PREDICTED BY IDOCK:   -0.47 KCAL/MOL
REMARK 927      BINDING AFFINITY PREDICTED BY RF-SCORE:    0.00 PKD
ROOT
HETATM    1  C   UNL     1     -13.439   9.018  72.209  1.00  0.00    -0.475 C  
HETATM    2  N   UNL     1     -11.979   9.089  72.080  1.00  0.00    -0.368 NA 
HETATM    3  C   UNL     1     -11.394   7.788  72.415  1.00  0.00    -0.346 C  
ENDROOT
BRANCH   2   4
HETATM    4  C   UNL     1     -11.627   9.528  70.713  1.00  0.00    -0.308 C  
BRANCH   4   5
HETATM    5  C   UNL     1     -10.470   8.746  70.071  1.00  0.00    -0.222 C  
BRANCH   5   6
HETATM    6  C   UNL     1     -10.351   8.979  68.591  1.00  0.00    -0.233 A  
HETATM    7  C   UNL     1     -10.611   8.057  67.596  1.00  0.00    -0.194 A  
HETATM    8  N   UNL     1     -10.468   8.676  66.386  1.00  0.00    -0.285 NA 
HETATM    9  C   UNL     1     -10.146  10.000  66.565  1.00  0.00    -0.232 A  
HETATM   10  H   UNL     1     -10.583   8.221  65.481  1.00  0.00     0.000 HD 
HETATM   11  C   UNL     1     -10.005  10.207  67.936  1.00  0.00    -0.190 A  
HETATM   12  C   UNL     1      -9.613  11.487  68.383  1.00  0.00    -0.195 A  
HETATM   13  C   UNL     1      -9.418  12.532  67.456  1.00  0.00    -0.185 A  
HETATM   14  C   UNL     1      -9.977  11.019  65.622  1.00  0.00    -0.299 A  
HETATM   15  C   UNL     1      -9.623  12.289  66.090  1.00  0.00    -0.248 A  
BRANCH  13  16
HETATM   16  C   UNL     1      -8.984  13.895  67.931  1.00  0.00    -0.191 C  
BRANCH  16  17
HETATM   17  N   UNL     1     -10.054  14.723  68.466  1.00  0.00    -0.224 NA 
HETATM   18  C   UNL     1     -11.377  14.766  68.150  1.00  0.00    -0.307 A  
HETATM   19  N   UNL     1     -11.987  15.655  68.901  1.00  0.00    -0.343 NA 
HETATM   20  C   UNL     1     -10.979  16.142  69.677  1.00  0.00    -0.346 A  
HETATM   21  N   UNL     1      -9.777  15.603  69.452  1.00  0.00    -0.276 NA 
ENDBRANCH  16  17
ENDBRANCH  13  16
ENDBRANCH   5   6
ENDBRANCH   4   5
ENDBRANCH   2   4
TORSDOF 5
ENDMDL
MODEL      123
REMARK 921   NORMALIZED FREE ENERGY PREDICTED BY IDOCK:   -4.23 KCAL/MOL
REMARK 922        TOTAL FREE ENERGY PREDICTED BY IDOCK:   -5.93 KCAL/MOL
REMARK 923 INTER-LIGAND FREE ENERGY PREDICTED BY IDOCK:   -5.48 KCAL/MOL
REMARK 924 INTRA-LIGAND FREE ENERGY PREDICTED BY IDOCK:   -0.46 KCAL/MOL
REMARK 927      BINDING AFFINITY PREDICTED BY RF-SCORE:    0.00 PKD
ROOT
HETATM    1  C   UNL     1      -8.574   8.451  70.271  1.00  0.00    -0.128 C  
HETATM    2  N   UNL     1      -8.735   9.866  69.918  1.00  0.00    -0.213 NA 
HETATM    3  C   UNL     1      -7.425  10.447  69.614  1.00  0.00    -0.157 C  
ENDROOT
BRANCH   2   4
HETATM    4  C   UNL     1      -9.679   9.987  68.787  1.00  0.00    -0.171 C  
BRANCH   4   5
HETATM    5  C   UNL     1     -11.149   9.721  69.154  1.00  0.00    -0.158 C  
BRANCH   5   6
HETATM    6  C   UNL     1     -11.795  10.875  69.867  1.00  0.00    -0.427 A  
HETATM    7  C   UNL     1     -12.441  10.822  71.087  1.00  0.00    -0.414 A  
HETATM    8  N   UNL     1     -12.818  12.090  71.432  1.00  0.00    -0.350 NA 
HETATM    9  C   UNL     1     -12.405  12.984  70.473  1.00  0.00    -0.287 A  
HETATM   10  H   UNL     1     -13.330  12.336  72.278  1.00  0.00     0.000 HD 
HETATM   11  C   UNL     1     -11.814  12.246  69.449  1.00  0.00    -0.370 A  
HETATM   12  C   UNL     1     -11.357  12.936  68.306  1.00  0.00    -0.326 A  
HETATM   13  C   UNL     1     -11.460  14.341  68.237  1.00  0.00    -0.334 A  
HETATM   14  C   UNL     1     -12.505  14.380  70.443  1.00  0.00    -0.420 A  
HETATM   15  C   UNL     1     -12.013  15.045  69.315  1.00  0.00    -0.322 A  
BRANCH  13  16
HETATM   16  C   UNL     1     -10.986  15.076  67.009  1.00  0.00    -0.318 C  
BRANCH  16  17
HETATM   17  N   UNL     1      -9.875  15.989  67.237  1.00  0.00    -0.233 NA 
HETATM   18  C   UNL     1      -9.854  17.348  67.314  1.00  0.00    -0.278 A  
HETATM   19  N   UNL     1      -8.630  17.762  67.553  1.00  0.00    -0.226 NA 
HETATM   20  C   UNL     1      -7.922  16.601  67.615  1.00  0.00    -0.174 A  
HETATM   21  N   UNL     1      -8.638  15.487  67.430  1.00  0.00    -0.169 NA 
ENDBRANCH  16  17
ENDBRANCH  13  16
ENDBRANCH   5   6
ENDBRANCH   4   5
ENDBRANCH   2   4
TORSDOF 5
ENDMDL
MODEL      124
REMARK 921   NORMALIZED FREE ENERGY PREDICTED BY IDOCK:   -4.23 KCAL/MOL
REMARK 922        TOTAL FREE ENERGY PREDICTED BY IDOCK:   -5.92 KCAL/MOL
REMARK 923 INTER-LIGAND FREE ENERGY PREDICTED BY IDOCK:   -5.74 KCAL/MOL
REMARK 924 INTRA-LIGAND FREE ENERGY PREDICTED BY IDOCK:   -0.18 KCAL/MOL
REMARK 927      BINDING AFFINITY PREDICTED BY RF-SCORE:    0.00 PKD
ROOT
HETATM    1  C   UNL     1     -10.529   8.345  67.139  1.00  0.00    -0.310 C  
HETATM    2  N   UNL     1      -9.852   9.571  66.701  1.00  0.00    -0.213 NA 
HETATM    3  C   UNL     1      -9.592   9.499  65.261  1.00  0.00    -0.243 C  
ENDROOT
BRANCH   2   4
HETATM    4  C   UNL     1     -10.673  10.744  67.067  1.00  0.00    -0.265 C  
BRANCH   4   5
HETATM    5  C   UNL     1     -10.141  11.545  68.267  1.00  0.00    -0.205 C  
BRANCH   5   6
HETATM    6  C   UNL     1      -8.988  12.440  67.912  1.00  0.00    -0.184 A  
HETATM    7  C   UNL     1      -7.733  12.033  67.506  1.00  0.00    -0.155 A  
HETATM    8  N   UNL     1      -6.996  13.142  67.198  1.00  0.00    -0.392 NA 
HETATM    9  C   UNL     1      -7.754  14.276  67.367  1.00  0.00    -0.173 A  
HETATM   10  H   UNL     1      -6.025  13.130  66.889  1.00  0.00     0.000 HD 
HETATM   11  C   UNL     1      -8.989  13.874  67.873  1.00  0.00    -0.191 A  
HETATM   12  C   UNL     1      -9.938  14.869  68.192  1.00  0.00    -0.222 A  
HETATM   13  C   UNL     1      -9.645  16.228  67.956  1.00  0.00    -0.224 A  
HETATM   14  C   UNL     1      -7.441  15.614  67.105  1.00  0.00    -0.253 A  
HETATM   15  C   UNL     1      -8.410  16.581  67.397  1.00  0.00    -0.188 A  
BRANCH  13  16
HETATM   16  C   UNL     1     -10.652  17.293  68.312  1.00  0.00    -0.383 C  
BRANCH  16  17
HETATM   17  N   UNL     1     -10.462  18.564  67.630  1.00  0.00    -0.405 NA 
HETATM   18  C   UNL     1     -10.085  19.777  68.117  1.00  0.00    -0.452 A  
HETATM   19  N   UNL     1     -10.020  20.652  67.139  1.00  0.00    -0.398 NA 
HETATM   20  C   UNL     1     -10.372  19.915  66.048  1.00  0.00    -0.486 A  
HETATM   21  N   UNL     1     -10.650  18.631  66.295  1.00  0.00    -0.398 NA 
ENDBRANCH  16  17
ENDBRANCH  13  16
ENDBRANCH   5   6
ENDBRANCH   4   5
ENDBRANCH   2   4
TORSDOF 5
ENDMDL
MODEL      125
REMARK 921   NORMALIZED FREE ENERGY PREDICTED BY IDOCK:   -4.22 KCAL/MOL
REMARK 922        TOTAL FREE ENERGY PREDICTED BY IDOCK:   -5.92 KCAL/MOL
REMARK 923 INTER-LIGAND FREE ENERGY PREDICTED BY IDOCK:   -5.52 KCAL/MOL
REMARK 924 INTRA-LIGAND FREE ENERGY PREDICTED BY IDOCK:   -0.40 KCAL/MOL
REMARK 927      BINDING AFFINITY PREDICTED BY RF-SCORE:    0.00 PKD
ROOT
HETATM    1  C   UNL     1     -11.331   7.453  70.121  1.00  0.00    -0.177 C  
HETATM    2  N   UNL     1     -10.100   7.632  69.344  1.00  0.00    -0.191 NA 
HETATM    3  C   UNL     1      -9.804   6.403  68.603  1.00  0.00    -0.142 C  
ENDROOT
BRANCH   2   4
HETATM    4  C   UNL     1     -10.245   8.804  68.454  1.00  0.00    -0.196 C  
BRANCH   4   5
HETATM    5  C   UNL     1      -8.926   9.310  67.847  1.00  0.00    -0.130 C  
BRANCH   5   6
HETATM    6  C   UNL     1      -8.953   9.368  66.347  1.00  0.00    -0.182 A  
HETATM    7  C   UNL     1      -8.591   8.351  65.484  1.00  0.00    -0.176 A  
HETATM    8  N   UNL     1      -8.834   8.764  64.204  1.00  0.00    -0.420 NA 
HETATM    9  C   UNL     1      -9.378  10.026  64.207  1.00  0.00    -0.288 A  
HETATM   10  H   UNL     1      -8.639   8.215  63.368  1.00  0.00     0.000 HD 
HETATM   11  C   UNL     1      -9.409  10.456  65.533  1.00  0.00    -0.244 A  
HETATM   12  C   UNL     1      -9.875  11.761  65.801  1.00  0.00    -0.267 A  
HETATM   13  C   UNL     1     -10.338  12.579  64.749  1.00  0.00    -0.331 A  
HETATM   14  C   UNL     1      -9.847  10.805  63.144  1.00  0.00    -0.378 A  
HETATM   15  C   UNL     1     -10.337  12.082  63.438  1.00  0.00    -0.468 A  
BRANCH  13  16
HETATM   16  C   UNL     1     -10.821  13.979  65.033  1.00  0.00    -0.392 C  
BRANCH  16  17
HETATM   17  N   UNL     1     -11.019  14.281  66.443  1.00  0.00    -0.307 NA 
HETATM   18  C   UNL     1     -12.035  13.943  67.282  1.00  0.00    -0.411 A  
HETATM   19  N   UNL     1     -11.795  14.412  68.486  1.00  0.00    -0.338 NA 
HETATM   20  C   UNL     1     -10.597  15.042  68.334  1.00  0.00    -0.239 A  
HETATM   21  N   UNL     1     -10.079  14.989  67.103  1.00  0.00    -0.238 NA 
ENDBRANCH  16  17
ENDBRANCH  13  16
ENDBRANCH   5   6
ENDBRANCH   4   5
ENDBRANCH   2   4
TORSDOF 5
ENDMDL
MODEL      126
REMARK 921   NORMALIZED FREE ENERGY PREDICTED BY IDOCK:   -4.21 KCAL/MOL
REMARK 922        TOTAL FREE ENERGY PREDICTED BY IDOCK:   -5.90 KCAL/MOL
REMARK 923 INTER-LIGAND FREE ENERGY PREDICTED BY IDOCK:   -5.32 KCAL/MOL
REMARK 924 INTRA-LIGAND FREE ENERGY PREDICTED BY IDOCK:   -0.58 KCAL/MOL
REMARK 927      BINDING AFFINITY PREDICTED BY RF-SCORE:    0.00 PKD
ROOT
HETATM    1  C   UNL     1      -7.270  10.445  69.647  1.00  0.00    -0.148 C  
HETATM    2  N   UNL     1      -7.563  10.559  68.214  1.00  0.00    -0.093 NA 
HETATM    3  C   UNL     1      -8.255   9.352  67.757  1.00  0.00    -0.114 C  
ENDROOT
BRANCH   2   4
HETATM    4  C   UNL     1      -8.351  11.786  67.969  1.00  0.00    -0.154 C  
BRANCH   4   5
HETATM    5  C   UNL     1      -9.844  11.540  67.699  1.00  0.00    -0.192 C  
BRANCH   5   6
HETATM    6  C   UNL     1     -10.741  12.197  68.710  1.00  0.00    -0.252 A  
HETATM    7  C   UNL     1     -11.120  13.525  68.724  1.00  0.00    -0.264 A  
HETATM    8  N   UNL     1     -12.002  13.712  69.751  1.00  0.00    -0.325 NA 
HETATM    9  C   UNL     1     -12.235  12.523  70.399  1.00  0.00    -0.286 A  
HETATM   10  H   UNL     1     -12.426  14.605  70.000  1.00  0.00     0.000 HD 
HETATM   11  C   UNL     1     -11.411  11.565  69.808  1.00  0.00    -0.362 A  
HETATM   12  C   UNL     1     -11.419  10.258  70.340  1.00  0.00    -0.415 A  
HETATM   13  C   UNL     1     -12.278   9.933  71.410  1.00  0.00    -0.499 A  
HETATM   14  C   UNL     1     -13.110  12.228  71.449  1.00  0.00    -0.285 A  
HETATM   15  C   UNL     1     -13.126  10.916  71.937  1.00  0.00    -0.537 A  
BRANCH  13  16
HETATM   16  C   UNL     1     -12.275   8.540  71.989  1.00  0.00    -0.366 C  
BRANCH  16  17
HETATM   17  N   UNL     1     -10.966   7.905  72.042  1.00  0.00    -0.257 NA 
HETATM   18  C   UNL     1      -9.924   8.107  72.892  1.00  0.00    -0.266 A  
HETATM   19  N   UNL     1      -8.935   7.297  72.588  1.00  0.00    -0.129 NA 
HETATM   20  C   UNL     1      -9.427   6.603  71.524  1.00  0.00    -0.156 A  
HETATM   21  N   UNL     1     -10.667   6.936  71.152  1.00  0.00    -0.223 NA 
ENDBRANCH  16  17
ENDBRANCH  13  16
ENDBRANCH   5   6
ENDBRANCH   4   5
ENDBRANCH   2   4
TORSDOF 5
ENDMDL
MODEL      127
REMARK 921   NORMALIZED FREE ENERGY PREDICTED BY IDOCK:   -4.20 KCAL/MOL
REMARK 922        TOTAL FREE ENERGY PREDICTED BY IDOCK:   -5.88 KCAL/MOL
REMARK 923 INTER-LIGAND FREE ENERGY PREDICTED BY IDOCK:   -5.26 KCAL/MOL
REMARK 924 INTRA-LIGAND FREE ENERGY PREDICTED BY IDOCK:   -0.62 KCAL/MOL
REMARK 927      BINDING AFFINITY PREDICTED BY RF-SCORE:    0.00 PKD
ROOT
HETATM    1  C   UNL     1     -10.002   5.817  68.080  1.00  0.00    -0.148 C  
HETATM    2  N   UNL     1      -8.990   6.747  67.566  1.00  0.00    -0.116 NA 
HETATM    3  C   UNL     1      -8.055   6.025  66.700  1.00  0.00    -0.106 C  
ENDROOT
BRANCH   2   4
HETATM    4  C   UNL     1      -9.659   7.863  66.865  1.00  0.00    -0.203 C  
BRANCH   4   5
HETATM    5  C   UNL     1      -9.212   9.262  67.322  1.00  0.00    -0.149 C  
BRANCH   5   6
HETATM    6  C   UNL     1     -10.311  10.043  67.984  1.00  0.00    -0.238 A  
HETATM    7  C   UNL     1     -11.077  11.032  67.398  1.00  0.00    -0.305 A  
HETATM    8  N   UNL     1     -12.020  11.440  68.300  1.00  0.00    -0.610 NA 
HETATM    9  C   UNL     1     -11.909  10.715  69.462  1.00  0.00    -0.273 A  
HETATM   10  H   UNL     1     -12.706  12.175  68.133  1.00  0.00     0.000 HD 
HETATM   11  C   UNL     1     -10.808   9.873  69.318  1.00  0.00    -0.255 A  
HETATM   12  C   UNL     1     -10.442   9.059  70.411  1.00  0.00    -0.254 A  
HETATM   13  C   UNL     1     -11.209   9.073  71.595  1.00  0.00    -0.431 A  
HETATM   14  C   UNL     1     -12.701  10.739  70.616  1.00  0.00    -0.417 A  
HETATM   15  C   UNL     1     -12.340   9.897  71.673  1.00  0.00    -0.496 A  
BRANCH  13  16
HETATM   16  C   UNL     1     -10.809   8.214  72.768  1.00  0.00    -0.320 C  
BRANCH  16  17
HETATM   17  N   UNL     1     -10.346   6.880  72.417  1.00  0.00    -0.198 NA 
HETATM   18  C   UNL     1     -11.049   5.763  72.088  1.00  0.00    -0.271 A  
HETATM   19  N   UNL     1     -10.222   4.776  71.824  1.00  0.00    -0.199 NA 
HETATM   20  C   UNL     1      -8.999   5.347  72.006  1.00  0.00    -0.134 A  
HETATM   21  N   UNL     1      -9.020   6.634  72.368  1.00  0.00    -0.136 NA 
ENDBRANCH  16  17
ENDBRANCH  13  16
ENDBRANCH   5   6
ENDBRANCH   4   5
ENDBRANCH   2   4
TORSDOF 5
ENDMDL
MODEL      128
REMARK 921   NORMALIZED FREE ENERGY PREDICTED BY IDOCK:   -4.19 KCAL/MOL
REMARK 922        TOTAL FREE ENERGY PREDICTED BY IDOCK:   -5.87 KCAL/MOL
REMARK 923 INTER-LIGAND FREE ENERGY PREDICTED BY IDOCK:   -5.33 KCAL/MOL
REMARK 924 INTRA-LIGAND FREE ENERGY PREDICTED BY IDOCK:   -0.55 KCAL/MOL
REMARK 927      BINDING AFFINITY PREDICTED BY RF-SCORE:    0.00 PKD
ROOT
HETATM    1  C   UNL     1     -11.873  10.538  70.596  1.00  0.00    -0.360 C  
HETATM    2  N   UNL     1     -11.064  11.221  69.580  1.00  0.00    -0.236 NA 
HETATM    3  C   UNL     1      -9.898  10.399  69.248  1.00  0.00    -0.225 C  
ENDROOT
BRANCH   2   4
HETATM    4  C   UNL     1     -11.902  11.512  68.398  1.00  0.00    -0.283 C  
BRANCH   4   5
HETATM    5  C   UNL     1     -11.447  12.733  67.580  1.00  0.00    -0.387 C  
BRANCH   5   6
HETATM    6  C   UNL     1     -11.472  12.490  66.098  1.00  0.00    -0.426 A  
HETATM    7  C   UNL     1     -12.332  13.076  65.189  1.00  0.00    -0.484 A  
HETATM    8  N   UNL     1     -11.983  12.661  63.935  1.00  0.00    -0.437 NA 
HETATM    9  C   UNL     1     -10.888  11.833  63.996  1.00  0.00    -0.385 A  
HETATM   10  H   UNL     1     -12.466  12.928  63.077  1.00  0.00     0.000 HD 
HETATM   11  C   UNL     1     -10.581  11.658  65.345  1.00  0.00    -0.331 A  
HETATM   12  C   UNL     1      -9.519  10.790  65.681  1.00  0.00    -0.250 A  
HETATM   13  C   UNL     1      -8.768  10.163  64.666  1.00  0.00    -0.205 A  
HETATM   14  C   UNL     1     -10.151  11.240  62.966  1.00  0.00    -0.327 A  
HETATM   15  C   UNL     1      -9.081  10.412  63.322  1.00  0.00    -0.279 A  
BRANCH  13  16
HETATM   16  C   UNL     1      -7.644   9.224  65.025  1.00  0.00    -0.107 C  
BRANCH  16  17
HETATM   17  N   UNL     1      -7.993   7.812  64.986  1.00  0.00    -0.128 NA 
HETATM   18  C   UNL     1      -8.736   7.065  65.846  1.00  0.00    -0.126 A  
HETATM   19  N   UNL     1      -8.812   5.827  65.411  1.00  0.00    -0.127 NA 
HETATM   20  C   UNL     1      -8.088   5.864  64.258  1.00  0.00    -0.119 A  
HETATM   21  N   UNL     1      -7.567   7.056  63.952  1.00  0.00    -0.103 NA 
ENDBRANCH  16  17
ENDBRANCH  13  16
ENDBRANCH   5   6
ENDBRANCH   4   5
ENDBRANCH   2   4
TORSDOF 5
ENDMDL
MODEL      129
REMARK 921   NORMALIZED FREE ENERGY PREDICTED BY IDOCK:   -4.17 KCAL/MOL
REMARK 922        TOTAL FREE ENERGY PREDICTED BY IDOCK:   -5.85 KCAL/MOL
REMARK 923 INTER-LIGAND FREE ENERGY PREDICTED BY IDOCK:   -5.52 KCAL/MOL
REMARK 924 INTRA-LIGAND FREE ENERGY PREDICTED BY IDOCK:   -0.34 KCAL/MOL
REMARK 927      BINDING AFFINITY PREDICTED BY RF-SCORE:    0.00 PKD
ROOT
HETATM    1  C   UNL     1      -8.538   7.135  70.024  1.00  0.00    -0.141 C  
HETATM    2  N   UNL     1      -8.118   8.312  69.256  1.00  0.00    -0.114 NA 
HETATM    3  C   UNL     1      -8.333   8.068  67.827  1.00  0.00    -0.129 C  
ENDROOT
BRANCH   2   4
HETATM    4  C   UNL     1      -8.850   9.502  69.739  1.00  0.00    -0.199 C  
BRANCH   4   5
HETATM    5  C   UNL     1      -8.688  10.751  68.858  1.00  0.00    -0.154 C  
BRANCH   5   6
HETATM    6  C   UNL     1      -9.990  11.247  68.296  1.00  0.00    -0.201 A  
HETATM    7  C   UNL     1     -11.205  10.594  68.353  1.00  0.00    -0.288 A  
HETATM    8  N   UNL     1     -12.158  11.405  67.804  1.00  0.00    -0.564 NA 
HETATM    9  C   UNL     1     -11.598  12.597  67.412  1.00  0.00    -0.360 A  
HETATM   10  H   UNL     1     -13.143  11.161  67.701  1.00  0.00     0.000 HD 
HETATM   11  C   UNL     1     -10.228  12.505  67.651  1.00  0.00    -0.220 A  
HETATM   12  C   UNL     1      -9.409  13.591  67.273  1.00  0.00    -0.233 A  
HETATM   13  C   UNL     1      -9.984  14.751  66.713  1.00  0.00    -0.256 A  
HETATM   14  C   UNL     1     -12.201  13.740  66.875  1.00  0.00    -0.408 A  
HETATM   15  C   UNL     1     -11.374  14.817  66.541  1.00  0.00    -0.344 A  
BRANCH  13  16
HETATM   16  C   UNL     1      -9.109  15.905  66.295  1.00  0.00    -0.344 C  
BRANCH  16  17
HETATM   17  N   UNL     1      -9.296  17.124  67.068  1.00  0.00    -0.237 NA 
HETATM   18  C   UNL     1      -8.640  17.577  68.171  1.00  0.00    -0.258 A  
HETATM   19  N   UNL     1      -9.126  18.743  68.532  1.00  0.00    -0.334 NA 
HETATM   20  C   UNL     1     -10.096  18.970  67.603  1.00  0.00    -0.374 A  
HETATM   21  N   UNL     1     -10.239  18.010  66.684  1.00  0.00    -0.356 NA 
ENDBRANCH  16  17
ENDBRANCH  13  16
ENDBRANCH   5   6
ENDBRANCH   4   5
ENDBRANCH   2   4
TORSDOF 5
ENDMDL
MODEL      130
REMARK 921   NORMALIZED FREE ENERGY PREDICTED BY IDOCK:   -4.17 KCAL/MOL
REMARK 922        TOTAL FREE ENERGY PREDICTED BY IDOCK:   -5.85 KCAL/MOL
REMARK 923 INTER-LIGAND FREE ENERGY PREDICTED BY IDOCK:   -5.56 KCAL/MOL
REMARK 924 INTRA-LIGAND FREE ENERGY PREDICTED BY IDOCK:   -0.29 KCAL/MOL
REMARK 927      BINDING AFFINITY PREDICTED BY RF-SCORE:    0.00 PKD
ROOT
HETATM    1  C   UNL     1      -7.756   7.787  64.265  1.00  0.00    -0.124 C  
HETATM    2  N   UNL     1      -7.613   9.244  64.360  1.00  0.00    -0.111 NA 
HETATM    3  C   UNL     1      -8.078   9.864  63.116  1.00  0.00    -0.151 C  
ENDROOT
BRANCH   2   4
HETATM    4  C   UNL     1      -8.351   9.735  65.543  1.00  0.00    -0.136 C  
BRANCH   4   5
HETATM    5  C   UNL     1      -9.854   9.409  65.536  1.00  0.00    -0.231 C  
BRANCH   5   6
HETATM    6  C   UNL     1     -10.431   9.267  66.916  1.00  0.00    -0.284 A  
HETATM    7  C   UNL     1     -10.531   8.097  67.643  1.00  0.00    -0.231 A  
HETATM    8  N   UNL     1     -11.033   8.397  68.878  1.00  0.00    -0.428 NA 
HETATM    9  C   UNL     1     -11.240   9.751  68.990  1.00  0.00    -0.038 A  
HETATM   10  H   UNL     1     -11.227   7.714  69.610  1.00  0.00     0.000 HD 
HETATM   11  C   UNL     1     -10.929  10.317  67.755  1.00  0.00    -0.360 A  
HETATM   12  C   UNL     1     -11.119  11.706  67.590  1.00  0.00    -0.314 A  
HETATM   13  C   UNL     1     -11.566  12.494  68.672  1.00  0.00    -0.357 A  
HETATM   14  C   UNL     1     -11.669  10.507  70.087  1.00  0.00    -0.410 A  
HETATM   15  C   UNL     1     -11.815  11.887  69.910  1.00  0.00    -0.418 A  
BRANCH  13  16
HETATM   16  C   UNL     1     -11.784  13.975  68.491  1.00  0.00    -0.352 C  
BRANCH  16  17
HETATM   17  N   UNL     1     -12.026  14.710  69.724  1.00  0.00    -0.310 NA 
HETATM   18  C   UNL     1     -13.196  15.041  70.335  1.00  0.00    -0.110 A  
HETATM   19  N   UNL     1     -12.948  15.696  71.448  1.00  0.00    -0.481 NA 
HETATM   20  C   UNL     1     -11.587  15.742  71.477  1.00  0.00    -0.459 A  
HETATM   21  N   UNL     1     -10.976  15.152  70.446  1.00  0.00    -0.259 NA 
ENDBRANCH  16  17
ENDBRANCH  13  16
ENDBRANCH   5   6
ENDBRANCH   4   5
ENDBRANCH   2   4
TORSDOF 5
ENDMDL
MODEL      131
REMARK 921   NORMALIZED FREE ENERGY PREDICTED BY IDOCK:   -4.16 KCAL/MOL
REMARK 922        TOTAL FREE ENERGY PREDICTED BY IDOCK:   -5.84 KCAL/MOL
REMARK 923 INTER-LIGAND FREE ENERGY PREDICTED BY IDOCK:   -5.29 KCAL/MOL
REMARK 924 INTRA-LIGAND FREE ENERGY PREDICTED BY IDOCK:   -0.54 KCAL/MOL
REMARK 927      BINDING AFFINITY PREDICTED BY RF-SCORE:    0.00 PKD
ROOT
HETATM    1  C   UNL     1      -5.689  15.051  69.432  1.00  0.00    -0.101 C  
HETATM    2  N   UNL     1      -5.595  14.905  67.975  1.00  0.00    -0.133 NA 
HETATM    3  C   UNL     1      -6.797  14.238  67.470  1.00  0.00    -0.135 C  
ENDROOT
BRANCH   2   4
HETATM    4  C   UNL     1      -5.388  16.234  67.361  1.00  0.00    -0.111 C  
BRANCH   4   5
HETATM    5  C   UNL     1      -5.323  17.396  68.365  1.00  0.00    -0.145 C  
BRANCH   5   6
HETATM    6  C   UNL     1      -6.332  18.473  68.085  1.00  0.00    -0.205 A  
HETATM    7  C   UNL     1      -6.066  19.729  67.575  1.00  0.00    -0.189 A  
HETATM    8  N   UNL     1      -7.253  20.380  67.388  1.00  0.00    -0.291 NA 
HETATM    9  C   UNL     1      -8.302  19.564  67.738  1.00  0.00    -0.310 A  
HETATM   10  H   UNL     1      -7.346  21.333  67.039  1.00  0.00     0.000 HD 
HETATM   11  C   UNL     1      -7.755  18.383  68.236  1.00  0.00    -0.308 A  
HETATM   12  C   UNL     1      -8.635  17.393  68.725  1.00  0.00    -0.221 A  
HETATM   13  C   UNL     1     -10.030  17.590  68.659  1.00  0.00    -0.347 A  
HETATM   14  C   UNL     1      -9.681  19.782  67.643  1.00  0.00    -0.490 A  
HETATM   15  C   UNL     1     -10.534  18.772  68.101  1.00  0.00    -0.372 A  
BRANCH  13  16
HETATM   16  C   UNL     1     -10.969  16.539  69.195  1.00  0.00    -0.303 C  
BRANCH  16  17
HETATM   17  N   UNL     1     -11.281  15.467  68.262  1.00  0.00    -0.308 NA 
HETATM   18  C   UNL     1     -11.753  14.211  68.490  1.00  0.00    -0.345 A  
HETATM   19  N   UNL     1     -11.910  13.579  67.349  1.00  0.00    -0.376 NA 
HETATM   20  C   UNL     1     -11.516  14.505  66.431  1.00  0.00    -0.360 A  
HETATM   21  N   UNL     1     -11.123  15.678  66.939  1.00  0.00    -0.242 NA 
ENDBRANCH  16  17
ENDBRANCH  13  16
ENDBRANCH   5   6
ENDBRANCH   4   5
ENDBRANCH   2   4
TORSDOF 5
ENDMDL
MODEL      132
REMARK 921   NORMALIZED FREE ENERGY PREDICTED BY IDOCK:   -4.15 KCAL/MOL
REMARK 922        TOTAL FREE ENERGY PREDICTED BY IDOCK:   -5.82 KCAL/MOL
REMARK 923 INTER-LIGAND FREE ENERGY PREDICTED BY IDOCK:   -5.46 KCAL/MOL
REMARK 924 INTRA-LIGAND FREE ENERGY PREDICTED BY IDOCK:   -0.36 KCAL/MOL
REMARK 927      BINDING AFFINITY PREDICTED BY RF-SCORE:    0.00 PKD
ROOT
HETATM    1  C   UNL     1     -10.083  10.021  66.225  1.00  0.00    -0.243 C  
HETATM    2  N   UNL     1     -10.832   9.875  67.478  1.00  0.00    -0.278 NA 
HETATM    3  C   UNL     1     -10.119   8.958  68.371  1.00  0.00    -0.189 C  
ENDROOT
BRANCH   2   4
HETATM    4  C   UNL     1     -11.037  11.206  68.086  1.00  0.00    -0.264 C  
BRANCH   4   5
HETATM    5  C   UNL     1     -10.338  12.359  67.347  1.00  0.00    -0.217 C  
BRANCH   5   6
HETATM    6  C   UNL     1     -10.850  13.713  67.750  1.00  0.00    -0.266 A  
HETATM    7  C   UNL     1     -12.118  14.000  68.216  1.00  0.00    -0.277 A  
HETATM    8  N   UNL     1     -12.166  15.324  68.551  1.00  0.00    -0.560 NA 
HETATM    9  C   UNL     1     -10.941  15.911  68.341  1.00  0.00    -0.331 A  
HETATM   10  H   UNL     1     -12.991  15.807  68.904  1.00  0.00     0.000 HD 
HETATM   11  C   UNL     1     -10.111  14.941  67.781  1.00  0.00    -0.234 A  
HETATM   12  C   UNL     1      -8.801  15.314  67.413  1.00  0.00    -0.191 A  
HETATM   13  C   UNL     1      -8.343  16.626  67.655  1.00  0.00    -0.183 A  
HETATM   14  C   UNL     1     -10.511  17.215  68.610  1.00  0.00    -0.366 A  
HETATM   15  C   UNL     1      -9.197  17.552  68.269  1.00  0.00    -0.277 A  
BRANCH  13  16
HETATM   16  C   UNL     1      -6.948  17.029  67.247  1.00  0.00    -0.165 C  
BRANCH  16  17
HETATM   17  N   UNL     1      -6.828  18.392  66.753  1.00  0.00    -0.187 NA 
HETATM   18  C   UNL     1      -6.303  19.500  67.343  1.00  0.00    -0.191 A  
HETATM   19  N   UNL     1      -6.384  20.524  66.523  1.00  0.00    -0.211 NA 
HETATM   20  C   UNL     1      -6.975  19.986  65.421  1.00  0.00    -0.302 A  
HETATM   21  N   UNL     1      -7.265  18.684  65.510  1.00  0.00    -0.525 NA 
ENDBRANCH  16  17
ENDBRANCH  13  16
ENDBRANCH   5   6
ENDBRANCH   4   5
ENDBRANCH   2   4
TORSDOF 5
ENDMDL
MODEL      133
REMARK 921   NORMALIZED FREE ENERGY PREDICTED BY IDOCK:   -4.14 KCAL/MOL
REMARK 922        TOTAL FREE ENERGY PREDICTED BY IDOCK:   -5.82 KCAL/MOL
REMARK 923 INTER-LIGAND FREE ENERGY PREDICTED BY IDOCK:   -5.62 KCAL/MOL
REMARK 924 INTRA-LIGAND FREE ENERGY PREDICTED BY IDOCK:   -0.19 KCAL/MOL
REMARK 927      BINDING AFFINITY PREDICTED BY RF-SCORE:    0.00 PKD
ROOT
HETATM    1  C   UNL     1      -9.816  11.643  63.041  1.00  0.00    -0.305 C  
HETATM    2  N   UNL     1      -9.838  10.464  63.913  1.00  0.00    -0.307 NA 
HETATM    3  C   UNL     1      -8.723   9.578  63.568  1.00  0.00    -0.220 C  
ENDROOT
BRANCH   2   4
HETATM    4  C   UNL     1      -9.795  10.897  65.326  1.00  0.00    -0.265 C  
BRANCH   4   5
HETATM    5  C   UNL     1      -9.929  12.415  65.532  1.00  0.00    -0.260 C  
BRANCH   5   6
HETATM    6  C   UNL     1     -10.758  12.775  66.731  1.00  0.00    -0.278 A  
HETATM    7  C   UNL     1     -11.653  13.824  66.819  1.00  0.00    -0.370 A  
HETATM    8  N   UNL     1     -12.266  13.768  68.039  1.00  0.00    -0.437 NA 
HETATM    9  C   UNL     1     -11.813  12.681  68.748  1.00  0.00    -0.300 A  
HETATM   10  H   UNL     1     -12.959  14.435  68.375  1.00  0.00     0.000 HD 
HETATM   11  C   UNL     1     -10.822  12.073  67.979  1.00  0.00    -0.254 A  
HETATM   12  C   UNL     1     -10.149  10.956  68.518  1.00  0.00    -0.193 A  
HETATM   13  C   UNL     1     -10.514  10.450  69.784  1.00  0.00    -0.284 A  
HETATM   14  C   UNL     1     -12.210  12.194  69.998  1.00  0.00    -0.270 A  
HETATM   15  C   UNL     1     -11.553  11.064  70.497  1.00  0.00    -0.344 A  
BRANCH  13  16
HETATM   16  C   UNL     1      -9.784   9.267  70.367  1.00  0.00    -0.244 C  
BRANCH  16  17
HETATM   17  N   UNL     1     -10.634   8.136  70.710  1.00  0.00    -0.210 NA 
HETATM   18  C   UNL     1     -11.072   7.700  71.922  1.00  0.00    -0.249 A  
HETATM   19  N   UNL     1     -11.840   6.645  71.766  1.00  0.00    -0.320 NA 
HETATM   20  C   UNL     1     -11.845   6.468  70.415  1.00  0.00    -0.313 A  
HETATM   21  N   UNL     1     -11.123   7.355  69.724  1.00  0.00    -0.201 NA 
ENDBRANCH  16  17
ENDBRANCH  13  16
ENDBRANCH   5   6
ENDBRANCH   4   5
ENDBRANCH   2   4
TORSDOF 5
ENDMDL
MODEL      134
REMARK 921   NORMALIZED FREE ENERGY PREDICTED BY IDOCK:   -4.14 KCAL/MOL
REMARK 922        TOTAL FREE ENERGY PREDICTED BY IDOCK:   -5.81 KCAL/MOL
REMARK 923 INTER-LIGAND FREE ENERGY PREDICTED BY IDOCK:   -5.21 KCAL/MOL
REMARK 924 INTRA-LIGAND FREE ENERGY PREDICTED BY IDOCK:   -0.60 KCAL/MOL
REMARK 927      BINDING AFFINITY PREDICTED BY RF-SCORE:    0.00 PKD
ROOT
HETATM    1  C   UNL     1     -10.251   9.886  69.498  1.00  0.00    -0.225 C  
HETATM    2  N   UNL     1     -10.028  11.125  68.743  1.00  0.00    -0.201 NA 
HETATM    3  C   UNL     1      -8.590  11.346  68.577  1.00  0.00    -0.150 C  
ENDROOT
BRANCH   2   4
HETATM    4  C   UNL     1     -10.739  11.047  67.449  1.00  0.00    -0.257 C  
BRANCH   4   5
HETATM    5  C   UNL     1      -9.851  11.298  66.219  1.00  0.00    -0.248 C  
BRANCH   5   6
HETATM    6  C   UNL     1     -10.352  12.417  65.351  1.00  0.00    -0.303 A  
HETATM    7  C   UNL     1     -11.045  12.280  64.164  1.00  0.00    -0.366 A  
HETATM    8  N   UNL     1     -11.395  13.525  63.721  1.00  0.00    -0.588 NA 
HETATM    9  C   UNL     1     -10.969  14.482  64.612  1.00  0.00    -0.336 A  
HETATM   10  H   UNL     1     -11.898  13.717  62.856  1.00  0.00     0.000 HD 
HETATM   11  C   UNL     1     -10.258  13.823  65.614  1.00  0.00    -0.326 A  
HETATM   12  C   UNL     1      -9.660  14.599  66.629  1.00  0.00    -0.294 A  
HETATM   13  C   UNL     1      -9.825  16.000  66.642  1.00  0.00    -0.273 A  
HETATM   14  C   UNL     1     -11.166  15.867  64.606  1.00  0.00    -0.361 A  
HETATM   15  C   UNL     1     -10.593  16.612  65.642  1.00  0.00    -0.282 A  
BRANCH  13  16
HETATM   16  C   UNL     1      -9.172  16.830  67.718  1.00  0.00    -0.222 C  
BRANCH  16  17
HETATM   17  N   UNL     1      -7.851  16.374  68.123  1.00  0.00    -0.154 NA 
HETATM   18  C   UNL     1      -6.659  16.439  67.471  1.00  0.00    -0.156 A  
HETATM   19  N   UNL     1      -5.712  15.919  68.219  1.00  0.00    -0.104 NA 
HETATM   20  C   UNL     1      -6.384  15.542  69.343  1.00  0.00    -0.138 A  
HETATM   21  N   UNL     1      -7.695  15.799  69.334  1.00  0.00    -0.226 NA 
ENDBRANCH  16  17
ENDBRANCH  13  16
ENDBRANCH   5   6
ENDBRANCH   4   5
ENDBRANCH   2   4
TORSDOF 5
ENDMDL
MODEL      135
REMARK 921   NORMALIZED FREE ENERGY PREDICTED BY IDOCK:   -4.14 KCAL/MOL
REMARK 922        TOTAL FREE ENERGY PREDICTED BY IDOCK:   -5.81 KCAL/MOL
REMARK 923 INTER-LIGAND FREE ENERGY PREDICTED BY IDOCK:   -5.59 KCAL/MOL
REMARK 924 INTRA-LIGAND FREE ENERGY PREDICTED BY IDOCK:   -0.22 KCAL/MOL
REMARK 927      BINDING AFFINITY PREDICTED BY RF-SCORE:    0.00 PKD
ROOT
HETATM    1  C   UNL     1     -12.115  14.354  65.612  1.00  0.00    -0.354 C  
HETATM    2  N   UNL     1     -12.096  12.896  65.445  1.00  0.00    -0.429 NA 
HETATM    3  C   UNL     1     -11.144  12.536  64.392  1.00  0.00    -0.339 C  
ENDROOT
BRANCH   2   4
HETATM    4  C   UNL     1     -11.774  12.257  66.738  1.00  0.00    -0.342 C  
BRANCH   4   5
HETATM    5  C   UNL     1     -11.185  13.211  67.791  1.00  0.00    -0.308 C  
BRANCH   5   6
HETATM    6  C   UNL     1     -11.787  13.025  69.155  1.00  0.00    -0.360 A  
HETATM    7  C   UNL     1     -12.473  13.979  69.881  1.00  0.00    -0.246 A  
HETATM    8  N   UNL     1     -12.931  13.400  71.031  1.00  0.00    -0.234 NA 
HETATM    9  C   UNL     1     -12.584  12.070  71.063  1.00  0.00    -0.273 A  
HETATM   10  H   UNL     1     -13.455  13.884  71.759  1.00  0.00     0.000 HD 
HETATM   11  C   UNL     1     -11.813  11.819  69.930  1.00  0.00    -0.423 A  
HETATM   12  C   UNL     1     -11.277  10.525  69.759  1.00  0.00    -0.361 A  
HETATM   13  C   UNL     1     -11.563   9.510  70.696  1.00  0.00    -0.350 A  
HETATM   14  C   UNL     1     -12.900  11.082  72.001  1.00  0.00    -0.296 A  
HETATM   15  C   UNL     1     -12.387   9.797  71.793  1.00  0.00    -0.470 A  
BRANCH  13  16
HETATM   16  C   UNL     1     -10.977   8.132  70.523  1.00  0.00    -0.243 C  
BRANCH  16  17
HETATM   17  N   UNL     1     -10.365   7.888  69.225  1.00  0.00    -0.217 NA 
HETATM   18  C   UNL     1      -9.067   7.644  68.896  1.00  0.00    -0.140 A  
HETATM   19  N   UNL     1      -8.962   7.462  67.599  1.00  0.00    -0.127 NA 
HETATM   20  C   UNL     1     -10.246   7.606  67.166  1.00  0.00    -0.290 A  
HETATM   21  N   UNL     1     -11.142   7.866  68.122  1.00  0.00     0.218 NA 
ENDBRANCH  16  17
ENDBRANCH  13  16
ENDBRANCH   5   6
ENDBRANCH   4   5
ENDBRANCH   2   4
TORSDOF 5
ENDMDL
MODEL      136
REMARK 921   NORMALIZED FREE ENERGY PREDICTED BY IDOCK:   -4.12 KCAL/MOL
REMARK 922        TOTAL FREE ENERGY PREDICTED BY IDOCK:   -5.78 KCAL/MOL
REMARK 923 INTER-LIGAND FREE ENERGY PREDICTED BY IDOCK:   -5.23 KCAL/MOL
REMARK 924 INTRA-LIGAND FREE ENERGY PREDICTED BY IDOCK:   -0.56 KCAL/MOL
REMARK 927      BINDING AFFINITY PREDICTED BY RF-SCORE:    0.00 PKD
ROOT
HETATM    1  C   UNL     1     -10.780   4.649  65.571  1.00  0.00    -0.134 C  
HETATM    2  N   UNL     1     -10.277   4.908  66.925  1.00  0.00    -0.221 NA 
HETATM    3  C   UNL     1      -9.381   3.823  67.331  1.00  0.00    -0.198 C  
ENDROOT
BRANCH   2   4
HETATM    4  C   UNL     1      -9.613   6.229  66.959  1.00  0.00    -0.140 C  
BRANCH   4   5
HETATM    5  C   UNL     1      -9.164   6.680  68.358  1.00  0.00    -0.122 C  
BRANCH   5   6
HETATM    6  C   UNL     1     -10.288   7.237  69.185  1.00  0.00    -0.207 A  
HETATM    7  C   UNL     1     -11.070   6.532  70.079  1.00  0.00    -0.363 A  
HETATM    8  N   UNL     1     -11.925   7.407  70.690  1.00  0.00    -0.498 NA 
HETATM    9  C   UNL     1     -11.700   8.684  70.235  1.00  0.00     0.081 A  
HETATM   10  H   UNL     1     -12.627   7.149  71.382  1.00  0.00     0.000 HD 
HETATM   11  C   UNL     1     -10.722   8.602  69.245  1.00  0.00    -0.151 A  
HETATM   12  C   UNL     1     -10.352   9.785  68.571  1.00  0.00    -0.228 A  
HETATM   13  C   UNL     1     -10.933  11.019  68.933  1.00  0.00    -0.277 A  
HETATM   14  C   UNL     1     -12.282   9.894  70.629  1.00  0.00    -0.325 A  
HETATM   15  C   UNL     1     -11.874  11.059  69.970  1.00  0.00    -0.435 A  
BRANCH  13  16
HETATM   16  C   UNL     1     -10.550  12.281  68.202  1.00  0.00    -0.214 C  
BRANCH  16  17
HETATM   17  N   UNL     1     -10.912  12.302  66.792  1.00  0.00    -0.263 NA 
HETATM   18  C   UNL     1     -10.168  12.018  65.689  1.00  0.00    -0.252 A  
HETATM   19  N   UNL     1     -10.905  12.148  64.608  1.00  0.00    -0.292 NA 
HETATM   20  C   UNL     1     -12.116  12.520  65.109  1.00  0.00    -0.446 A  
HETATM   21  N   UNL     1     -12.173  12.626  66.440  1.00  0.00    -0.543 NA 
ENDBRANCH  16  17
ENDBRANCH  13  16
ENDBRANCH   5   6
ENDBRANCH   4   5
ENDBRANCH   2   4
TORSDOF 5
ENDMDL
MODEL      137
REMARK 921   NORMALIZED FREE ENERGY PREDICTED BY IDOCK:   -4.11 KCAL/MOL
REMARK 922        TOTAL FREE ENERGY PREDICTED BY IDOCK:   -5.78 KCAL/MOL
REMARK 923 INTER-LIGAND FREE ENERGY PREDICTED BY IDOCK:   -5.21 KCAL/MOL
REMARK 924 INTRA-LIGAND FREE ENERGY PREDICTED BY IDOCK:   -0.57 KCAL/MOL
REMARK 927      BINDING AFFINITY PREDICTED BY RF-SCORE:    0.00 PKD
ROOT
HETATM    1  C   UNL     1     -12.288  12.272  63.113  1.00  0.00    -0.240 C  
HETATM    2  N   UNL     1     -12.601  12.752  64.464  1.00  0.00    -0.659 NA 
HETATM    3  C   UNL     1     -11.785  12.030  65.443  1.00  0.00    -0.255 C  
ENDROOT
BRANCH   2   4
HETATM    4  C   UNL     1     -12.391  14.214  64.527  1.00  0.00    -0.392 C  
BRANCH   4   5
HETATM    5  C   UNL     1     -12.020  14.745  65.921  1.00  0.00    -0.154 C  
BRANCH   5   6
HETATM    6  C   UNL     1     -10.743  15.536  65.929  1.00  0.00    -0.346 A  
HETATM    7  C   UNL     1     -10.583  16.832  65.478  1.00  0.00    -0.230 A  
HETATM    8  N   UNL     1      -9.297  17.222  65.731  1.00  0.00    -0.508 NA 
HETATM    9  C   UNL     1      -8.612  16.214  66.368  1.00  0.00    -0.330 A  
HETATM   10  H   UNL     1      -8.903  18.128  65.482  1.00  0.00     0.000 HD 
HETATM   11  C   UNL     1      -9.474  15.121  66.451  1.00  0.00    -0.325 A  
HETATM   12  C   UNL     1      -8.983  13.925  67.017  1.00  0.00    -0.251 A  
HETATM   13  C   UNL     1      -7.667  13.868  67.523  1.00  0.00    -0.192 A  
HETATM   14  C   UNL     1      -7.309  16.195  66.876  1.00  0.00    -0.255 A  
HETATM   15  C   UNL     1      -6.856  15.009  67.464  1.00  0.00    -0.197 A  
BRANCH  13  16
HETATM   16  C   UNL     1      -7.137  12.586  68.113  1.00  0.00    -0.103 C  
BRANCH  16  17
HETATM   17  N   UNL     1      -6.580  11.653  67.144  1.00  0.00    -0.121 NA 
HETATM   18  C   UNL     1      -7.105  10.515  66.616  1.00  0.00    -0.118 A  
HETATM   19  N   UNL     1      -6.261   9.991  65.756  1.00  0.00    -0.084 NA 
HETATM   20  C   UNL     1      -5.213  10.860  65.789  1.00  0.00    -0.133 A  
HETATM   21  N   UNL     1      -5.360  11.895  66.622  1.00  0.00    -0.315 NA 
ENDBRANCH  16  17
ENDBRANCH  13  16
ENDBRANCH   5   6
ENDBRANCH   4   5
ENDBRANCH   2   4
TORSDOF 5
ENDMDL
MODEL      138
REMARK 921   NORMALIZED FREE ENERGY PREDICTED BY IDOCK:   -4.11 KCAL/MOL
REMARK 922        TOTAL FREE ENERGY PREDICTED BY IDOCK:   -5.77 KCAL/MOL
REMARK 923 INTER-LIGAND FREE ENERGY PREDICTED BY IDOCK:   -5.16 KCAL/MOL
REMARK 924 INTRA-LIGAND FREE ENERGY PREDICTED BY IDOCK:   -0.61 KCAL/MOL
REMARK 927      BINDING AFFINITY PREDICTED BY RF-SCORE:    0.00 PKD
ROOT
HETATM    1  C   UNL     1      -7.217  16.113  69.323  1.00  0.00    -0.225 C  
HETATM    2  N   UNL     1      -7.963  16.601  68.157  1.00  0.00    -0.172 NA 
HETATM    3  C   UNL     1      -8.130  15.513  67.190  1.00  0.00    -0.216 C  
ENDROOT
BRANCH   2   4
HETATM    4  C   UNL     1      -9.257  17.162  68.601  1.00  0.00    -0.263 C  
BRANCH   4   5
HETATM    5  C   UNL     1     -10.478  16.290  68.263  1.00  0.00    -0.284 C  
BRANCH   5   6
HETATM    6  C   UNL     1     -11.106  15.662  69.474  1.00  0.00    -0.298 A  
HETATM    7  C   UNL     1     -11.535  16.324  70.608  1.00  0.00    -0.272 A  
HETATM    8  N   UNL     1     -12.120  15.415  71.444  1.00  0.00    -0.335 NA 
HETATM    9  C   UNL     1     -12.111  14.167  70.869  1.00  0.00    -0.344 A  
HETATM   10  H   UNL     1     -12.507  15.632  72.362  1.00  0.00     0.000 HD 
HETATM   11  C   UNL     1     -11.427  14.277  69.659  1.00  0.00    -0.334 A  
HETATM   12  C   UNL     1     -11.226  13.107  68.896  1.00  0.00    -0.324 A  
HETATM   13  C   UNL     1     -11.752  11.874  69.337  1.00  0.00    -0.401 A  
HETATM   14  C   UNL     1     -12.660  12.963  71.324  1.00  0.00    -0.352 A  
HETATM   15  C   UNL     1     -12.479  11.824  70.534  1.00  0.00    -0.317 A  
BRANCH  13  16
HETATM   16  C   UNL     1     -11.525  10.621  68.529  1.00  0.00    -0.265 C  
BRANCH  16  17
HETATM   17  N   UNL     1     -10.154  10.132  68.537  1.00  0.00    -0.162 NA 
HETATM   18  C   UNL     1      -9.319   9.871  69.579  1.00  0.00    -0.220 A  
HETATM   19  N   UNL     1      -8.169   9.422  69.127  1.00  0.00    -0.108 NA 
HETATM   20  C   UNL     1      -8.350   9.425  67.777  1.00  0.00    -0.115 A  
HETATM   21  N   UNL     1      -9.548   9.849  67.365  1.00  0.00    -0.152 NA 
ENDBRANCH  16  17
ENDBRANCH  13  16
ENDBRANCH   5   6
ENDBRANCH   4   5
ENDBRANCH   2   4
TORSDOF 5
ENDMDL
MODEL      139
REMARK 921   NORMALIZED FREE ENERGY PREDICTED BY IDOCK:   -4.09 KCAL/MOL
REMARK 922        TOTAL FREE ENERGY PREDICTED BY IDOCK:   -5.75 KCAL/MOL
REMARK 923 INTER-LIGAND FREE ENERGY PREDICTED BY IDOCK:   -5.21 KCAL/MOL
REMARK 924 INTRA-LIGAND FREE ENERGY PREDICTED BY IDOCK:   -0.54 KCAL/MOL
REMARK 927      BINDING AFFINITY PREDICTED BY RF-SCORE:    0.00 PKD
ROOT
HETATM    1  C   UNL     1      -5.550   9.807  71.386  1.00  0.00    -0.067 C  
HETATM    2  N   UNL     1      -6.607  10.472  70.615  1.00  0.00    -0.340 NA 
HETATM    3  C   UNL     1      -6.142  11.793  70.184  1.00  0.00    -0.147 C  
ENDROOT
BRANCH   2   4
HETATM    4  C   UNL     1      -6.999   9.615  69.477  1.00  0.00    -0.059 C  
BRANCH   4   5
HETATM    5  C   UNL     1      -7.882   8.415  69.859  1.00  0.00    -0.101 C  
BRANCH   5   6
HETATM    6  C   UNL     1      -9.196   8.820  70.462  1.00  0.00    -0.218 A  
HETATM    7  C   UNL     1      -9.650   8.493  71.726  1.00  0.00    -0.267 A  
HETATM    8  N   UNL     1     -10.848   9.117  71.929  1.00  0.00    -0.347 NA 
HETATM    9  C   UNL     1     -11.181   9.876  70.832  1.00  0.00    -0.360 A  
HETATM   10  H   UNL     1     -11.414   9.033  72.773  1.00  0.00     0.000 HD 
HETATM   11  C   UNL     1     -10.195   9.662  69.871  1.00  0.00    -0.279 A  
HETATM   12  C   UNL     1     -10.339  10.288  68.614  1.00  0.00    -0.203 A  
HETATM   13  C   UNL     1     -11.434  11.143  68.370  1.00  0.00    -0.377 A  
HETATM   14  C   UNL     1     -12.269  10.731  70.627  1.00  0.00    -0.474 A  
HETATM   15  C   UNL     1     -12.372  11.369  69.386  1.00  0.00    -0.184 A  
BRANCH  13  16
HETATM   16  C   UNL     1     -11.597  11.800  67.022  1.00  0.00    -0.244 C  
BRANCH  16  17
HETATM   17  N   UNL     1     -11.081  13.158  66.940  1.00  0.00    -0.276 NA 
HETATM   18  C   UNL     1     -11.645  14.338  67.316  1.00  0.00    -0.377 A  
HETATM   19  N   UNL     1     -10.813  15.327  67.076  1.00  0.00    -0.318 NA 
HETATM   20  C   UNL     1      -9.731  14.692  66.545  1.00  0.00    -0.280 A  
HETATM   21  N   UNL     1      -9.844  13.365  66.442  1.00  0.00    -0.291 NA 
ENDBRANCH  16  17
ENDBRANCH  13  16
ENDBRANCH   5   6
ENDBRANCH   4   5
ENDBRANCH   2   4
TORSDOF 5
ENDMDL
MODEL      140
REMARK 921   NORMALIZED FREE ENERGY PREDICTED BY IDOCK:   -4.09 KCAL/MOL
REMARK 922        TOTAL FREE ENERGY PREDICTED BY IDOCK:   -5.75 KCAL/MOL
REMARK 923 INTER-LIGAND FREE ENERGY PREDICTED BY IDOCK:   -5.48 KCAL/MOL
REMARK 924 INTRA-LIGAND FREE ENERGY PREDICTED BY IDOCK:   -0.26 KCAL/MOL
REMARK 927      BINDING AFFINITY PREDICTED BY RF-SCORE:    0.00 PKD
ROOT
HETATM    1  C   UNL     1     -12.885  10.857  71.415  1.00  0.00    -0.449 C  
HETATM    2  N   UNL     1     -12.860  11.995  70.489  1.00  0.00     0.034 NA 
HETATM    3  C   UNL     1     -12.596  13.228  71.235  1.00  0.00    -0.308 C  
ENDROOT
BRANCH   2   4
HETATM    4  C   UNL     1     -11.854  11.749  69.434  1.00  0.00    -0.334 C  
BRANCH   4   5
HETATM    5  C   UNL     1     -11.411  13.008  68.671  1.00  0.00    -0.344 C  
BRANCH   5   6
HETATM    6  C   UNL     1     -11.336  12.799  67.185  1.00  0.00    -0.365 A  
HETATM    7  C   UNL     1     -11.775  13.678  66.214  1.00  0.00    -0.367 A  
HETATM    8  N   UNL     1     -11.456  13.164  64.989  1.00  0.00    -0.301 NA 
HETATM    9  C   UNL     1     -10.787  11.972  65.135  1.00  0.00    -0.300 A  
HETATM   10  H   UNL     1     -11.682  13.600  64.096  1.00  0.00     0.000 HD 
HETATM   11  C   UNL     1     -10.750  11.686  66.498  1.00  0.00    -0.313 A  
HETATM   12  C   UNL     1     -10.162  10.471  66.911  1.00  0.00    -0.280 A  
HETATM   13  C   UNL     1      -9.589   9.602  65.959  1.00  0.00    -0.305 A  
HETATM   14  C   UNL     1     -10.212  11.140  64.168  1.00  0.00    -0.405 A  
HETATM   15  C   UNL     1      -9.604   9.958  64.603  1.00  0.00    -0.320 A  
BRANCH  13  16
HETATM   16  C   UNL     1      -8.974   8.296  66.397  1.00  0.00    -0.166 C  
BRANCH  16  17
HETATM   17  N   UNL     1      -9.689   7.615  67.467  1.00  0.00    -0.148 NA 
HETATM   18  C   UNL     1     -10.916   7.028  67.470  1.00  0.00    -0.229 A  
HETATM   19  N   UNL     1     -11.161   6.512  68.654  1.00  0.00    -0.291 NA 
HETATM   20  C   UNL     1     -10.033   6.813  69.356  1.00  0.00    -0.157 A  
HETATM   21  N   UNL     1      -9.101   7.486  68.674  1.00  0.00    -0.135 NA 
ENDBRANCH  16  17
ENDBRANCH  13  16
ENDBRANCH   5   6
ENDBRANCH   4   5
ENDBRANCH   2   4
TORSDOF 5
ENDMDL
MODEL      141
REMARK 921   NORMALIZED FREE ENERGY PREDICTED BY IDOCK:   -4.08 KCAL/MOL
REMARK 922        TOTAL FREE ENERGY PREDICTED BY IDOCK:   -5.74 KCAL/MOL
REMARK 923 INTER-LIGAND FREE ENERGY PREDICTED BY IDOCK:   -5.23 KCAL/MOL
REMARK 924 INTRA-LIGAND FREE ENERGY PREDICTED BY IDOCK:   -0.50 KCAL/MOL
REMARK 927      BINDING AFFINITY PREDICTED BY RF-SCORE:    0.00 PKD
ROOT
HETATM    1  C   UNL     1     -11.690  15.906  71.395  1.00  0.00    -0.467 C  
HETATM    2  N   UNL     1     -12.374  15.026  72.349  1.00  0.00    -0.339 NA 
HETATM    3  C   UNL     1     -13.411  15.781  73.056  1.00  0.00    -0.583 C  
ENDROOT
BRANCH   2   4
HETATM    4  C   UNL     1     -12.921  13.854  71.632  1.00  0.00    -0.352 C  
BRANCH   4   5
HETATM    5  C   UNL     1     -12.218  13.536  70.302  1.00  0.00    -0.417 C  
BRANCH   5   6
HETATM    6  C   UNL     1     -11.988  12.066  70.094  1.00  0.00    -0.401 A  
HETATM    7  C   UNL     1     -12.725  11.039  70.650  1.00  0.00    -0.288 A  
HETATM    8  N   UNL     1     -12.257   9.854  70.156  1.00  0.00    -0.485 NA 
HETATM    9  C   UNL     1     -11.240  10.083  69.259  1.00  0.00    -0.166 A  
HETATM   10  H   UNL     1     -12.610   8.934  70.414  1.00  0.00     0.000 HD 
HETATM   11  C   UNL     1     -11.007  11.457  69.245  1.00  0.00    -0.282 A  
HETATM   12  C   UNL     1      -9.957  11.949  68.439  1.00  0.00    -0.203 A  
HETATM   13  C   UNL     1      -9.204  11.065  67.639  1.00  0.00    -0.151 A  
HETATM   14  C   UNL     1     -10.523   9.183  68.464  1.00  0.00    -0.238 A  
HETATM   15  C   UNL     1      -9.511   9.697  67.647  1.00  0.00    -0.155 A  
BRANCH  13  16
HETATM   16  C   UNL     1      -8.073  11.587  66.790  1.00  0.00    -0.158 C  
BRANCH  16  17
HETATM   17  N   UNL     1      -7.023  12.272  67.529  1.00  0.00    -0.128 NA 
HETATM   18  C   UNL     1      -6.197  11.819  68.510  1.00  0.00    -0.051 A  
HETATM   19  N   UNL     1      -5.380  12.777  68.885  1.00  0.00    -0.066 NA 
HETATM   20  C   UNL     1      -5.748  13.820  68.090  1.00  0.00    -0.118 A  
HETATM   21  N   UNL     1      -6.748  13.562  67.241  1.00  0.00    -0.186 NA 
ENDBRANCH  16  17
ENDBRANCH  13  16
ENDBRANCH   5   6
ENDBRANCH   4   5
ENDBRANCH   2   4
TORSDOF 5
ENDMDL
MODEL      142
REMARK 921   NORMALIZED FREE ENERGY PREDICTED BY IDOCK:   -4.08 KCAL/MOL
REMARK 922        TOTAL FREE ENERGY PREDICTED BY IDOCK:   -5.73 KCAL/MOL
REMARK 923 INTER-LIGAND FREE ENERGY PREDICTED BY IDOCK:   -5.79 KCAL/MOL
REMARK 924 INTRA-LIGAND FREE ENERGY PREDICTED BY IDOCK:    0.06 KCAL/MOL
REMARK 927      BINDING AFFINITY PREDICTED BY RF-SCORE:    0.00 PKD
ROOT
HETATM    1  C   UNL     1      -7.475  14.571  69.021  1.00  0.00    -0.131 C  
HETATM    2  N   UNL     1      -7.892  15.937  69.354  1.00  0.00    -0.227 NA 
HETATM    3  C   UNL     1      -7.200  16.888  68.482  1.00  0.00    -0.199 C  
ENDROOT
BRANCH   2   4
HETATM    4  C   UNL     1      -9.363  16.043  69.246  1.00  0.00    -0.244 C  
BRANCH   4   5
HETATM    5  C   UNL     1      -9.853  17.009  68.155  1.00  0.00    -0.273 C  
BRANCH   5   6
HETATM    6  C   UNL     1     -10.334  16.304  66.918  1.00  0.00    -0.299 A  
HETATM    7  C   UNL     1     -10.349  16.821  65.637  1.00  0.00    -0.265 A  
HETATM    8  N   UNL     1     -10.780  15.845  64.782  1.00  0.00    -0.742 NA 
HETATM    9  C   UNL     1     -11.022  14.682  65.473  1.00  0.00    -0.340 A  
HETATM   10  H   UNL     1     -10.903  15.964  63.778  1.00  0.00     0.000 HD 
HETATM   11  C   UNL     1     -10.811  14.955  66.824  1.00  0.00    -0.320 A  
HETATM   12  C   UNL     1     -11.055  13.927  67.760  1.00  0.00    -0.281 A  
HETATM   13  C   UNL     1     -11.457  12.648  67.319  1.00  0.00    -0.402 A  
HETATM   14  C   UNL     1     -11.403  13.420  65.004  1.00  0.00    -0.330 A  
HETATM   15  C   UNL     1     -11.605  12.407  65.947  1.00  0.00    -0.449 A  
BRANCH  13  16
HETATM   16  C   UNL     1     -11.733  11.554  68.320  1.00  0.00    -0.301 C  
BRANCH  16  17
HETATM   17  N   UNL     1     -10.720  10.511  68.377  1.00  0.00    -0.207 NA 
HETATM   18  C   UNL     1      -9.864  10.168  69.377  1.00  0.00    -0.229 A  
HETATM   19  N   UNL     1      -9.129   9.144  69.005  1.00  0.00    -0.142 NA 
HETATM   20  C   UNL     1      -9.578   8.889  67.745  1.00  0.00    -0.147 A  
HETATM   21  N   UNL     1     -10.553   9.695  67.314  1.00  0.00    -0.260 NA 
ENDBRANCH  16  17
ENDBRANCH  13  16
ENDBRANCH   5   6
ENDBRANCH   4   5
ENDBRANCH   2   4
TORSDOF 5
ENDMDL
MODEL      143
REMARK 921   NORMALIZED FREE ENERGY PREDICTED BY IDOCK:   -4.08 KCAL/MOL
REMARK 922        TOTAL FREE ENERGY PREDICTED BY IDOCK:   -5.73 KCAL/MOL
REMARK 923 INTER-LIGAND FREE ENERGY PREDICTED BY IDOCK:   -5.28 KCAL/MOL
REMARK 924 INTRA-LIGAND FREE ENERGY PREDICTED BY IDOCK:   -0.45 KCAL/MOL
REMARK 927      BINDING AFFINITY PREDICTED BY RF-SCORE:    0.00 PKD
ROOT
HETATM    1  C   UNL     1      -7.474   4.526  69.009  1.00  0.00    -0.056 C  
HETATM    2  N   UNL     1      -7.310   5.706  68.152  1.00  0.00    -0.072 NA 
HETATM    3  C   UNL     1      -7.715   5.377  66.783  1.00  0.00    -0.100 C  
ENDROOT
BRANCH   2   4
HETATM    4  C   UNL     1      -8.086   6.833  68.712  1.00  0.00    -0.120 C  
BRANCH   4   5
HETATM    5  C   UNL     1      -9.544   6.905  68.229  1.00  0.00    -0.128 C  
BRANCH   5   6
HETATM    6  C   UNL     1     -10.348   7.954  68.943  1.00  0.00    -0.225 A  
HETATM    7  C   UNL     1     -10.970   7.812  70.168  1.00  0.00    -0.241 A  
HETATM    8  N   UNL     1     -11.528   9.011  70.512  1.00  0.00    -0.350 NA 
HETATM    9  C   UNL     1     -11.259   9.953  69.546  1.00  0.00    -0.177 A  
HETATM   10  H   UNL     1     -12.065   9.183  71.361  1.00  0.00     0.000 HD 
HETATM   11  C   UNL     1     -10.574   9.305  68.520  1.00  0.00    -0.222 A  
HETATM   12  C   UNL     1     -10.233  10.049  67.370  1.00  0.00    -0.269 A  
HETATM   13  C   UNL     1     -10.543  11.423  67.298  1.00  0.00    -0.264 A  
HETATM   14  C   UNL     1     -11.566  11.317  69.512  1.00  0.00    -0.398 A  
HETATM   15  C   UNL     1     -11.186  12.043  68.378  1.00  0.00    -0.313 A  
BRANCH  13  16
HETATM   16  C   UNL     1     -10.192  12.215  66.063  1.00  0.00    -0.237 C  
BRANCH  16  17
HETATM   17  N   UNL     1     -11.228  12.240  65.041  1.00  0.00    -0.313 NA 
HETATM   18  C   UNL     1     -12.350  13.003  64.944  1.00  0.00    -0.459 A  
HETATM   19  N   UNL     1     -12.997  12.708  63.838  1.00  0.00    -0.687 NA 
HETATM   20  C   UNL     1     -12.218  11.740  63.279  1.00  0.00    -0.285 A  
HETATM   21  N   UNL     1     -11.123  11.419  63.975  1.00  0.00    -0.365 NA 
ENDBRANCH  16  17
ENDBRANCH  13  16
ENDBRANCH   5   6
ENDBRANCH   4   5
ENDBRANCH   2   4
TORSDOF 5
ENDMDL
MODEL      144
REMARK 921   NORMALIZED FREE ENERGY PREDICTED BY IDOCK:   -4.07 KCAL/MOL
REMARK 922        TOTAL FREE ENERGY PREDICTED BY IDOCK:   -5.72 KCAL/MOL
REMARK 923 INTER-LIGAND FREE ENERGY PREDICTED BY IDOCK:   -5.50 KCAL/MOL
REMARK 924 INTRA-LIGAND FREE ENERGY PREDICTED BY IDOCK:   -0.22 KCAL/MOL
REMARK 927      BINDING AFFINITY PREDICTED BY RF-SCORE:    0.00 PKD
ROOT
HETATM    1  C   UNL     1      -9.695  18.370  66.543  1.00  0.00    -0.348 C  
HETATM    2  N   UNL     1      -9.519  16.965  66.927  1.00  0.00    -0.242 NA 
HETATM    3  C   UNL     1      -9.892  16.790  68.333  1.00  0.00    -0.253 C  
ENDROOT
BRANCH   2   4
HETATM    4  C   UNL     1     -10.314  16.106  66.023  1.00  0.00    -0.358 C  
BRANCH   4   5
HETATM    5  C   UNL     1     -11.008  14.922  66.717  1.00  0.00    -0.326 C  
BRANCH   5   6
HETATM    6  C   UNL     1     -10.663  13.596  66.103  1.00  0.00    -0.286 A  
HETATM    7  C   UNL     1     -10.117  13.394  64.850  1.00  0.00    -0.233 A  
HETATM    8  N   UNL     1      -9.875  12.058  64.694  1.00  0.00    -0.416 NA 
HETATM    9  C   UNL     1     -10.225  11.376  65.835  1.00  0.00    -0.246 A  
HETATM   10  H   UNL     1      -9.491  11.629  63.852  1.00  0.00     0.000 HD 
HETATM   11  C   UNL     1     -10.779  12.304  66.715  1.00  0.00    -0.272 A  
HETATM   12  C   UNL     1     -11.278  11.839  67.950  1.00  0.00    -0.331 A  
HETATM   13  C   UNL     1     -11.168  10.475  68.291  1.00  0.00    -0.354 A  
HETATM   14  C   UNL     1     -10.085  10.020  66.150  1.00  0.00    -0.317 A  
HETATM   15  C   UNL     1     -10.554   9.588  67.395  1.00  0.00    -0.337 A  
BRANCH  13  16
HETATM   16  C   UNL     1     -11.714   9.975  69.604  1.00  0.00    -0.034 C  
BRANCH  16  17
HETATM   17  N   UNL     1     -10.911   8.945  70.246  1.00  0.00    -0.241 NA 
HETATM   18  C   UNL     1     -10.884   7.599  70.049  1.00  0.00    -0.243 A  
HETATM   19  N   UNL     1      -9.988   7.050  70.837  1.00  0.00    -0.193 NA 
HETATM   20  C   UNL     1      -9.480   8.119  71.513  1.00  0.00    -0.171 A  
HETATM   21  N   UNL     1     -10.011   9.301  71.186  1.00  0.00    -0.297 NA 
ENDBRANCH  16  17
ENDBRANCH  13  16
ENDBRANCH   5   6
ENDBRANCH   4   5
ENDBRANCH   2   4
TORSDOF 5
ENDMDL
MODEL      145
REMARK 921   NORMALIZED FREE ENERGY PREDICTED BY IDOCK:   -4.07 KCAL/MOL
REMARK 922        TOTAL FREE ENERGY PREDICTED BY IDOCK:   -5.72 KCAL/MOL
REMARK 923 INTER-LIGAND FREE ENERGY PREDICTED BY IDOCK:   -5.70 KCAL/MOL
REMARK 924 INTRA-LIGAND FREE ENERGY PREDICTED BY IDOCK:   -0.02 KCAL/MOL
REMARK 927      BINDING AFFINITY PREDICTED BY RF-SCORE:    0.00 PKD
ROOT
HETATM    1  C   UNL     1     -10.977   9.407  71.100  1.00  0.00    -0.360 C  
HETATM    2  N   UNL     1     -11.689  10.347  70.228  1.00  0.00    -0.296 NA 
HETATM    3  C   UNL     1     -12.306  11.399  71.040  1.00  0.00    -0.343 C  
ENDROOT
BRANCH   2   4
HETATM    4  C   UNL     1     -10.753  10.891  69.221  1.00  0.00    -0.231 C  
BRANCH   4   5
HETATM    5  C   UNL     1     -10.783  10.165  67.866  1.00  0.00    -0.317 C  
BRANCH   5   6
HETATM    6  C   UNL     1     -10.370  11.043  66.719  1.00  0.00    -0.284 A  
HETATM    7  C   UNL     1      -9.795  10.623  65.535  1.00  0.00    -0.258 A  
HETATM    8  N   UNL     1      -9.645  11.709  64.719  1.00  0.00    -0.381 NA 
HETATM    9  C   UNL     1     -10.137  12.836  65.333  1.00  0.00    -0.259 A  
HETATM   10  H   UNL     1      -9.227  11.686  63.789  1.00  0.00     0.000 HD 
HETATM   11  C   UNL     1     -10.543  12.462  66.613  1.00  0.00    -0.256 A  
HETATM   12  C   UNL     1     -11.036  13.464  67.477  1.00  0.00    -0.294 A  
HETATM   13  C   UNL     1     -11.154  14.795  67.025  1.00  0.00    -0.333 A  
HETATM   14  C   UNL     1     -10.257  14.143  64.849  1.00  0.00    -0.371 A  
HETATM   15  C   UNL     1     -10.782  15.112  65.711  1.00  0.00    -0.359 A  
BRANCH  13  16
HETATM   16  C   UNL     1     -11.666  15.868  67.953  1.00  0.00     0.009 C  
BRANCH  16  17
HETATM   17  N   UNL     1     -11.620  15.524  69.366  1.00  0.00    -0.331 NA 
HETATM   18  C   UNL     1     -10.578  15.533  70.241  1.00  0.00    -0.304 A  
HETATM   19  N   UNL     1     -10.993  15.165  71.432  1.00  0.00    -0.186 NA 
HETATM   20  C   UNL     1     -12.321  14.938  71.236  1.00  0.00    -0.322 A  
HETATM   21  N   UNL     1     -12.755  15.145  69.989  1.00  0.00    -0.221 NA 
ENDBRANCH  16  17
ENDBRANCH  13  16
ENDBRANCH   5   6
ENDBRANCH   4   5
ENDBRANCH   2   4
TORSDOF 5
ENDMDL
MODEL      146
REMARK 921   NORMALIZED FREE ENERGY PREDICTED BY IDOCK:   -4.07 KCAL/MOL
REMARK 922        TOTAL FREE ENERGY PREDICTED BY IDOCK:   -5.71 KCAL/MOL
REMARK 923 INTER-LIGAND FREE ENERGY PREDICTED BY IDOCK:   -5.30 KCAL/MOL
REMARK 924 INTRA-LIGAND FREE ENERGY PREDICTED BY IDOCK:   -0.41 KCAL/MOL
REMARK 927      BINDING AFFINITY PREDICTED BY RF-SCORE:    0.00 PKD
ROOT
HETATM    1  C   UNL     1      -5.449  15.700  70.147  1.00  0.00    -0.147 C  
HETATM    2  N   UNL     1      -5.149  15.399  68.742  1.00  0.00    -0.096 NA 
HETATM    3  C   UNL     1      -6.036  14.334  68.269  1.00  0.00    -0.120 C  
ENDROOT
BRANCH   2   4
HETATM    4  C   UNL     1      -5.273  16.633  67.938  1.00  0.00    -0.120 C  
BRANCH   4   5
HETATM    5  C   UNL     1      -5.665  17.882  68.744  1.00  0.00    -0.184 C  
BRANCH   5   6
HETATM    6  C   UNL     1      -6.975  18.475  68.311  1.00  0.00    -0.261 A  
HETATM    7  C   UNL     1      -7.161  19.723  67.749  1.00  0.00    -0.269 A  
HETATM    8  N   UNL     1      -8.480  19.858  67.419  1.00  0.00    -0.316 NA 
HETATM    9  C   UNL     1      -9.165  18.706  67.727  1.00  0.00    -0.285 A  
HETATM   10  H   UNL     1      -8.896  20.691  67.005  1.00  0.00     0.000 HD 
HETATM   11  C   UNL     1      -8.262  17.843  68.344  1.00  0.00    -0.303 A  
HETATM   12  C   UNL     1      -8.739  16.601  68.815  1.00  0.00    -0.260 A  
HETATM   13  C   UNL     1     -10.088  16.238  68.616  1.00  0.00    -0.233 A  
HETATM   14  C   UNL     1     -10.504  18.369  67.499  1.00  0.00    -0.445 A  
HETATM   15  C   UNL     1     -10.946  17.118  67.943  1.00  0.00    -0.208 A  
BRANCH  13  16
HETATM   16  C   UNL     1     -10.602  14.918  69.133  1.00  0.00    -0.246 C  
BRANCH  16  17
HETATM   17  N   UNL     1     -11.387  15.006  70.355  1.00  0.00    -0.266 NA 
HETATM   18  C   UNL     1     -12.208  14.094  70.941  1.00  0.00    -0.363 A  
HETATM   19  N   UNL     1     -12.704  14.588  72.053  1.00  0.00    -0.328 NA 
HETATM   20  C   UNL     1     -12.147  15.830  72.109  1.00  0.00    -0.478 A  
HETATM   21  N   UNL     1     -11.332  16.134  71.094  1.00  0.00    -0.373 NA 
ENDBRANCH  16  17
ENDBRANCH  13  16
ENDBRANCH   5   6
ENDBRANCH   4   5
ENDBRANCH   2   4
TORSDOF 5
ENDMDL
MODEL      147
REMARK 921   NORMALIZED FREE ENERGY PREDICTED BY IDOCK:   -4.05 KCAL/MOL
REMARK 922        TOTAL FREE ENERGY PREDICTED BY IDOCK:   -5.70 KCAL/MOL
REMARK 923 INTER-LIGAND FREE ENERGY PREDICTED BY IDOCK:   -5.52 KCAL/MOL
REMARK 924 INTRA-LIGAND FREE ENERGY PREDICTED BY IDOCK:   -0.17 KCAL/MOL
REMARK 927      BINDING AFFINITY PREDICTED BY RF-SCORE:    0.00 PKD
ROOT
HETATM    1  C   UNL     1      -8.345  10.581  64.373  1.00  0.00    -0.097 C  
HETATM    2  N   UNL     1      -9.183   9.561  65.014  1.00  0.00    -0.241 NA 
HETATM    3  C   UNL     1      -8.466   8.284  65.041  1.00  0.00    -0.123 C  
ENDROOT
BRANCH   2   4
HETATM    4  C   UNL     1      -9.567  10.019  66.366  1.00  0.00    -0.196 C  
BRANCH   4   5
HETATM    5  C   UNL     1     -10.501  11.241  66.383  1.00  0.00    -0.306 C  
BRANCH   5   6
HETATM    6  C   UNL     1     -11.150  11.466  67.719  1.00  0.00    -0.323 A  
HETATM    7  C   UNL     1     -11.559  10.487  68.603  1.00  0.00    -0.171 A  
HETATM    8  N   UNL     1     -12.024  11.094  69.736  1.00  0.00    -0.329 NA 
HETATM    9  C   UNL     1     -11.900  12.459  69.627  1.00  0.00    -0.311 A  
HETATM   10  H   UNL     1     -12.406  10.606  70.545  1.00  0.00     0.000 HD 
HETATM   11  C   UNL     1     -11.412  12.727  68.350  1.00  0.00    -0.349 A  
HETATM   12  C   UNL     1     -11.252  14.075  67.964  1.00  0.00    -0.302 A  
HETATM   13  C   UNL     1     -11.538  15.112  68.876  1.00  0.00    -0.361 A  
HETATM   14  C   UNL     1     -12.177  13.464  70.561  1.00  0.00    -0.425 A  
HETATM   15  C   UNL     1     -11.977  14.792  70.168  1.00  0.00    -0.367 A  
BRANCH  13  16
HETATM   16  C   UNL     1     -11.383  16.553  68.460  1.00  0.00    -0.231 C  
BRANCH  16  17
HETATM   17  N   UNL     1     -10.020  17.061  68.521  1.00  0.00    -0.276 NA 
HETATM   18  C   UNL     1      -9.555  18.339  68.487  1.00  0.00    -0.342 A  
HETATM   19  N   UNL     1      -8.245  18.341  68.590  1.00  0.00    -0.306 NA 
HETATM   20  C   UNL     1      -7.946  17.015  68.687  1.00  0.00    -0.258 A  
HETATM   21  N   UNL     1      -8.997  16.191  68.651  1.00  0.00    -0.210 NA 
ENDBRANCH  16  17
ENDBRANCH  13  16
ENDBRANCH   5   6
ENDBRANCH   4   5
ENDBRANCH   2   4
TORSDOF 5
ENDMDL
MODEL      148
REMARK 921   NORMALIZED FREE ENERGY PREDICTED BY IDOCK:   -4.04 KCAL/MOL
REMARK 922        TOTAL FREE ENERGY PREDICTED BY IDOCK:   -5.68 KCAL/MOL
REMARK 923 INTER-LIGAND FREE ENERGY PREDICTED BY IDOCK:   -5.10 KCAL/MOL
REMARK 924 INTRA-LIGAND FREE ENERGY PREDICTED BY IDOCK:   -0.59 KCAL/MOL
REMARK 927      BINDING AFFINITY PREDICTED BY RF-SCORE:    0.00 PKD
ROOT
HETATM    1  C   UNL     1      -7.957   7.090  71.405  1.00  0.00    -0.103 C  
HETATM    2  N   UNL     1      -8.700   8.268  70.945  1.00  0.00    -0.138 NA 
HETATM    3  C   UNL     1      -7.762   9.350  70.638  1.00  0.00    -0.149 C  
ENDROOT
BRANCH   2   4
HETATM    4  C   UNL     1      -9.534   7.900  69.781  1.00  0.00    -0.163 C  
BRANCH   4   5
HETATM    5  C   UNL     1     -11.020   7.675  70.108  1.00  0.00    -0.255 C  
BRANCH   5   6
HETATM    6  C   UNL     1     -11.676   8.878  70.723  1.00  0.00    -0.269 A  
HETATM    7  C   UNL     1     -12.257   8.941  71.974  1.00  0.00    -0.377 A  
HETATM    8  N   UNL     1     -12.667  10.226  72.197  1.00  0.00    -0.292 NA 
HETATM    9  C   UNL     1     -12.339  11.021  71.124  1.00  0.00    -0.359 A  
HETATM   10  H   UNL     1     -13.146  10.547  73.037  1.00  0.00     0.000 HD 
HETATM   11  C   UNL     1     -11.771  10.193  70.158  1.00  0.00    -0.330 A  
HETATM   12  C   UNL     1     -11.399  10.765  68.922  1.00  0.00    -0.349 A  
HETATM   13  C   UNL     1     -11.562  12.149  68.705  1.00  0.00    -0.372 A  
HETATM   14  C   UNL     1     -12.497  12.399  70.946  1.00  0.00    -0.367 A  
HETATM   15  C   UNL     1     -12.088  12.950  69.727  1.00  0.00    -0.312 A  
BRANCH  13  16
HETATM   16  C   UNL     1     -11.179  12.758  67.379  1.00  0.00    -0.294 C  
BRANCH  16  17
HETATM   17  N   UNL     1      -9.961  13.553  67.402  1.00  0.00    -0.231 NA 
HETATM   18  C   UNL     1      -9.790  14.900  67.481  1.00  0.00    -0.217 A  
HETATM   19  N   UNL     1      -8.508  15.188  67.492  1.00  0.00    -0.160 NA 
HETATM   20  C   UNL     1      -7.920  13.962  67.418  1.00  0.00    -0.170 A  
HETATM   21  N   UNL     1      -8.765  12.928  67.363  1.00  0.00    -0.187 NA 
ENDBRANCH  16  17
ENDBRANCH  13  16
ENDBRANCH   5   6
ENDBRANCH   4   5
ENDBRANCH   2   4
TORSDOF 5
ENDMDL
MODEL      149
REMARK 921   NORMALIZED FREE ENERGY PREDICTED BY IDOCK:   -4.03 KCAL/MOL
REMARK 922        TOTAL FREE ENERGY PREDICTED BY IDOCK:   -5.67 KCAL/MOL
REMARK 923 INTER-LIGAND FREE ENERGY PREDICTED BY IDOCK:   -5.79 KCAL/MOL
REMARK 924 INTRA-LIGAND FREE ENERGY PREDICTED BY IDOCK:    0.12 KCAL/MOL
REMARK 927      BINDING AFFINITY PREDICTED BY RF-SCORE:    0.00 PKD
ROOT
HETATM    1  C   UNL     1     -11.224   9.927  70.091  1.00  0.00    -0.289 C  
HETATM    2  N   UNL     1     -11.279  10.926  69.018  1.00  0.00    -0.242 NA 
HETATM    3  C   UNL     1     -11.764  12.199  69.558  1.00  0.00    -0.336 C  
ENDROOT
BRANCH   2   4
HETATM    4  C   UNL     1      -9.945  11.052  68.394  1.00  0.00    -0.186 C  
BRANCH   4   5
HETATM    5  C   UNL     1      -9.091   9.775  68.456  1.00  0.00    -0.128 C  
BRANCH   5   6
HETATM    6  C   UNL     1      -8.498   9.400  67.127  1.00  0.00    -0.128 A  
HETATM    7  C   UNL     1      -7.462   8.510  66.918  1.00  0.00    -0.084 A  
HETATM    8  N   UNL     1      -7.270   8.379  65.571  1.00  0.00    -0.077 NA 
HETATM    9  C   UNL     1      -8.182   9.145  64.885  1.00  0.00    -0.153 A  
HETATM   10  H   UNL     1      -6.554   7.796  65.138  1.00  0.00     0.000 HD 
HETATM   11  C   UNL     1      -8.926   9.845  65.834  1.00  0.00    -0.183 A  
HETATM   12  C   UNL     1      -9.901  10.758  65.378  1.00  0.00    -0.317 A  
HETATM   13  C   UNL     1     -10.137  10.912  63.995  1.00  0.00    -0.419 A  
HETATM   14  C   UNL     1      -8.404   9.262  63.509  1.00  0.00    -0.185 A  
HETATM   15  C   UNL     1      -9.399  10.147  63.082  1.00  0.00    -0.333 A  
BRANCH  13  16
HETATM   16  C   UNL     1     -11.167  11.899  63.507  1.00  0.00    -0.418 C  
BRANCH  16  17
HETATM   17  N   UNL     1     -11.546  12.914  64.478  1.00  0.00    -0.332 NA 
HETATM   18  C   UNL     1     -10.825  13.941  65.006  1.00  0.00    -0.382 A  
HETATM   19  N   UNL     1     -11.572  14.629  65.839  1.00  0.00    -0.349 NA 
HETATM   20  C   UNL     1     -12.767  13.976  65.788  1.00  0.00    -0.450 A  
HETATM   21  N   UNL     1     -12.803  12.921  64.969  1.00  0.00    -0.798 NA 
ENDBRANCH  16  17
ENDBRANCH  13  16
ENDBRANCH   5   6
ENDBRANCH   4   5
ENDBRANCH   2   4
TORSDOF 5
ENDMDL
MODEL      150
REMARK 921   NORMALIZED FREE ENERGY PREDICTED BY IDOCK:   -4.03 KCAL/MOL
REMARK 922        TOTAL FREE ENERGY PREDICTED BY IDOCK:   -5.66 KCAL/MOL
REMARK 923 INTER-LIGAND FREE ENERGY PREDICTED BY IDOCK:   -5.26 KCAL/MOL
REMARK 924 INTRA-LIGAND FREE ENERGY PREDICTED BY IDOCK:   -0.40 KCAL/MOL
REMARK 927      BINDING AFFINITY PREDICTED BY RF-SCORE:    0.00 PKD
ROOT
HETATM    1  C   UNL     1     -10.139  11.870  63.694  1.00  0.00    -0.426 C  
HETATM    2  N   UNL     1     -11.258  12.557  64.350  1.00  0.00    -0.319 NA 
HETATM    3  C   UNL     1     -12.483  12.353  63.573  1.00  0.00    -0.500 C  
ENDROOT
BRANCH   2   4
HETATM    4  C   UNL     1     -11.386  12.070  65.740  1.00  0.00    -0.331 C  
BRANCH   4   5
HETATM    5  C   UNL     1     -10.616  12.902  66.779  1.00  0.00    -0.268 C  
BRANCH   5   6
HETATM    6  C   UNL     1      -9.495  12.142  67.428  1.00  0.00    -0.179 A  
HETATM    7  C   UNL     1      -8.151  12.253  67.126  1.00  0.00    -0.173 A  
HETATM    8  N   UNL     1      -7.447  11.460  67.989  1.00  0.00    -0.095 NA 
HETATM    9  C   UNL     1      -8.302  10.848  68.875  1.00  0.00    -0.139 A  
HETATM   10  H   UNL     1      -6.435  11.340  67.976  1.00  0.00     0.000 HD 
HETATM   11  C   UNL     1      -9.598  11.208  68.511  1.00  0.00    -0.193 A  
HETATM   12  C   UNL     1     -10.674  10.654  69.237  1.00  0.00    -0.275 A  
HETATM   13  C   UNL     1     -10.426   9.799  70.331  1.00  0.00    -0.358 A  
HETATM   14  C   UNL     1      -8.022  10.017  69.965  1.00  0.00    -0.166 A  
HETATM   15  C   UNL     1      -9.103   9.509  70.692  1.00  0.00    -0.236 A  
BRANCH  13  16
HETATM   16  C   UNL     1     -11.575   9.196  71.098  1.00  0.00    -0.317 C  
BRANCH  16  17
HETATM   17  N   UNL     1     -11.408   7.792  71.443  1.00  0.00    -0.247 NA 
HETATM   18  C   UNL     1     -11.631   6.671  70.705  1.00  0.00    -0.382 A  
HETATM   19  N   UNL     1     -11.327   5.604  71.409  1.00  0.00    -0.109 NA 
HETATM   20  C   UNL     1     -10.912   6.130  72.595  1.00  0.00    -0.256 A  
HETATM   21  N   UNL     1     -10.941   7.465  72.666  1.00  0.00    -0.290 NA 
ENDBRANCH  16  17
ENDBRANCH  13  16
ENDBRANCH   5   6
ENDBRANCH   4   5
ENDBRANCH   2   4
TORSDOF 5
ENDMDL
MODEL      151
REMARK 921   NORMALIZED FREE ENERGY PREDICTED BY IDOCK:   -4.02 KCAL/MOL
REMARK 922        TOTAL FREE ENERGY PREDICTED BY IDOCK:   -5.65 KCAL/MOL
REMARK 923 INTER-LIGAND FREE ENERGY PREDICTED BY IDOCK:   -5.09 KCAL/MOL
REMARK 924 INTRA-LIGAND FREE ENERGY PREDICTED BY IDOCK:   -0.57 KCAL/MOL
REMARK 927      BINDING AFFINITY PREDICTED BY RF-SCORE:    0.00 PKD
ROOT
HETATM    1  C   UNL     1     -10.353  17.280  66.386  1.00  0.00    -0.316 C  
HETATM    2  N   UNL     1     -10.255  17.225  67.849  1.00  0.00    -0.315 NA 
HETATM    3  C   UNL     1     -11.221  16.254  68.369  1.00  0.00    -0.349 C  
ENDROOT
BRANCH   2   4
HETATM    4  C   UNL     1      -8.866  16.898  68.237  1.00  0.00    -0.228 C  
BRANCH   4   5
HETATM    5  C   UNL     1      -8.717  15.588  69.028  1.00  0.00    -0.235 C  
BRANCH   5   6
HETATM    6  C   UNL     1      -8.066  14.492  68.233  1.00  0.00    -0.140 A  
HETATM    7  C   UNL     1      -6.806  14.533  67.667  1.00  0.00    -0.182 A  
HETATM    8  N   UNL     1      -6.548  13.316  67.100  1.00  0.00    -0.459 NA 
HETATM    9  C   UNL     1      -7.605  12.462  67.308  1.00  0.00    -0.141 A  
HETATM   10  H   UNL     1      -5.695  13.077  66.596  1.00  0.00     0.000 HD 
HETATM   11  C   UNL     1      -8.598  13.189  67.963  1.00  0.00    -0.182 A  
HETATM   12  C   UNL     1      -9.824  12.547  68.240  1.00  0.00    -0.227 A  
HETATM   13  C   UNL     1     -10.006  11.190  67.899  1.00  0.00    -0.189 A  
HETATM   14  C   UNL     1      -7.748  11.111  66.973  1.00  0.00    -0.139 A  
HETATM   15  C   UNL     1      -8.959  10.486  67.289  1.00  0.00    -0.145 A  
BRANCH  13  16
HETATM   16  C   UNL     1     -11.321  10.508  68.180  1.00  0.00    -0.254 C  
BRANCH  16  17
HETATM   17  N   UNL     1     -11.588  10.258  69.589  1.00  0.00    -0.228 NA 
HETATM   18  C   UNL     1     -12.497  10.826  70.427  1.00  0.00    -0.347 A  
HETATM   19  N   UNL     1     -12.407  10.281  71.619  1.00  0.00    -0.384 NA 
HETATM   20  C   UNL     1     -11.410   9.367  71.462  1.00  0.00    -0.394 A  
HETATM   21  N   UNL     1     -10.877   9.312  70.237  1.00  0.00    -0.234 NA 
ENDBRANCH  16  17
ENDBRANCH  13  16
ENDBRANCH   5   6
ENDBRANCH   4   5
ENDBRANCH   2   4
TORSDOF 5
ENDMDL
MODEL      152
REMARK 921   NORMALIZED FREE ENERGY PREDICTED BY IDOCK:   -4.01 KCAL/MOL
REMARK 922        TOTAL FREE ENERGY PREDICTED BY IDOCK:   -5.64 KCAL/MOL
REMARK 923 INTER-LIGAND FREE ENERGY PREDICTED BY IDOCK:   -5.42 KCAL/MOL
REMARK 924 INTRA-LIGAND FREE ENERGY PREDICTED BY IDOCK:   -0.22 KCAL/MOL
REMARK 927      BINDING AFFINITY PREDICTED BY RF-SCORE:    0.00 PKD
ROOT
HETATM    1  C   UNL     1      -8.177   8.293  64.776  1.00  0.00    -0.144 C  
HETATM    2  N   UNL     1      -8.026   9.487  63.937  1.00  0.00    -0.132 NA 
HETATM    3  C   UNL     1      -8.785   9.314  62.696  1.00  0.00    -0.223 C  
ENDROOT
BRANCH   2   4
HETATM    4  C   UNL     1      -8.456  10.679  64.697  1.00  0.00    -0.087 C  
BRANCH   4   5
HETATM    5  C   UNL     1      -9.949  10.696  65.065  1.00  0.00    -0.369 C  
BRANCH   5   6
HETATM    6  C   UNL     1     -10.662  11.925  64.576  1.00  0.00    -0.361 A  
HETATM    7  C   UNL     1     -11.672  11.963  63.635  1.00  0.00    -0.474 A  
HETATM    8  N   UNL     1     -12.113  13.252  63.525  1.00  0.00    -0.781 NA 
HETATM    9  C   UNL     1     -11.429  14.063  64.400  1.00  0.00    -0.344 A  
HETATM   10  H   UNL     1     -12.842  13.566  62.887  1.00  0.00     0.000 HD 
HETATM   11  C   UNL     1     -10.470  13.271  65.030  1.00  0.00    -0.367 A  
HETATM   12  C   UNL     1      -9.588  13.889  65.942  1.00  0.00    -0.171 A  
HETATM   13  C   UNL     1      -9.717  15.263  66.234  1.00  0.00    -0.325 A  
HETATM   14  C   UNL     1     -11.595  15.423  64.681  1.00  0.00    -0.311 A  
HETATM   15  C   UNL     1     -10.732  16.006  65.615  1.00  0.00    -0.341 A  
BRANCH  13  16
HETATM   16  C   UNL     1      -8.765  15.926  67.196  1.00  0.00    -0.200 C  
BRANCH  16  17
HETATM   17  N   UNL     1      -7.692  15.071  67.679  1.00  0.00    -0.151 NA 
HETATM   18  C   UNL     1      -7.730  13.995  68.512  1.00  0.00    -0.139 A  
HETATM   19  N   UNL     1      -6.520  13.506  68.665  1.00  0.00    -0.087 NA 
HETATM   20  C   UNL     1      -5.758  14.329  67.892  1.00  0.00    -0.110 A  
HETATM   21  N   UNL     1      -6.428  15.302  67.266  1.00  0.00    -0.307 NA 
ENDBRANCH  16  17
ENDBRANCH  13  16
ENDBRANCH   5   6
ENDBRANCH   4   5
ENDBRANCH   2   4
TORSDOF 5
ENDMDL
MODEL      153
REMARK 921   NORMALIZED FREE ENERGY PREDICTED BY IDOCK:   -4.01 KCAL/MOL
REMARK 922        TOTAL FREE ENERGY PREDICTED BY IDOCK:   -5.64 KCAL/MOL
REMARK 923 INTER-LIGAND FREE ENERGY PREDICTED BY IDOCK:   -5.14 KCAL/MOL
REMARK 924 INTRA-LIGAND FREE ENERGY PREDICTED BY IDOCK:   -0.50 KCAL/MOL
REMARK 927      BINDING AFFINITY PREDICTED BY RF-SCORE:    0.00 PKD
ROOT
HETATM    1  C   UNL     1     -11.224   5.488  72.651  1.00  0.00    -0.295 C  
HETATM    2  N   UNL     1     -10.679   6.307  73.740  1.00  0.00    -0.228 NA 
HETATM    3  C   UNL     1      -9.399   5.748  74.180  1.00  0.00    -0.136 C  
ENDROOT
BRANCH   2   4
HETATM    4  C   UNL     1     -10.555   7.708  73.287  1.00  0.00    -0.352 C  
BRANCH   4   5
HETATM    5  C   UNL     1     -11.018   7.953  71.841  1.00  0.00    -0.308 C  
BRANCH   5   6
HETATM    6  C   UNL     1      -9.946   8.548  70.973  1.00  0.00    -0.255 A  
HETATM    7  C   UNL     1      -8.694   8.013  70.741  1.00  0.00    -0.138 A  
HETATM    8  N   UNL     1      -8.046   8.805  69.835  1.00  0.00    -0.104 NA 
HETATM    9  C   UNL     1      -8.861   9.839  69.441  1.00  0.00    -0.182 A  
HETATM   10  H   UNL     1      -7.096   8.650  69.500  1.00  0.00     0.000 HD 
HETATM   11  C   UNL     1     -10.037   9.741  70.183  1.00  0.00    -0.317 A  
HETATM   12  C   UNL     1     -11.024  10.734  70.006  1.00  0.00    -0.280 A  
HETATM   13  C   UNL     1     -10.831  11.766  69.064  1.00  0.00    -0.239 A  
HETATM   14  C   UNL     1      -8.646  10.840  68.487  1.00  0.00    -0.148 A  
HETATM   15  C   UNL     1      -9.654  11.793  68.303  1.00  0.00    -0.199 A  
BRANCH  13  16
HETATM   16  C   UNL     1     -11.878  12.836  68.886  1.00  0.00    -0.308 C  
BRANCH  16  17
HETATM   17  N   UNL     1     -11.887  13.858  69.921  1.00  0.00    -0.312 NA 
HETATM   18  C   UNL     1     -12.538  13.896  71.115  1.00  0.00    -0.370 A  
HETATM   19  N   UNL     1     -12.245  15.010  71.748  1.00  0.00    -0.329 NA 
HETATM   20  C   UNL     1     -11.393  15.634  70.888  1.00  0.00    -0.380 A  
HETATM   21  N   UNL     1     -11.140  14.970  69.756  1.00  0.00    -0.265 NA 
ENDBRANCH  16  17
ENDBRANCH  13  16
ENDBRANCH   5   6
ENDBRANCH   4   5
ENDBRANCH   2   4
TORSDOF 5
ENDMDL
MODEL      154
REMARK 921   NORMALIZED FREE ENERGY PREDICTED BY IDOCK:   -3.99 KCAL/MOL
REMARK 922        TOTAL FREE ENERGY PREDICTED BY IDOCK:   -5.62 KCAL/MOL
REMARK 923 INTER-LIGAND FREE ENERGY PREDICTED BY IDOCK:   -5.22 KCAL/MOL
REMARK 924 INTRA-LIGAND FREE ENERGY PREDICTED BY IDOCK:   -0.39 KCAL/MOL
REMARK 927      BINDING AFFINITY PREDICTED BY RF-SCORE:    0.00 PKD
ROOT
HETATM    1  C   UNL     1     -11.047  11.548  66.093  1.00  0.00    -0.244 C  
HETATM    2  N   UNL     1     -10.363  11.078  67.303  1.00  0.00    -0.202 NA 
HETATM    3  C   UNL     1      -9.519   9.927  66.974  1.00  0.00    -0.160 C  
ENDROOT
BRANCH   2   4
HETATM    4  C   UNL     1      -9.591  12.192  67.895  1.00  0.00    -0.198 C  
BRANCH   4   5
HETATM    5  C   UNL     1      -9.517  13.452  67.017  1.00  0.00    -0.247 C  
BRANCH   5   6
HETATM    6  C   UNL     1     -10.245  14.625  67.610  1.00  0.00    -0.232 A  
HETATM    7  C   UNL     1     -11.528  14.615  68.121  1.00  0.00    -0.323 A  
HETATM    8  N   UNL     1     -11.797  15.851  68.638  1.00  0.00    -0.465 NA 
HETATM    9  C   UNL     1     -10.700  16.670  68.504  1.00  0.00    -0.351 A  
HETATM   10  H   UNL     1     -12.682  16.126  69.063  1.00  0.00     0.000 HD 
HETATM   11  C   UNL     1      -9.732  15.949  67.808  1.00  0.00    -0.220 A  
HETATM   12  C   UNL     1      -8.520  16.596  67.486  1.00  0.00    -0.199 A  
HETATM   13  C   UNL     1      -8.291  17.922  67.907  1.00  0.00    -0.247 A  
HETATM   14  C   UNL     1     -10.497  17.980  68.951  1.00  0.00    -0.117 A  
HETATM   15  C   UNL     1      -9.274  18.589  68.651  1.00  0.00    -0.336 A  
BRANCH  13  16
HETATM   16  C   UNL     1      -7.002  18.619  67.550  1.00  0.00    -0.206 C  
BRANCH  16  17
HETATM   17  N   UNL     1      -6.339  19.282  68.663  1.00  0.00    -0.241 NA 
HETATM   18  C   UNL     1      -6.143  20.605  68.910  1.00  0.00    -0.322 A  
HETATM   19  N   UNL     1      -5.508  20.758  70.050  1.00  0.00    -0.439 NA 
HETATM   20  C   UNL     1      -5.333  19.476  70.475  1.00  0.00    -0.230 A  
HETATM   21  N   UNL     1      -5.825  18.535  69.663  1.00  0.00    -0.241 NA 
ENDBRANCH  16  17
ENDBRANCH  13  16
ENDBRANCH   5   6
ENDBRANCH   4   5
ENDBRANCH   2   4
TORSDOF 5
ENDMDL
MODEL      155
REMARK 921   NORMALIZED FREE ENERGY PREDICTED BY IDOCK:   -3.98 KCAL/MOL
REMARK 922        TOTAL FREE ENERGY PREDICTED BY IDOCK:   -5.60 KCAL/MOL
REMARK 923 INTER-LIGAND FREE ENERGY PREDICTED BY IDOCK:   -5.24 KCAL/MOL
REMARK 924 INTRA-LIGAND FREE ENERGY PREDICTED BY IDOCK:   -0.36 KCAL/MOL
REMARK 927      BINDING AFFINITY PREDICTED BY RF-SCORE:    0.00 PKD
ROOT
HETATM    1  C   UNL     1      -8.556  17.785  68.098  1.00  0.00    -0.262 C  
HETATM    2  N   UNL     1      -7.898  16.481  67.955  1.00  0.00    -0.152 NA 
HETATM    3  C   UNL     1      -7.313  16.083  69.237  1.00  0.00    -0.231 C  
ENDROOT
BRANCH   2   4
HETATM    4  C   UNL     1      -8.874  15.491  67.450  1.00  0.00    -0.190 C  
BRANCH   4   5
HETATM    5  C   UNL     1     -10.339  15.809  67.793  1.00  0.00    -0.275 C  
BRANCH   5   6
HETATM    6  C   UNL     1     -10.864  14.995  68.941  1.00  0.00    -0.243 A  
HETATM    7  C   UNL     1     -11.308  15.485  70.154  1.00  0.00    -0.326 A  
HETATM    8  N   UNL     1     -11.781  14.439  70.895  1.00  0.00    -0.474 NA 
HETATM    9  C   UNL     1     -11.685  13.269  70.181  1.00  0.00    -0.184 A  
HETATM   10  H   UNL     1     -12.151  14.516  71.842  1.00  0.00     0.000 HD 
HETATM   11  C   UNL     1     -11.057  13.575  68.974  1.00  0.00    -0.293 A  
HETATM   12  C   UNL     1     -10.784  12.520  68.077  1.00  0.00    -0.242 A  
HETATM   13  C   UNL     1     -11.184  11.204  68.387  1.00  0.00    -0.325 A  
HETATM   14  C   UNL     1     -12.110  11.978  70.510  1.00  0.00    -0.402 A  
HETATM   15  C   UNL     1     -11.860  10.954  69.590  1.00  0.00    -0.416 A  
BRANCH  13  16
HETATM   16  C   UNL     1     -10.878  10.075  67.436  1.00  0.00    -0.249 C  
BRANCH  16  17
HETATM   17  N   UNL     1     -10.284  10.486  66.173  1.00  0.00    -0.242 NA 
HETATM   18  C   UNL     1     -10.841  11.112  65.101  1.00  0.00    -0.159 A  
HETATM   19  N   UNL     1      -9.928  11.311  64.176  1.00  0.00    -0.274 NA 
HETATM   20  C   UNL     1      -8.806  10.780  64.737  1.00  0.00    -0.149 A  
HETATM   21  N   UNL     1      -8.970  10.264  65.959  1.00  0.00    -0.149 NA 
ENDBRANCH  16  17
ENDBRANCH  13  16
ENDBRANCH   5   6
ENDBRANCH   4   5
ENDBRANCH   2   4
TORSDOF 5
ENDMDL
MODEL      156
REMARK 921   NORMALIZED FREE ENERGY PREDICTED BY IDOCK:   -3.97 KCAL/MOL
REMARK 922        TOTAL FREE ENERGY PREDICTED BY IDOCK:   -5.60 KCAL/MOL
REMARK 923 INTER-LIGAND FREE ENERGY PREDICTED BY IDOCK:   -5.22 KCAL/MOL
REMARK 924 INTRA-LIGAND FREE ENERGY PREDICTED BY IDOCK:   -0.37 KCAL/MOL
REMARK 927      BINDING AFFINITY PREDICTED BY RF-SCORE:    0.00 PKD
ROOT
HETATM    1  C   UNL     1     -11.648  12.899  64.340  1.00  0.00    -0.363 C  
HETATM    2  N   UNL     1     -11.347  13.894  65.375  1.00  0.00    -0.304 NA 
HETATM    3  C   UNL     1     -11.202  15.215  64.758  1.00  0.00    -0.388 C  
ENDROOT
BRANCH   2   4
HETATM    4  C   UNL     1     -12.407  13.868  66.405  1.00  0.00    -0.426 C  
BRANCH   4   5
HETATM    5  C   UNL     1     -11.913  14.149  67.834  1.00  0.00    -0.378 C  
BRANCH   5   6
HETATM    6  C   UNL     1     -10.529  13.625  68.092  1.00  0.00    -0.250 A  
HETATM    7  C   UNL     1     -10.198  12.332  68.445  1.00  0.00    -0.217 A  
HETATM    8  N   UNL     1      -8.836  12.235  68.507  1.00  0.00    -0.343 NA 
HETATM    9  C   UNL     1      -8.259  13.437  68.171  1.00  0.00    -0.160 A  
HETATM   10  H   UNL     1      -8.322  11.394  68.765  1.00  0.00     0.000 HD 
HETATM   11  C   UNL     1      -9.296  14.346  67.965  1.00  0.00    -0.200 A  
HETATM   12  C   UNL     1      -8.961  15.684  67.663  1.00  0.00    -0.183 A  
HETATM   13  C   UNL     1      -7.609  16.064  67.531  1.00  0.00    -0.179 A  
HETATM   14  C   UNL     1      -6.910  13.778  68.030  1.00  0.00    -0.140 A  
HETATM   15  C   UNL     1      -6.604  15.102  67.696  1.00  0.00    -0.195 A  
BRANCH  13  16
HETATM   16  C   UNL     1      -7.251  17.496  67.225  1.00  0.00    -0.170 C  
BRANCH  16  17
HETATM   17  N   UNL     1      -6.842  18.282  68.379  1.00  0.00    -0.227 NA 
HETATM   18  C   UNL     1      -5.987  17.978  69.393  1.00  0.00    -0.240 A  
HETATM   19  N   UNL     1      -5.894  18.996  70.219  1.00  0.00    -0.236 NA 
HETATM   20  C   UNL     1      -6.725  19.919  69.660  1.00  0.00    -0.302 A  
HETATM   21  N   UNL     1      -7.328  19.532  68.532  1.00  0.00    -0.321 NA 
ENDBRANCH  16  17
ENDBRANCH  13  16
ENDBRANCH   5   6
ENDBRANCH   4   5
ENDBRANCH   2   4
TORSDOF 5
ENDMDL
MODEL      157
REMARK 921   NORMALIZED FREE ENERGY PREDICTED BY IDOCK:   -3.96 KCAL/MOL
REMARK 922        TOTAL FREE ENERGY PREDICTED BY IDOCK:   -5.57 KCAL/MOL
REMARK 923 INTER-LIGAND FREE ENERGY PREDICTED BY IDOCK:   -5.21 KCAL/MOL
REMARK 924 INTRA-LIGAND FREE ENERGY PREDICTED BY IDOCK:   -0.36 KCAL/MOL
REMARK 927      BINDING AFFINITY PREDICTED BY RF-SCORE:    0.00 PKD
ROOT
HETATM    1  C   UNL     1      -8.279   5.823  70.304  1.00  0.00    -0.110 C  
HETATM    2  N   UNL     1      -7.825   6.941  69.469  1.00  0.00    -0.117 NA 
HETATM    3  C   UNL     1      -8.333   6.773  68.105  1.00  0.00    -0.118 C  
ENDROOT
BRANCH   2   4
HETATM    4  C   UNL     1      -8.261   8.216  70.077  1.00  0.00    -0.120 C  
BRANCH   4   5
HETATM    5  C   UNL     1      -8.446   9.369  69.077  1.00  0.00    -0.129 C  
BRANCH   5   6
HETATM    6  C   UNL     1      -9.782  10.044  69.198  1.00  0.00    -0.217 A  
HETATM    7  C   UNL     1     -10.896   9.540  69.841  1.00  0.00    -0.246 A  
HETATM    8  N   UNL     1     -11.883  10.484  69.802  1.00  0.00    -0.377 NA 
HETATM    9  C   UNL     1     -11.430  11.617  69.168  1.00  0.00    -0.300 A  
HETATM   10  H   UNL     1     -12.819  10.366  70.187  1.00  0.00     0.000 HD 
HETATM   11  C   UNL     1     -10.136  11.350  68.723  1.00  0.00    -0.199 A  
HETATM   12  C   UNL     1      -9.466  12.345  67.981  1.00  0.00    -0.208 A  
HETATM   13  C   UNL     1     -10.084  13.590  67.744  1.00  0.00    -0.236 A  
HETATM   14  C   UNL     1     -12.064  12.848  68.965  1.00  0.00    -0.198 A  
HETATM   15  C   UNL     1     -11.366  13.832  68.257  1.00  0.00    -0.317 A  
BRANCH  13  16
HETATM   16  C   UNL     1      -9.375  14.648  66.937  1.00  0.00    -0.243 C  
BRANCH  16  17
HETATM   17  N   UNL     1     -10.189  15.280  65.910  1.00  0.00    -0.307 NA 
HETATM   18  C   UNL     1     -10.431  16.596  65.665  1.00  0.00    -0.297 A  
HETATM   19  N   UNL     1     -11.215  16.719  64.617  1.00  0.00    -0.914 NA 
HETATM   20  C   UNL     1     -11.432  15.426  64.246  1.00  0.00    -0.171 A  
HETATM   21  N   UNL     1     -10.825  14.508  65.004  1.00  0.00    -0.386 NA 
ENDBRANCH  16  17
ENDBRANCH  13  16
ENDBRANCH   5   6
ENDBRANCH   4   5
ENDBRANCH   2   4
TORSDOF 5
ENDMDL
MODEL      158
REMARK 921   NORMALIZED FREE ENERGY PREDICTED BY IDOCK:   -3.95 KCAL/MOL
REMARK 922        TOTAL FREE ENERGY PREDICTED BY IDOCK:   -5.57 KCAL/MOL
REMARK 923 INTER-LIGAND FREE ENERGY PREDICTED BY IDOCK:   -5.43 KCAL/MOL
REMARK 924 INTRA-LIGAND FREE ENERGY PREDICTED BY IDOCK:   -0.14 KCAL/MOL
REMARK 927      BINDING AFFINITY PREDICTED BY RF-SCORE:    0.00 PKD
ROOT
HETATM    1  C   UNL     1     -12.307   7.568  71.467  1.00  0.00    -0.339 C  
HETATM    2  N   UNL     1     -11.470   8.529  72.195  1.00  0.00    -0.356 NA 
HETATM    3  C   UNL     1     -10.511   7.806  73.034  1.00  0.00    -0.369 C  
ENDROOT
BRANCH   2   4
HETATM    4  C   UNL     1     -10.807   9.432  71.232  1.00  0.00    -0.361 C  
BRANCH   4   5
HETATM    5  C   UNL     1     -11.748  10.442  70.553  1.00  0.00    -0.434 C  
BRANCH   5   6
HETATM    6  C   UNL     1     -11.442  10.643  69.096  1.00  0.00    -0.349 A  
HETATM    7  C   UNL     1     -11.723  11.772  68.351  1.00  0.00    -0.325 A  
HETATM    8  N   UNL     1     -11.217  11.598  67.094  1.00  0.00    -0.297 NA 
HETATM    9  C   UNL     1     -10.578  10.384  67.004  1.00  0.00    -0.245 A  
HETATM   10  H   UNL     1     -11.300  12.271  66.333  1.00  0.00     0.000 HD 
HETATM   11  C   UNL     1     -10.755   9.735  68.225  1.00  0.00    -0.277 A  
HETATM   12  C   UNL     1     -10.239   8.429  68.369  1.00  0.00    -0.239 A  
HETATM   13  C   UNL     1      -9.525   7.829  67.311  1.00  0.00    -0.187 A  
HETATM   14  C   UNL     1      -9.860   9.823  65.942  1.00  0.00    -0.352 A  
HETATM   15  C   UNL     1      -9.327   8.542  66.120  1.00  0.00    -0.279 A  
BRANCH  13  16
HETATM   16  C   UNL     1      -8.987   6.428  67.459  1.00  0.00    -0.116 C  
BRANCH  16  17
HETATM   17  N   UNL     1      -9.363   5.515  66.389  1.00  0.00    -0.148 NA 
HETATM   18  C   UNL     1      -8.614   4.972  65.391  1.00  0.00    -0.143 A  
HETATM   19  N   UNL     1      -9.359   4.180  64.654  1.00  0.00    -0.156 NA 
HETATM   20  C   UNL     1     -10.581   4.269  65.250  1.00  0.00    -0.139 A  
HETATM   21  N   UNL     1     -10.635   5.072  66.317  1.00  0.00    -0.316 NA 
ENDBRANCH  16  17
ENDBRANCH  13  16
ENDBRANCH   5   6
ENDBRANCH   4   5
ENDBRANCH   2   4
TORSDOF 5
ENDMDL
MODEL      159
REMARK 921   NORMALIZED FREE ENERGY PREDICTED BY IDOCK:   -3.95 KCAL/MOL
REMARK 922        TOTAL FREE ENERGY PREDICTED BY IDOCK:   -5.56 KCAL/MOL
REMARK 923 INTER-LIGAND FREE ENERGY PREDICTED BY IDOCK:   -5.02 KCAL/MOL
REMARK 924 INTRA-LIGAND FREE ENERGY PREDICTED BY IDOCK:   -0.54 KCAL/MOL
REMARK 927      BINDING AFFINITY PREDICTED BY RF-SCORE:    0.00 PKD
ROOT
HETATM    1  C   UNL     1     -11.879  12.449  67.920  1.00  0.00    -0.308 C  
HETATM    2  N   UNL     1     -11.701  11.806  66.613  1.00  0.00    -0.554 NA 
HETATM    3  C   UNL     1     -12.269  12.658  65.566  1.00  0.00    -0.440 C  
ENDROOT
BRANCH   2   4
HETATM    4  C   UNL     1     -10.265  11.528  66.394  1.00  0.00    -0.224 C  
BRANCH   4   5
HETATM    5  C   UNL     1      -9.473  11.221  67.676  1.00  0.00    -0.173 C  
BRANCH   5   6
HETATM    6  C   UNL     1      -8.122  11.876  67.703  1.00  0.00    -0.148 A  
HETATM    7  C   UNL     1      -6.914  11.268  67.420  1.00  0.00    -0.101 A  
HETATM    8  N   UNL     1      -5.930  12.215  67.474  1.00  0.00    -0.107 NA 
HETATM    9  C   UNL     1      -6.472  13.446  67.759  1.00  0.00    -0.162 A  
HETATM   10  H   UNL     1      -4.938  12.034  67.325  1.00  0.00     0.000 HD 
HETATM   11  C   UNL     1      -7.837  13.255  67.969  1.00  0.00    -0.148 A  
HETATM   12  C   UNL     1      -8.618  14.371  68.340  1.00  0.00    -0.174 A  
HETATM   13  C   UNL     1      -8.026  15.647  68.446  1.00  0.00    -0.136 A  
HETATM   14  C   UNL     1      -5.858  14.701  67.839  1.00  0.00    -0.142 A  
HETATM   15  C   UNL     1      -6.659  15.798  68.174  1.00  0.00    -0.136 A  
BRANCH  13  16
HETATM   16  C   UNL     1      -8.857  16.836  68.858  1.00  0.00    -0.228 C  
BRANCH  16  17
HETATM   17  N   UNL     1      -9.436  17.586  67.754  1.00  0.00    -0.265 NA 
HETATM   18  C   UNL     1      -9.255  17.459  66.412  1.00  0.00    -0.249 A  
HETATM   19  N   UNL     1      -9.996  18.338  65.776  1.00  0.00    -0.523 NA 
HETATM   20  C   UNL     1     -10.627  18.995  66.789  1.00  0.00    -0.425 A  
HETATM   21  N   UNL     1     -10.320  18.571  68.019  1.00  0.00    -0.384 NA 
ENDBRANCH  16  17
ENDBRANCH  13  16
ENDBRANCH   5   6
ENDBRANCH   4   5
ENDBRANCH   2   4
TORSDOF 5
ENDMDL
MODEL      160
REMARK 921   NORMALIZED FREE ENERGY PREDICTED BY IDOCK:   -3.94 KCAL/MOL
REMARK 922        TOTAL FREE ENERGY PREDICTED BY IDOCK:   -5.55 KCAL/MOL
REMARK 923 INTER-LIGAND FREE ENERGY PREDICTED BY IDOCK:   -5.17 KCAL/MOL
REMARK 924 INTRA-LIGAND FREE ENERGY PREDICTED BY IDOCK:   -0.38 KCAL/MOL
REMARK 927      BINDING AFFINITY PREDICTED BY RF-SCORE:    0.00 PKD
ROOT
HETATM    1  C   UNL     1     -10.107   4.576  65.939  1.00  0.00    -0.258 C  
HETATM    2  N   UNL     1      -8.948   5.078  66.686  1.00  0.00    -0.114 NA 
HETATM    3  C   UNL     1      -8.024   3.974  66.958  1.00  0.00    -0.096 C  
ENDROOT
BRANCH   2   4
HETATM    4  C   UNL     1      -8.309   6.172  65.924  1.00  0.00    -0.140 C  
BRANCH   4   5
HETATM    5  C   UNL     1      -8.935   7.558  66.154  1.00  0.00    -0.188 C  
BRANCH   5   6
HETATM    6  C   UNL     1      -8.779   8.476  64.975  1.00  0.00    -0.124 A  
HETATM    7  C   UNL     1      -7.998   8.246  63.859  1.00  0.00    -0.146 A  
HETATM    8  N   UNL     1      -8.188   9.274  62.979  1.00  0.00    -0.165 NA 
HETATM    9  C   UNL     1      -9.104  10.166  63.482  1.00  0.00    -0.275 A  
HETATM   10  H   UNL     1      -7.717   9.366  62.079  1.00  0.00     0.000 HD 
HETATM   11  C   UNL     1      -9.448   9.725  64.759  1.00  0.00    -0.318 A  
HETATM   12  C   UNL     1     -10.340  10.511  65.520  1.00  0.00    -0.287 A  
HETATM   13  C   UNL     1     -10.897  11.684  64.970  1.00  0.00    -0.346 A  
HETATM   14  C   UNL     1      -9.653  11.315  62.902  1.00  0.00    -0.377 A  
HETATM   15  C   UNL     1     -10.562  12.058  63.662  1.00  0.00    -0.503 A  
BRANCH  13  16
HETATM   16  C   UNL     1     -11.838  12.532  65.788  1.00  0.00    -0.437 C  
BRANCH  16  17
HETATM   17  N   UNL     1     -11.217  13.227  66.905  1.00  0.00    -0.296 NA 
HETATM   18  C   UNL     1     -11.669  13.441  68.171  1.00  0.00    -0.362 A  
HETATM   19  N   UNL     1     -10.768  14.103  68.861  1.00  0.00    -0.255 NA 
HETATM   20  C   UNL     1      -9.761  14.276  67.961  1.00  0.00    -0.223 A  
HETATM   21  N   UNL     1      -9.985  13.757  66.750  1.00  0.00    -0.263 NA 
ENDBRANCH  16  17
ENDBRANCH  13  16
ENDBRANCH   5   6
ENDBRANCH   4   5
ENDBRANCH   2   4
TORSDOF 5
ENDMDL
MODEL      161
REMARK 921   NORMALIZED FREE ENERGY PREDICTED BY IDOCK:   -3.94 KCAL/MOL
REMARK 922        TOTAL FREE ENERGY PREDICTED BY IDOCK:   -5.55 KCAL/MOL
REMARK 923 INTER-LIGAND FREE ENERGY PREDICTED BY IDOCK:   -4.94 KCAL/MOL
REMARK 924 INTRA-LIGAND FREE ENERGY PREDICTED BY IDOCK:   -0.61 KCAL/MOL
REMARK 927      BINDING AFFINITY PREDICTED BY RF-SCORE:    0.00 PKD
ROOT
HETATM    1  C   UNL     1      -8.222   5.372  70.113  1.00  0.00    -0.100 C  
HETATM    2  N   UNL     1      -8.966   5.102  71.349  1.00  0.00    -0.135 NA 
HETATM    3  C   UNL     1      -8.392   5.882  72.448  1.00  0.00    -0.117 C  
ENDROOT
BRANCH   2   4
HETATM    4  C   UNL     1     -10.398   5.399  71.136  1.00  0.00    -0.235 C  
BRANCH   4   5
HETATM    5  C   UNL     1     -10.669   6.651  70.285  1.00  0.00    -0.294 C  
BRANCH   5   6
HETATM    6  C   UNL     1     -11.423   7.716  71.029  1.00  0.00    -0.294 A  
HETATM    7  C   UNL     1     -12.018   7.579  72.269  1.00  0.00    -0.263 A  
HETATM    8  N   UNL     1     -12.531   8.791  72.637  1.00  0.00    -0.422 NA 
HETATM    9  C   UNL     1     -12.259   9.734  71.675  1.00  0.00    -0.404 A  
HETATM   10  H   UNL     1     -13.041   8.970  73.502  1.00  0.00     0.000 HD 
HETATM   11  C   UNL     1     -11.619   9.077  70.625  1.00  0.00    -0.265 A  
HETATM   12  C   UNL     1     -11.286   9.823  69.474  1.00  0.00    -0.181 A  
HETATM   13  C   UNL     1     -11.556  11.206  69.422  1.00  0.00    -0.388 A  
HETATM   14  C   UNL     1     -12.525  11.108  71.661  1.00  0.00    -0.273 A  
HETATM   15  C   UNL     1     -12.153  11.833  70.524  1.00  0.00    -0.439 A  
BRANCH  13  16
HETATM   16  C   UNL     1     -11.214  12.000  68.187  1.00  0.00    -0.260 C  
BRANCH  16  17
HETATM   17  N   UNL     1      -9.883  11.752  67.652  1.00  0.00    -0.182 NA 
HETATM   18  C   UNL     1      -9.495  11.090  66.529  1.00  0.00    -0.187 A  
HETATM   19  N   UNL     1      -8.186  11.123  66.420  1.00  0.00    -0.166 NA 
HETATM   20  C   UNL     1      -7.807  11.831  67.520  1.00  0.00    -0.148 A  
HETATM   21  N   UNL     1      -8.809  12.240  68.306  1.00  0.00    -0.188 NA 
ENDBRANCH  16  17
ENDBRANCH  13  16
ENDBRANCH   5   6
ENDBRANCH   4   5
ENDBRANCH   2   4
TORSDOF 5
ENDMDL
MODEL      162
REMARK 921   NORMALIZED FREE ENERGY PREDICTED BY IDOCK:   -3.93 KCAL/MOL
REMARK 922        TOTAL FREE ENERGY PREDICTED BY IDOCK:   -5.54 KCAL/MOL
REMARK 923 INTER-LIGAND FREE ENERGY PREDICTED BY IDOCK:   -5.07 KCAL/MOL
REMARK 924 INTRA-LIGAND FREE ENERGY PREDICTED BY IDOCK:   -0.47 KCAL/MOL
REMARK 927      BINDING AFFINITY PREDICTED BY RF-SCORE:    0.00 PKD
ROOT
HETATM    1  C   UNL     1      -5.196  19.653  66.663  1.00  0.00    -0.163 C  
HETATM    2  N   UNL     1      -6.331  19.129  65.895  1.00  0.00    -0.203 NA 
HETATM    3  C   UNL     1      -6.010  19.157  64.466  1.00  0.00    -0.263 C  
ENDROOT
BRANCH   2   4
HETATM    4  C   UNL     1      -6.662  17.769  66.371  1.00  0.00    -0.246 C  
BRANCH   4   5
HETATM    5  C   UNL     1      -7.954  17.681  67.200  1.00  0.00    -0.229 C  
BRANCH   5   6
HETATM    6  C   UNL     1      -9.109  17.110  66.428  1.00  0.00    -0.285 A  
HETATM    7  C   UNL     1     -10.056  17.829  65.724  1.00  0.00    -0.061 A  
HETATM    8  N   UNL     1     -10.889  16.947  65.095  1.00  0.00    -0.597 NA 
HETATM    9  C   UNL     1     -10.490  15.656  65.348  1.00  0.00    -0.411 A  
HETATM   10  H   UNL     1     -11.689  17.209  64.521  1.00  0.00     0.000 HD 
HETATM   11  C   UNL     1      -9.414  15.723  66.231  1.00  0.00    -0.349 A  
HETATM   12  C   UNL     1      -8.855  14.514  66.698  1.00  0.00    -0.214 A  
HETATM   13  C   UNL     1      -9.354  13.278  66.236  1.00  0.00    -0.134 A  
HETATM   14  C   UNL     1     -10.996  14.447  64.858  1.00  0.00    -0.416 A  
HETATM   15  C   UNL     1     -10.404  13.262  65.307  1.00  0.00    -0.324 A  
BRANCH  13  16
HETATM   16  C   UNL     1      -8.768  11.986  66.746  1.00  0.00    -0.192 C  
BRANCH  16  17
HETATM   17  N   UNL     1      -9.718  11.106  67.411  1.00  0.00    -0.172 NA 
HETATM   18  C   UNL     1     -10.066   9.819  67.138  1.00  0.00    -0.211 A  
HETATM   19  N   UNL     1     -10.955   9.403  68.011  1.00  0.00    -0.131 NA 
HETATM   20  C   UNL     1     -11.125  10.489  68.815  1.00  0.00    -0.265 A  
HETATM   21  N   UNL     1     -10.390  11.557  68.491  1.00  0.00    -0.205 NA 
ENDBRANCH  16  17
ENDBRANCH  13  16
ENDBRANCH   5   6
ENDBRANCH   4   5
ENDBRANCH   2   4
TORSDOF 5
ENDMDL
MODEL      163
REMARK 921   NORMALIZED FREE ENERGY PREDICTED BY IDOCK:   -3.92 KCAL/MOL
REMARK 922        TOTAL FREE ENERGY PREDICTED BY IDOCK:   -5.52 KCAL/MOL
REMARK 923 INTER-LIGAND FREE ENERGY PREDICTED BY IDOCK:   -4.93 KCAL/MOL
REMARK 924 INTRA-LIGAND FREE ENERGY PREDICTED BY IDOCK:   -0.59 KCAL/MOL
REMARK 927      BINDING AFFINITY PREDICTED BY RF-SCORE:    0.00 PKD
ROOT
HETATM    1  C   UNL     1     -10.380  17.413  66.172  1.00  0.00    -0.327 C  
HETATM    2  N   UNL     1     -10.241  17.503  67.630  1.00  0.00    -0.328 NA 
HETATM    3  C   UNL     1     -11.031  16.444  68.264  1.00  0.00    -0.355 C  
ENDROOT
BRANCH   2   4
HETATM    4  C   UNL     1      -8.810  17.431  67.993  1.00  0.00    -0.252 C  
BRANCH   4   5
HETATM    5  C   UNL     1      -8.492  16.454  69.137  1.00  0.00    -0.181 C  
BRANCH   5   6
HETATM    6  C   UNL     1      -7.447  15.438  68.770  1.00  0.00    -0.136 A  
HETATM    7  C   UNL     1      -6.116  15.466  69.139  1.00  0.00    -0.108 A  
HETATM    8  N   UNL     1      -5.516  14.328  68.678  1.00  0.00    -0.085 NA 
HETATM    9  C   UNL     1      -6.435  13.534  68.035  1.00  0.00    -0.135 A  
HETATM   10  H   UNL     1      -4.529  14.101  68.795  1.00  0.00     0.000 HD 
HETATM   11  C   UNL     1      -7.642  14.231  68.022  1.00  0.00    -0.144 A  
HETATM   12  C   UNL     1      -8.743  13.648  67.358  1.00  0.00    -0.214 A  
HETATM   13  C   UNL     1      -8.622  12.372  66.769  1.00  0.00    -0.129 A  
HETATM   14  C   UNL     1      -6.287  12.260  67.476  1.00  0.00    -0.139 A  
HETATM   15  C   UNL     1      -7.402  11.687  66.854  1.00  0.00    -0.125 A  
BRANCH  13  16
HETATM   16  C   UNL     1      -9.793  11.756  66.047  1.00  0.00    -0.232 C  
BRANCH  16  17
HETATM   17  N   UNL     1     -10.835  12.697  65.662  1.00  0.00    -0.269 NA 
HETATM   18  C   UNL     1     -11.988  13.042  66.297  1.00  0.00    -0.414 A  
HETATM   19  N   UNL     1     -12.628  13.951  65.597  1.00  0.00    -0.515 NA 
HETATM   20  C   UNL     1     -11.814  14.137  64.521  1.00  0.00    -0.436 A  
HETATM   21  N   UNL     1     -10.703  13.394  64.515  1.00  0.00    -0.402 NA 
ENDBRANCH  16  17
ENDBRANCH  13  16
ENDBRANCH   5   6
ENDBRANCH   4   5
ENDBRANCH   2   4
TORSDOF 5
ENDMDL
MODEL      164
REMARK 921   NORMALIZED FREE ENERGY PREDICTED BY IDOCK:   -3.90 KCAL/MOL
REMARK 922        TOTAL FREE ENERGY PREDICTED BY IDOCK:   -5.50 KCAL/MOL
REMARK 923 INTER-LIGAND FREE ENERGY PREDICTED BY IDOCK:   -5.65 KCAL/MOL
REMARK 924 INTRA-LIGAND FREE ENERGY PREDICTED BY IDOCK:    0.15 KCAL/MOL
REMARK 927      BINDING AFFINITY PREDICTED BY RF-SCORE:    0.00 PKD
ROOT
HETATM    1  C   UNL     1      -7.282   8.637  67.139  1.00  0.00    -0.076 C  
HETATM    2  N   UNL     1      -7.858   9.069  68.417  1.00  0.00    -0.102 NA 
HETATM    3  C   UNL     1      -7.393  10.422  68.733  1.00  0.00    -0.089 C  
ENDROOT
BRANCH   2   4
HETATM    4  C   UNL     1      -9.332   8.984  68.346  1.00  0.00    -0.139 C  
BRANCH   4   5
HETATM    5  C   UNL     1      -9.966   9.838  67.236  1.00  0.00    -0.242 C  
BRANCH   5   6
HETATM    6  C   UNL     1     -10.334  11.220  67.695  1.00  0.00    -0.212 A  
HETATM    7  C   UNL     1     -10.050  12.401  67.037  1.00  0.00    -0.214 A  
HETATM    8  N   UNL     1     -10.621  13.431  67.731  1.00  0.00    -0.242 NA 
HETATM    9  C   UNL     1     -11.303  12.947  68.822  1.00  0.00    -0.290 A  
HETATM   10  H   UNL     1     -10.551  14.415  67.477  1.00  0.00     0.000 HD 
HETATM   11  C   UNL     1     -11.091  11.570  68.861  1.00  0.00    -0.288 A  
HETATM   12  C   UNL     1     -11.643  10.839  69.935  1.00  0.00    -0.410 A  
HETATM   13  C   UNL     1     -12.427  11.492  70.909  1.00  0.00    -0.464 A  
HETATM   14  C   UNL     1     -12.090  13.621  69.762  1.00  0.00    -0.396 A  
HETATM   15  C   UNL     1     -12.656  12.870  70.797  1.00  0.00    -0.314 A  
BRANCH  13  16
HETATM   16  C   UNL     1     -13.004  10.714  72.064  1.00  0.00    -0.361 C  
BRANCH  16  17
HETATM   17  N   UNL     1     -13.160   9.288  71.821  1.00  0.00    -0.371 NA 
HETATM   18  C   UNL     1     -14.271   8.563  71.517  1.00  0.00    -0.374 A  
HETATM   19  N   UNL     1     -13.950   7.299  71.361  1.00  0.00    -0.369 NA 
HETATM   20  C   UNL     1     -12.607   7.295  71.583  1.00  0.00    -0.368 A  
HETATM   21  N   UNL     1     -12.074   8.488  71.867  1.00  0.00    -0.324 NA 
ENDBRANCH  16  17
ENDBRANCH  13  16
ENDBRANCH   5   6
ENDBRANCH   4   5
ENDBRANCH   2   4
TORSDOF 5
ENDMDL
MODEL      165
REMARK 921   NORMALIZED FREE ENERGY PREDICTED BY IDOCK:   -3.89 KCAL/MOL
REMARK 922        TOTAL FREE ENERGY PREDICTED BY IDOCK:   -5.49 KCAL/MOL
REMARK 923 INTER-LIGAND FREE ENERGY PREDICTED BY IDOCK:   -5.17 KCAL/MOL
REMARK 924 INTRA-LIGAND FREE ENERGY PREDICTED BY IDOCK:   -0.32 KCAL/MOL
REMARK 927      BINDING AFFINITY PREDICTED BY RF-SCORE:    0.00 PKD
ROOT
HETATM    1  C   UNL     1      -8.434   7.770  73.773  1.00  0.00    -0.236 C  
HETATM    2  N   UNL     1      -9.369   7.484  72.679  1.00  0.00    -0.149 NA 
HETATM    3  C   UNL     1     -10.648   7.034  73.232  1.00  0.00    -0.344 C  
ENDROOT
BRANCH   2   4
HETATM    4  C   UNL     1      -9.515   8.686  71.831  1.00  0.00    -0.299 C  
BRANCH   4   5
HETATM    5  C   UNL     1      -8.255   9.059  71.033  1.00  0.00    -0.220 C  
BRANCH   5   6
HETATM    6  C   UNL     1      -8.361   8.719  69.573  1.00  0.00    -0.119 A  
HETATM    7  C   UNL     1      -7.839   7.599  68.956  1.00  0.00    -0.119 A  
HETATM    8  N   UNL     1      -8.219   7.612  67.643  1.00  0.00    -0.120 NA 
HETATM    9  C   UNL     1      -9.009   8.708  67.389  1.00  0.00    -0.133 A  
HETATM   10  H   UNL     1      -7.955   6.911  66.953  1.00  0.00     0.000 HD 
HETATM   11  C   UNL     1      -9.066   9.455  68.565  1.00  0.00    -0.131 A  
HETATM   12  C   UNL     1      -9.776  10.675  68.548  1.00  0.00    -0.177 A  
HETATM   13  C   UNL     1     -10.444  11.090  67.377  1.00  0.00    -0.255 A  
HETATM   14  C   UNL     1      -9.675   9.084  66.217  1.00  0.00    -0.345 A  
HETATM   15  C   UNL     1     -10.401  10.279  66.235  1.00  0.00    -0.256 A  
BRANCH  13  16
HETATM   16  C   UNL     1     -11.189  12.401  67.354  1.00  0.00    -0.297 C  
BRANCH  16  17
HETATM   17  N   UNL     1     -11.475  12.916  66.023  1.00  0.00    -0.324 NA 
HETATM   18  C   UNL     1     -12.620  12.871  65.290  1.00  0.00    -0.439 A  
HETATM   19  N   UNL     1     -12.438  13.482  64.140  1.00  0.00    -0.665 NA 
HETATM   20  C   UNL     1     -11.142  13.894  64.216  1.00  0.00    -0.233 A  
HETATM   21  N   UNL     1     -10.509  13.574  65.349  1.00  0.00    -0.303 NA 
ENDBRANCH  16  17
ENDBRANCH  13  16
ENDBRANCH   5   6
ENDBRANCH   4   5
ENDBRANCH   2   4
TORSDOF 5
ENDMDL
MODEL      166
REMARK 921   NORMALIZED FREE ENERGY PREDICTED BY IDOCK:   -3.88 KCAL/MOL
REMARK 922        TOTAL FREE ENERGY PREDICTED BY IDOCK:   -5.47 KCAL/MOL
REMARK 923 INTER-LIGAND FREE ENERGY PREDICTED BY IDOCK:   -5.14 KCAL/MOL
REMARK 924 INTRA-LIGAND FREE ENERGY PREDICTED BY IDOCK:   -0.33 KCAL/MOL
REMARK 927      BINDING AFFINITY PREDICTED BY RF-SCORE:    0.00 PKD
ROOT
HETATM    1  C   UNL     1      -9.902   5.132  66.070  1.00  0.00    -0.163 C  
HETATM    2  N   UNL     1      -9.451   6.329  66.789  1.00  0.00    -0.140 NA 
HETATM    3  C   UNL     1     -10.521   7.330  66.793  1.00  0.00    -0.241 C  
ENDROOT
BRANCH   2   4
HETATM    4  C   UNL     1      -9.029   5.953  68.155  1.00  0.00    -0.115 C  
BRANCH   4   5
HETATM    5  C   UNL     1      -9.884   4.853  68.806  1.00  0.00    -0.231 C  
BRANCH   5   6
HETATM    6  C   UNL     1     -10.220   5.141  70.241  1.00  0.00    -0.342 A  
HETATM    7  C   UNL     1     -10.061   4.275  71.306  1.00  0.00    -0.108 A  
HETATM    8  N   UNL     1     -10.401   4.935  72.454  1.00  0.00    -0.199 NA 
HETATM    9  C   UNL     1     -10.754   6.232  72.168  1.00  0.00    -0.231 A  
HETATM   10  H   UNL     1     -10.394   4.524  73.386  1.00  0.00     0.000 HD 
HETATM   11  C   UNL     1     -10.710   6.375  70.782  1.00  0.00    -0.302 A  
HETATM   12  C   UNL     1     -11.093   7.613  70.225  1.00  0.00    -0.256 A  
HETATM   13  C   UNL     1     -11.463   8.685  71.065  1.00  0.00    -0.324 A  
HETATM   14  C   UNL     1     -11.099   7.280  73.029  1.00  0.00    -0.361 A  
HETATM   15  C   UNL     1     -11.441   8.509  72.455  1.00  0.00    -0.419 A  
BRANCH  13  16
HETATM   16  C   UNL     1     -11.887  10.003  70.469  1.00  0.00    -0.303 C  
BRANCH  16  17
HETATM   17  N   UNL     1     -11.158  10.394  69.272  1.00  0.00    -0.238 NA 
HETATM   18  C   UNL     1      -9.819  10.476  69.044  1.00  0.00    -0.212 A  
HETATM   19  N   UNL     1      -9.599  10.856  67.805  1.00  0.00    -0.162 NA 
HETATM   20  C   UNL     1     -10.857  10.996  67.301  1.00  0.00    -0.281 A  
HETATM   21  N   UNL     1     -11.846  10.723  68.158  1.00  0.00    -0.514 NA 
ENDBRANCH  16  17
ENDBRANCH  13  16
ENDBRANCH   5   6
ENDBRANCH   4   5
ENDBRANCH   2   4
TORSDOF 5
ENDMDL
MODEL      167
REMARK 921   NORMALIZED FREE ENERGY PREDICTED BY IDOCK:   -3.88 KCAL/MOL
REMARK 922        TOTAL FREE ENERGY PREDICTED BY IDOCK:   -5.47 KCAL/MOL
REMARK 923 INTER-LIGAND FREE ENERGY PREDICTED BY IDOCK:   -5.40 KCAL/MOL
REMARK 924 INTRA-LIGAND FREE ENERGY PREDICTED BY IDOCK:   -0.07 KCAL/MOL
REMARK 927      BINDING AFFINITY PREDICTED BY RF-SCORE:    0.00 PKD
ROOT
HETATM    1  C   UNL     1     -13.233  15.840  73.435  1.00  0.00    -0.544 C  
HETATM    2  N   UNL     1     -12.871  14.802  72.464  1.00  0.00    -0.356 NA 
HETATM    3  C   UNL     1     -13.736  13.634  72.648  1.00  0.00    -0.439 C  
ENDROOT
BRANCH   2   4
HETATM    4  C   UNL     1     -12.957  15.356  71.096  1.00  0.00    -0.479 C  
BRANCH   4   5
HETATM    5  C   UNL     1     -12.656  14.343  69.979  1.00  0.00    -0.283 C  
BRANCH   5   6
HETATM    6  C   UNL     1     -11.357  14.614  69.275  1.00  0.00    -0.313 A  
HETATM    7  C   UNL     1     -10.603  15.768  69.367  1.00  0.00    -0.255 A  
HETATM    8  N   UNL     1      -9.455  15.594  68.646  1.00  0.00    -0.196 NA 
HETATM    9  C   UNL     1      -9.424  14.332  68.102  1.00  0.00    -0.204 A  
HETATM   10  H   UNL     1      -8.728  16.298  68.528  1.00  0.00     0.000 HD 
HETATM   11  C   UNL     1     -10.630  13.714  68.427  1.00  0.00    -0.260 A  
HETATM   12  C   UNL     1     -10.872  12.416  67.929  1.00  0.00    -0.253 A  
HETATM   13  C   UNL     1      -9.888  11.756  67.163  1.00  0.00    -0.207 A  
HETATM   14  C   UNL     1      -8.422  13.698  67.359  1.00  0.00    -0.206 A  
HETATM   15  C   UNL     1      -8.669  12.398  66.906  1.00  0.00    -0.191 A  
BRANCH  13  16
HETATM   16  C   UNL     1     -10.153  10.376  66.617  1.00  0.00    -0.224 C  
BRANCH  16  17
HETATM   17  N   UNL     1      -9.526  10.098  65.333  1.00  0.00    -0.217 NA 
HETATM   18  C   UNL     1      -9.412  10.876  64.222  1.00  0.00    -0.250 A  
HETATM   19  N   UNL     1      -8.748  10.229  63.291  1.00  0.00    -0.187 NA 
HETATM   20  C   UNL     1      -8.470   9.037  63.887  1.00  0.00    -0.160 A  
HETATM   21  N   UNL     1      -8.923   8.907  65.137  1.00  0.00    -0.176 NA 
ENDBRANCH  16  17
ENDBRANCH  13  16
ENDBRANCH   5   6
ENDBRANCH   4   5
ENDBRANCH   2   4
TORSDOF 5
ENDMDL
MODEL      168
REMARK 921   NORMALIZED FREE ENERGY PREDICTED BY IDOCK:   -3.87 KCAL/MOL
REMARK 922        TOTAL FREE ENERGY PREDICTED BY IDOCK:   -5.46 KCAL/MOL
REMARK 923 INTER-LIGAND FREE ENERGY PREDICTED BY IDOCK:   -5.40 KCAL/MOL
REMARK 924 INTRA-LIGAND FREE ENERGY PREDICTED BY IDOCK:   -0.06 KCAL/MOL
REMARK 927      BINDING AFFINITY PREDICTED BY RF-SCORE:    0.00 PKD
ROOT
HETATM    1  C   UNL     1      -7.450  14.729  69.138  1.00  0.00    -0.153 C  
HETATM    2  N   UNL     1      -7.847  16.127  69.341  1.00  0.00    -0.199 NA 
HETATM    3  C   UNL     1      -7.081  16.991  68.440  1.00  0.00    -0.188 C  
ENDROOT
BRANCH   2   4
HETATM    4  C   UNL     1      -9.306  16.258  69.141  1.00  0.00    -0.236 C  
BRANCH   4   5
HETATM    5  C   UNL     1      -9.751  17.617  68.576  1.00  0.00    -0.328 C  
BRANCH   5   6
HETATM    6  C   UNL     1     -10.299  17.523  67.180  1.00  0.00    -0.330 A  
HETATM    7  C   UNL     1     -10.393  18.558  66.269  1.00  0.00    -0.427 A  
HETATM    8  N   UNL     1     -10.866  18.053  65.090  1.00  0.00    -0.611 NA 
HETATM    9  C   UNL     1     -11.058  16.697  65.198  1.00  0.00    -0.081 A  
HETATM   10  H   UNL     1     -11.049  18.604  64.253  1.00  0.00     0.000 HD 
HETATM   11  C   UNL     1     -10.769  16.344  66.515  1.00  0.00    -0.163 A  
HETATM   12  C   UNL     1     -10.950  14.999  66.902  1.00  0.00    -0.324 A  
HETATM   13  C   UNL     1     -11.367  14.039  65.956  1.00  0.00    -0.328 A  
HETATM   14  C   UNL     1     -11.455  15.766  64.232  1.00  0.00    -0.203 A  
HETATM   15  C   UNL     1     -11.594  14.432  64.630  1.00  0.00    -0.414 A  
BRANCH  13  16
HETATM   16  C   UNL     1     -11.575  12.605  66.372  1.00  0.00    -0.384 C  
BRANCH  16  17
HETATM   17  N   UNL     1     -10.449  11.723  66.104  1.00  0.00    -0.237 NA 
HETATM   18  C   UNL     1      -9.242  11.623  66.723  1.00  0.00    -0.186 A  
HETATM   19  N   UNL     1      -8.530  10.671  66.163  1.00  0.00    -0.153 NA 
HETATM   20  C   UNL     1      -9.357  10.206  65.186  1.00  0.00    -0.235 A  
HETATM   21  N   UNL     1     -10.544  10.815  65.110  1.00  0.00    -0.222 NA 
ENDBRANCH  16  17
ENDBRANCH  13  16
ENDBRANCH   5   6
ENDBRANCH   4   5
ENDBRANCH   2   4
TORSDOF 5
ENDMDL
MODEL      169
REMARK 921   NORMALIZED FREE ENERGY PREDICTED BY IDOCK:   -3.86 KCAL/MOL
REMARK 922        TOTAL FREE ENERGY PREDICTED BY IDOCK:   -5.45 KCAL/MOL
REMARK 923 INTER-LIGAND FREE ENERGY PREDICTED BY IDOCK:   -4.99 KCAL/MOL
REMARK 924 INTRA-LIGAND FREE ENERGY PREDICTED BY IDOCK:   -0.45 KCAL/MOL
REMARK 927      BINDING AFFINITY PREDICTED BY RF-SCORE:    0.00 PKD
ROOT
HETATM    1  C   UNL     1     -11.701  14.035  68.020  1.00  0.00    -0.359 C  
HETATM    2  N   UNL     1     -11.954  12.854  67.186  1.00  0.00    -0.372 NA 
HETATM    3  C   UNL     1     -11.199  12.965  65.936  1.00  0.00    -0.293 C  
ENDROOT
BRANCH   2   4
HETATM    4  C   UNL     1     -11.610  11.633  67.945  1.00  0.00    -0.298 C  
BRANCH   4   5
HETATM    5  C   UNL     1     -10.104  11.437  68.185  1.00  0.00    -0.200 C  
BRANCH   5   6
HETATM    6  C   UNL     1      -9.636  10.042  67.878  1.00  0.00    -0.163 A  
HETATM    7  C   UNL     1      -8.719   9.684  66.910  1.00  0.00    -0.131 A  
HETATM    8  N   UNL     1      -8.500   8.338  66.999  1.00  0.00    -0.121 NA 
HETATM    9  C   UNL     1      -9.237   7.805  68.030  1.00  0.00    -0.138 A  
HETATM   10  H   UNL     1      -7.880   7.806  66.389  1.00  0.00     0.000 HD 
HETATM   11  C   UNL     1     -10.007   8.838  68.562  1.00  0.00    -0.200 A  
HETATM   12  C   UNL     1     -10.905   8.532  69.606  1.00  0.00    -0.157 A  
HETATM   13  C   UNL     1     -10.976   7.220  70.119  1.00  0.00    -0.280 A  
HETATM   14  C   UNL     1      -9.271   6.498  68.528  1.00  0.00    -0.125 A  
HETATM   15  C   UNL     1     -10.144   6.226  69.587  1.00  0.00    -0.215 A  
BRANCH  13  16
HETATM   16  C   UNL     1     -11.947   6.890  71.224  1.00  0.00    -0.356 C  
BRANCH  16  17
HETATM   17  N   UNL     1     -11.333   6.398  72.448  1.00  0.00    -0.277 NA 
HETATM   18  C   UNL     1     -11.291   5.141  72.968  1.00  0.00    -0.309 A  
HETATM   19  N   UNL     1     -10.609   5.145  74.091  1.00  0.00    -0.288 NA 
HETATM   20  C   UNL     1     -10.245   6.451  74.222  1.00  0.00    -0.344 A  
HETATM   21  N   UNL     1     -10.662   7.258  73.242  1.00  0.00    -0.368 NA 
ENDBRANCH  16  17
ENDBRANCH  13  16
ENDBRANCH   5   6
ENDBRANCH   4   5
ENDBRANCH   2   4
TORSDOF 5
ENDMDL
MODEL      170
REMARK 921   NORMALIZED FREE ENERGY PREDICTED BY IDOCK:   -3.86 KCAL/MOL
REMARK 922        TOTAL FREE ENERGY PREDICTED BY IDOCK:   -5.44 KCAL/MOL
REMARK 923 INTER-LIGAND FREE ENERGY PREDICTED BY IDOCK:   -5.03 KCAL/MOL
REMARK 924 INTRA-LIGAND FREE ENERGY PREDICTED BY IDOCK:   -0.41 KCAL/MOL
REMARK 927      BINDING AFFINITY PREDICTED BY RF-SCORE:    0.00 PKD
ROOT
HETATM    1  C   UNL     1      -6.757   7.068  67.564  1.00  0.00    -0.068 C  
HETATM    2  N   UNL     1      -6.864   6.640  66.165  1.00  0.00    -0.059 NA 
HETATM    3  C   UNL     1      -6.756   5.181  66.089  1.00  0.00    -0.054 C  
ENDROOT
BRANCH   2   4
HETATM    4  C   UNL     1      -8.132   7.141  65.593  1.00  0.00    -0.133 C  
BRANCH   4   5
HETATM    5  C   UNL     1      -8.682   8.405  66.273  1.00  0.00    -0.164 C  
BRANCH   5   6
HETATM    6  C   UNL     1      -9.147   9.445  65.294  1.00  0.00    -0.287 A  
HETATM    7  C   UNL     1      -8.920   9.442  63.931  1.00  0.00    -0.126 A  
HETATM    8  N   UNL     1      -9.572  10.511  63.382  1.00  0.00    -0.312 NA 
HETATM    9  C   UNL     1     -10.250  11.204  64.356  1.00  0.00    -0.330 A  
HETATM   10  H   UNL     1      -9.557  10.757  62.393  1.00  0.00     0.000 HD 
HETATM   11  C   UNL     1      -9.953  10.597  65.575  1.00  0.00    -0.333 A  
HETATM   12  C   UNL     1     -10.486  11.165  66.752  1.00  0.00    -0.297 A  
HETATM   13  C   UNL     1     -11.333  12.290  66.676  1.00  0.00    -0.398 A  
HETATM   14  C   UNL     1     -11.100  12.310  64.245  1.00  0.00    -0.401 A  
HETATM   15  C   UNL     1     -11.645  12.834  65.422  1.00  0.00    -0.393 A  
BRANCH  13  16
HETATM   16  C   UNL     1     -11.889  12.907  67.934  1.00  0.00    -0.339 C  
BRANCH  16  17
HETATM   17  N   UNL     1     -11.303  14.189  68.295  1.00  0.00    -0.276 NA 
HETATM   18  C   UNL     1     -11.895  15.340  68.716  1.00  0.00    -0.307 A  
HETATM   19  N   UNL     1     -10.979  16.253  68.950  1.00  0.00    -0.314 NA 
HETATM   20  C   UNL     1      -9.819  15.604  68.655  1.00  0.00    -0.210 A  
HETATM   21  N   UNL     1      -9.963  14.338  68.251  1.00  0.00    -0.232 NA 
ENDBRANCH  16  17
ENDBRANCH  13  16
ENDBRANCH   5   6
ENDBRANCH   4   5
ENDBRANCH   2   4
TORSDOF 5
ENDMDL
MODEL      171
REMARK 921   NORMALIZED FREE ENERGY PREDICTED BY IDOCK:   -3.86 KCAL/MOL
REMARK 922        TOTAL FREE ENERGY PREDICTED BY IDOCK:   -5.44 KCAL/MOL
REMARK 923 INTER-LIGAND FREE ENERGY PREDICTED BY IDOCK:   -5.01 KCAL/MOL
REMARK 924 INTRA-LIGAND FREE ENERGY PREDICTED BY IDOCK:   -0.44 KCAL/MOL
REMARK 927      BINDING AFFINITY PREDICTED BY RF-SCORE:    0.00 PKD
ROOT
HETATM    1  C   UNL     1      -9.591  15.517  67.565  1.00  0.00    -0.212 C  
HETATM    2  N   UNL     1     -10.426  14.751  66.633  1.00  0.00    -0.281 NA 
HETATM    3  C   UNL     1     -10.472  15.435  65.338  1.00  0.00    -0.402 C  
ENDROOT
BRANCH   2   4
HETATM    4  C   UNL     1      -9.901  13.373  66.522  1.00  0.00    -0.286 C  
BRANCH   4   5
HETATM    5  C   UNL     1     -10.954  12.319  66.142  1.00  0.00    -0.328 C  
BRANCH   5   6
HETATM    6  C   UNL     1     -10.614  11.576  64.882  1.00  0.00    -0.360 A  
HETATM    7  C   UNL     1     -11.054  11.886  63.609  1.00  0.00    -0.440 A  
HETATM    8  N   UNL     1     -10.461  11.027  62.726  1.00  0.00    -0.786 NA 
HETATM    9  C   UNL     1      -9.614  10.173  63.392  1.00  0.00    -0.181 A  
HETATM   10  H   UNL     1     -10.624  11.021  61.720  1.00  0.00     0.000 HD 
HETATM   11  C   UNL     1      -9.734  10.452  64.752  1.00  0.00    -0.383 A  
HETATM   12  C   UNL     1      -9.003   9.661  65.664  1.00  0.00    -0.208 A  
HETATM   13  C   UNL     1      -8.140   8.649  65.192  1.00  0.00    -0.143 A  
HETATM   14  C   UNL     1      -8.754   9.189  62.891  1.00  0.00    -0.178 A  
HETATM   15  C   UNL     1      -8.012   8.441  63.812  1.00  0.00    -0.159 A  
BRANCH  13  16
HETATM   16  C   UNL     1      -7.371   7.794  66.166  1.00  0.00    -0.078 C  
BRANCH  16  17
HETATM   17  N   UNL     1      -8.196   6.995  67.059  1.00  0.00    -0.116 NA 
HETATM   18  C   UNL     1      -9.393   6.384  66.842  1.00  0.00    -0.134 A  
HETATM   19  N   UNL     1      -9.773   5.748  67.927  1.00  0.00    -0.116 NA 
HETATM   20  C   UNL     1      -8.758   6.000  68.800  1.00  0.00    -0.111 A  
HETATM   21  N   UNL     1      -7.768   6.757  68.317  1.00  0.00    -0.104 NA 
ENDBRANCH  16  17
ENDBRANCH  13  16
ENDBRANCH   5   6
ENDBRANCH   4   5
ENDBRANCH   2   4
TORSDOF 5
ENDMDL
MODEL      172
REMARK 921   NORMALIZED FREE ENERGY PREDICTED BY IDOCK:   -3.85 KCAL/MOL
REMARK 922        TOTAL FREE ENERGY PREDICTED BY IDOCK:   -5.43 KCAL/MOL
REMARK 923 INTER-LIGAND FREE ENERGY PREDICTED BY IDOCK:   -5.11 KCAL/MOL
REMARK 924 INTRA-LIGAND FREE ENERGY PREDICTED BY IDOCK:   -0.32 KCAL/MOL
REMARK 927      BINDING AFFINITY PREDICTED BY RF-SCORE:    0.00 PKD
ROOT
HETATM    1  C   UNL     1     -10.604   4.969  71.159  1.00  0.00    -0.077 C  
HETATM    2  N   UNL     1     -10.827   6.302  70.587  1.00  0.00    -0.261 NA 
HETATM    3  C   UNL     1     -11.231   6.173  69.185  1.00  0.00    -0.339 C  
ENDROOT
BRANCH   2   4
HETATM    4  C   UNL     1     -11.832   7.022  71.398  1.00  0.00    -0.320 C  
BRANCH   4   5
HETATM    5  C   UNL     1     -11.277   8.225  72.179  1.00  0.00    -0.413 C  
BRANCH   5   6
HETATM    6  C   UNL     1     -10.035   8.803  71.563  1.00  0.00    -0.370 A  
HETATM    7  C   UNL     1      -8.733   8.489  71.904  1.00  0.00    -0.203 A  
HETATM    8  N   UNL     1      -7.892   9.162  71.063  1.00  0.00    -0.242 NA 
HETATM    9  C   UNL     1      -8.617   9.893  70.152  1.00  0.00    -0.105 A  
HETATM   10  H   UNL     1      -6.874   9.127  71.105  1.00  0.00     0.000 HD 
HETATM   11  C   UNL     1      -9.963   9.737  70.478  1.00  0.00    -0.258 A  
HETATM   12  C   UNL     1     -10.921  10.444  69.720  1.00  0.00    -0.345 A  
HETATM   13  C   UNL     1     -10.513  11.247  68.634  1.00  0.00    -0.226 A  
HETATM   14  C   UNL     1      -8.182  10.667  69.070  1.00  0.00    -0.151 A  
HETATM   15  C   UNL     1      -9.152  11.330  68.312  1.00  0.00    -0.173 A  
BRANCH  13  16
HETATM   16  C   UNL     1     -11.535  12.015  67.834  1.00  0.00    -0.330 C  
BRANCH  16  17
HETATM   17  N   UNL     1     -11.552  13.448  68.084  1.00  0.00    -0.319 NA 
HETATM   18  C   UNL     1     -12.115  14.460  67.369  1.00  0.00    -0.313 A  
HETATM   19  N   UNL     1     -11.902  15.607  67.974  1.00  0.00    -0.149 NA 
HETATM   20  C   UNL     1     -11.191  15.242  69.077  1.00  0.00    -0.280 A  
HETATM   21  N   UNL     1     -10.952  13.932  69.191  1.00  0.00    -0.241 NA 
ENDBRANCH  16  17
ENDBRANCH  13  16
ENDBRANCH   5   6
ENDBRANCH   4   5
ENDBRANCH   2   4
TORSDOF 5
ENDMDL
MODEL      173
REMARK 921   NORMALIZED FREE ENERGY PREDICTED BY IDOCK:   -3.84 KCAL/MOL
REMARK 922        TOTAL FREE ENERGY PREDICTED BY IDOCK:   -5.42 KCAL/MOL
REMARK 923 INTER-LIGAND FREE ENERGY PREDICTED BY IDOCK:   -4.96 KCAL/MOL
REMARK 924 INTRA-LIGAND FREE ENERGY PREDICTED BY IDOCK:   -0.46 KCAL/MOL
REMARK 927      BINDING AFFINITY PREDICTED BY RF-SCORE:    0.00 PKD
ROOT
HETATM    1  C   UNL     1     -12.529  15.538  72.857  1.00  0.00    -0.424 C  
HETATM    2  N   UNL     1     -11.593  15.093  71.818  1.00  0.00    -0.401 NA 
HETATM    3  C   UNL     1     -12.192  13.994  71.057  1.00  0.00    -0.353 C  
ENDROOT
BRANCH   2   4
HETATM    4  C   UNL     1     -11.231  16.240  70.959  1.00  0.00    -0.184 C  
BRANCH   4   5
HETATM    5  C   UNL     1     -11.102  15.901  69.465  1.00  0.00    -0.315 C  
BRANCH   5   6
HETATM    6  C   UNL     1      -9.741  15.384  69.094  1.00  0.00    -0.252 A  
HETATM    7  C   UNL     1      -8.530  15.918  69.490  1.00  0.00    -0.089 A  
HETATM    8  N   UNL     1      -7.529  15.118  69.014  1.00  0.00    -0.147 NA 
HETATM    9  C   UNL     1      -8.060  14.047  68.335  1.00  0.00    -0.148 A  
HETATM   10  H   UNL     1      -6.533  15.291  69.145  1.00  0.00     0.000 HD 
HETATM   11  C   UNL     1      -9.443  14.218  68.315  1.00  0.00    -0.209 A  
HETATM   12  C   UNL     1     -10.224  13.272  67.617  1.00  0.00    -0.228 A  
HETATM   13  C   UNL     1      -9.609  12.162  67.001  1.00  0.00    -0.207 A  
HETATM   14  C   UNL     1      -7.422  12.948  67.750  1.00  0.00    -0.136 A  
HETATM   15  C   UNL     1      -8.219  12.005  67.094  1.00  0.00    -0.181 A  
BRANCH  13  16
HETATM   16  C   UNL     1     -10.441  11.159  66.242  1.00  0.00    -0.259 C  
BRANCH  16  17
HETATM   17  N   UNL     1     -11.145  11.700  65.089  1.00  0.00    -0.271 NA 
HETATM   18  C   UNL     1     -10.669  12.135  63.891  1.00  0.00    -0.407 A  
HETATM   19  N   UNL     1     -11.666  12.526  63.130  1.00  0.00    -0.364 NA 
HETATM   20  C   UNL     1     -12.755  12.308  63.918  1.00  0.00    -0.382 A  
HETATM   21  N   UNL     1     -12.490  11.802  65.126  1.00  0.00    -0.005 NA 
ENDBRANCH  16  17
ENDBRANCH  13  16
ENDBRANCH   5   6
ENDBRANCH   4   5
ENDBRANCH   2   4
TORSDOF 5
ENDMDL
MODEL      174
REMARK 921   NORMALIZED FREE ENERGY PREDICTED BY IDOCK:   -3.81 KCAL/MOL
REMARK 922        TOTAL FREE ENERGY PREDICTED BY IDOCK:   -5.38 KCAL/MOL
REMARK 923 INTER-LIGAND FREE ENERGY PREDICTED BY IDOCK:   -5.08 KCAL/MOL
REMARK 924 INTRA-LIGAND FREE ENERGY PREDICTED BY IDOCK:   -0.30 KCAL/MOL
REMARK 927      BINDING AFFINITY PREDICTED BY RF-SCORE:    0.00 PKD
ROOT
HETATM    1  C   UNL     1     -12.130   8.392  71.314  1.00  0.00    -0.284 C  
HETATM    2  N   UNL     1     -10.804   8.997  71.148  1.00  0.00    -0.267 NA 
HETATM    3  C   UNL     1      -9.795   7.943  71.026  1.00  0.00    -0.170 C  
ENDROOT
BRANCH   2   4
HETATM    4  C   UNL     1     -10.819   9.900  69.978  1.00  0.00    -0.294 C  
BRANCH   4   5
HETATM    5  C   UNL     1      -9.630   9.720  69.019  1.00  0.00    -0.177 C  
BRANCH   5   6
HETATM    6  C   UNL     1      -9.877  10.309  67.660  1.00  0.00    -0.199 A  
HETATM    7  C   UNL     1     -10.169   9.606  66.506  1.00  0.00    -0.224 A  
HETATM    8  N   UNL     1     -10.405  10.503  65.502  1.00  0.00    -0.251 NA 
HETATM    9  C   UNL     1     -10.302  11.788  65.980  1.00  0.00    -0.239 A  
HETATM   10  H   UNL     1     -10.625  10.254  64.539  1.00  0.00     0.000 HD 
HETATM   11  C   UNL     1      -9.912  11.700  67.315  1.00  0.00    -0.210 A  
HETATM   12  C   UNL     1      -9.677  12.898  68.023  1.00  0.00    -0.224 A  
HETATM   13  C   UNL     1      -9.882  14.145  67.395  1.00  0.00    -0.239 A  
HETATM   14  C   UNL     1     -10.531  13.007  65.334  1.00  0.00    -0.308 A  
HETATM   15  C   UNL     1     -10.326  14.182  66.066  1.00  0.00    -0.316 A  
BRANCH  13  16
HETATM   16  C   UNL     1      -9.616  15.425  68.145  1.00  0.00    -0.203 C  
BRANCH  16  17
HETATM   17  N   UNL     1      -9.168  16.535  67.318  1.00  0.00    -0.214 NA 
HETATM   18  C   UNL     1      -9.882  17.502  66.681  1.00  0.00    -0.306 A  
HETATM   19  N   UNL     1      -9.065  18.322  66.058  1.00  0.00    -0.513 NA 
HETATM   20  C   UNL     1      -7.838  17.808  66.347  1.00  0.00    -0.277 A  
HETATM   21  N   UNL     1      -7.846  16.716  67.117  1.00  0.00    -0.165 NA 
ENDBRANCH  16  17
ENDBRANCH  13  16
ENDBRANCH   5   6
ENDBRANCH   4   5
ENDBRANCH   2   4
TORSDOF 5
ENDMDL
MODEL      175
REMARK 921   NORMALIZED FREE ENERGY PREDICTED BY IDOCK:   -3.80 KCAL/MOL
REMARK 922        TOTAL FREE ENERGY PREDICTED BY IDOCK:   -5.38 KCAL/MOL
REMARK 923 INTER-LIGAND FREE ENERGY PREDICTED BY IDOCK:   -4.93 KCAL/MOL
REMARK 924 INTRA-LIGAND FREE ENERGY PREDICTED BY IDOCK:   -0.45 KCAL/MOL
REMARK 927      BINDING AFFINITY PREDICTED BY RF-SCORE:    0.00 PKD
ROOT
HETATM    1  C   UNL     1     -10.115  11.330  63.028  1.00  0.00    -0.285 C  
HETATM    2  N   UNL     1      -9.913  10.663  64.319  1.00  0.00    -0.332 NA 
HETATM    3  C   UNL     1      -8.706   9.835  64.260  1.00  0.00    -0.206 C  
ENDROOT
BRANCH   2   4
HETATM    4  C   UNL     1      -9.847  11.678  65.392  1.00  0.00    -0.238 C  
BRANCH   4   5
HETATM    5  C   UNL     1     -10.311  13.082  64.970  1.00  0.00    -0.336 C  
BRANCH   5   6
HETATM    6  C   UNL     1     -10.937  13.856  66.094  1.00  0.00    -0.293 A  
HETATM    7  C   UNL     1     -12.275  13.855  66.441  1.00  0.00    -0.449 A  
HETATM    8  N   UNL     1     -12.431  14.618  67.564  1.00  0.00    -0.452 NA 
HETATM    9  C   UNL     1     -11.214  15.100  67.983  1.00  0.00    -0.323 A  
HETATM   10  H   UNL     1     -13.321  14.803  68.024  1.00  0.00     0.000 HD 
HETATM   11  C   UNL     1     -10.265  14.690  67.047  1.00  0.00    -0.261 A  
HETATM   12  C   UNL     1      -8.930  15.113  67.220  1.00  0.00    -0.213 A  
HETATM   13  C   UNL     1      -8.571  15.890  68.342  1.00  0.00    -0.178 A  
HETATM   14  C   UNL     1     -10.888  15.856  69.115  1.00  0.00    -0.268 A  
HETATM   15  C   UNL     1      -9.551  16.233  69.284  1.00  0.00    -0.220 A  
BRANCH  13  16
HETATM   16  C   UNL     1      -7.148  16.354  68.519  1.00  0.00    -0.157 C  
BRANCH  16  17
HETATM   17  N   UNL     1      -6.399  15.647  69.547  1.00  0.00    -0.156 NA 
HETATM   18  C   UNL     1      -5.591  16.124  70.532  1.00  0.00    -0.104 A  
HETATM   19  N   UNL     1      -5.131  15.127  71.254  1.00  0.00    -0.148 NA 
HETATM   20  C   UNL     1      -5.695  14.038  70.663  1.00  0.00    -0.177 A  
HETATM   21  N   UNL     1      -6.482  14.302  69.615  1.00  0.00    -0.132 NA 
ENDBRANCH  16  17
ENDBRANCH  13  16
ENDBRANCH   5   6
ENDBRANCH   4   5
ENDBRANCH   2   4
TORSDOF 5
ENDMDL
MODEL      176
REMARK 921   NORMALIZED FREE ENERGY PREDICTED BY IDOCK:   -3.79 KCAL/MOL
REMARK 922        TOTAL FREE ENERGY PREDICTED BY IDOCK:   -5.36 KCAL/MOL
REMARK 923 INTER-LIGAND FREE ENERGY PREDICTED BY IDOCK:   -5.06 KCAL/MOL
REMARK 924 INTRA-LIGAND FREE ENERGY PREDICTED BY IDOCK:   -0.31 KCAL/MOL
REMARK 927      BINDING AFFINITY PREDICTED BY RF-SCORE:    0.00 PKD
ROOT
HETATM    1  C   UNL     1      -9.717   4.711  64.125  1.00  0.00     0.157 C  
HETATM    2  N   UNL     1      -8.274   4.778  64.385  1.00  0.00    -0.110 NA 
HETATM    3  C   UNL     1      -7.604   3.657  63.721  1.00  0.00    -0.070 C  
ENDROOT
BRANCH   2   4
HETATM    4  C   UNL     1      -7.755   6.088  63.939  1.00  0.00    -0.101 C  
BRANCH   4   5
HETATM    5  C   UNL     1      -7.165   6.955  65.063  1.00  0.00    -0.074 C  
BRANCH   5   6
HETATM    6  C   UNL     1      -8.214   7.554  65.956  1.00  0.00    -0.130 A  
HETATM    7  C   UNL     1      -8.604   7.074  67.192  1.00  0.00    -0.121 A  
HETATM    8  N   UNL     1      -9.520   7.939  67.722  1.00  0.00    -0.143 NA 
HETATM    9  C   UNL     1      -9.719   8.999  66.869  1.00  0.00    -0.200 A  
HETATM   10  H   UNL     1      -9.987   7.816  68.619  1.00  0.00     0.000 HD 
HETATM   11  C   UNL     1      -8.960   8.756  65.726  1.00  0.00    -0.253 A  
HETATM   12  C   UNL     1      -9.040   9.679  64.661  1.00  0.00    -0.286 A  
HETATM   13  C   UNL     1      -9.836  10.837  64.786  1.00  0.00    -0.358 A  
HETATM   14  C   UNL     1     -10.503  10.147  67.031  1.00  0.00    -0.302 A  
HETATM   15  C   UNL     1     -10.539  11.065  65.976  1.00  0.00    -0.275 A  
BRANCH  13  16
HETATM   16  C   UNL     1      -9.934  11.816  63.643  1.00  0.00    -0.381 C  
BRANCH  16  17
HETATM   17  N   UNL     1     -10.863  12.914  63.859  1.00  0.00    -0.397 NA 
HETATM   18  C   UNL     1     -12.168  13.047  63.498  1.00  0.00    -0.501 A  
HETATM   19  N   UNL     1     -12.632  14.204  63.916  1.00  0.00    -0.776 NA 
HETATM   20  C   UNL     1     -11.555  14.756  64.541  1.00  0.00    -0.361 A  
HETATM   21  N   UNL     1     -10.448  14.006  64.535  1.00  0.00    -0.376 NA 
ENDBRANCH  16  17
ENDBRANCH  13  16
ENDBRANCH   5   6
ENDBRANCH   4   5
ENDBRANCH   2   4
TORSDOF 5
ENDMDL
MODEL      177
REMARK 921   NORMALIZED FREE ENERGY PREDICTED BY IDOCK:   -3.78 KCAL/MOL
REMARK 922        TOTAL FREE ENERGY PREDICTED BY IDOCK:   -5.34 KCAL/MOL
REMARK 923 INTER-LIGAND FREE ENERGY PREDICTED BY IDOCK:   -5.44 KCAL/MOL
REMARK 924 INTRA-LIGAND FREE ENERGY PREDICTED BY IDOCK:    0.09 KCAL/MOL
REMARK 927      BINDING AFFINITY PREDICTED BY RF-SCORE:    0.00 PKD
ROOT
HETATM    1  C   UNL     1      -5.541  15.675  70.102  1.00  0.00    -0.148 C  
HETATM    2  N   UNL     1      -5.471  15.315  68.682  1.00  0.00    -0.088 NA 
HETATM    3  C   UNL     1      -6.340  14.165  68.424  1.00  0.00    -0.101 C  
ENDROOT
BRANCH   2   4
HETATM    4  C   UNL     1      -5.832  16.489  67.859  1.00  0.00    -0.128 C  
BRANCH   4   5
HETATM    5  C   UNL     1      -6.146  17.760  68.665  1.00  0.00    -0.192 C  
BRANCH   5   6
HETATM    6  C   UNL     1      -7.494  18.341  68.345  1.00  0.00    -0.292 A  
HETATM    7  C   UNL     1      -7.965  19.577  68.743  1.00  0.00    -0.327 A  
HETATM    8  N   UNL     1      -9.196  19.771  68.183  1.00  0.00    -0.338 NA 
HETATM    9  C   UNL     1      -9.535  18.696  67.396  1.00  0.00    -0.297 A  
HETATM   10  H   UNL     1      -9.780  20.594  68.327  1.00  0.00     0.000 HD 
HETATM   11  C   UNL     1      -8.514  17.755  67.526  1.00  0.00    -0.227 A  
HETATM   12  C   UNL     1      -8.654  16.521  66.856  1.00  0.00    -0.237 A  
HETATM   13  C   UNL     1      -9.780  16.280  66.042  1.00  0.00    -0.370 A  
HETATM   14  C   UNL     1     -10.655  18.494  66.583  1.00  0.00    -0.383 A  
HETATM   15  C   UNL     1     -10.755  17.277  65.900  1.00  0.00    -0.126 A  
BRANCH  13  16
HETATM   16  C   UNL     1      -9.938  14.955  65.338  1.00  0.00    -0.332 C  
BRANCH  16  17
HETATM   17  N   UNL     1     -10.780  13.993  66.032  1.00  0.00    -0.290 NA 
HETATM   18  C   UNL     1     -11.383  12.861  65.577  1.00  0.00    -0.307 A  
HETATM   19  N   UNL     1     -12.039  12.280  66.556  1.00  0.00    -0.599 NA 
HETATM   20  C   UNL     1     -11.804  13.106  67.613  1.00  0.00    -0.359 A  
HETATM   21  N   UNL     1     -11.039  14.168  67.345  1.00  0.00    -0.298 NA 
ENDBRANCH  16  17
ENDBRANCH  13  16
ENDBRANCH   5   6
ENDBRANCH   4   5
ENDBRANCH   2   4
TORSDOF 5
ENDMDL
MODEL      178
REMARK 921   NORMALIZED FREE ENERGY PREDICTED BY IDOCK:   -3.77 KCAL/MOL
REMARK 922        TOTAL FREE ENERGY PREDICTED BY IDOCK:   -5.34 KCAL/MOL
REMARK 923 INTER-LIGAND FREE ENERGY PREDICTED BY IDOCK:   -4.84 KCAL/MOL
REMARK 924 INTRA-LIGAND FREE ENERGY PREDICTED BY IDOCK:   -0.50 KCAL/MOL
REMARK 927      BINDING AFFINITY PREDICTED BY RF-SCORE:    0.00 PKD
ROOT
HETATM    1  C   UNL     1     -10.735  19.457  67.083  1.00  0.00    -0.483 C  
HETATM    2  N   UNL     1      -9.619  18.754  66.441  1.00  0.00    -0.335 NA 
HETATM    3  C   UNL     1      -8.498  19.679  66.257  1.00  0.00    -0.360 C  
ENDROOT
BRANCH   2   4
HETATM    4  C   UNL     1      -9.248  17.576  67.253  1.00  0.00    -0.240 C  
BRANCH   4   5
HETATM    5  C   UNL     1      -9.603  16.224  66.611  1.00  0.00    -0.264 C  
BRANCH   5   6
HETATM    6  C   UNL     1     -10.500  15.381  67.472  1.00  0.00    -0.275 A  
HETATM    7  C   UNL     1     -11.652  15.803  68.109  1.00  0.00    -0.255 A  
HETATM    8  N   UNL     1     -12.225  14.725  68.724  1.00  0.00    -0.581 NA 
HETATM    9  C   UNL     1     -11.486  13.592  68.480  1.00  0.00    -0.310 A  
HETATM   10  H   UNL     1     -13.076  14.757  69.282  1.00  0.00     0.000 HD 
HETATM   11  C   UNL     1     -10.365  13.981  67.749  1.00  0.00    -0.236 A  
HETATM   12  C   UNL     1      -9.406  12.999  67.421  1.00  0.00    -0.209 A  
HETATM   13  C   UNL     1      -9.616  11.653  67.789  1.00  0.00    -0.178 A  
HETATM   14  C   UNL     1     -11.731  12.263  68.845  1.00  0.00    -0.380 A  
HETATM   15  C   UNL     1     -10.785  11.301  68.477  1.00  0.00    -0.235 A  
BRANCH  13  16
HETATM   16  C   UNL     1      -8.585  10.606  67.452  1.00  0.00    -0.122 C  
BRANCH  16  17
HETATM   17  N   UNL     1      -7.357  10.686  68.230  1.00  0.00    -0.086 NA 
HETATM   18  C   UNL     1      -7.162  10.620  69.575  1.00  0.00    -0.140 A  
HETATM   19  N   UNL     1      -5.880  10.719  69.845  1.00  0.00    -0.061 NA 
HETATM   20  C   UNL     1      -5.317  10.847  68.611  1.00  0.00    -0.040 A  
HETATM   21  N   UNL     1      -6.179  10.831  67.589  1.00  0.00    -0.051 NA 
ENDBRANCH  16  17
ENDBRANCH  13  16
ENDBRANCH   5   6
ENDBRANCH   4   5
ENDBRANCH   2   4
TORSDOF 5
ENDMDL
MODEL      179
REMARK 921   NORMALIZED FREE ENERGY PREDICTED BY IDOCK:   -3.75 KCAL/MOL
REMARK 922        TOTAL FREE ENERGY PREDICTED BY IDOCK:   -5.31 KCAL/MOL
REMARK 923 INTER-LIGAND FREE ENERGY PREDICTED BY IDOCK:   -4.81 KCAL/MOL
REMARK 924 INTRA-LIGAND FREE ENERGY PREDICTED BY IDOCK:   -0.50 KCAL/MOL
REMARK 927      BINDING AFFINITY PREDICTED BY RF-SCORE:    0.00 PKD
ROOT
HETATM    1  C   UNL     1      -6.328  17.944  67.008  1.00  0.00    -0.163 C  
HETATM    2  N   UNL     1      -7.489  18.087  67.894  1.00  0.00    -0.218 NA 
HETATM    3  C   UNL     1      -7.354  19.312  68.686  1.00  0.00    -0.338 C  
ENDROOT
BRANCH   2   4
HETATM    4  C   UNL     1      -8.728  18.073  67.087  1.00  0.00    -0.243 C  
BRANCH   4   5
HETATM    5  C   UNL     1      -9.329  16.674  66.869  1.00  0.00    -0.246 C  
BRANCH   5   6
HETATM    6  C   UNL     1     -10.134  16.191  68.042  1.00  0.00    -0.242 A  
HETATM    7  C   UNL     1     -10.619  16.969  69.075  1.00  0.00    -0.314 A  
HETATM    8  N   UNL     1     -11.367  16.175  69.899  1.00  0.00    -0.330 NA 
HETATM    9  C   UNL     1     -11.409  14.891  69.411  1.00  0.00    -0.290 A  
HETATM   10  H   UNL     1     -11.828  16.491  70.752  1.00  0.00     0.000 HD 
HETATM   11  C   UNL     1     -10.594  14.854  68.281  1.00  0.00    -0.240 A  
HETATM   12  C   UNL     1     -10.419  13.618  67.623  1.00  0.00    -0.238 A  
HETATM   13  C   UNL     1     -11.096  12.468  68.082  1.00  0.00    -0.282 A  
HETATM   14  C   UNL     1     -12.107  13.773  69.881  1.00  0.00    -0.412 A  
HETATM   15  C   UNL     1     -11.946  12.567  69.192  1.00  0.00    -0.287 A  
BRANCH  13  16
HETATM   16  C   UNL     1     -10.897  11.144  67.389  1.00  0.00    -0.266 C  
BRANCH  16  17
HETATM   17  N   UNL     1      -9.520  10.851  67.018  1.00  0.00    -0.164 NA 
HETATM   18  C   UNL     1      -8.444  10.554  67.794  1.00  0.00    -0.114 A  
HETATM   19  N   UNL     1      -7.392  10.340  67.036  1.00  0.00    -0.091 NA 
HETATM   20  C   UNL     1      -7.881  10.520  65.778  1.00  0.00    -0.154 A  
HETATM   21  N   UNL     1      -9.179  10.833  65.712  1.00  0.00    -0.182 NA 
ENDBRANCH  16  17
ENDBRANCH  13  16
ENDBRANCH   5   6
ENDBRANCH   4   5
ENDBRANCH   2   4
TORSDOF 5
ENDMDL
MODEL      180
REMARK 921   NORMALIZED FREE ENERGY PREDICTED BY IDOCK:   -3.74 KCAL/MOL
REMARK 922        TOTAL FREE ENERGY PREDICTED BY IDOCK:   -5.30 KCAL/MOL
REMARK 923 INTER-LIGAND FREE ENERGY PREDICTED BY IDOCK:   -4.84 KCAL/MOL
REMARK 924 INTRA-LIGAND FREE ENERGY PREDICTED BY IDOCK:   -0.46 KCAL/MOL
REMARK 927      BINDING AFFINITY PREDICTED BY RF-SCORE:    0.00 PKD
ROOT
HETATM    1  C   UNL     1     -10.532  12.255  63.602  1.00  0.00    -0.450 C  
HETATM    2  N   UNL     1     -11.878  12.807  63.413  1.00  0.00    -0.536 NA 
HETATM    3  C   UNL     1     -12.876  11.820  63.830  1.00  0.00    -0.186 C  
ENDROOT
BRANCH   2   4
HETATM    4  C   UNL     1     -11.997  14.077  64.159  1.00  0.00    -0.408 C  
BRANCH   4   5
HETATM    5  C   UNL     1     -12.114  13.911  65.684  1.00  0.00    -0.442 C  
BRANCH   5   6
HETATM    6  C   UNL     1     -10.902  14.402  66.423  1.00  0.00    -0.314 A  
HETATM    7  C   UNL     1     -10.639  15.709  66.783  1.00  0.00    -0.307 A  
HETATM    8  N   UNL     1      -9.483  15.733  67.511  1.00  0.00    -0.217 NA 
HETATM    9  C   UNL     1      -8.992  14.458  67.664  1.00  0.00    -0.192 A  
HETATM   10  H   UNL     1      -9.047  16.574  67.887  1.00  0.00     0.000 HD 
HETATM   11  C   UNL     1      -9.827  13.607  66.941  1.00  0.00    -0.261 A  
HETATM   12  C   UNL     1      -9.500  12.235  66.889  1.00  0.00    -0.217 A  
HETATM   13  C   UNL     1      -8.380  11.746  67.594  1.00  0.00    -0.145 A  
HETATM   14  C   UNL     1      -7.886  14.002  68.388  1.00  0.00    -0.144 A  
HETATM   15  C   UNL     1      -7.601  12.632  68.350  1.00  0.00    -0.132 A  
BRANCH  13  16
HETATM   16  C   UNL     1      -8.021  10.283  67.525  1.00  0.00    -0.106 C  
BRANCH  16  17
HETATM   17  N   UNL     1      -9.142   9.372  67.701  1.00  0.00    -0.122 NA 
HETATM   18  C   UNL     1      -9.873   9.081  68.811  1.00  0.00    -0.172 A  
HETATM   19  N   UNL     1     -10.810   8.209  68.512  1.00  0.00     0.004 NA 
HETATM   20  C   UNL     1     -10.611   7.991  67.182  1.00  0.00    -0.297 A  
HETATM   21  N   UNL     1      -9.603   8.680  66.638  1.00  0.00    -0.200 NA 
ENDBRANCH  16  17
ENDBRANCH  13  16
ENDBRANCH   5   6
ENDBRANCH   4   5
ENDBRANCH   2   4
TORSDOF 5
ENDMDL
MODEL      181
REMARK 921   NORMALIZED FREE ENERGY PREDICTED BY IDOCK:   -3.74 KCAL/MOL
REMARK 922        TOTAL FREE ENERGY PREDICTED BY IDOCK:   -5.29 KCAL/MOL
REMARK 923 INTER-LIGAND FREE ENERGY PREDICTED BY IDOCK:   -4.87 KCAL/MOL
REMARK 924 INTRA-LIGAND FREE ENERGY PREDICTED BY IDOCK:   -0.42 KCAL/MOL
REMARK 927      BINDING AFFINITY PREDICTED BY RF-SCORE:    0.00 PKD
ROOT
HETATM    1  C   UNL     1     -12.409  15.942  72.264  1.00  0.00    -0.483 C  
HETATM    2  N   UNL     1     -13.606  15.094  72.300  1.00  0.00    -0.416 NA 
HETATM    3  C   UNL     1     -14.407  15.323  71.095  1.00  0.00    -0.276 C  
ENDROOT
BRANCH   2   4
HETATM    4  C   UNL     1     -13.201  13.679  72.446  1.00  0.00    -0.484 C  
BRANCH   4   5
HETATM    5  C   UNL     1     -12.515  13.082  71.206  1.00  0.00    -0.315 C  
BRANCH   5   6
HETATM    6  C   UNL     1     -12.402  11.585  71.260  1.00  0.00    -0.314 A  
HETATM    7  C   UNL     1     -13.151  10.738  72.053  1.00  0.00    -0.371 A  
HETATM    8  N   UNL     1     -12.808   9.450  71.755  1.00  0.00    -0.368 NA 
HETATM    9  C   UNL     1     -11.864   9.430  70.756  1.00  0.00    -0.256 A  
HETATM   10  H   UNL     1     -13.196   8.623  72.207  1.00  0.00     0.000 HD 
HETATM   11  C   UNL     1     -11.543  10.755  70.467  1.00  0.00    -0.425 A  
HETATM   12  C   UNL     1     -10.541  11.006  69.505  1.00  0.00    -0.182 A  
HETATM   13  C   UNL     1      -9.923   9.934  68.829  1.00  0.00    -0.183 A  
HETATM   14  C   UNL     1     -11.282   8.345  70.090  1.00  0.00    -0.136 A  
HETATM   15  C   UNL     1     -10.317   8.620  69.116  1.00  0.00    -0.227 A  
BRANCH  13  16
HETATM   16  C   UNL     1      -8.842  10.201  67.813  1.00  0.00    -0.125 C  
BRANCH  16  17
HETATM   17  N   UNL     1      -7.513  10.395  68.374  1.00  0.00    -0.088 NA 
HETATM   18  C   UNL     1      -6.903  11.525  68.822  1.00  0.00    -0.084 A  
HETATM   19  N   UNL     1      -5.700  11.237  69.267  1.00  0.00    -0.041 NA 
HETATM   20  C   UNL     1      -5.616   9.892  69.068  1.00  0.00    -0.035 A  
HETATM   21  N   UNL     1      -6.700   9.329  68.525  1.00  0.00    -0.058 NA 
ENDBRANCH  16  17
ENDBRANCH  13  16
ENDBRANCH   5   6
ENDBRANCH   4   5
ENDBRANCH   2   4
TORSDOF 5
ENDMDL
MODEL      182
REMARK 921   NORMALIZED FREE ENERGY PREDICTED BY IDOCK:   -3.73 KCAL/MOL
REMARK 922        TOTAL FREE ENERGY PREDICTED BY IDOCK:   -5.28 KCAL/MOL
REMARK 923 INTER-LIGAND FREE ENERGY PREDICTED BY IDOCK:   -4.85 KCAL/MOL
REMARK 924 INTRA-LIGAND FREE ENERGY PREDICTED BY IDOCK:   -0.43 KCAL/MOL
REMARK 927      BINDING AFFINITY PREDICTED BY RF-SCORE:    0.00 PKD
ROOT
HETATM    1  C   UNL     1      -9.985  15.638  69.516  1.00  0.00    -0.285 C  
HETATM    2  N   UNL     1      -9.897  15.029  68.184  1.00  0.00    -0.214 NA 
HETATM    3  C   UNL     1      -8.527  15.149  67.680  1.00  0.00    -0.160 C  
ENDROOT
BRANCH   2   4
HETATM    4  C   UNL     1     -10.349  13.623  68.255  1.00  0.00    -0.251 C  
BRANCH   4   5
HETATM    5  C   UNL     1     -11.422  13.247  67.219  1.00  0.00    -0.378 C  
BRANCH   5   6
HETATM    6  C   UNL     1     -10.849  12.609  65.985  1.00  0.00    -0.306 A  
HETATM    7  C   UNL     1     -10.600  13.239  64.781  1.00  0.00    -0.386 A  
HETATM    8  N   UNL     1     -10.004  12.343  63.939  1.00  0.00    -0.590 NA 
HETATM    9  C   UNL     1      -9.828  11.138  64.577  1.00  0.00    -0.280 A  
HETATM   10  H   UNL     1      -9.729  12.539  62.977  1.00  0.00     0.000 HD 
HETATM   11  C   UNL     1     -10.403  11.254  65.841  1.00  0.00    -0.304 A  
HETATM   12  C   UNL     1     -10.408  10.119  66.680  1.00  0.00    -0.274 A  
HETATM   13  C   UNL     1      -9.800   8.920  66.254  1.00  0.00    -0.355 A  
HETATM   14  C   UNL     1      -9.202   9.968  64.132  1.00  0.00    -0.319 A  
HETATM   15  C   UNL     1      -9.188   8.867  64.995  1.00  0.00    -0.033 A  
BRANCH  13  16
HETATM   16  C   UNL     1      -9.819   7.703  67.144  1.00  0.00    -0.202 C  
BRANCH  16  17
HETATM   17  N   UNL     1      -8.694   7.602  68.063  1.00  0.00    -0.126 NA 
HETATM   18  C   UNL     1      -7.824   6.579  68.281  1.00  0.00    -0.106 A  
HETATM   19  N   UNL     1      -6.945   6.927  69.193  1.00  0.00    -0.075 NA 
HETATM   20  C   UNL     1      -7.322   8.197  69.511  1.00  0.00    -0.081 A  
HETATM   21  N   UNL     1      -8.386   8.657  68.846  1.00  0.00    -0.123 NA 
ENDBRANCH  16  17
ENDBRANCH  13  16
ENDBRANCH   5   6
ENDBRANCH   4   5
ENDBRANCH   2   4
TORSDOF 5
ENDMDL
MODEL      183
REMARK 921   NORMALIZED FREE ENERGY PREDICTED BY IDOCK:   -3.71 KCAL/MOL
REMARK 922        TOTAL FREE ENERGY PREDICTED BY IDOCK:   -5.26 KCAL/MOL
REMARK 923 INTER-LIGAND FREE ENERGY PREDICTED BY IDOCK:   -4.75 KCAL/MOL
REMARK 924 INTRA-LIGAND FREE ENERGY PREDICTED BY IDOCK:   -0.51 KCAL/MOL
REMARK 927      BINDING AFFINITY PREDICTED BY RF-SCORE:    0.00 PKD
ROOT
HETATM    1  C   UNL     1      -9.555   3.894  67.066  1.00  0.00    -0.196 C  
HETATM    2  N   UNL     1      -8.231   3.656  67.651  1.00  0.00    -0.088 NA 
HETATM    3  C   UNL     1      -7.439   4.887  67.591  1.00  0.00    -0.079 C  
ENDROOT
BRANCH   2   4
HETATM    4  C   UNL     1      -8.387   3.155  69.033  1.00  0.00    -0.060 C  
BRANCH   4   5
HETATM    5  C   UNL     1      -9.680   3.608  69.732  1.00  0.00    -0.150 C  
BRANCH   5   6
HETATM    6  C   UNL     1      -9.430   4.284  71.050  1.00  0.00    -0.236 A  
HETATM    7  C   UNL     1      -8.421   3.982  71.944  1.00  0.00    -0.099 A  
HETATM    8  N   UNL     1      -8.480   4.873  72.979  1.00  0.00    -0.107 NA 
HETATM    9  C   UNL     1      -9.494   5.777  72.769  1.00  0.00    -0.145 A  
HETATM   10  H   UNL     1      -7.862   4.867  73.789  1.00  0.00     0.000 HD 
HETATM   11  C   UNL     1     -10.148   5.398  71.598  1.00  0.00    -0.259 A  
HETATM   12  C   UNL     1     -11.277   6.140  71.192  1.00  0.00    -0.355 A  
HETATM   13  C   UNL     1     -11.693   7.263  71.938  1.00  0.00    -0.323 A  
HETATM   14  C   UNL     1      -9.871   6.895  73.521  1.00  0.00    -0.272 A  
HETATM   15  C   UNL     1     -10.972   7.637  73.080  1.00  0.00    -0.411 A  
BRANCH  13  16
HETATM   16  C   UNL     1     -12.909   8.047  71.514  1.00  0.00    -0.311 C  
BRANCH  16  17
HETATM   17  N   UNL     1     -12.656   9.447  71.208  1.00  0.00    -0.325 NA 
HETATM   18  C   UNL     1     -13.105  10.576  71.819  1.00  0.00    -0.464 A  
HETATM   19  N   UNL     1     -12.608  11.635  71.221  1.00  0.00    -0.361 NA 
HETATM   20  C   UNL     1     -11.844  11.096  70.230  1.00  0.00    -0.366 A  
HETATM   21  N   UNL     1     -11.838   9.760  70.181  1.00  0.00    -0.144 NA 
ENDBRANCH  16  17
ENDBRANCH  13  16
ENDBRANCH   5   6
ENDBRANCH   4   5
ENDBRANCH   2   4
TORSDOF 5
ENDMDL
MODEL      184
REMARK 921   NORMALIZED FREE ENERGY PREDICTED BY IDOCK:   -3.69 KCAL/MOL
REMARK 922        TOTAL FREE ENERGY PREDICTED BY IDOCK:   -5.23 KCAL/MOL
REMARK 923 INTER-LIGAND FREE ENERGY PREDICTED BY IDOCK:   -4.85 KCAL/MOL
REMARK 924 INTRA-LIGAND FREE ENERGY PREDICTED BY IDOCK:   -0.38 KCAL/MOL
REMARK 927      BINDING AFFINITY PREDICTED BY RF-SCORE:    0.00 PKD
ROOT
HETATM    1  C   UNL     1     -10.453  12.221  66.216  1.00  0.00    -0.238 C  
HETATM    2  N   UNL     1     -10.600  11.307  65.077  1.00  0.00    -0.299 NA 
HETATM    3  C   UNL     1     -10.115  11.960  63.858  1.00  0.00    -0.370 C  
ENDROOT
BRANCH   2   4
HETATM    4  C   UNL     1      -9.884  10.046  65.362  1.00  0.00    -0.314 C  
BRANCH   4   5
HETATM    5  C   UNL     1     -10.355   9.320  66.633  1.00  0.00    -0.292 C  
BRANCH   5   6
HETATM    6  C   UNL     1      -9.275   8.496  67.274  1.00  0.00    -0.168 A  
HETATM    7  C   UNL     1      -8.180   7.946  66.636  1.00  0.00    -0.119 A  
HETATM    8  N   UNL     1      -7.391   7.342  67.574  1.00  0.00    -0.099 NA 
HETATM    9  C   UNL     1      -7.932   7.508  68.827  1.00  0.00    -0.126 A  
HETATM   10  H   UNL     1      -6.527   6.840  67.374  1.00  0.00     0.000 HD 
HETATM   11  C   UNL     1      -9.146   8.175  68.666  1.00  0.00    -0.143 A  
HETATM   12  C   UNL     1      -9.934   8.416  69.811  1.00  0.00    -0.191 A  
HETATM   13  C   UNL     1      -9.470   8.027  71.085  1.00  0.00    -0.181 A  
HETATM   14  C   UNL     1      -7.436   7.126  70.078  1.00  0.00    -0.086 A  
HETATM   15  C   UNL     1      -8.219   7.407  71.203  1.00  0.00    -0.106 A  
BRANCH  13  16
HETATM   16  C   UNL     1     -10.319   8.270  72.308  1.00  0.00    -0.316 C  
BRANCH  16  17
HETATM   17  N   UNL     1     -11.747   8.367  72.048  1.00  0.00    -0.326 NA 
HETATM   18  C   UNL     1     -12.540   9.460  71.881  1.00  0.00    -0.401 A  
HETATM   19  N   UNL     1     -13.777   9.083  71.646  1.00  0.00    -0.392 NA 
HETATM   20  C   UNL     1     -13.693   7.724  71.678  1.00  0.00    -0.364 A  
HETATM   21  N   UNL     1     -12.472   7.236  71.919  1.00  0.00    -0.316 NA 
ENDBRANCH  16  17
ENDBRANCH  13  16
ENDBRANCH   5   6
ENDBRANCH   4   5
ENDBRANCH   2   4
TORSDOF 5
ENDMDL
MODEL      185
REMARK 921   NORMALIZED FREE ENERGY PREDICTED BY IDOCK:   -3.68 KCAL/MOL
REMARK 922        TOTAL FREE ENERGY PREDICTED BY IDOCK:   -5.21 KCAL/MOL
REMARK 923 INTER-LIGAND FREE ENERGY PREDICTED BY IDOCK:   -4.77 KCAL/MOL
REMARK 924 INTRA-LIGAND FREE ENERGY PREDICTED BY IDOCK:   -0.44 KCAL/MOL
REMARK 927      BINDING AFFINITY PREDICTED BY RF-SCORE:    0.00 PKD
ROOT
HETATM    1  C   UNL     1     -11.709  10.487  70.097  1.00  0.00    -0.326 C  
HETATM    2  N   UNL     1     -10.376   9.939  70.373  1.00  0.00    -0.282 NA 
HETATM    3  C   UNL     1     -10.413   9.161  71.614  1.00  0.00    -0.332 C  
ENDROOT
BRANCH   2   4
HETATM    4  C   UNL     1      -9.927   9.134  69.218  1.00  0.00    -0.187 C  
BRANCH   4   5
HETATM    5  C   UNL     1      -9.502   9.960  67.992  1.00  0.00    -0.147 C  
BRANCH   5   6
HETATM    6  C   UNL     1      -8.351  10.882  68.275  1.00  0.00    -0.129 A  
HETATM    7  C   UNL     1      -7.043  10.506  68.513  1.00  0.00    -0.075 A  
HETATM    8  N   UNL     1      -6.286  11.636  68.644  1.00  0.00    -0.051 NA 
HETATM    9  C   UNL     1      -7.066  12.754  68.467  1.00  0.00    -0.101 A  
HETATM   10  H   UNL     1      -5.286  11.648  68.844  1.00  0.00     0.000 HD 
HETATM   11  C   UNL     1      -8.378  12.315  68.294  1.00  0.00    -0.174 A  
HETATM   12  C   UNL     1      -9.393  13.285  68.151  1.00  0.00    -0.220 A  
HETATM   13  C   UNL     1      -9.066  14.657  68.138  1.00  0.00    -0.187 A  
HETATM   14  C   UNL     1      -6.707  14.105  68.440  1.00  0.00    -0.105 A  
HETATM   15  C   UNL     1      -7.726  15.047  68.262  1.00  0.00    -0.111 A  
BRANCH  13  16
HETATM   16  C   UNL     1     -10.152  15.694  68.001  1.00  0.00    -0.224 C  
BRANCH  16  17
HETATM   17  N   UNL     1     -10.520  16.014  66.630  1.00  0.00    -0.304 NA 
HETATM   18  C   UNL     1     -10.569  17.213  65.989  1.00  0.00    -0.204 A  
HETATM   19  N   UNL     1     -10.937  17.037  64.740  1.00  0.00    -0.905 NA 
HETATM   20  C   UNL     1     -11.106  15.688  64.659  1.00  0.00    -0.373 A  
HETATM   21  N   UNL     1     -10.862  15.016  65.789  1.00  0.00    -0.337 NA 
ENDBRANCH  16  17
ENDBRANCH  13  16
ENDBRANCH   5   6
ENDBRANCH   4   5
ENDBRANCH   2   4
TORSDOF 5
ENDMDL
MODEL      186
REMARK 921   NORMALIZED FREE ENERGY PREDICTED BY IDOCK:   -3.67 KCAL/MOL
REMARK 922        TOTAL FREE ENERGY PREDICTED BY IDOCK:   -5.21 KCAL/MOL
REMARK 923 INTER-LIGAND FREE ENERGY PREDICTED BY IDOCK:   -5.10 KCAL/MOL
REMARK 924 INTRA-LIGAND FREE ENERGY PREDICTED BY IDOCK:   -0.11 KCAL/MOL
REMARK 927      BINDING AFFINITY PREDICTED BY RF-SCORE:    0.00 PKD
ROOT
HETATM    1  C   UNL     1      -7.185   7.401  72.411  1.00  0.00    -0.072 C  
HETATM    2  N   UNL     1      -8.555   6.983  72.092  1.00  0.00    -0.112 NA 
HETATM    3  C   UNL     1      -8.719   5.561  72.402  1.00  0.00    -0.128 C  
ENDROOT
BRANCH   2   4
HETATM    4  C   UNL     1      -9.513   7.834  72.830  1.00  0.00    -0.234 C  
BRANCH   4   5
HETATM    5  C   UNL     1     -10.990   7.467  72.612  1.00  0.00    -0.363 C  
BRANCH   5   6
HETATM    6  C   UNL     1     -11.798   8.597  72.040  1.00  0.00    -0.443 A  
HETATM    7  C   UNL     1     -13.080   8.953  72.411  1.00  0.00    -0.418 A  
HETATM    8  N   UNL     1     -13.433  10.078  71.719  1.00  0.00    -0.357 NA 
HETATM    9  C   UNL     1     -12.394  10.488  70.918  1.00  0.00    -0.390 A  
HETATM   10  H   UNL     1     -14.336  10.545  71.788  1.00  0.00     0.000 HD 
HETATM   11  C   UNL     1     -11.376   9.544  71.050  1.00  0.00    -0.423 A  
HETATM   12  C   UNL     1     -10.209   9.707  70.273  1.00  0.00    -0.333 A  
HETATM   13  C   UNL     1     -10.072  10.826  69.426  1.00  0.00    -0.166 A  
HETATM   14  C   UNL     1     -12.282  11.617  70.100  1.00  0.00    -0.367 A  
HETATM   15  C   UNL     1     -11.101  11.776  69.366  1.00  0.00    -0.245 A  
BRANCH  13  16
HETATM   16  C   UNL     1      -8.832  10.992  68.584  1.00  0.00    -0.164 C  
BRANCH  16  17
HETATM   17  N   UNL     1      -8.925  10.429  67.245  1.00  0.00    -0.135 NA 
HETATM   18  C   UNL     1      -7.948  10.129  66.347  1.00  0.00    -0.120 A  
HETATM   19  N   UNL     1      -8.481   9.616  65.261  1.00  0.00    -0.138 NA 
HETATM   20  C   UNL     1      -9.813   9.620  65.545  1.00  0.00    -0.281 A  
HETATM   21  N   UNL     1     -10.137  10.106  66.748  1.00  0.00    -0.210 NA 
ENDBRANCH  16  17
ENDBRANCH  13  16
ENDBRANCH   5   6
ENDBRANCH   4   5
ENDBRANCH   2   4
TORSDOF 5
ENDMDL
MODEL      187
REMARK 921   NORMALIZED FREE ENERGY PREDICTED BY IDOCK:   -3.67 KCAL/MOL
REMARK 922        TOTAL FREE ENERGY PREDICTED BY IDOCK:   -5.20 KCAL/MOL
REMARK 923 INTER-LIGAND FREE ENERGY PREDICTED BY IDOCK:   -4.69 KCAL/MOL
REMARK 924 INTRA-LIGAND FREE ENERGY PREDICTED BY IDOCK:   -0.52 KCAL/MOL
REMARK 927      BINDING AFFINITY PREDICTED BY RF-SCORE:    0.00 PKD
ROOT
HETATM    1  C   UNL     1      -8.142   8.431  64.720  1.00  0.00    -0.155 C  
HETATM    2  N   UNL     1      -8.138   9.592  63.822  1.00  0.00    -0.141 NA 
HETATM    3  C   UNL     1      -8.797   9.240  62.562  1.00  0.00    -0.219 C  
ENDROOT
BRANCH   2   4
HETATM    4  C   UNL     1      -8.787  10.736  64.496  1.00  0.00    -0.131 C  
BRANCH   4   5
HETATM    5  C   UNL     1     -10.321  10.648  64.564  1.00  0.00    -0.352 C  
BRANCH   5   6
HETATM    6  C   UNL     1     -10.896  11.329  65.774  1.00  0.00    -0.257 A  
HETATM    7  C   UNL     1     -11.539  12.552  65.794  1.00  0.00    -0.392 A  
HETATM    8  N   UNL     1     -11.986  12.784  67.064  1.00  0.00    -0.446 NA 
HETATM    9  C   UNL     1     -11.674  11.722  67.878  1.00  0.00    -0.276 A  
HETATM   10  H   UNL     1     -12.479  13.625  67.364  1.00  0.00     0.000 HD 
HETATM   11  C   UNL     1     -10.937  10.820  67.113  1.00  0.00    -0.324 A  
HETATM   12  C   UNL     1     -10.440   9.659  67.743  1.00  0.00    -0.309 A  
HETATM   13  C   UNL     1     -10.731   9.409  69.100  1.00  0.00    -0.216 A  
HETATM   14  C   UNL     1     -11.995  11.494  69.221  1.00  0.00    -0.397 A  
HETATM   15  C   UNL     1     -11.522  10.319  69.815  1.00  0.00    -0.320 A  
BRANCH  13  16
HETATM   16  C   UNL     1     -10.188   8.176  69.778  1.00  0.00    -0.203 C  
BRANCH  16  17
HETATM   17  N   UNL     1      -9.046   7.568  69.111  1.00  0.00    -0.138 NA 
HETATM   18  C   UNL     1      -8.966   6.440  68.355  1.00  0.00    -0.120 A  
HETATM   19  N   UNL     1      -7.734   6.272  67.930  1.00  0.00    -0.101 NA 
HETATM   20  C   UNL     1      -7.081   7.343  68.461  1.00  0.00    -0.084 A  
HETATM   21  N   UNL     1      -7.840   8.167  69.190  1.00  0.00    -0.105 NA 
ENDBRANCH  16  17
ENDBRANCH  13  16
ENDBRANCH   5   6
ENDBRANCH   4   5
ENDBRANCH   2   4
TORSDOF 5
ENDMDL
MODEL      188
REMARK 921   NORMALIZED FREE ENERGY PREDICTED BY IDOCK:   -3.64 KCAL/MOL
REMARK 922        TOTAL FREE ENERGY PREDICTED BY IDOCK:   -5.17 KCAL/MOL
REMARK 923 INTER-LIGAND FREE ENERGY PREDICTED BY IDOCK:   -4.65 KCAL/MOL
REMARK 924 INTRA-LIGAND FREE ENERGY PREDICTED BY IDOCK:   -0.52 KCAL/MOL
REMARK 927      BINDING AFFINITY PREDICTED BY RF-SCORE:    0.00 PKD
ROOT
HETATM    1  C   UNL     1     -10.228  12.451  63.974  1.00  0.00    -0.375 C  
HETATM    2  N   UNL     1     -11.548  12.805  64.505  1.00  0.00    -0.329 NA 
HETATM    3  C   UNL     1     -12.570  12.560  63.485  1.00  0.00    -0.367 C  
ENDROOT
BRANCH   2   4
HETATM    4  C   UNL     1     -11.799  12.044  65.747  1.00  0.00    -0.164 C  
BRANCH   4   5
HETATM    5  C   UNL     1     -11.451  12.800  67.040  1.00  0.00    -0.397 C  
BRANCH   5   6
HETATM    6  C   UNL     1     -10.150  12.358  67.647  1.00  0.00    -0.199 A  
HETATM    7  C   UNL     1      -9.000  13.116  67.756  1.00  0.00    -0.194 A  
HETATM    8  N   UNL     1      -8.066  12.389  68.439  1.00  0.00    -0.191 NA 
HETATM    9  C   UNL     1      -8.589  11.173  68.809  1.00  0.00    -0.132 A  
HETATM   10  H   UNL     1      -7.118  12.703  68.643  1.00  0.00     0.000 HD 
HETATM   11  C   UNL     1      -9.874  11.099  68.275  1.00  0.00    -0.195 A  
HETATM   12  C   UNL     1     -10.610   9.909  68.466  1.00  0.00    -0.248 A  
HETATM   13  C   UNL     1     -10.062   8.850  69.220  1.00  0.00    -0.205 A  
HETATM   14  C   UNL     1      -8.025  10.148  69.577  1.00  0.00    -0.170 A  
HETATM   15  C   UNL     1      -8.786   8.993  69.783  1.00  0.00    -0.155 A  
BRANCH  13  16
HETATM   16  C   UNL     1     -10.841   7.574  69.411  1.00  0.00    -0.150 C  
BRANCH  16  17
HETATM   17  N   UNL     1     -10.603   6.557  68.397  1.00  0.00    -0.220 NA 
HETATM   18  C   UNL     1     -11.050   6.471  67.115  1.00  0.00    -0.360 A  
HETATM   19  N   UNL     1     -10.571   5.387  66.547  1.00  0.00    -0.304 NA 
HETATM   20  C   UNL     1      -9.820   4.831  67.538  1.00  0.00    -0.162 A  
HETATM   21  N   UNL     1      -9.805   5.509  68.689  1.00  0.00    -0.138 NA 
ENDBRANCH  16  17
ENDBRANCH  13  16
ENDBRANCH   5   6
ENDBRANCH   4   5
ENDBRANCH   2   4
TORSDOF 5
ENDMDL
MODEL      189
REMARK 921   NORMALIZED FREE ENERGY PREDICTED BY IDOCK:   -3.62 KCAL/MOL
REMARK 922        TOTAL FREE ENERGY PREDICTED BY IDOCK:   -5.13 KCAL/MOL
REMARK 923 INTER-LIGAND FREE ENERGY PREDICTED BY IDOCK:   -4.57 KCAL/MOL
REMARK 924 INTRA-LIGAND FREE ENERGY PREDICTED BY IDOCK:   -0.57 KCAL/MOL
REMARK 927      BINDING AFFINITY PREDICTED BY RF-SCORE:    0.00 PKD
ROOT
HETATM    1  C   UNL     1     -11.612  12.221  63.937  1.00  0.00    -0.444 C  
HETATM    2  N   UNL     1     -11.875  12.389  65.370  1.00  0.00    -0.404 NA 
HETATM    3  C   UNL     1     -11.017  11.483  66.137  1.00  0.00    -0.266 C  
ENDROOT
BRANCH   2   4
HETATM    4  C   UNL     1     -11.675  13.805  65.745  1.00  0.00    -0.349 C  
BRANCH   4   5
HETATM    5  C   UNL     1     -11.835  14.096  67.246  1.00  0.00    -0.452 C  
BRANCH   5   6
HETATM    6  C   UNL     1     -10.798  15.045  67.776  1.00  0.00    -0.284 A  
HETATM    7  C   UNL     1     -11.014  16.351  68.172  1.00  0.00    -0.339 A  
HETATM    8  N   UNL     1      -9.842  16.851  68.667  1.00  0.00    -0.258 NA 
HETATM    9  C   UNL     1      -8.862  15.888  68.632  1.00  0.00    -0.206 A  
HETATM   10  H   UNL     1      -9.714  17.802  69.012  1.00  0.00     0.000 HD 
HETATM   11  C   UNL     1      -9.414  14.763  68.021  1.00  0.00    -0.204 A  
HETATM   12  C   UNL     1      -8.583  13.642  67.809  1.00  0.00    -0.182 A  
HETATM   13  C   UNL     1      -7.244  13.658  68.252  1.00  0.00    -0.111 A  
HETATM   14  C   UNL     1      -7.544  15.929  69.098  1.00  0.00    -0.213 A  
HETATM   15  C   UNL     1      -6.749  14.794  68.908  1.00  0.00    -0.098 A  
BRANCH  13  16
HETATM   16  C   UNL     1      -6.351  12.467  68.011  1.00  0.00    -0.087 C  
BRANCH  16  17
HETATM   17  N   UNL     1      -6.404  11.447  69.047  1.00  0.00    -0.057 NA 
HETATM   18  C   UNL     1      -5.882  11.440  70.304  1.00  0.00    -0.154 A  
HETATM   19  N   UNL     1      -6.189  10.315  70.909  1.00  0.00    -0.296 NA 
HETATM   20  C   UNL     1      -6.914   9.650  69.967  1.00  0.00    -0.093 A  
HETATM   21  N   UNL     1      -7.076  10.301  68.810  1.00  0.00    -0.070 NA 
ENDBRANCH  16  17
ENDBRANCH  13  16
ENDBRANCH   5   6
ENDBRANCH   4   5
ENDBRANCH   2   4
TORSDOF 5
ENDMDL
MODEL      190
REMARK 921   NORMALIZED FREE ENERGY PREDICTED BY IDOCK:   -3.61 KCAL/MOL
REMARK 922        TOTAL FREE ENERGY PREDICTED BY IDOCK:   -5.12 KCAL/MOL
REMARK 923 INTER-LIGAND FREE ENERGY PREDICTED BY IDOCK:   -4.76 KCAL/MOL
REMARK 924 INTRA-LIGAND FREE ENERGY PREDICTED BY IDOCK:   -0.36 KCAL/MOL
REMARK 927      BINDING AFFINITY PREDICTED BY RF-SCORE:    0.00 PKD
ROOT
HETATM    1  C   UNL     1      -5.989   9.589  66.642  1.00  0.00    -0.059 C  
HETATM    2  N   UNL     1      -7.157   9.073  65.919  1.00  0.00    -0.087 NA 
HETATM    3  C   UNL     1      -7.341   7.654  66.234  1.00  0.00    -0.079 C  
ENDROOT
BRANCH   2   4
HETATM    4  C   UNL     1      -8.345   9.884  66.261  1.00  0.00    -0.125 C  
BRANCH   4   5
HETATM    5  C   UNL     1      -8.399  10.347  67.726  1.00  0.00    -0.114 C  
BRANCH   5   6
HETATM    6  C   UNL     1      -9.698  11.010  68.085  1.00  0.00    -0.180 A  
HETATM    7  C   UNL     1     -10.687  10.485  68.895  1.00  0.00    -0.220 A  
HETATM    8  N   UNL     1     -11.668  11.424  69.044  1.00  0.00    -0.314 NA 
HETATM    9  C   UNL     1     -11.331  12.573  68.368  1.00  0.00    -0.291 A  
HETATM   10  H   UNL     1     -12.526  11.292  69.577  1.00  0.00     0.000 HD 
HETATM   11  C   UNL     1     -10.130  12.324  67.707  1.00  0.00    -0.202 A  
HETATM   12  C   UNL     1      -9.596  13.339  66.885  1.00  0.00    -0.249 A  
HETATM   13  C   UNL     1     -10.249  14.586  66.784  1.00  0.00    -0.266 A  
HETATM   14  C   UNL     1     -11.994  13.804  68.303  1.00  0.00    -0.392 A  
HETATM   15  C   UNL     1     -11.427  14.808  67.510  1.00  0.00    -0.369 A  
BRANCH  13  16
HETATM   16  C   UNL     1      -9.688  15.665  65.893  1.00  0.00    -0.353 C  
BRANCH  16  17
HETATM   17  N   UNL     1      -8.853  16.644  66.574  1.00  0.00    -0.255 NA 
HETATM   18  C   UNL     1      -8.529  16.761  67.890  1.00  0.00    -0.200 A  
HETATM   19  N   UNL     1      -7.727  17.787  68.063  1.00  0.00    -0.231 NA 
HETATM   20  C   UNL     1      -7.583  18.278  66.800  1.00  0.00    -0.222 A  
HETATM   21  N   UNL     1      -8.250  17.612  65.853  1.00  0.00    -0.547 NA 
ENDBRANCH  16  17
ENDBRANCH  13  16
ENDBRANCH   5   6
ENDBRANCH   4   5
ENDBRANCH   2   4
TORSDOF 5
ENDMDL
MODEL      191
REMARK 921   NORMALIZED FREE ENERGY PREDICTED BY IDOCK:   -3.60 KCAL/MOL
REMARK 922        TOTAL FREE ENERGY PREDICTED BY IDOCK:   -5.12 KCAL/MOL
REMARK 923 INTER-LIGAND FREE ENERGY PREDICTED BY IDOCK:   -4.96 KCAL/MOL
REMARK 924 INTRA-LIGAND FREE ENERGY PREDICTED BY IDOCK:   -0.16 KCAL/MOL
REMARK 927      BINDING AFFINITY PREDICTED BY RF-SCORE:    0.00 PKD
ROOT
HETATM    1  C   UNL     1      -5.512  19.860  66.857  1.00  0.00    -0.172 C  
HETATM    2  N   UNL     1      -6.638  19.524  65.979  1.00  0.00    -0.210 NA 
HETATM    3  C   UNL     1      -6.288  19.834  64.591  1.00  0.00    -0.217 C  
ENDROOT
BRANCH   2   4
HETATM    4  C   UNL     1      -6.998  18.102  66.164  1.00  0.00    -0.279 C  
BRANCH   4   5
HETATM    5  C   UNL     1      -8.251  17.868  67.024  1.00  0.00    -0.241 C  
BRANCH   5   6
HETATM    6  C   UNL     1      -9.417  17.344  66.236  1.00  0.00    -0.247 A  
HETATM    7  C   UNL     1     -10.288  18.095  65.471  1.00  0.00     0.139 A  
HETATM    8  N   UNL     1     -11.158  17.246  64.847  1.00  0.00    -0.817 NA 
HETATM    9  C   UNL     1     -10.858  15.942  65.164  1.00  0.00    -0.421 A  
HETATM   10  H   UNL     1     -11.920  17.536  64.235  1.00  0.00     0.000 HD 
HETATM   11  C   UNL     1      -9.809  15.974  66.082  1.00  0.00    -0.351 A  
HETATM   12  C   UNL     1      -9.350  14.750  66.615  1.00  0.00    -0.291 A  
HETATM   13  C   UNL     1      -9.917  13.532  66.185  1.00  0.00    -0.310 A  
HETATM   14  C   UNL     1     -11.429  14.751  64.704  1.00  0.00    -0.381 A  
HETATM   15  C   UNL     1     -10.934  13.548  65.221  1.00  0.00    -0.303 A  
BRANCH  13  16
HETATM   16  C   UNL     1      -9.438  12.226  66.766  1.00  0.00    -0.222 C  
BRANCH  16  17
HETATM   17  N   UNL     1      -8.003  12.005  66.667  1.00  0.00    -0.055 NA 
HETATM   18  C   UNL     1      -6.966  12.696  67.213  1.00  0.00    -0.100 A  
HETATM   19  N   UNL     1      -5.828  12.132  66.877  1.00  0.00    -0.272 NA 
HETATM   20  C   UNL     1      -6.224  11.078  66.111  1.00  0.00    -0.104 A  
HETATM   21  N   UNL     1      -7.545  10.955  65.954  1.00  0.00    -0.105 NA 
ENDBRANCH  16  17
ENDBRANCH  13  16
ENDBRANCH   5   6
ENDBRANCH   4   5
ENDBRANCH   2   4
TORSDOF 5
ENDMDL
MODEL      192
REMARK 921   NORMALIZED FREE ENERGY PREDICTED BY IDOCK:   -3.59 KCAL/MOL
REMARK 922        TOTAL FREE ENERGY PREDICTED BY IDOCK:   -5.10 KCAL/MOL
REMARK 923 INTER-LIGAND FREE ENERGY PREDICTED BY IDOCK:   -4.92 KCAL/MOL
REMARK 924 INTRA-LIGAND FREE ENERGY PREDICTED BY IDOCK:   -0.19 KCAL/MOL
REMARK 927      BINDING AFFINITY PREDICTED BY RF-SCORE:    0.00 PKD
ROOT
HETATM    1  C   UNL     1     -11.531   6.733  71.497  1.00  0.00    -0.287 C  
HETATM    2  N   UNL     1     -10.858   7.596  72.474  1.00  0.00    -0.284 NA 
HETATM    3  C   UNL     1      -9.551   7.028  72.813  1.00  0.00    -0.148 C  
ENDROOT
BRANCH   2   4
HETATM    4  C   UNL     1     -10.751   8.966  71.929  1.00  0.00    -0.356 C  
BRANCH   4   5
HETATM    5  C   UNL     1     -12.101   9.656  71.670  1.00  0.00    -0.481 C  
BRANCH   5   6
HETATM    6  C   UNL     1     -11.967  10.944  70.909  1.00  0.00    -0.416 A  
HETATM    7  C   UNL     1     -12.442  12.179  71.306  1.00  0.00    -0.185 A  
HETATM    8  N   UNL     1     -12.049  13.109  70.384  1.00  0.00    -0.455 NA 
HETATM    9  C   UNL     1     -11.297  12.513  69.400  1.00  0.00    -0.210 A  
HETATM   10  H   UNL     1     -12.281  14.101  70.422  1.00  0.00     0.000 HD 
HETATM   11  C   UNL     1     -11.279  11.145  69.668  1.00  0.00    -0.333 A  
HETATM   12  C   UNL     1     -10.615  10.295  68.758  1.00  0.00    -0.231 A  
HETATM   13  C   UNL     1      -9.951  10.835  67.637  1.00  0.00    -0.199 A  
HETATM   14  C   UNL     1     -10.634  13.082  68.307  1.00  0.00    -0.260 A  
HETATM   15  C   UNL     1      -9.952  12.223  67.439  1.00  0.00    -0.205 A  
BRANCH  13  16
HETATM   16  C   UNL     1      -9.254   9.926  66.657  1.00  0.00    -0.153 C  
BRANCH  16  17
HETATM   17  N   UNL     1      -9.135   8.541  67.090  1.00  0.00    -0.138 NA 
HETATM   18  C   UNL     1      -8.366   7.986  68.065  1.00  0.00    -0.126 A  
HETATM   19  N   UNL     1      -8.589   6.693  68.128  1.00  0.00    -0.116 NA 
HETATM   20  C   UNL     1      -9.520   6.496  67.154  1.00  0.00    -0.131 A  
HETATM   21  N   UNL     1      -9.889   7.596  66.490  1.00  0.00    -0.203 NA 
ENDBRANCH  16  17
ENDBRANCH  13  16
ENDBRANCH   5   6
ENDBRANCH   4   5
ENDBRANCH   2   4
TORSDOF 5
ENDMDL
MODEL      193
REMARK 921   NORMALIZED FREE ENERGY PREDICTED BY IDOCK:   -3.52 KCAL/MOL
REMARK 922        TOTAL FREE ENERGY PREDICTED BY IDOCK:   -5.01 KCAL/MOL
REMARK 923 INTER-LIGAND FREE ENERGY PREDICTED BY IDOCK:   -4.68 KCAL/MOL
REMARK 924 INTRA-LIGAND FREE ENERGY PREDICTED BY IDOCK:   -0.33 KCAL/MOL
REMARK 927      BINDING AFFINITY PREDICTED BY RF-SCORE:    0.00 PKD
ROOT
HETATM    1  C   UNL     1      -8.550   3.729  66.744  1.00  0.00    -0.108 C  
HETATM    2  N   UNL     1      -7.269   4.038  67.387  1.00  0.00    -0.067 NA 
HETATM    3  C   UNL     1      -6.187   3.343  66.685  1.00  0.00    -0.028 C  
ENDROOT
BRANCH   2   4
HETATM    4  C   UNL     1      -7.072   5.503  67.413  1.00  0.00    -0.074 C  
BRANCH   4   5
HETATM    5  C   UNL     1      -8.236   6.291  68.036  1.00  0.00    -0.115 C  
BRANCH   5   6
HETATM    6  C   UNL     1      -8.732   7.403  67.156  1.00  0.00    -0.121 A  
HETATM    7  C   UNL     1      -8.600   7.478  65.783  1.00  0.00    -0.142 A  
HETATM    8  N   UNL     1      -9.251   8.597  65.346  1.00  0.00    -0.426 NA 
HETATM    9  C   UNL     1      -9.837   9.248  66.405  1.00  0.00    -0.277 A  
HETATM   10  H   UNL     1      -9.296   8.904  64.375  1.00  0.00     0.000 HD 
HETATM   11  C   UNL     1      -9.478   8.558  67.562  1.00  0.00    -0.182 A  
HETATM   12  C   UNL     1      -9.910   9.067  68.805  1.00  0.00    -0.180 A  
HETATM   13  C   UNL     1     -10.722  10.219  68.856  1.00  0.00    -0.256 A  
HETATM   14  C   UNL     1     -10.656  10.382  66.421  1.00  0.00    -0.198 A  
HETATM   15  C   UNL     1     -11.101  10.848  67.663  1.00  0.00    -0.376 A  
BRANCH  13  16
HETATM   16  C   UNL     1     -11.170  10.772  70.185  1.00  0.00    -0.267 C  
BRANCH  16  17
HETATM   17  N   UNL     1     -11.874   9.823  71.035  1.00  0.00    -0.328 NA 
HETATM   18  C   UNL     1     -11.392   8.850  71.855  1.00  0.00    -0.376 A  
HETATM   19  N   UNL     1     -12.389   8.237  72.453  1.00  0.00    -0.350 NA 
HETATM   20  C   UNL     1     -13.483   8.880  71.959  1.00  0.00    -0.433 A  
HETATM   21  N   UNL     1     -13.222   9.860  71.089  1.00  0.00    -0.378 NA 
ENDBRANCH  16  17
ENDBRANCH  13  16
ENDBRANCH   5   6
ENDBRANCH   4   5
ENDBRANCH   2   4
TORSDOF 5
ENDMDL
MODEL      194
REMARK 921   NORMALIZED FREE ENERGY PREDICTED BY IDOCK:   -3.51 KCAL/MOL
REMARK 922        TOTAL FREE ENERGY PREDICTED BY IDOCK:   -4.99 KCAL/MOL
REMARK 923 INTER-LIGAND FREE ENERGY PREDICTED BY IDOCK:   -4.55 KCAL/MOL
REMARK 924 INTRA-LIGAND FREE ENERGY PREDICTED BY IDOCK:   -0.44 KCAL/MOL
REMARK 927      BINDING AFFINITY PREDICTED BY RF-SCORE:    0.00 PKD
ROOT
HETATM    1  C   UNL     1     -12.911  10.245  71.620  1.00  0.00    -0.465 C  
HETATM    2  N   UNL     1     -13.196  11.566  71.048  1.00  0.00     0.013 NA 
HETATM    3  C   UNL     1     -13.636  12.476  72.108  1.00  0.00    -0.360 C  
ENDROOT
BRANCH   2   4
HETATM    4  C   UNL     1     -11.998  12.064  70.340  1.00  0.00    -0.291 C  
BRANCH   4   5
HETATM    5  C   UNL     1     -12.009  13.575  70.054  1.00  0.00    -0.410 C  
BRANCH   5   6
HETATM    6  C   UNL     1     -11.584  13.912  68.653  1.00  0.00    -0.363 A  
HETATM    7  C   UNL     1     -12.360  13.800  67.516  1.00  0.00    -0.075 A  
HETATM    8  N   UNL     1     -11.644  14.280  66.456  1.00  0.00    -0.364 NA 
HETATM    9  C   UNL     1     -10.417  14.734  66.878  1.00  0.00    -0.277 A  
HETATM   10  H   UNL     1     -11.972  14.299  65.491  1.00  0.00     0.000 HD 
HETATM   11  C   UNL     1     -10.325  14.461  68.242  1.00  0.00    -0.239 A  
HETATM   12  C   UNL     1      -9.123  14.779  68.908  1.00  0.00    -0.168 A  
HETATM   13  C   UNL     1      -8.068  15.402  68.207  1.00  0.00    -0.136 A  
HETATM   14  C   UNL     1      -9.397  15.366  66.159  1.00  0.00    -0.367 A  
HETATM   15  C   UNL     1      -8.228  15.705  66.848  1.00  0.00    -0.288 A  
BRANCH  13  16
HETATM   16  C   UNL     1      -6.777  15.728  68.915  1.00  0.00    -0.126 C  
BRANCH  16  17
HETATM   17  N   UNL     1      -6.173  14.612  69.627  1.00  0.00    -0.122 NA 
HETATM   18  C   UNL     1      -5.822  13.374  69.186  1.00  0.00    -0.082 A  
HETATM   19  N   UNL     1      -5.286  12.685  70.169  1.00  0.00    -0.100 NA 
HETATM   20  C   UNL     1      -5.330  13.560  71.213  1.00  0.00    -0.196 A  
HETATM   21  N   UNL     1      -5.862  14.753  70.932  1.00  0.00    -0.133 NA 
ENDBRANCH  16  17
ENDBRANCH  13  16
ENDBRANCH   5   6
ENDBRANCH   4   5
ENDBRANCH   2   4
TORSDOF 5
ENDMDL
MODEL      195
REMARK 921   NORMALIZED FREE ENERGY PREDICTED BY IDOCK:   -3.49 KCAL/MOL
REMARK 922        TOTAL FREE ENERGY PREDICTED BY IDOCK:   -4.97 KCAL/MOL
REMARK 923 INTER-LIGAND FREE ENERGY PREDICTED BY IDOCK:   -4.48 KCAL/MOL
REMARK 924 INTRA-LIGAND FREE ENERGY PREDICTED BY IDOCK:   -0.49 KCAL/MOL
REMARK 927      BINDING AFFINITY PREDICTED BY RF-SCORE:    0.00 PKD
ROOT
HETATM    1  C   UNL     1      -6.338  17.490  66.801  1.00  0.00    -0.193 C  
HETATM    2  N   UNL     1      -7.171  16.921  67.866  1.00  0.00    -0.146 NA 
HETATM    3  C   UNL     1      -6.866  17.587  69.135  1.00  0.00    -0.232 C  
ENDROOT
BRANCH   2   4
HETATM    4  C   UNL     1      -8.596  17.045  67.494  1.00  0.00    -0.205 C  
BRANCH   4   5
HETATM    5  C   UNL     1      -9.133  15.886  66.637  1.00  0.00    -0.290 C  
BRANCH   5   6
HETATM    6  C   UNL     1      -9.777  14.801  67.452  1.00  0.00    -0.214 A  
HETATM    7  C   UNL     1     -10.235  14.918  68.750  1.00  0.00    -0.243 A  
HETATM    8  N   UNL     1     -10.826  13.738  69.108  1.00  0.00    -0.378 NA 
HETATM    9  C   UNL     1     -10.793  12.853  68.057  1.00  0.00    -0.241 A  
HETATM   10  H   UNL     1     -11.233  13.544  70.022  1.00  0.00     0.000 HD 
HETATM   11  C   UNL     1     -10.087  13.468  67.024  1.00  0.00    -0.244 A  
HETATM   12  C   UNL     1      -9.859  12.734  65.840  1.00  0.00    -0.243 A  
HETATM   13  C   UNL     1     -10.379  11.430  65.703  1.00  0.00    -0.307 A  
HETATM   14  C   UNL     1     -11.337  11.569  67.945  1.00  0.00    -0.372 A  
HETATM   15  C   UNL     1     -11.128  10.874  66.749  1.00  0.00    -0.196 A  
BRANCH  13  16
HETATM   16  C   UNL     1     -10.122  10.640  64.445  1.00  0.00    -0.349 C  
BRANCH  16  17
HETATM   17  N   UNL     1      -8.733  10.261  64.237  1.00  0.00    -0.193 NA 
HETATM   18  C   UNL     1      -7.886   9.549  65.029  1.00  0.00    -0.117 A  
HETATM   19  N   UNL     1      -6.720   9.425  64.437  1.00  0.00    -0.087 NA 
HETATM   20  C   UNL     1      -6.902  10.088  63.262  1.00  0.00    -0.131 A  
HETATM   21  N   UNL     1      -8.117  10.617  63.090  1.00  0.00    -0.095 NA 
ENDBRANCH  16  17
ENDBRANCH  13  16
ENDBRANCH   5   6
ENDBRANCH   4   5
ENDBRANCH   2   4
TORSDOF 5
ENDMDL
MODEL      196
REMARK 921   NORMALIZED FREE ENERGY PREDICTED BY IDOCK:   -3.46 KCAL/MOL
REMARK 922        TOTAL FREE ENERGY PREDICTED BY IDOCK:   -4.94 KCAL/MOL
REMARK 923 INTER-LIGAND FREE ENERGY PREDICTED BY IDOCK:   -4.30 KCAL/MOL
REMARK 924 INTRA-LIGAND FREE ENERGY PREDICTED BY IDOCK:   -0.63 KCAL/MOL
REMARK 927      BINDING AFFINITY PREDICTED BY RF-SCORE:    0.00 PKD
ROOT
HETATM    1  C   UNL     1     -10.425   5.254  66.384  1.00  0.00    -0.292 C  
HETATM    2  N   UNL     1      -9.262   5.929  66.973  1.00  0.00    -0.118 NA 
HETATM    3  C   UNL     1      -8.400   4.940  67.625  1.00  0.00    -0.105 C  
ENDROOT
BRANCH   2   4
HETATM    4  C   UNL     1      -8.552   6.689  65.923  1.00  0.00    -0.148 C  
BRANCH   4   5
HETATM    5  C   UNL     1      -7.975   8.036  66.392  1.00  0.00    -0.102 C  
BRANCH   5   6
HETATM    6  C   UNL     1      -9.018   9.110  66.517  1.00  0.00    -0.178 A  
HETATM    7  C   UNL     1      -9.566   9.840  65.480  1.00  0.00    -0.282 A  
HETATM    8  N   UNL     1     -10.534  10.657  65.991  1.00  0.00    -0.217 NA 
HETATM    9  C   UNL     1     -10.657  10.458  67.346  1.00  0.00    -0.269 A  
HETATM   10  H   UNL     1     -11.086  11.319  65.446  1.00  0.00     0.000 HD 
HETATM   11  C   UNL     1      -9.677   9.538  67.716  1.00  0.00    -0.176 A  
HETATM   12  C   UNL     1      -9.553   9.207  69.082  1.00  0.00    -0.161 A  
HETATM   13  C   UNL     1     -10.437   9.765  70.030  1.00  0.00    -0.314 A  
HETATM   14  C   UNL     1     -11.559  11.016  68.258  1.00  0.00    -0.354 A  
HETATM   15  C   UNL     1     -11.440  10.646  69.602  1.00  0.00    -0.361 A  
BRANCH  13  16
HETATM   16  C   UNL     1     -10.295   9.424  71.492  1.00  0.00    -0.194 C  
BRANCH  16  17
HETATM   17  N   UNL     1     -10.310   7.999  71.789  1.00  0.00    -0.207 NA 
HETATM   18  C   UNL     1      -9.318   7.184  72.240  1.00  0.00    -0.138 A  
HETATM   19  N   UNL     1      -9.779   5.962  72.390  1.00  0.00    -0.159 NA 
HETATM   20  C   UNL     1     -11.083   6.080  72.014  1.00  0.00    -0.274 A  
HETATM   21  N   UNL     1     -11.458   7.306  71.639  1.00  0.00    -0.257 NA 
ENDBRANCH  16  17
ENDBRANCH  13  16
ENDBRANCH   5   6
ENDBRANCH   4   5
ENDBRANCH   2   4
TORSDOF 5
ENDMDL
MODEL      197
REMARK 921   NORMALIZED FREE ENERGY PREDICTED BY IDOCK:   -3.46 KCAL/MOL
REMARK 922        TOTAL FREE ENERGY PREDICTED BY IDOCK:   -4.93 KCAL/MOL
REMARK 923 INTER-LIGAND FREE ENERGY PREDICTED BY IDOCK:   -4.92 KCAL/MOL
REMARK 924 INTRA-LIGAND FREE ENERGY PREDICTED BY IDOCK:   -0.01 KCAL/MOL
REMARK 927      BINDING AFFINITY PREDICTED BY RF-SCORE:    0.00 PKD
ROOT
HETATM    1  C   UNL     1      -9.482  10.889  66.808  1.00  0.00    -0.177 C  
HETATM    2  N   UNL     1     -10.056  12.144  67.307  1.00  0.00    -0.202 NA 
HETATM    3  C   UNL     1     -11.308  12.425  66.599  1.00  0.00    -0.339 C  
ENDROOT
BRANCH   2   4
HETATM    4  C   UNL     1     -10.246  12.050  68.770  1.00  0.00    -0.129 C  
BRANCH   4   5
HETATM    5  C   UNL     1     -11.710  12.148  69.230  1.00  0.00    -0.386 C  
BRANCH   5   6
HETATM    6  C   UNL     1     -12.108  11.041  70.164  1.00  0.00    -0.438 A  
HETATM    7  C   UNL     1     -13.106  11.096  71.117  1.00  0.00    -0.190 A  
HETATM    8  N   UNL     1     -13.214   9.866  71.702  1.00  0.00    -0.404 NA 
HETATM    9  C   UNL     1     -12.323   8.989  71.131  1.00  0.00    -0.251 A  
HETATM   10  H   UNL     1     -13.862   9.632  72.453  1.00  0.00     0.000 HD 
HETATM   11  C   UNL     1     -11.572   9.712  70.205  1.00  0.00    -0.255 A  
HETATM   12  C   UNL     1     -10.535   9.044  69.519  1.00  0.00    -0.223 A  
HETATM   13  C   UNL     1     -10.308   7.670  69.741  1.00  0.00    -0.223 A  
HETATM   14  C   UNL     1     -12.134   7.622  71.361  1.00  0.00    -0.342 A  
HETATM   15  C   UNL     1     -11.124   6.973  70.643  1.00  0.00    -0.307 A  
BRANCH  13  16
HETATM   16  C   UNL     1      -9.190   6.960  69.020  1.00  0.00    -0.137 C  
BRANCH  16  17
HETATM   17  N   UNL     1      -9.593   6.260  67.810  1.00  0.00    -0.117 NA 
HETATM   18  C   UNL     1     -10.834   5.969  67.333  1.00  0.00    -0.303 A  
HETATM   19  N   UNL     1     -10.735   5.335  66.186  1.00  0.00    -0.227 NA 
HETATM   20  C   UNL     1      -9.388   5.259  65.996  1.00  0.00    -0.158 A  
HETATM   21  N   UNL     1      -8.646   5.811  66.960  1.00  0.00    -0.111 NA 
ENDBRANCH  16  17
ENDBRANCH  13  16
ENDBRANCH   5   6
ENDBRANCH   4   5
ENDBRANCH   2   4
TORSDOF 5
ENDMDL
MODEL      198
REMARK 921   NORMALIZED FREE ENERGY PREDICTED BY IDOCK:   -3.46 KCAL/MOL
REMARK 922        TOTAL FREE ENERGY PREDICTED BY IDOCK:   -4.93 KCAL/MOL
REMARK 923 INTER-LIGAND FREE ENERGY PREDICTED BY IDOCK:   -4.54 KCAL/MOL
REMARK 924 INTRA-LIGAND FREE ENERGY PREDICTED BY IDOCK:   -0.39 KCAL/MOL
REMARK 927      BINDING AFFINITY PREDICTED BY RF-SCORE:    0.00 PKD
ROOT
HETATM    1  C   UNL     1     -11.644  12.801  64.664  1.00  0.00    -0.338 C  
HETATM    2  N   UNL     1     -11.247  13.814  65.648  1.00  0.00    -0.300 NA 
HETATM    3  C   UNL     1     -10.861  15.046  64.956  1.00  0.00    -0.422 C  
ENDROOT
BRANCH   2   4
HETATM    4  C   UNL     1     -12.353  14.029  66.605  1.00  0.00    -0.371 C  
BRANCH   4   5
HETATM    5  C   UNL     1     -11.961  13.856  68.082  1.00  0.00    -0.385 C  
BRANCH   5   6
HETATM    6  C   UNL     1     -11.138  12.625  68.331  1.00  0.00    -0.297 A  
HETATM    7  C   UNL     1     -11.622  11.368  68.640  1.00  0.00    -0.320 A  
HETATM    8  N   UNL     1     -10.566  10.504  68.709  1.00  0.00    -0.193 NA 
HETATM    9  C   UNL     1      -9.394  11.162  68.422  1.00  0.00    -0.185 A  
HETATM   10  H   UNL     1     -10.637   9.513  68.941  1.00  0.00     0.000 HD 
HETATM   11  C   UNL     1      -9.712  12.507  68.240  1.00  0.00    -0.220 A  
HETATM   12  C   UNL     1      -8.661  13.415  67.991  1.00  0.00    -0.174 A  
HETATM   13  C   UNL     1      -7.333  12.950  67.884  1.00  0.00    -0.127 A  
HETATM   14  C   UNL     1      -8.090  10.667  68.305  1.00  0.00    -0.118 A  
HETATM   15  C   UNL     1      -7.069  11.580  68.022  1.00  0.00    -0.079 A  
BRANCH  13  16
HETATM   16  C   UNL     1      -6.208  13.921  67.633  1.00  0.00    -0.095 C  
BRANCH  16  17
HETATM   17  N   UNL     1      -6.516  15.307  67.953  1.00  0.00    -0.142 NA 
HETATM   18  C   UNL     1      -7.027  16.298  67.173  1.00  0.00    -0.208 A  
HETATM   19  N   UNL     1      -7.163  17.397  67.880  1.00  0.00    -0.184 NA 
HETATM   20  C   UNL     1      -6.715  17.025  69.112  1.00  0.00    -0.241 A  
HETATM   21  N   UNL     1      -6.309  15.755  69.209  1.00  0.00    -0.138 NA 
ENDBRANCH  16  17
ENDBRANCH  13  16
ENDBRANCH   5   6
ENDBRANCH   4   5
ENDBRANCH   2   4
TORSDOF 5
ENDMDL
MODEL      199
REMARK 921   NORMALIZED FREE ENERGY PREDICTED BY IDOCK:   -3.45 KCAL/MOL
REMARK 922        TOTAL FREE ENERGY PREDICTED BY IDOCK:   -4.92 KCAL/MOL
REMARK 923 INTER-LIGAND FREE ENERGY PREDICTED BY IDOCK:   -4.51 KCAL/MOL
REMARK 924 INTRA-LIGAND FREE ENERGY PREDICTED BY IDOCK:   -0.42 KCAL/MOL
REMARK 927      BINDING AFFINITY PREDICTED BY RF-SCORE:    0.00 PKD
ROOT
HETATM    1  C   UNL     1     -11.160  15.448  64.703  1.00  0.00    -0.347 C  
HETATM    2  N   UNL     1     -11.686  14.083  64.816  1.00  0.00    -0.374 NA 
HETATM    3  C   UNL     1     -12.356  13.710  63.568  1.00  0.00    -0.201 C  
ENDROOT
BRANCH   2   4
HETATM    4  C   UNL     1     -10.584  13.159  65.161  1.00  0.00    -0.319 C  
BRANCH   4   5
HETATM    5  C   UNL     1     -11.043  11.801  65.718  1.00  0.00    -0.351 C  
BRANCH   5   6
HETATM    6  C   UNL     1     -10.086  10.685  65.410  1.00  0.00    -0.356 A  
HETATM    7  C   UNL     1      -9.610  10.339  64.160  1.00  0.00    -0.315 A  
HETATM    8  N   UNL     1      -8.700   9.330  64.308  1.00  0.00    -0.278 NA 
HETATM    9  C   UNL     1      -8.545   9.022  65.638  1.00  0.00    -0.166 A  
HETATM   10  H   UNL     1      -8.209   8.871  63.541  1.00  0.00     0.000 HD 
HETATM   11  C   UNL     1      -9.445   9.813  66.351  1.00  0.00    -0.237 A  
HETATM   12  C   UNL     1      -9.524   9.641  67.749  1.00  0.00    -0.146 A  
HETATM   13  C   UNL     1      -8.674   8.723  68.400  1.00  0.00    -0.135 A  
HETATM   14  C   UNL     1      -7.676   8.116  66.256  1.00  0.00    -0.094 A  
HETATM   15  C   UNL     1      -7.748   7.988  67.647  1.00  0.00    -0.110 A  
BRANCH  13  16
HETATM   16  C   UNL     1      -8.770   8.527  69.892  1.00  0.00    -0.132 C  
BRANCH  16  17
HETATM   17  N   UNL     1      -9.331   7.250  70.305  1.00  0.00    -0.159 NA 
HETATM   18  C   UNL     1      -8.714   6.105  70.704  1.00  0.00    -0.139 A  
HETATM   19  N   UNL     1      -9.613   5.195  71.006  1.00  0.00    -0.162 NA 
HETATM   20  C   UNL     1     -10.790   5.840  70.773  1.00  0.00    -0.260 A  
HETATM   21  N   UNL     1     -10.672   7.100  70.343  1.00  0.00    -0.228 NA 
ENDBRANCH  16  17
ENDBRANCH  13  16
ENDBRANCH   5   6
ENDBRANCH   4   5
ENDBRANCH   2   4
TORSDOF 5
ENDMDL
MODEL      200
REMARK 921   NORMALIZED FREE ENERGY PREDICTED BY IDOCK:   -3.45 KCAL/MOL
REMARK 922        TOTAL FREE ENERGY PREDICTED BY IDOCK:   -4.92 KCAL/MOL
REMARK 923 INTER-LIGAND FREE ENERGY PREDICTED BY IDOCK:   -4.16 KCAL/MOL
REMARK 924 INTRA-LIGAND FREE ENERGY PREDICTED BY IDOCK:   -0.76 KCAL/MOL
REMARK 927      BINDING AFFINITY PREDICTED BY RF-SCORE:    0.00 PKD
ROOT
HETATM    1  C   UNL     1     -11.075  10.250  69.077  1.00  0.00    -0.230 C  
HETATM    2  N   UNL     1      -9.809  10.757  68.534  1.00  0.00    -0.169 NA 
HETATM    3  C   UNL     1      -8.702  10.338  69.398  1.00  0.00    -0.156 C  
ENDROOT
BRANCH   2   4
HETATM    4  C   UNL     1      -9.647  10.284  67.143  1.00  0.00    -0.168 C  
BRANCH   4   5
HETATM    5  C   UNL     1      -8.415   9.392  66.914  1.00  0.00    -0.128 C  
BRANCH   5   6
HETATM    6  C   UNL     1      -8.771   7.997  66.485  1.00  0.00    -0.161 A  
HETATM    7  C   UNL     1      -8.624   7.469  65.217  1.00  0.00    -0.002 A  
HETATM    8  N   UNL     1      -8.981   6.151  65.253  1.00  0.00    -0.370 NA 
HETATM    9  C   UNL     1      -9.335   5.790  66.531  1.00  0.00    -0.152 A  
HETATM   10  H   UNL     1      -8.985   5.526  64.448  1.00  0.00     0.000 HD 
HETATM   11  C   UNL     1      -9.272   6.941  67.315  1.00  0.00    -0.137 A  
HETATM   12  C   UNL     1      -9.652   6.847  68.671  1.00  0.00    -0.133 A  
HETATM   13  C   UNL     1     -10.037   5.603  69.216  1.00  0.00    -0.281 A  
HETATM   14  C   UNL     1      -9.695   4.539  67.045  1.00  0.00    -0.227 A  
HETATM   15  C   UNL     1     -10.033   4.464  68.400  1.00  0.00    -0.070 A  
BRANCH  13  16
HETATM   16  C   UNL     1     -10.457   5.506  70.660  1.00  0.00    -0.272 C  
BRANCH  16  17
HETATM   17  N   UNL     1     -11.199   6.655  71.158  1.00  0.00    -0.277 NA 
HETATM   18  C   UNL     1     -12.496   7.017  70.964  1.00  0.00    -0.326 A  
HETATM   19  N   UNL     1     -12.753   8.126  71.621  1.00  0.00    -0.315 NA 
HETATM   20  C   UNL     1     -11.561   8.412  72.214  1.00  0.00    -0.383 A  
HETATM   21  N   UNL     1     -10.578   7.542  71.964  1.00  0.00    -0.206 NA 
ENDBRANCH  16  17
ENDBRANCH  13  16
ENDBRANCH   5   6
ENDBRANCH   4   5
ENDBRANCH   2   4
TORSDOF 5
ENDMDL
MODEL      201
REMARK 921   NORMALIZED FREE ENERGY PREDICTED BY IDOCK:   -3.44 KCAL/MOL
REMARK 922        TOTAL FREE ENERGY PREDICTED BY IDOCK:   -4.90 KCAL/MOL
REMARK 923 INTER-LIGAND FREE ENERGY PREDICTED BY IDOCK:   -4.47 KCAL/MOL
REMARK 924 INTRA-LIGAND FREE ENERGY PREDICTED BY IDOCK:   -0.44 KCAL/MOL
REMARK 927      BINDING AFFINITY PREDICTED BY RF-SCORE:    0.00 PKD
ROOT
HETATM    1  C   UNL     1      -9.299   3.651  67.487  1.00  0.00    -0.202 C  
HETATM    2  N   UNL     1      -8.048   4.004  68.166  1.00  0.00    -0.084 NA 
HETATM    3  C   UNL     1      -7.875   5.459  68.150  1.00  0.00    -0.092 C  
ENDROOT
BRANCH   2   4
HETATM    4  C   UNL     1      -8.061   3.455  69.539  1.00  0.00    -0.052 C  
BRANCH   4   5
HETATM    5  C   UNL     1      -9.402   2.832  69.962  1.00  0.00    -0.202 C  
BRANCH   5   6
HETATM    6  C   UNL     1      -9.697   3.011  71.424  1.00  0.00    -0.219 A  
HETATM    7  C   UNL     1      -9.640   2.029  72.394  1.00  0.00    -0.100 A  
HETATM    8  N   UNL     1      -9.896   2.604  73.607  1.00  0.00    -0.098 NA 
HETATM    9  C   UNL     1     -10.093   3.957  73.459  1.00  0.00    -0.133 A  
HETATM   10  H   UNL     1      -9.936   2.103  74.494  1.00  0.00     0.000 HD 
HETATM   11  C   UNL     1     -10.035   4.233  72.094  1.00  0.00    -0.246 A  
HETATM   12  C   UNL     1     -10.269   5.558  71.669  1.00  0.00    -0.265 A  
HETATM   13  C   UNL     1     -10.506   6.575  72.618  1.00  0.00    -0.236 A  
HETATM   14  C   UNL     1     -10.308   4.945  74.425  1.00  0.00    -0.325 A  
HETATM   15  C   UNL     1     -10.502   6.258  73.983  1.00  0.00    -0.279 A  
BRANCH  13  16
HETATM   16  C   UNL     1     -10.772   7.988  72.164  1.00  0.00    -0.276 C  
BRANCH  16  17
HETATM   17  N   UNL     1     -12.172   8.296  71.917  1.00  0.00    -0.317 NA 
HETATM   18  C   UNL     1     -13.180   7.505  71.458  1.00  0.00    -0.354 A  
HETATM   19  N   UNL     1     -14.298   8.192  71.405  1.00  0.00    -0.395 NA 
HETATM   20  C   UNL     1     -13.921   9.423  71.849  1.00  0.00    -0.234 A  
HETATM   21  N   UNL     1     -12.630   9.538  72.177  1.00  0.00    -0.359 NA 
ENDBRANCH  16  17
ENDBRANCH  13  16
ENDBRANCH   5   6
ENDBRANCH   4   5
ENDBRANCH   2   4
TORSDOF 5
ENDMDL
MODEL      202
REMARK 921   NORMALIZED FREE ENERGY PREDICTED BY IDOCK:   -3.40 KCAL/MOL
REMARK 922        TOTAL FREE ENERGY PREDICTED BY IDOCK:   -4.86 KCAL/MOL
REMARK 923 INTER-LIGAND FREE ENERGY PREDICTED BY IDOCK:   -4.18 KCAL/MOL
REMARK 924 INTRA-LIGAND FREE ENERGY PREDICTED BY IDOCK:   -0.68 KCAL/MOL
REMARK 927      BINDING AFFINITY PREDICTED BY RF-SCORE:    0.00 PKD
ROOT
HETATM    1  C   UNL     1     -11.718  10.448  70.107  1.00  0.00    -0.312 C  
HETATM    2  N   UNL     1     -10.371   9.887  70.260  1.00  0.00    -0.280 NA 
HETATM    3  C   UNL     1     -10.307   9.094  71.491  1.00  0.00    -0.344 C  
ENDROOT
BRANCH   2   4
HETATM    4  C   UNL     1     -10.030   9.093  69.061  1.00  0.00    -0.184 C  
BRANCH   4   5
HETATM    5  C   UNL     1      -9.816   9.925  67.786  1.00  0.00    -0.184 C  
BRANCH   5   6
HETATM    6  C   UNL     1      -8.702  10.924  67.916  1.00  0.00    -0.131 A  
HETATM    7  C   UNL     1      -7.349  10.647  67.882  1.00  0.00    -0.089 A  
HETATM    8  N   UNL     1      -6.664  11.827  67.950  1.00  0.00    -0.067 NA 
HETATM    9  C   UNL     1      -7.542  12.883  68.000  1.00  0.00    -0.137 A  
HETATM   10  H   UNL     1      -5.648  11.912  67.963  1.00  0.00     0.000 HD 
HETATM   11  C   UNL     1      -8.828  12.346  68.042  1.00  0.00    -0.187 A  
HETATM   12  C   UNL     1      -9.920  13.234  68.158  1.00  0.00    -0.234 A  
HETATM   13  C   UNL     1      -9.701  14.627  68.182  1.00  0.00    -0.220 A  
HETATM   14  C   UNL     1      -7.294  14.260  68.004  1.00  0.00    -0.145 A  
HETATM   15  C   UNL     1      -8.393  15.121  68.084  1.00  0.00    -0.147 A  
BRANCH  13  16
HETATM   16  C   UNL     1     -10.866  15.574  68.322  1.00  0.00    -0.292 C  
BRANCH  16  17
HETATM   17  N   UNL     1     -11.629  15.425  69.552  1.00  0.00    -0.308 NA 
HETATM   18  C   UNL     1     -12.966  15.268  69.745  1.00  0.00     0.226 A  
HETATM   19  N   UNL     1     -13.222  15.151  71.028  1.00  0.00    -0.437 NA 
HETATM   20  C   UNL     1     -11.987  15.243  71.595  1.00  0.00    -0.372 A  
HETATM   21  N   UNL     1     -10.978  15.410  70.734  1.00  0.00    -0.331 NA 
ENDBRANCH  16  17
ENDBRANCH  13  16
ENDBRANCH   5   6
ENDBRANCH   4   5
ENDBRANCH   2   4
TORSDOF 5
ENDMDL
MODEL      203
REMARK 921   NORMALIZED FREE ENERGY PREDICTED BY IDOCK:   -3.38 KCAL/MOL
REMARK 922        TOTAL FREE ENERGY PREDICTED BY IDOCK:   -4.82 KCAL/MOL
REMARK 923 INTER-LIGAND FREE ENERGY PREDICTED BY IDOCK:   -4.36 KCAL/MOL
REMARK 924 INTRA-LIGAND FREE ENERGY PREDICTED BY IDOCK:   -0.46 KCAL/MOL
REMARK 927      BINDING AFFINITY PREDICTED BY RF-SCORE:    0.00 PKD
ROOT
HETATM    1  C   UNL     1     -10.084   5.078  66.312  1.00  0.00    -0.247 C  
HETATM    2  N   UNL     1      -9.765   5.923  67.468  1.00  0.00    -0.111 NA 
HETATM    3  C   UNL     1     -11.003   6.461  68.038  1.00  0.00    -0.311 C  
ENDROOT
BRANCH   2   4
HETATM    4  C   UNL     1      -8.988   5.140  68.451  1.00  0.00    -0.106 C  
BRANCH   4   5
HETATM    5  C   UNL     1      -9.635   3.805  68.856  1.00  0.00    -0.183 C  
BRANCH   5   6
HETATM    6  C   UNL     1      -9.569   3.545  70.334  1.00  0.00    -0.241 A  
HETATM    7  C   UNL     1      -9.023   2.432  70.943  1.00  0.00    -0.088 A  
HETATM    8  N   UNL     1      -9.082   2.607  72.297  1.00  0.00    -0.082 NA 
HETATM    9  C   UNL     1      -9.633   3.832  72.593  1.00  0.00    -0.133 A  
HETATM   10  H   UNL     1      -8.765   1.928  72.988  1.00  0.00     0.000 HD 
HETATM   11  C   UNL     1     -10.005   4.418  71.385  1.00  0.00    -0.248 A  
HETATM   12  C   UNL     1     -10.656   5.669  71.421  1.00  0.00    -0.317 A  
HETATM   13  C   UNL     1     -10.875   6.319  72.654  1.00  0.00    -0.273 A  
HETATM   14  C   UNL     1      -9.819   4.458  73.830  1.00  0.00    -0.169 A  
HETATM   15  C   UNL     1     -10.435   5.714  73.839  1.00  0.00    -0.302 A  
BRANCH  13  16
HETATM   16  C   UNL     1     -11.585   7.649  72.695  1.00  0.00    -0.317 C  
BRANCH  16  17
HETATM   17  N   UNL     1     -11.176   8.589  71.662  1.00  0.00    -0.271 NA 
HETATM   18  C   UNL     1      -9.959   9.141  71.406  1.00  0.00    -0.303 A  
HETATM   19  N   UNL     1     -10.038   9.930  70.358  1.00  0.00    -0.250 NA 
HETATM   20  C   UNL     1     -11.347   9.827  69.997  1.00  0.00    -0.220 A  
HETATM   21  N   UNL     1     -12.086   9.017  70.762  1.00  0.00    -0.191 NA 
ENDBRANCH  16  17
ENDBRANCH  13  16
ENDBRANCH   5   6
ENDBRANCH   4   5
ENDBRANCH   2   4
TORSDOF 5
ENDMDL
MODEL      204
REMARK 921   NORMALIZED FREE ENERGY PREDICTED BY IDOCK:   -3.34 KCAL/MOL
REMARK 922        TOTAL FREE ENERGY PREDICTED BY IDOCK:   -4.78 KCAL/MOL
REMARK 923 INTER-LIGAND FREE ENERGY PREDICTED BY IDOCK:   -4.19 KCAL/MOL
REMARK 924 INTRA-LIGAND FREE ENERGY PREDICTED BY IDOCK:   -0.59 KCAL/MOL
REMARK 927      BINDING AFFINITY PREDICTED BY RF-SCORE:    0.00 PKD
ROOT
HETATM    1  C   UNL     1      -7.083   8.010  73.346  1.00  0.00    -0.123 C  
HETATM    2  N   UNL     1      -8.142   7.007  73.192  1.00  0.00    -0.101 NA 
HETATM    3  C   UNL     1      -7.665   5.711  73.682  1.00  0.00    -0.101 C  
ENDROOT
BRANCH   2   4
HETATM    4  C   UNL     1      -9.357   7.463  73.900  1.00  0.00    -0.270 C  
BRANCH   4   5
HETATM    5  C   UNL     1     -10.622   6.647  73.585  1.00  0.00    -0.323 C  
BRANCH   5   6
HETATM    6  C   UNL     1     -11.107   6.836  72.175  1.00  0.00    -0.284 A  
HETATM    7  C   UNL     1     -11.950   7.835  71.729  1.00  0.00    -0.296 A  
HETATM    8  N   UNL     1     -12.087   7.712  70.375  1.00  0.00    -0.489 NA 
HETATM    9  C   UNL     1     -11.324   6.665  69.914  1.00  0.00    -0.364 A  
HETATM   10  H   UNL     1     -12.670   8.310  69.791  1.00  0.00     0.000 HD 
HETATM   11  C   UNL     1     -10.746   6.057  71.027  1.00  0.00    -0.325 A  
HETATM   12  C   UNL     1      -9.954   4.906  70.824  1.00  0.00    -0.292 A  
HETATM   13  C   UNL     1      -9.725   4.424  69.518  1.00  0.00    -0.280 A  
HETATM   14  C   UNL     1     -11.103   6.223  68.605  1.00  0.00    -0.409 A  
HETATM   15  C   UNL     1     -10.286   5.101  68.426  1.00  0.00    -0.175 A  
BRANCH  13  16
HETATM   16  C   UNL     1      -8.893   3.186  69.302  1.00  0.00    -0.098 C  
BRANCH  16  17
HETATM   17  N   UNL     1      -7.859   3.316  68.286  1.00  0.00    -0.059 NA 
HETATM   18  C   UNL     1      -6.680   3.993  68.312  1.00  0.00    -0.047 A  
HETATM   19  N   UNL     1      -6.041   3.822  67.176  1.00  0.00    -0.024 NA 
HETATM   20  C   UNL     1      -6.884   3.016  66.472  1.00  0.00    -0.052 A  
HETATM   21  N   UNL     1      -8.009   2.677  67.107  1.00  0.00    -0.073 NA 
ENDBRANCH  16  17
ENDBRANCH  13  16
ENDBRANCH   5   6
ENDBRANCH   4   5
ENDBRANCH   2   4
TORSDOF 5
ENDMDL
MODEL      205
REMARK 921   NORMALIZED FREE ENERGY PREDICTED BY IDOCK:   -3.33 KCAL/MOL
REMARK 922        TOTAL FREE ENERGY PREDICTED BY IDOCK:   -4.76 KCAL/MOL
REMARK 923 INTER-LIGAND FREE ENERGY PREDICTED BY IDOCK:   -4.23 KCAL/MOL
REMARK 924 INTRA-LIGAND FREE ENERGY PREDICTED BY IDOCK:   -0.53 KCAL/MOL
REMARK 927      BINDING AFFINITY PREDICTED BY RF-SCORE:    0.00 PKD
ROOT
HETATM    1  C   UNL     1     -11.869  13.649  67.125  1.00  0.00    -0.396 C  
HETATM    2  N   UNL     1     -12.324  12.919  65.936  1.00  0.00    -0.540 NA 
HETATM    3  C   UNL     1     -12.669  13.872  64.879  1.00  0.00    -0.278 C  
ENDROOT
BRANCH   2   4
HETATM    4  C   UNL     1     -11.277  11.966  65.514  1.00  0.00    -0.299 C  
BRANCH   4   5
HETATM    5  C   UNL     1     -10.721  11.086  66.647  1.00  0.00    -0.305 C  
BRANCH   5   6
HETATM    6  C   UNL     1      -9.230  10.915  66.581  1.00  0.00    -0.184 A  
HETATM    7  C   UNL     1      -8.553   9.914  65.911  1.00  0.00    -0.137 A  
HETATM    8  N   UNL     1      -7.212  10.152  66.021  1.00  0.00    -0.112 NA 
HETATM    9  C   UNL     1      -6.992  11.310  66.729  1.00  0.00    -0.141 A  
HETATM   10  H   UNL     1      -6.480   9.556  65.635  1.00  0.00     0.000 HD 
HETATM   11  C   UNL     1      -8.236  11.779  67.146  1.00  0.00    -0.169 A  
HETATM   12  C   UNL     1      -8.278  12.937  67.952  1.00  0.00    -0.165 A  
HETATM   13  C   UNL     1      -7.086  13.617  68.278  1.00  0.00    -0.110 A  
HETATM   14  C   UNL     1      -5.794  11.971  67.021  1.00  0.00    -0.131 A  
HETATM   15  C   UNL     1      -5.863  13.137  67.791  1.00  0.00    -0.138 A  
BRANCH  13  16
HETATM   16  C   UNL     1      -7.129  14.845  69.152  1.00  0.00    -0.148 C  
BRANCH  16  17
HETATM   17  N   UNL     1      -7.257  16.102  68.430  1.00  0.00    -0.131 NA 
HETATM   18  C   UNL     1      -7.330  16.347  67.094  1.00  0.00    -0.195 A  
HETATM   19  N   UNL     1      -7.460  17.637  66.882  1.00  0.00    -0.187 NA 
HETATM   20  C   UNL     1      -7.463  18.154  68.142  1.00  0.00    -0.258 A  
HETATM   21  N   UNL     1      -7.343  17.256  69.125  1.00  0.00    -0.207 NA 
ENDBRANCH  16  17
ENDBRANCH  13  16
ENDBRANCH   5   6
ENDBRANCH   4   5
ENDBRANCH   2   4
TORSDOF 5
ENDMDL
MODEL      206
REMARK 921   NORMALIZED FREE ENERGY PREDICTED BY IDOCK:   -3.30 KCAL/MOL
REMARK 922        TOTAL FREE ENERGY PREDICTED BY IDOCK:   -4.72 KCAL/MOL
REMARK 923 INTER-LIGAND FREE ENERGY PREDICTED BY IDOCK:   -4.44 KCAL/MOL
REMARK 924 INTRA-LIGAND FREE ENERGY PREDICTED BY IDOCK:   -0.29 KCAL/MOL
REMARK 927      BINDING AFFINITY PREDICTED BY RF-SCORE:    0.00 PKD
ROOT
HETATM    1  C   UNL     1     -12.589   9.651  71.852  1.00  0.00    -0.396 C  
HETATM    2  N   UNL     1     -13.217  10.784  71.163  1.00  0.00    -0.265 NA 
HETATM    3  C   UNL     1     -13.135  11.978  72.007  1.00  0.00    -0.351 C  
ENDROOT
BRANCH   2   4
HETATM    4  C   UNL     1     -12.571  10.979  69.848  1.00  0.00    -0.136 C  
BRANCH   4   5
HETATM    5  C   UNL     1     -11.906  12.353  69.662  1.00  0.00    -0.380 C  
BRANCH   5   6
HETATM    6  C   UNL     1     -10.847  12.356  68.597  1.00  0.00    -0.273 A  
HETATM    7  C   UNL     1     -10.618  13.359  67.675  1.00  0.00    -0.243 A  
HETATM    8  N   UNL     1      -9.519  13.024  66.936  1.00  0.00    -0.236 NA 
HETATM    9  C   UNL     1      -8.999  11.829  67.373  1.00  0.00    -0.173 A  
HETATM   10  H   UNL     1      -9.140  13.580  66.170  1.00  0.00     0.000 HD 
HETATM   11  C   UNL     1      -9.845  11.354  68.374  1.00  0.00    -0.205 A  
HETATM   12  C   UNL     1      -9.560  10.098  68.950  1.00  0.00    -0.186 A  
HETATM   13  C   UNL     1      -8.418   9.376  68.547  1.00  0.00    -0.119 A  
HETATM   14  C   UNL     1      -7.850  11.145  66.963  1.00  0.00    -0.142 A  
HETATM   15  C   UNL     1      -7.567   9.919  67.574  1.00  0.00    -0.091 A  
BRANCH  13  16
HETATM   16  C   UNL     1      -8.121   8.027  69.151  1.00  0.00    -0.119 C  
BRANCH  16  17
HETATM   17  N   UNL     1      -9.295   7.212  69.429  1.00  0.00    -0.148 NA 
HETATM   18  C   UNL     1      -9.855   6.852  70.616  1.00  0.00    -0.182 A  
HETATM   19  N   UNL     1     -10.926   6.121  70.400  1.00  0.00    -0.312 NA 
HETATM   20  C   UNL     1     -10.984   6.059  69.041  1.00  0.00    -0.339 A  
HETATM   21  N   UNL     1     -10.010   6.712  68.400  1.00  0.00    -0.141 NA 
ENDBRANCH  16  17
ENDBRANCH  13  16
ENDBRANCH   5   6
ENDBRANCH   4   5
ENDBRANCH   2   4
TORSDOF 5
ENDMDL
MODEL      207
REMARK 921   NORMALIZED FREE ENERGY PREDICTED BY IDOCK:   -3.28 KCAL/MOL
REMARK 922        TOTAL FREE ENERGY PREDICTED BY IDOCK:   -4.70 KCAL/MOL
REMARK 923 INTER-LIGAND FREE ENERGY PREDICTED BY IDOCK:   -4.29 KCAL/MOL
REMARK 924 INTRA-LIGAND FREE ENERGY PREDICTED BY IDOCK:   -0.41 KCAL/MOL
REMARK 927      BINDING AFFINITY PREDICTED BY RF-SCORE:    0.00 PKD
ROOT
HETATM    1  C   UNL     1     -13.039  10.926  71.620  1.00  0.00    -0.433 C  
HETATM    2  N   UNL     1     -12.985   9.580  72.200  1.00  0.00    -0.410 NA 
HETATM    3  C   UNL     1     -14.053   8.755  71.628  1.00  0.00    -0.370 C  
ENDROOT
BRANCH   2   4
HETATM    4  C   UNL     1     -11.645   9.000  71.973  1.00  0.00    -0.343 C  
BRANCH   4   5
HETATM    5  C   UNL     1     -11.554   8.061  70.759  1.00  0.00    -0.251 C  
BRANCH   5   6
HETATM    6  C   UNL     1     -10.391   8.372  69.860  1.00  0.00    -0.210 A  
HETATM    7  C   UNL     1      -9.402   9.306  70.099  1.00  0.00    -0.228 A  
HETATM    8  N   UNL     1      -8.484   9.231  69.089  1.00  0.00    -0.128 NA 
HETATM    9  C   UNL     1      -8.835   8.242  68.201  1.00  0.00    -0.139 A  
HETATM   10  H   UNL     1      -7.658   9.823  69.007  1.00  0.00     0.000 HD 
HETATM   11  C   UNL     1     -10.059   7.726  68.624  1.00  0.00    -0.211 A  
HETATM   12  C   UNL     1     -10.670   6.727  67.837  1.00  0.00    -0.320 A  
HETATM   13  C   UNL     1     -10.024   6.240  66.681  1.00  0.00    -0.207 A  
HETATM   14  C   UNL     1      -8.161   7.769  67.070  1.00  0.00    -0.117 A  
HETATM   15  C   UNL     1      -8.769   6.753  66.326  1.00  0.00    -0.152 A  
BRANCH  13  16
HETATM   16  C   UNL     1     -10.684   5.184  65.831  1.00  0.00    -0.074 C  
BRANCH  16  17
HETATM   17  N   UNL     1      -9.848   4.032  65.532  1.00  0.00    -0.193 NA 
HETATM   18  C   UNL     1      -9.167   3.198  66.365  1.00  0.00    -0.134 A  
HETATM   19  N   UNL     1      -8.553   2.272  65.664  1.00  0.00    -0.107 NA 
HETATM   20  C   UNL     1      -8.892   2.583  64.383  1.00  0.00    -0.103 A  
HETATM   21  N   UNL     1      -9.685   3.651  64.248  1.00  0.00    -0.163 NA 
ENDBRANCH  16  17
ENDBRANCH  13  16
ENDBRANCH   5   6
ENDBRANCH   4   5
ENDBRANCH   2   4
TORSDOF 5
ENDMDL
MODEL      208
REMARK 921   NORMALIZED FREE ENERGY PREDICTED BY IDOCK:   -3.25 KCAL/MOL
REMARK 922        TOTAL FREE ENERGY PREDICTED BY IDOCK:   -4.66 KCAL/MOL
REMARK 923 INTER-LIGAND FREE ENERGY PREDICTED BY IDOCK:   -4.54 KCAL/MOL
REMARK 924 INTRA-LIGAND FREE ENERGY PREDICTED BY IDOCK:   -0.13 KCAL/MOL
REMARK 927      BINDING AFFINITY PREDICTED BY RF-SCORE:    0.00 PKD
ROOT
HETATM    1  C   UNL     1     -11.479   6.737  71.465  1.00  0.00    -0.287 C  
HETATM    2  N   UNL     1     -10.770   7.667  72.352  1.00  0.00    -0.256 NA 
HETATM    3  C   UNL     1      -9.516   7.056  72.801  1.00  0.00    -0.146 C  
ENDROOT
BRANCH   2   4
HETATM    4  C   UNL     1     -10.551   8.947  71.647  1.00  0.00    -0.352 C  
BRANCH   4   5
HETATM    5  C   UNL     1     -11.838   9.633  71.158  1.00  0.00    -0.448 C  
BRANCH   5   6
HETATM    6  C   UNL     1     -11.573  10.798  70.247  1.00  0.00    -0.427 A  
HETATM    7  C   UNL     1     -12.117  12.063  70.360  1.00  0.00    -0.321 A  
HETATM    8  N   UNL     1     -11.568  12.858  69.394  1.00  0.00    -0.322 NA 
HETATM    9  C   UNL     1     -10.647  12.147  68.661  1.00  0.00    -0.223 A  
HETATM   10  H   UNL     1     -11.807  13.837  69.239  1.00  0.00     0.000 HD 
HETATM   11  C   UNL     1     -10.672  10.835  69.132  1.00  0.00    -0.265 A  
HETATM   12  C   UNL     1      -9.850   9.881  68.496  1.00  0.00    -0.168 A  
HETATM   13  C   UNL     1      -8.996  10.270  67.443  1.00  0.00    -0.141 A  
HETATM   14  C   UNL     1      -9.799  12.569  67.632  1.00  0.00    -0.202 A  
HETATM   15  C   UNL     1      -8.967  11.612  67.040  1.00  0.00    -0.182 A  
BRANCH  13  16
HETATM   16  C   UNL     1      -8.129   9.248  66.753  1.00  0.00    -0.112 C  
BRANCH  16  17
HETATM   17  N   UNL     1      -7.703   9.617  65.411  1.00  0.00    -0.113 NA 
HETATM   18  C   UNL     1      -6.466   9.921  64.932  1.00  0.00    -0.111 A  
HETATM   19  N   UNL     1      -6.536  10.178  63.645  1.00  0.00    -0.133 NA 
HETATM   20  C   UNL     1      -7.861  10.014  63.373  1.00  0.00    -0.151 A  
HETATM   21  N   UNL     1      -8.617   9.669  64.420  1.00  0.00    -0.177 NA 
ENDBRANCH  16  17
ENDBRANCH  13  16
ENDBRANCH   5   6
ENDBRANCH   4   5
ENDBRANCH   2   4
TORSDOF 5
ENDMDL
MODEL      209
REMARK 921   NORMALIZED FREE ENERGY PREDICTED BY IDOCK:   -3.25 KCAL/MOL
REMARK 922        TOTAL FREE ENERGY PREDICTED BY IDOCK:   -4.66 KCAL/MOL
REMARK 923 INTER-LIGAND FREE ENERGY PREDICTED BY IDOCK:   -4.13 KCAL/MOL
REMARK 924 INTRA-LIGAND FREE ENERGY PREDICTED BY IDOCK:   -0.54 KCAL/MOL
REMARK 927      BINDING AFFINITY PREDICTED BY RF-SCORE:    0.00 PKD
ROOT
HETATM    1  C   UNL     1     -10.508   5.106  66.016  1.00  0.00    -0.191 C  
HETATM    2  N   UNL     1      -9.375   5.881  66.533  1.00  0.00    -0.150 NA 
HETATM    3  C   UNL     1      -8.796   5.192  67.689  1.00  0.00    -0.105 C  
ENDROOT
BRANCH   2   4
HETATM    4  C   UNL     1      -8.389   6.091  65.452  1.00  0.00    -0.150 C  
BRANCH   4   5
HETATM    5  C   UNL     1      -7.609   7.413  65.549  1.00  0.00    -0.094 C  
BRANCH   5   6
HETATM    6  C   UNL     1      -8.229   8.522  64.748  1.00  0.00    -0.164 A  
HETATM    7  C   UNL     1      -8.296   8.595  63.370  1.00  0.00    -0.129 A  
HETATM    8  N   UNL     1      -9.007   9.711  63.030  1.00  0.00    -0.278 NA 
HETATM    9  C   UNL     1      -9.436  10.363  64.162  1.00  0.00    -0.300 A  
HETATM   10  H   UNL     1      -9.192  10.017  62.076  1.00  0.00     0.000 HD 
HETATM   11  C   UNL     1      -8.912   9.675  65.256  1.00  0.00    -0.246 A  
HETATM   12  C   UNL     1      -9.161  10.186  66.548  1.00  0.00    -0.166 A  
HETATM   13  C   UNL     1      -9.960  11.336  66.714  1.00  0.00    -0.238 A  
HETATM   14  C   UNL     1     -10.246  11.496  64.294  1.00  0.00    -0.361 A  
HETATM   15  C   UNL     1     -10.509  11.963  65.587  1.00  0.00    -0.302 A  
BRANCH  13  16
HETATM   16  C   UNL     1     -10.213  11.890  68.093  1.00  0.00    -0.199 C  
BRANCH  16  17
HETATM   17  N   UNL     1     -10.876  10.972  69.007  1.00  0.00    -0.214 NA 
HETATM   18  C   UNL     1     -10.355  10.132  69.942  1.00  0.00    -0.261 A  
HETATM   19  N   UNL     1     -11.324   9.495  70.560  1.00  0.00    -0.268 NA 
HETATM   20  C   UNL     1     -12.443   9.988  69.960  1.00  0.00     0.139 A  
HETATM   21  N   UNL     1     -12.223  10.896  69.004  1.00  0.00    -0.450 NA 
ENDBRANCH  16  17
ENDBRANCH  13  16
ENDBRANCH   5   6
ENDBRANCH   4   5
ENDBRANCH   2   4
TORSDOF 5
ENDMDL
MODEL      210
REMARK 921   NORMALIZED FREE ENERGY PREDICTED BY IDOCK:   -3.25 KCAL/MOL
REMARK 922        TOTAL FREE ENERGY PREDICTED BY IDOCK:   -4.65 KCAL/MOL
REMARK 923 INTER-LIGAND FREE ENERGY PREDICTED BY IDOCK:   -4.57 KCAL/MOL
REMARK 924 INTRA-LIGAND FREE ENERGY PREDICTED BY IDOCK:   -0.08 KCAL/MOL
REMARK 927      BINDING AFFINITY PREDICTED BY RF-SCORE:    0.00 PKD
ROOT
HETATM    1  C   UNL     1     -12.355  16.125  73.104  1.00  0.00    -0.538 C  
HETATM    2  N   UNL     1     -13.011  15.010  72.412  1.00  0.00    -0.331 NA 
HETATM    3  C   UNL     1     -14.408  15.355  72.140  1.00  0.00    -0.544 C  
ENDROOT
BRANCH   2   4
HETATM    4  C   UNL     1     -12.261  14.688  71.180  1.00  0.00    -0.340 C  
BRANCH   4   5
HETATM    5  C   UNL     1     -11.108  15.655  70.864  1.00  0.00    -0.377 C  
BRANCH   5   6
HETATM    6  C   UNL     1     -10.784  15.726  69.399  1.00  0.00    -0.266 A  
HETATM    7  C   UNL     1     -10.948  16.826  68.580  1.00  0.00    -0.312 A  
HETATM    8  N   UNL     1     -10.464  16.518  67.340  1.00  0.00    -0.309 NA 
HETATM    9  C   UNL     1      -9.954  15.241  67.334  1.00  0.00    -0.223 A  
HETATM   10  H   UNL     1     -10.478  17.144  66.536  1.00  0.00     0.000 HD 
HETATM   11  C   UNL     1     -10.196  14.696  68.594  1.00  0.00    -0.244 A  
HETATM   12  C   UNL     1      -9.817  13.357  68.827  1.00  0.00    -0.030 A  
HETATM   13  C   UNL     1      -9.169  12.617  67.816  1.00  0.00    -0.195 A  
HETATM   14  C   UNL     1      -9.299  14.540  66.316  1.00  0.00    -0.277 A  
HETATM   15  C   UNL     1      -8.901  13.225  66.582  1.00  0.00    -0.072 A  
BRANCH  13  16
HETATM   16  C   UNL     1      -8.779  11.181  68.059  1.00  0.00    -0.141 C  
BRANCH  16  17
HETATM   17  N   UNL     1      -7.432  10.835  67.631  1.00  0.00    -0.094 NA 
HETATM   18  C   UNL     1      -6.901  10.744  66.382  1.00  0.00    -0.135 A  
HETATM   19  N   UNL     1      -5.630  10.418  66.459  1.00  0.00    -0.052 NA 
HETATM   20  C   UNL     1      -5.422  10.319  67.801  1.00  0.00    -0.041 A  
HETATM   21  N   UNL     1      -6.493  10.566  68.562  1.00  0.00    -0.054 NA 
ENDBRANCH  16  17
ENDBRANCH  13  16
ENDBRANCH   5   6
ENDBRANCH   4   5
ENDBRANCH   2   4
TORSDOF 5
ENDMDL
MODEL      211
REMARK 921   NORMALIZED FREE ENERGY PREDICTED BY IDOCK:   -3.20 KCAL/MOL
REMARK 922        TOTAL FREE ENERGY PREDICTED BY IDOCK:   -4.60 KCAL/MOL
REMARK 923 INTER-LIGAND FREE ENERGY PREDICTED BY IDOCK:   -3.92 KCAL/MOL
REMARK 924 INTRA-LIGAND FREE ENERGY PREDICTED BY IDOCK:   -0.68 KCAL/MOL
REMARK 927      BINDING AFFINITY PREDICTED BY RF-SCORE:    0.00 PKD
ROOT
HETATM    1  C   UNL     1      -6.852   8.515  64.393  1.00  0.00    -0.070 C  
HETATM    2  N   UNL     1      -7.691   9.556  63.788  1.00  0.00    -0.120 NA 
HETATM    3  C   UNL     1      -8.649   8.940  62.867  1.00  0.00    -0.145 C  
ENDROOT
BRANCH   2   4
HETATM    4  C   UNL     1      -8.357  10.332  64.856  1.00  0.00    -0.172 C  
BRANCH   4   5
HETATM    5  C   UNL     1      -9.857  10.033  65.020  1.00  0.00    -0.374 C  
BRANCH   5   6
HETATM    6  C   UNL     1     -10.193   9.433  66.355  1.00  0.00    -0.300 A  
HETATM    7  C   UNL     1     -10.773  10.090  67.423  1.00  0.00    -0.274 A  
HETATM    8  N   UNL     1     -10.992   9.184  68.422  1.00  0.00    -0.466 NA 
HETATM    9  C   UNL     1     -10.593   7.931  68.021  1.00  0.00    -0.132 A  
HETATM   10  H   UNL     1     -11.393   9.405  69.332  1.00  0.00     0.000 HD 
HETATM   11  C   UNL     1     -10.031   8.065  66.753  1.00  0.00    -0.344 A  
HETATM   12  C   UNL     1      -9.485   6.917  66.139  1.00  0.00    -0.054 A  
HETATM   13  C   UNL     1      -9.556   5.665  66.786  1.00  0.00    -0.159 A  
HETATM   14  C   UNL     1     -10.695   6.701  68.681  1.00  0.00    -0.303 A  
HETATM   15  C   UNL     1     -10.178   5.571  68.038  1.00  0.00    -0.233 A  
BRANCH  13  16
HETATM   16  C   UNL     1      -8.958   4.442  66.138  1.00  0.00    -0.121 C  
BRANCH  16  17
HETATM   17  N   UNL     1      -9.530   4.097  64.845  1.00  0.00    -0.162 NA 
HETATM   18  C   UNL     1     -10.814   3.809  64.499  1.00  0.00    -0.055 A  
HETATM   19  N   UNL     1     -10.886   3.571  63.209  1.00  0.00    -0.211 NA 
HETATM   20  C   UNL     1      -9.597   3.728  62.797  1.00  0.00    -0.119 A  
HETATM   21  N   UNL     1      -8.729   4.051  63.760  1.00  0.00    -0.105 NA 
ENDBRANCH  16  17
ENDBRANCH  13  16
ENDBRANCH   5   6
ENDBRANCH   4   5
ENDBRANCH   2   4
TORSDOF 5
ENDMDL
MODEL      212
REMARK 921   NORMALIZED FREE ENERGY PREDICTED BY IDOCK:   -3.20 KCAL/MOL
REMARK 922        TOTAL FREE ENERGY PREDICTED BY IDOCK:   -4.60 KCAL/MOL
REMARK 923 INTER-LIGAND FREE ENERGY PREDICTED BY IDOCK:   -4.82 KCAL/MOL
REMARK 924 INTRA-LIGAND FREE ENERGY PREDICTED BY IDOCK:    0.22 KCAL/MOL
REMARK 927      BINDING AFFINITY PREDICTED BY RF-SCORE:    0.00 PKD
ROOT
HETATM    1  C   UNL     1      -9.026   8.168  66.660  1.00  0.00    -0.152 C  
HETATM    2  N   UNL     1      -9.658   9.458  66.364  1.00  0.00    -0.204 NA 
HETATM    3  C   UNL     1     -10.410   9.916  67.535  1.00  0.00    -0.236 C  
ENDROOT
BRANCH   2   4
HETATM    4  C   UNL     1      -8.623  10.428  65.946  1.00  0.00    -0.158 C  
BRANCH   4   5
HETATM    5  C   UNL     1      -7.460  10.585  66.939  1.00  0.00    -0.110 C  
BRANCH   5   6
HETATM    6  C   UNL     1      -7.466  11.910  67.648  1.00  0.00    -0.127 A  
HETATM    7  C   UNL     1      -6.672  12.265  68.721  1.00  0.00    -0.089 A  
HETATM    8  N   UNL     1      -6.917  13.575  69.025  1.00  0.00    -0.152 NA 
HETATM    9  C   UNL     1      -7.840  14.100  68.151  1.00  0.00    -0.142 A  
HETATM   10  H   UNL     1      -6.479  14.088  69.789  1.00  0.00     0.000 HD 
HETATM   11  C   UNL     1      -8.249  13.063  67.314  1.00  0.00    -0.174 A  
HETATM   12  C   UNL     1      -9.249  13.334  66.356  1.00  0.00    -0.133 A  
HETATM   13  C   UNL     1      -9.777  14.636  66.229  1.00  0.00    -0.329 A  
HETATM   14  C   UNL     1      -8.330  15.406  68.039  1.00  0.00    -0.142 A  
HETATM   15  C   UNL     1      -9.295  15.658  67.059  1.00  0.00    -0.241 A  
BRANCH  13  16
HETATM   16  C   UNL     1     -10.856  14.921  65.216  1.00  0.00    -0.386 C  
BRANCH  16  17
HETATM   17  N   UNL     1     -11.464  13.739  64.623  1.00  0.00    -0.356 NA 
HETATM   18  C   UNL     1     -10.980  12.874  63.691  1.00  0.00    -0.279 A  
HETATM   19  N   UNL     1     -11.862  11.929  63.458  1.00  0.00    -0.486 NA 
HETATM   20  C   UNL     1     -12.891  12.261  64.287  1.00  0.00    -0.235 A  
HETATM   21  N   UNL     1     -12.696  13.360  65.022  1.00  0.00    -0.685 NA 
ENDBRANCH  16  17
ENDBRANCH  13  16
ENDBRANCH   5   6
ENDBRANCH   4   5
ENDBRANCH   2   4
TORSDOF 5
ENDMDL
MODEL      213
REMARK 921   NORMALIZED FREE ENERGY PREDICTED BY IDOCK:   -3.19 KCAL/MOL
REMARK 922        TOTAL FREE ENERGY PREDICTED BY IDOCK:   -4.58 KCAL/MOL
REMARK 923 INTER-LIGAND FREE ENERGY PREDICTED BY IDOCK:   -4.22 KCAL/MOL
REMARK 924 INTRA-LIGAND FREE ENERGY PREDICTED BY IDOCK:   -0.36 KCAL/MOL
REMARK 927      BINDING AFFINITY PREDICTED BY RF-SCORE:    0.00 PKD
ROOT
HETATM    1  C   UNL     1      -9.933  10.728  65.976  1.00  0.00    -0.242 C  
HETATM    2  N   UNL     1      -8.661  10.092  66.339  1.00  0.00    -0.128 NA 
HETATM    3  C   UNL     1      -7.660  11.123  66.621  1.00  0.00    -0.147 C  
ENDROOT
BRANCH   2   4
HETATM    4  C   UNL     1      -8.875   9.186  67.488  1.00  0.00    -0.119 C  
BRANCH   4   5
HETATM    5  C   UNL     1      -7.855   8.040  67.594  1.00  0.00    -0.122 C  
BRANCH   5   6
HETATM    6  C   UNL     1      -8.479   6.732  67.989  1.00  0.00    -0.120 A  
HETATM    7  C   UNL     1      -8.376   5.538  67.302  1.00  0.00    -0.104 A  
HETATM    8  N   UNL     1      -9.012   4.568  68.024  1.00  0.00    -0.111 NA 
HETATM    9  C   UNL     1      -9.508   5.095  69.193  1.00  0.00    -0.134 A  
HETATM   10  H   UNL     1      -9.104   3.594  67.738  1.00  0.00     0.000 HD 
HETATM   11  C   UNL     1      -9.243   6.463  69.171  1.00  0.00    -0.133 A  
HETATM   12  C   UNL     1      -9.711   7.251  70.244  1.00  0.00    -0.175 A  
HETATM   13  C   UNL     1     -10.387   6.647  71.326  1.00  0.00    -0.230 A  
HETATM   14  C   UNL     1     -10.159   4.463  70.258  1.00  0.00    -0.173 A  
HETATM   15  C   UNL     1     -10.583   5.260  71.328  1.00  0.00    -0.242 A  
BRANCH  13  16
HETATM   16  C   UNL     1     -10.901   7.491  72.465  1.00  0.00    -0.299 C  
BRANCH  16  17
HETATM   17  N   UNL     1     -11.879   8.499  72.083  1.00  0.00    -0.358 NA 
HETATM   18  C   UNL     1     -11.707   9.792  71.699  1.00  0.00    -0.318 A  
HETATM   19  N   UNL     1     -12.871  10.336  71.425  1.00  0.00    -0.404 NA 
HETATM   20  C   UNL     1     -13.745   9.318  71.660  1.00  0.00    -0.354 A  
HETATM   21  N   UNL     1     -13.188   8.172  72.063  1.00  0.00    -0.308 NA 
ENDBRANCH  16  17
ENDBRANCH  13  16
ENDBRANCH   5   6
ENDBRANCH   4   5
ENDBRANCH   2   4
TORSDOF 5
ENDMDL
MODEL      214
REMARK 921   NORMALIZED FREE ENERGY PREDICTED BY IDOCK:   -3.19 KCAL/MOL
REMARK 922        TOTAL FREE ENERGY PREDICTED BY IDOCK:   -4.58 KCAL/MOL
REMARK 923 INTER-LIGAND FREE ENERGY PREDICTED BY IDOCK:   -4.31 KCAL/MOL
REMARK 924 INTRA-LIGAND FREE ENERGY PREDICTED BY IDOCK:   -0.27 KCAL/MOL
REMARK 927      BINDING AFFINITY PREDICTED BY RF-SCORE:    0.00 PKD
ROOT
HETATM    1  C   UNL     1      -6.679   4.863  68.746  1.00  0.00    -0.050 C  
HETATM    2  N   UNL     1      -6.667   5.885  69.799  1.00  0.00    -0.050 NA 
HETATM    3  C   UNL     1      -6.227   7.164  69.235  1.00  0.00    -0.035 C  
ENDROOT
BRANCH   2   4
HETATM    4  C   UNL     1      -8.009   5.973  70.414  1.00  0.00    -0.107 C  
BRANCH   4   5
HETATM    5  C   UNL     1      -8.046   6.723  71.756  1.00  0.00    -0.102 C  
BRANCH   5   6
HETATM    6  C   UNL     1      -9.437   7.093  72.184  1.00  0.00    -0.152 A  
HETATM    7  C   UNL     1     -10.102   6.618  73.298  1.00  0.00    -0.212 A  
HETATM    8  N   UNL     1     -11.309   7.254  73.385  1.00  0.00    -0.560 NA 
HETATM    9  C   UNL     1     -11.441   8.163  72.363  1.00  0.00    -0.397 A  
HETATM   10  H   UNL     1     -12.009   7.078  74.104  1.00  0.00     0.000 HD 
HETATM   11  C   UNL     1     -10.310   8.043  71.557  1.00  0.00    -0.258 A  
HETATM   12  C   UNL     1     -10.231   8.836  70.393  1.00  0.00    -0.228 A  
HETATM   13  C   UNL     1     -11.256   9.756  70.091  1.00  0.00    -0.324 A  
HETATM   14  C   UNL     1     -12.466   9.078  72.101  1.00  0.00    -0.450 A  
HETATM   15  C   UNL     1     -12.349   9.879  70.960  1.00  0.00    -0.451 A  
BRANCH  13  16
HETATM   16  C   UNL     1     -11.180  10.593  68.839  1.00  0.00    -0.275 C  
BRANCH  16  17
HETATM   17  N   UNL     1      -9.831  10.948  68.425  1.00  0.00    -0.170 NA 
HETATM   18  C   UNL     1      -8.898  10.224  67.750  1.00  0.00    -0.125 A  
HETATM   19  N   UNL     1      -7.816  10.948  67.570  1.00  0.00    -0.112 NA 
HETATM   20  C   UNL     1      -8.139  12.131  68.162  1.00  0.00    -0.161 A  
HETATM   21  N   UNL     1      -9.362  12.183  68.699  1.00  0.00    -0.091 NA 
ENDBRANCH  16  17
ENDBRANCH  13  16
ENDBRANCH   5   6
ENDBRANCH   4   5
ENDBRANCH   2   4
TORSDOF 5
ENDMDL
MODEL      215
REMARK 921   NORMALIZED FREE ENERGY PREDICTED BY IDOCK:   -3.19 KCAL/MOL
REMARK 922        TOTAL FREE ENERGY PREDICTED BY IDOCK:   -4.58 KCAL/MOL
REMARK 923 INTER-LIGAND FREE ENERGY PREDICTED BY IDOCK:   -4.13 KCAL/MOL
REMARK 924 INTRA-LIGAND FREE ENERGY PREDICTED BY IDOCK:   -0.44 KCAL/MOL
REMARK 927      BINDING AFFINITY PREDICTED BY RF-SCORE:    0.00 PKD
ROOT
HETATM    1  C   UNL     1     -10.262   3.964  64.354  1.00  0.00    -0.230 C  
HETATM    2  N   UNL     1      -8.928   4.438  64.739  1.00  0.00    -0.144 NA 
HETATM    3  C   UNL     1      -8.220   4.926  63.553  1.00  0.00    -0.111 C  
ENDROOT
BRANCH   2   4
HETATM    4  C   UNL     1      -9.058   5.476  65.783  1.00  0.00    -0.144 C  
BRANCH   4   5
HETATM    5  C   UNL     1      -8.277   6.770  65.496  1.00  0.00    -0.131 C  
BRANCH   5   6
HETATM    6  C   UNL     1      -7.860   7.494  66.744  1.00  0.00    -0.110 A  
HETATM    7  C   UNL     1      -6.659   7.345  67.411  1.00  0.00    -0.061 A  
HETATM    8  N   UNL     1      -6.628   8.235  68.448  1.00  0.00    -0.058 NA 
HETATM    9  C   UNL     1      -7.776   8.991  68.459  1.00  0.00    -0.097 A  
HETATM   10  H   UNL     1      -5.863   8.324  69.116  1.00  0.00     0.000 HD 
HETATM   11  C   UNL     1      -8.595   8.509  67.440  1.00  0.00    -0.127 A  
HETATM   12  C   UNL     1      -9.873   9.086  67.281  1.00  0.00    -0.252 A  
HETATM   13  C   UNL     1     -10.277  10.153  68.109  1.00  0.00    -0.200 A  
HETATM   14  C   UNL     1      -8.140  10.059  69.285  1.00  0.00    -0.141 A  
HETATM   15  C   UNL     1      -9.397  10.639  69.086  1.00  0.00    -0.174 A  
BRANCH  13  16
HETATM   16  C   UNL     1     -11.649  10.760  67.949  1.00  0.00    -0.128 C  
BRANCH  16  17
HETATM   17  N   UNL     1     -11.684  11.992  67.176  1.00  0.00    -0.566 NA 
HETATM   18  C   UNL     1     -11.482  12.204  65.847  1.00  0.00    -0.363 A  
HETATM   19  N   UNL     1     -11.631  13.480  65.571  1.00  0.00    -0.313 NA 
HETATM   20  C   UNL     1     -11.930  14.022  66.784  1.00  0.00    -0.444 A  
HETATM   21  N   UNL     1     -11.976  13.153  67.799  1.00  0.00    -0.339 NA 
ENDBRANCH  16  17
ENDBRANCH  13  16
ENDBRANCH   5   6
ENDBRANCH   4   5
ENDBRANCH   2   4
TORSDOF 5
ENDMDL
MODEL      216
REMARK 921   NORMALIZED FREE ENERGY PREDICTED BY IDOCK:   -3.17 KCAL/MOL
REMARK 922        TOTAL FREE ENERGY PREDICTED BY IDOCK:   -4.55 KCAL/MOL
REMARK 923 INTER-LIGAND FREE ENERGY PREDICTED BY IDOCK:   -4.06 KCAL/MOL
REMARK 924 INTRA-LIGAND FREE ENERGY PREDICTED BY IDOCK:   -0.50 KCAL/MOL
REMARK 927      BINDING AFFINITY PREDICTED BY RF-SCORE:    0.00 PKD
ROOT
HETATM    1  C   UNL     1      -8.039   8.077  64.514  1.00  0.00    -0.132 C  
HETATM    2  N   UNL     1      -8.189   9.486  64.132  1.00  0.00    -0.147 NA 
HETATM    3  C   UNL     1      -9.014   9.582  62.926  1.00  0.00    -0.213 C  
ENDROOT
BRANCH   2   4
HETATM    4  C   UNL     1      -8.760  10.244  65.266  1.00  0.00    -0.172 C  
BRANCH   4   5
HETATM    5  C   UNL     1     -10.160   9.780  65.702  1.00  0.00    -0.282 C  
BRANCH   5   6
HETATM    6  C   UNL     1     -10.524  10.231  67.087  1.00  0.00    -0.311 A  
HETATM    7  C   UNL     1     -11.388  11.259  67.410  1.00  0.00    -0.276 A  
HETATM    8  N   UNL     1     -11.518  11.304  68.770  1.00  0.00    -0.264 NA 
HETATM    9  C   UNL     1     -10.777  10.303  69.350  1.00  0.00    -0.241 A  
HETATM   10  H   UNL     1     -12.084  11.982  69.280  1.00  0.00     0.000 HD 
HETATM   11  C   UNL     1     -10.093   9.651  68.325  1.00  0.00    -0.203 A  
HETATM   12  C   UNL     1      -9.206   8.609  68.671  1.00  0.00    -0.138 A  
HETATM   13  C   UNL     1      -9.061   8.218  70.019  1.00  0.00    -0.150 A  
HETATM   14  C   UNL     1     -10.669   9.927  70.694  1.00  0.00    -0.372 A  
HETATM   15  C   UNL     1      -9.811   8.869  71.009  1.00  0.00    -0.321 A  
BRANCH  13  16
HETATM   16  C   UNL     1      -8.102   7.116  70.390  1.00  0.00    -0.118 C  
BRANCH  16  17
HETATM   17  N   UNL     1      -8.730   5.911  70.910  1.00  0.00    -0.130 NA 
HETATM   18  C   UNL     1      -8.870   5.474  72.191  1.00  0.00    -0.130 A  
HETATM   19  N   UNL     1      -9.524   4.335  72.205  1.00  0.00    -0.127 NA 
HETATM   20  C   UNL     1      -9.771   4.108  70.885  1.00  0.00    -0.189 A  
HETATM   21  N   UNL     1      -9.306   5.045  70.051  1.00  0.00    -0.140 NA 
ENDBRANCH  16  17
ENDBRANCH  13  16
ENDBRANCH   5   6
ENDBRANCH   4   5
ENDBRANCH   2   4
TORSDOF 5
ENDMDL
MODEL      217
REMARK 921   NORMALIZED FREE ENERGY PREDICTED BY IDOCK:   -3.14 KCAL/MOL
REMARK 922        TOTAL FREE ENERGY PREDICTED BY IDOCK:   -4.52 KCAL/MOL
REMARK 923 INTER-LIGAND FREE ENERGY PREDICTED BY IDOCK:   -3.91 KCAL/MOL
REMARK 924 INTRA-LIGAND FREE ENERGY PREDICTED BY IDOCK:   -0.61 KCAL/MOL
REMARK 927      BINDING AFFINITY PREDICTED BY RF-SCORE:    0.00 PKD
ROOT
HETATM    1  C   UNL     1     -11.176  10.277  67.280  1.00  0.00    -0.011 C  
HETATM    2  N   UNL     1     -12.033  11.335  67.827  1.00  0.00    -0.635 NA 
HETATM    3  C   UNL     1     -11.977  11.304  69.290  1.00  0.00    -0.342 C  
ENDROOT
BRANCH   2   4
HETATM    4  C   UNL     1     -11.614  12.641  67.276  1.00  0.00    -0.364 C  
BRANCH   4   5
HETATM    5  C   UNL     1     -10.749  13.486  68.226  1.00  0.00    -0.271 C  
BRANCH   5   6
HETATM    6  C   UNL     1      -9.296  13.500  67.843  1.00  0.00    -0.215 A  
HETATM    7  C   UNL     1      -8.668  14.450  67.060  1.00  0.00    -0.223 A  
HETATM    8  N   UNL     1      -7.335  14.156  67.011  1.00  0.00    -0.332 NA 
HETATM    9  C   UNL     1      -7.065  13.044  67.772  1.00  0.00    -0.139 A  
HETATM   10  H   UNL     1      -6.640  14.685  66.485  1.00  0.00     0.000 HD 
HETATM   11  C   UNL     1      -8.284  12.573  68.258  1.00  0.00    -0.168 A  
HETATM   12  C   UNL     1      -8.285  11.391  69.028  1.00  0.00     0.015 A  
HETATM   13  C   UNL     1      -7.071  10.740  69.330  1.00  0.00    -0.116 A  
HETATM   14  C   UNL     1      -5.843  12.432  68.068  1.00  0.00    -0.073 A  
HETATM   15  C   UNL     1      -5.865  11.281  68.863  1.00  0.00    -0.043 A  
BRANCH  13  16
HETATM   16  C   UNL     1      -7.073   9.468  70.139  1.00  0.00    -0.099 C  
BRANCH  16  17
HETATM   17  N   UNL     1      -8.353   8.777  70.185  1.00  0.00    -0.121 NA 
HETATM   18  C   UNL     1      -8.836   7.768  69.411  1.00  0.00    -0.139 A  
HETATM   19  N   UNL     1     -10.040   7.431  69.817  1.00  0.00    -0.189 NA 
HETATM   20  C   UNL     1     -10.257   8.277  70.862  1.00  0.00    -0.191 A  
HETATM   21  N   UNL     1      -9.254   9.119  71.129  1.00  0.00    -0.252 NA 
ENDBRANCH  16  17
ENDBRANCH  13  16
ENDBRANCH   5   6
ENDBRANCH   4   5
ENDBRANCH   2   4
TORSDOF 5
ENDMDL
MODEL      218
REMARK 921   NORMALIZED FREE ENERGY PREDICTED BY IDOCK:   -3.14 KCAL/MOL
REMARK 922        TOTAL FREE ENERGY PREDICTED BY IDOCK:   -4.52 KCAL/MOL
REMARK 923 INTER-LIGAND FREE ENERGY PREDICTED BY IDOCK:   -4.73 KCAL/MOL
REMARK 924 INTRA-LIGAND FREE ENERGY PREDICTED BY IDOCK:    0.21 KCAL/MOL
REMARK 927      BINDING AFFINITY PREDICTED BY RF-SCORE:    0.00 PKD
ROOT
HETATM    1  C   UNL     1     -10.811  18.916  67.913  1.00  0.00    -0.197 C  
HETATM    2  N   UNL     1      -9.627  18.262  67.344  1.00  0.00    -0.279 NA 
HETATM    3  C   UNL     1      -8.977  17.445  68.372  1.00  0.00    -0.277 C  
ENDROOT
BRANCH   2   4
HETATM    4  C   UNL     1     -10.025  17.467  66.162  1.00  0.00    -0.270 C  
BRANCH   4   5
HETATM    5  C   UNL     1      -9.292  16.123  66.023  1.00  0.00    -0.368 C  
BRANCH   5   6
HETATM    6  C   UNL     1     -10.192  15.005  65.579  1.00  0.00    -0.406 A  
HETATM    7  C   UNL     1     -11.315  15.129  64.784  1.00  0.00    -0.395 A  
HETATM    8  N   UNL     1     -11.810  13.880  64.538  1.00  0.00    -0.406 NA 
HETATM    9  C   UNL     1     -11.016  12.929  65.133  1.00  0.00    -0.289 A  
HETATM   10  H   UNL     1     -12.648  13.681  63.991  1.00  0.00     0.000 HD 
HETATM   11  C   UNL     1     -10.028  13.606  65.845  1.00  0.00    -0.304 A  
HETATM   12  C   UNL     1      -9.110  12.847  66.603  1.00  0.00    -0.181 A  
HETATM   13  C   UNL     1      -9.176  11.438  66.591  1.00  0.00    -0.191 A  
HETATM   14  C   UNL     1     -11.098  11.533  65.087  1.00  0.00    -0.260 A  
HETATM   15  C   UNL     1     -10.156  10.800  65.818  1.00  0.00    -0.320 A  
BRANCH  13  16
HETATM   16  C   UNL     1      -8.206  10.627  67.413  1.00  0.00    -0.115 C  
BRANCH  16  17
HETATM   17  N   UNL     1      -7.057  11.371  67.908  1.00  0.00    -0.072 NA 
HETATM   18  C   UNL     1      -6.416  11.304  69.106  1.00  0.00    -0.081 A  
HETATM   19  N   UNL     1      -5.408  12.147  69.121  1.00  0.00    -0.058 NA 
HETATM   20  C   UNL     1      -5.472  12.719  67.886  1.00  0.00    -0.108 A  
HETATM   21  N   UNL     1      -6.462  12.277  67.105  1.00  0.00    -0.148 NA 
ENDBRANCH  16  17
ENDBRANCH  13  16
ENDBRANCH   5   6
ENDBRANCH   4   5
ENDBRANCH   2   4
TORSDOF 5
ENDMDL
MODEL      219
REMARK 921   NORMALIZED FREE ENERGY PREDICTED BY IDOCK:   -3.11 KCAL/MOL
REMARK 922        TOTAL FREE ENERGY PREDICTED BY IDOCK:   -4.48 KCAL/MOL
REMARK 923 INTER-LIGAND FREE ENERGY PREDICTED BY IDOCK:   -3.91 KCAL/MOL
REMARK 924 INTRA-LIGAND FREE ENERGY PREDICTED BY IDOCK:   -0.57 KCAL/MOL
REMARK 927      BINDING AFFINITY PREDICTED BY RF-SCORE:    0.00 PKD
ROOT
HETATM    1  C   UNL     1     -10.143  10.026  66.145  1.00  0.00    -0.247 C  
HETATM    2  N   UNL     1      -8.765   9.700  66.527  1.00  0.00    -0.133 NA 
HETATM    3  C   UNL     1      -8.129  10.879  67.122  1.00  0.00    -0.127 C  
ENDROOT
BRANCH   2   4
HETATM    4  C   UNL     1      -8.770   8.541  67.444  1.00  0.00    -0.134 C  
BRANCH   4   5
HETATM    5  C   UNL     1     -10.170   8.093  67.896  1.00  0.00    -0.274 C  
BRANCH   5   6
HETATM    6  C   UNL     1     -10.464   8.435  69.329  1.00  0.00    -0.223 A  
HETATM    7  C   UNL     1     -10.801   9.683  69.817  1.00  0.00    -0.250 A  
HETATM    8  N   UNL     1     -11.070   9.566  71.152  1.00  0.00    -0.352 NA 
HETATM    9  C   UNL     1     -10.944   8.256  71.548  1.00  0.00    -0.254 A  
HETATM   10  H   UNL     1     -11.327  10.339  71.764  1.00  0.00     0.000 HD 
HETATM   11  C   UNL     1     -10.505   7.532  70.441  1.00  0.00    -0.227 A  
HETATM   12  C   UNL     1     -10.238   6.156  70.605  1.00  0.00    -0.250 A  
HETATM   13  C   UNL     1     -10.460   5.535  71.852  1.00  0.00    -0.282 A  
HETATM   14  C   UNL     1     -11.191   7.666  72.793  1.00  0.00    -0.431 A  
HETATM   15  C   UNL     1     -10.953   6.294  72.922  1.00  0.00    -0.283 A  
BRANCH  13  16
HETATM   16  C   UNL     1     -10.161   4.068  72.032  1.00  0.00    -0.157 C  
BRANCH  16  17
HETATM   17  N   UNL     1      -8.788   3.686  71.737  1.00  0.00    -0.097 NA 
HETATM   18  C   UNL     1      -8.287   2.898  70.748  1.00  0.00    -0.053 A  
HETATM   19  N   UNL     1      -6.978   2.837  70.845  1.00  0.00    -0.032 NA 
HETATM   20  C   UNL     1      -6.716   3.619  71.929  1.00  0.00    -0.019 A  
HETATM   21  N   UNL     1      -7.790   4.163  72.510  1.00  0.00    -0.084 NA 
ENDBRANCH  16  17
ENDBRANCH  13  16
ENDBRANCH   5   6
ENDBRANCH   4   5
ENDBRANCH   2   4
TORSDOF 5
ENDMDL
MODEL      220
REMARK 921   NORMALIZED FREE ENERGY PREDICTED BY IDOCK:   -3.09 KCAL/MOL
REMARK 922        TOTAL FREE ENERGY PREDICTED BY IDOCK:   -4.45 KCAL/MOL
REMARK 923 INTER-LIGAND FREE ENERGY PREDICTED BY IDOCK:   -3.93 KCAL/MOL
REMARK 924 INTRA-LIGAND FREE ENERGY PREDICTED BY IDOCK:   -0.52 KCAL/MOL
REMARK 927      BINDING AFFINITY PREDICTED BY RF-SCORE:    0.00 PKD
ROOT
HETATM    1  C   UNL     1      -8.759   6.557  66.194  1.00  0.00    -0.147 C  
HETATM    2  N   UNL     1      -8.582   5.174  66.653  1.00  0.00    -0.110 NA 
HETATM    3  C   UNL     1      -8.986   4.249  65.592  1.00  0.00    -0.130 C  
ENDROOT
BRANCH   2   4
HETATM    4  C   UNL     1      -7.178   4.971  67.071  1.00  0.00    -0.077 C  
BRANCH   4   5
HETATM    5  C   UNL     1      -6.936   5.123  68.582  1.00  0.00    -0.056 C  
BRANCH   5   6
HETATM    6  C   UNL     1      -8.144   4.785  69.408  1.00  0.00    -0.070 A  
HETATM    7  C   UNL     1      -8.671   3.524  69.606  1.00  0.00    -0.074 A  
HETATM    8  N   UNL     1      -9.716   3.624  70.481  1.00  0.00    -0.182 NA 
HETATM    9  C   UNL     1      -9.869   4.928  70.889  1.00  0.00    -0.207 A  
HETATM   10  H   UNL     1     -10.297   2.845  70.788  1.00  0.00     0.000 HD 
HETATM   11  C   UNL     1      -8.938   5.691  70.187  1.00  0.00    -0.151 A  
HETATM   12  C   UNL     1      -8.933   7.088  70.384  1.00  0.00    -0.155 A  
HETATM   13  C   UNL     1      -9.822   7.677  71.307  1.00  0.00    -0.187 A  
HETATM   14  C   UNL     1     -10.752   5.479  71.824  1.00  0.00    -0.289 A  
HETATM   15  C   UNL     1     -10.705   6.863  72.029  1.00  0.00    -0.244 A  
BRANCH  13  16
HETATM   16  C   UNL     1      -9.827   9.172  71.506  1.00  0.00    -0.265 C  
BRANCH  16  17
HETATM   17  N   UNL     1     -10.939   9.867  70.875  1.00  0.00    -0.334 NA 
HETATM   18  C   UNL     1     -12.201  10.102  71.327  1.00  0.00    -0.398 A  
HETATM   19  N   UNL     1     -12.875  10.789  70.433  1.00  0.00    -0.278 NA 
HETATM   20  C   UNL     1     -11.968  10.955  69.430  1.00  0.00    -0.322 A  
HETATM   21  N   UNL     1     -10.768  10.411  69.653  1.00  0.00    -0.249 NA 
ENDBRANCH  16  17
ENDBRANCH  13  16
ENDBRANCH   5   6
ENDBRANCH   4   5
ENDBRANCH   2   4
TORSDOF 5
ENDMDL
MODEL      221
REMARK 921   NORMALIZED FREE ENERGY PREDICTED BY IDOCK:   -3.05 KCAL/MOL
REMARK 922        TOTAL FREE ENERGY PREDICTED BY IDOCK:   -4.41 KCAL/MOL
REMARK 923 INTER-LIGAND FREE ENERGY PREDICTED BY IDOCK:   -3.92 KCAL/MOL
REMARK 924 INTRA-LIGAND FREE ENERGY PREDICTED BY IDOCK:   -0.48 KCAL/MOL
REMARK 927      BINDING AFFINITY PREDICTED BY RF-SCORE:    0.00 PKD
ROOT
HETATM    1  C   UNL     1     -10.291   4.933  66.598  1.00  0.00    -0.242 C  
HETATM    2  N   UNL     1      -9.568   4.848  67.873  1.00  0.00    -0.139 NA 
HETATM    3  C   UNL     1      -9.322   3.443  68.205  1.00  0.00    -0.184 C  
ENDROOT
BRANCH   2   4
HETATM    4  C   UNL     1      -8.318   5.632  67.782  1.00  0.00    -0.100 C  
BRANCH   4   5
HETATM    5  C   UNL     1      -8.133   6.667  68.904  1.00  0.00    -0.116 C  
BRANCH   5   6
HETATM    6  C   UNL     1      -9.426   7.288  69.350  1.00  0.00    -0.154 A  
HETATM    7  C   UNL     1     -10.057   8.369  68.765  1.00  0.00    -0.196 A  
HETATM    8  N   UNL     1     -11.244   8.577  69.409  1.00  0.00    -0.431 NA 
HETATM    9  C   UNL     1     -11.422   7.632  70.392  1.00  0.00    -0.174 A  
HETATM   10  H   UNL     1     -11.902   9.324  69.193  1.00  0.00     0.000 HD 
HETATM   11  C   UNL     1     -10.271   6.847  70.421  1.00  0.00    -0.209 A  
HETATM   12  C   UNL     1     -10.179   5.831  71.396  1.00  0.00    -0.269 A  
HETATM   13  C   UNL     1     -11.253   5.598  72.281  1.00  0.00    -0.317 A  
HETATM   14  C   UNL     1     -12.511   7.416  71.244  1.00  0.00    -0.381 A  
HETATM   15  C   UNL     1     -12.411   6.380  72.179  1.00  0.00    -0.173 A  
BRANCH  13  16
HETATM   16  C   UNL     1     -11.148   4.523  73.333  1.00  0.00    -0.322 C  
BRANCH  16  17
HETATM   17  N   UNL     1     -10.123   3.522  73.081  1.00  0.00    -0.136 NA 
HETATM   18  C   UNL     1     -10.122   2.455  72.236  1.00  0.00    -0.155 A  
HETATM   19  N   UNL     1      -8.972   1.824  72.316  1.00  0.00    -0.068 NA 
HETATM   20  C   UNL     1      -8.287   2.553  73.239  1.00  0.00    -0.067 A  
HETATM   21  N   UNL     1      -8.946   3.604  73.737  1.00  0.00    -0.088 NA 
ENDBRANCH  16  17
ENDBRANCH  13  16
ENDBRANCH   5   6
ENDBRANCH   4   5
ENDBRANCH   2   4
TORSDOF 5
ENDMDL
MODEL      222
REMARK 921   NORMALIZED FREE ENERGY PREDICTED BY IDOCK:   -3.03 KCAL/MOL
REMARK 922        TOTAL FREE ENERGY PREDICTED BY IDOCK:   -4.38 KCAL/MOL
REMARK 923 INTER-LIGAND FREE ENERGY PREDICTED BY IDOCK:   -3.86 KCAL/MOL
REMARK 924 INTRA-LIGAND FREE ENERGY PREDICTED BY IDOCK:   -0.52 KCAL/MOL
REMARK 927      BINDING AFFINITY PREDICTED BY RF-SCORE:    0.00 PKD
ROOT
HETATM    1  C   UNL     1     -10.692   6.634  66.807  1.00  0.00    -0.259 C  
HETATM    2  N   UNL     1     -10.486   6.100  68.157  1.00  0.00    -0.202 NA 
HETATM    3  C   UNL     1      -9.117   5.594  68.281  1.00  0.00    -0.110 C  
ENDROOT
BRANCH   2   4
HETATM    4  C   UNL     1     -10.790   7.150  69.153  1.00  0.00    -0.162 C  
BRANCH   4   5
HETATM    5  C   UNL     1      -9.713   7.333  70.234  1.00  0.00    -0.175 C  
BRANCH   5   6
HETATM    6  C   UNL     1     -10.147   6.843  71.586  1.00  0.00    -0.201 A  
HETATM    7  C   UNL     1     -10.663   7.617  72.608  1.00  0.00    -0.321 A  
HETATM    8  N   UNL     1     -11.011   6.792  73.641  1.00  0.00    -0.509 NA 
HETATM    9  C   UNL     1     -10.762   5.482  73.307  1.00  0.00    -0.274 A  
HETATM   10  H   UNL     1     -11.400   7.104  74.530  1.00  0.00     0.000 HD 
HETATM   11  C   UNL     1     -10.162   5.486  72.049  1.00  0.00    -0.249 A  
HETATM   12  C   UNL     1      -9.749   4.253  71.502  1.00  0.00    -0.244 A  
HETATM   13  C   UNL     1      -9.986   3.051  72.202  1.00  0.00    -0.233 A  
HETATM   14  C   UNL     1     -11.027   4.308  74.019  1.00  0.00    -0.251 A  
HETATM   15  C   UNL     1     -10.640   3.094  73.441  1.00  0.00    -0.276 A  
BRANCH  13  16
HETATM   16  C   UNL     1      -9.530   1.735  71.625  1.00  0.00    -0.114 C  
BRANCH  16  17
HETATM   17  N   UNL     1      -8.978   1.817  70.282  1.00  0.00    -0.070 NA 
HETATM   18  C   UNL     1      -9.598   1.782  69.071  1.00  0.00    -0.041 A  
HETATM   19  N   UNL     1      -8.710   1.909  68.111  1.00  0.00    -0.078 NA 
HETATM   20  C   UNL     1      -7.537   2.022  68.793  1.00  0.00    -0.043 A  
HETATM   21  N   UNL     1      -7.647   1.973  70.124  1.00  0.00    -0.042 NA 
ENDBRANCH  16  17
ENDBRANCH  13  16
ENDBRANCH   5   6
ENDBRANCH   4   5
ENDBRANCH   2   4
TORSDOF 5
ENDMDL
MODEL      223
REMARK 921   NORMALIZED FREE ENERGY PREDICTED BY IDOCK:   -3.03 KCAL/MOL
REMARK 922        TOTAL FREE ENERGY PREDICTED BY IDOCK:   -4.37 KCAL/MOL
REMARK 923 INTER-LIGAND FREE ENERGY PREDICTED BY IDOCK:   -4.03 KCAL/MOL
REMARK 924 INTRA-LIGAND FREE ENERGY PREDICTED BY IDOCK:   -0.34 KCAL/MOL
REMARK 927      BINDING AFFINITY PREDICTED BY RF-SCORE:    0.00 PKD
ROOT
HETATM    1  C   UNL     1      -7.697  10.211  63.069  1.00  0.00    -0.149 C  
HETATM    2  N   UNL     1      -8.421   9.135  63.755  1.00  0.00    -0.187 NA 
HETATM    3  C   UNL     1      -7.721   7.864  63.551  1.00  0.00    -0.136 C  
ENDROOT
BRANCH   2   4
HETATM    4  C   UNL     1      -8.563   9.474  65.187  1.00  0.00    -0.162 C  
BRANCH   4   5
HETATM    5  C   UNL     1      -9.121   8.337  66.059  1.00  0.00    -0.228 C  
BRANCH   5   6
HETATM    6  C   UNL     1      -8.332   8.120  67.319  1.00  0.00    -0.121 A  
HETATM    7  C   UNL     1      -6.978   8.340  67.481  1.00  0.00    -0.075 A  
HETATM    8  N   UNL     1      -6.657   8.105  68.789  1.00  0.00    -0.052 NA 
HETATM    9  C   UNL     1      -7.782   7.763  69.500  1.00  0.00    -0.105 A  
HETATM   10  H   UNL     1      -5.718   8.175  69.180  1.00  0.00     0.000 HD 
HETATM   11  C   UNL     1      -8.839   7.704  68.593  1.00  0.00    -0.127 A  
HETATM   12  C   UNL     1     -10.108   7.310  69.070  1.00  0.00    -0.186 A  
HETATM   13  C   UNL     1     -10.295   7.033  70.441  1.00  0.00    -0.219 A  
HETATM   14  C   UNL     1      -7.939   7.512  70.867  1.00  0.00    -0.096 A  
HETATM   15  C   UNL     1      -9.213   7.157  71.323  1.00  0.00    -0.151 A  
BRANCH  13  16
HETATM   16  C   UNL     1     -11.646   6.596  70.948  1.00  0.00    -0.361 C  
BRANCH  16  17
HETATM   17  N   UNL     1     -12.573   7.683  71.225  1.00  0.00    -0.313 NA 
HETATM   18  C   UNL     1     -13.929   7.677  71.337  1.00  0.00    -0.343 A  
HETATM   19  N   UNL     1     -14.360   8.887  71.617  1.00  0.00    -0.295 NA 
HETATM   20  C   UNL     1     -13.210   9.615  71.669  1.00  0.00    -0.411 A  
HETATM   21  N   UNL     1     -12.089   8.925  71.438  1.00  0.00    -0.309 NA 
ENDBRANCH  16  17
ENDBRANCH  13  16
ENDBRANCH   5   6
ENDBRANCH   4   5
ENDBRANCH   2   4
TORSDOF 5
ENDMDL
MODEL      224
REMARK 921   NORMALIZED FREE ENERGY PREDICTED BY IDOCK:   -3.02 KCAL/MOL
REMARK 922        TOTAL FREE ENERGY PREDICTED BY IDOCK:   -4.36 KCAL/MOL
REMARK 923 INTER-LIGAND FREE ENERGY PREDICTED BY IDOCK:   -3.85 KCAL/MOL
REMARK 924 INTRA-LIGAND FREE ENERGY PREDICTED BY IDOCK:   -0.51 KCAL/MOL
REMARK 927      BINDING AFFINITY PREDICTED BY RF-SCORE:    0.00 PKD
ROOT
HETATM    1  C   UNL     1     -11.307  10.544  70.060  1.00  0.00    -0.318 C  
HETATM    2  N   UNL     1     -10.558   9.287  69.946  1.00  0.00    -0.217 NA 
HETATM    3  C   UNL     1     -11.186   8.264  70.786  1.00  0.00    -0.264 C  
ENDROOT
BRANCH   2   4
HETATM    4  C   UNL     1     -10.488   8.884  68.526  1.00  0.00    -0.182 C  
BRANCH   4   5
HETATM    5  C   UNL     1      -9.351   9.547  67.730  1.00  0.00    -0.143 C  
BRANCH   5   6
HETATM    6  C   UNL     1      -9.789  10.042  66.381  1.00  0.00    -0.283 A  
HETATM    7  C   UNL     1     -10.725  11.028  66.137  1.00  0.00    -0.194 A  
HETATM    8  N   UNL     1     -10.782  11.246  64.789  1.00  0.00    -0.305 NA 
HETATM    9  C   UNL     1      -9.878  10.440  64.140  1.00  0.00    -0.313 A  
HETATM   10  H   UNL     1     -11.405  11.910  64.332  1.00  0.00     0.000 HD 
HETATM   11  C   UNL     1      -9.283   9.629  65.105  1.00  0.00    -0.305 A  
HETATM   12  C   UNL     1      -8.349   8.660  64.680  1.00  0.00    -0.165 A  
HETATM   13  C   UNL     1      -8.003   8.558  63.316  1.00  0.00    -0.161 A  
HETATM   14  C   UNL     1      -9.543  10.377  62.783  1.00  0.00    -0.311 A  
HETATM   15  C   UNL     1      -8.589   9.432  62.390  1.00  0.00    -0.221 A  
BRANCH  13  16
HETATM   16  C   UNL     1      -7.018   7.512  62.860  1.00  0.00    -0.072 C  
BRANCH  16  17
HETATM   17  N   UNL     1      -7.431   6.138  63.104  1.00  0.00    -0.062 NA 
HETATM   18  C   UNL     1      -6.917   5.202  63.947  1.00  0.00    -0.048 A  
HETATM   19  N   UNL     1      -7.617   4.093  63.861  1.00  0.00    -0.072 NA 
HETATM   20  C   UNL     1      -8.567   4.402  62.936  1.00  0.00    -0.106 A  
HETATM   21  N   UNL     1      -8.498   5.643  62.443  1.00  0.00    -0.107 NA 
ENDBRANCH  16  17
ENDBRANCH  13  16
ENDBRANCH   5   6
ENDBRANCH   4   5
ENDBRANCH   2   4
TORSDOF 5
ENDMDL
MODEL      225
REMARK 921   NORMALIZED FREE ENERGY PREDICTED BY IDOCK:   -2.97 KCAL/MOL
REMARK 922        TOTAL FREE ENERGY PREDICTED BY IDOCK:   -4.29 KCAL/MOL
REMARK 923 INTER-LIGAND FREE ENERGY PREDICTED BY IDOCK:   -3.79 KCAL/MOL
REMARK 924 INTRA-LIGAND FREE ENERGY PREDICTED BY IDOCK:   -0.50 KCAL/MOL
REMARK 927      BINDING AFFINITY PREDICTED BY RF-SCORE:    0.00 PKD
ROOT
HETATM    1  C   UNL     1      -7.871   3.277  65.443  1.00  0.00    -0.082 C  
HETATM    2  N   UNL     1      -7.015   4.206  66.189  1.00  0.00    -0.064 NA 
HETATM    3  C   UNL     1      -6.454   5.201  65.270  1.00  0.00    -0.036 C  
ENDROOT
BRANCH   2   4
HETATM    4  C   UNL     1      -7.795   4.826  67.280  1.00  0.00    -0.094 C  
BRANCH   4   5
HETATM    5  C   UNL     1      -9.189   4.213  67.494  1.00  0.00    -0.184 C  
BRANCH   5   6
HETATM    6  C   UNL     1      -9.339   3.547  68.833  1.00  0.00    -0.236 A  
HETATM    7  C   UNL     1      -8.966   2.255  69.148  1.00  0.00    -0.109 A  
HETATM    8  N   UNL     1      -9.190   2.054  70.482  1.00  0.00    -0.100 NA 
HETATM    9  C   UNL     1      -9.678   3.202  71.059  1.00  0.00    -0.115 A  
HETATM   10  H   UNL     1      -9.019   1.179  70.976  1.00  0.00     0.000 HD 
HETATM   11  C   UNL     1      -9.841   4.138  70.039  1.00  0.00    -0.245 A  
HETATM   12  C   UNL     1     -10.392   5.395  70.367  1.00  0.00    -0.353 A  
HETATM   13  C   UNL     1     -10.720   5.698  71.705  1.00  0.00    -0.305 A  
HETATM   14  C   UNL     1      -9.977   3.478  72.398  1.00  0.00    -0.237 A  
HETATM   15  C   UNL     1     -10.489   4.743  72.705  1.00  0.00    -0.260 A  
BRANCH  13  16
HETATM   16  C   UNL     1     -11.324   7.035  72.054  1.00  0.00    -0.264 C  
BRANCH  16  17
HETATM   17  N   UNL     1     -10.803   8.157  71.287  1.00  0.00    -0.232 NA 
HETATM   18  C   UNL     1      -9.573   8.738  71.302  1.00  0.00    -0.253 A  
HETATM   19  N   UNL     1      -9.531   9.718  70.427  1.00  0.00    -0.214 NA 
HETATM   20  C   UNL     1     -10.782   9.700  69.890  1.00  0.00    -0.252 A  
HETATM   21  N   UNL     1     -11.599   8.762  70.381  1.00  0.00    -0.159 NA 
ENDBRANCH  16  17
ENDBRANCH  13  16
ENDBRANCH   5   6
ENDBRANCH   4   5
ENDBRANCH   2   4
TORSDOF 5
ENDMDL
MODEL      226
REMARK 921   NORMALIZED FREE ENERGY PREDICTED BY IDOCK:   -2.91 KCAL/MOL
REMARK 922        TOTAL FREE ENERGY PREDICTED BY IDOCK:   -4.22 KCAL/MOL
REMARK 923 INTER-LIGAND FREE ENERGY PREDICTED BY IDOCK:   -3.67 KCAL/MOL
REMARK 924 INTRA-LIGAND FREE ENERGY PREDICTED BY IDOCK:   -0.54 KCAL/MOL
REMARK 927      BINDING AFFINITY PREDICTED BY RF-SCORE:    0.00 PKD
ROOT
HETATM    1  C   UNL     1     -10.862  10.280  70.204  1.00  0.00    -0.302 C  
HETATM    2  N   UNL     1     -11.250   8.997  70.801  1.00  0.00    -0.263 NA 
HETATM    3  C   UNL     1     -12.595   9.108  71.372  1.00  0.00    -0.323 C  
ENDROOT
BRANCH   2   4
HETATM    4  C   UNL     1     -11.159   7.932  69.779  1.00  0.00    -0.075 C  
BRANCH   4   5
HETATM    5  C   UNL     1     -11.726   6.573  70.224  1.00  0.00    -0.430 C  
BRANCH   5   6
HETATM    6  C   UNL     1     -10.706   5.704  70.903  1.00  0.00    -0.313 A  
HETATM    7  C   UNL     1     -10.334   5.768  72.232  1.00  0.00    -0.202 A  
HETATM    8  N   UNL     1      -9.444   4.761  72.481  1.00  0.00    -0.134 NA 
HETATM    9  C   UNL     1      -9.243   4.014  71.344  1.00  0.00    -0.129 A  
HETATM   10  H   UNL     1      -8.994   4.590  73.379  1.00  0.00     0.000 HD 
HETATM   11  C   UNL     1      -9.973   4.618  70.322  1.00  0.00    -0.309 A  
HETATM   12  C   UNL     1      -9.885   4.069  69.024  1.00  0.00    -0.060 A  
HETATM   13  C   UNL     1      -9.111   2.913  68.795  1.00  0.00    -0.212 A  
HETATM   14  C   UNL     1      -8.481   2.857  71.153  1.00  0.00    -0.095 A  
HETATM   15  C   UNL     1      -8.436   2.311  69.866  1.00  0.00    -0.087 A  
BRANCH  13  16
HETATM   16  C   UNL     1      -9.004   2.336  67.406  1.00  0.00    -0.152 C  
BRANCH  16  17
HETATM   17  N   UNL     1      -8.643   3.296  66.373  1.00  0.00    -0.115 NA 
HETATM   18  C   UNL     1      -7.494   4.001  66.189  1.00  0.00    -0.088 A  
HETATM   19  N   UNL     1      -7.594   4.744  65.109  1.00  0.00    -0.076 NA 
HETATM   20  C   UNL     1      -8.846   4.455  64.656  1.00  0.00    -0.147 A  
HETATM   21  N   UNL     1      -9.528   3.573  65.393  1.00  0.00    -0.161 NA 
ENDBRANCH  16  17
ENDBRANCH  13  16
ENDBRANCH   5   6
ENDBRANCH   4   5
ENDBRANCH   2   4
TORSDOF 5
ENDMDL
MODEL      227
REMARK 921   NORMALIZED FREE ENERGY PREDICTED BY IDOCK:   -2.81 KCAL/MOL
REMARK 922        TOTAL FREE ENERGY PREDICTED BY IDOCK:   -4.09 KCAL/MOL
REMARK 923 INTER-LIGAND FREE ENERGY PREDICTED BY IDOCK:   -3.60 KCAL/MOL
REMARK 924 INTRA-LIGAND FREE ENERGY PREDICTED BY IDOCK:   -0.49 KCAL/MOL
REMARK 927      BINDING AFFINITY PREDICTED BY RF-SCORE:    0.00 PKD
ROOT
HETATM    1  C   UNL     1     -11.558  12.879  65.520  1.00  0.00    -0.358 C  
HETATM    2  N   UNL     1     -11.069  13.608  66.695  1.00  0.00    -0.302 NA 
HETATM    3  C   UNL     1     -10.888  15.022  66.355  1.00  0.00    -0.326 C  
ENDROOT
BRANCH   2   4
HETATM    4  C   UNL     1     -12.009  13.416  67.820  1.00  0.00    -0.324 C  
BRANCH   4   5
HETATM    5  C   UNL     1     -11.380  13.591  69.212  1.00  0.00    -0.317 C  
BRANCH   5   6
HETATM    6  C   UNL     1     -11.492  12.361  70.067  1.00  0.00    -0.110 A  
HETATM    7  C   UNL     1     -12.394  12.160  71.094  1.00  0.00    -0.160 A  
HETATM    8  N   UNL     1     -12.232  10.889  71.569  1.00  0.00    -0.229 NA 
HETATM    9  C   UNL     1     -11.258  10.236  70.853  1.00  0.00    -0.233 A  
HETATM   10  H   UNL     1     -12.758  10.484  72.342  1.00  0.00     0.000 HD 
HETATM   11  C   UNL     1     -10.732  11.152  69.944  1.00  0.00     0.033 A  
HETATM   12  C   UNL     1      -9.662  10.739  69.122  1.00  0.00    -0.181 A  
HETATM   13  C   UNL     1      -9.180   9.416  69.197  1.00  0.00    -0.155 A  
HETATM   14  C   UNL     1     -10.814   8.912  70.939  1.00  0.00    -0.308 A  
HETATM   15  C   UNL     1      -9.776   8.515  70.090  1.00  0.00    -0.175 A  
BRANCH  13  16
HETATM   16  C   UNL     1      -8.026   8.979  68.330  1.00  0.00    -0.104 C  
BRANCH  16  17
HETATM   17  N   UNL     1      -7.925   9.672  67.055  1.00  0.00    -0.108 NA 
HETATM   18  C   UNL     1      -8.683   9.561  65.930  1.00  0.00    -0.147 A  
HETATM   19  N   UNL     1      -8.247  10.397  65.014  1.00  0.00    -0.161 NA 
HETATM   20  C   UNL     1      -7.202  11.012  65.635  1.00  0.00     0.154 A  
HETATM   21  N   UNL     1      -6.965  10.605  66.885  1.00  0.00    -0.094 NA 
ENDBRANCH  16  17
ENDBRANCH  13  16
ENDBRANCH   5   6
ENDBRANCH   4   5
ENDBRANCH   2   4
TORSDOF 5
ENDMDL
MODEL      228
REMARK 921   NORMALIZED FREE ENERGY PREDICTED BY IDOCK:   -2.81 KCAL/MOL
REMARK 922        TOTAL FREE ENERGY PREDICTED BY IDOCK:   -4.09 KCAL/MOL
REMARK 923 INTER-LIGAND FREE ENERGY PREDICTED BY IDOCK:   -3.71 KCAL/MOL
REMARK 924 INTRA-LIGAND FREE ENERGY PREDICTED BY IDOCK:   -0.38 KCAL/MOL
REMARK 927      BINDING AFFINITY PREDICTED BY RF-SCORE:    0.00 PKD
ROOT
HETATM    1  C   UNL     1      -7.820   4.138  66.973  1.00  0.00    -0.096 C  
HETATM    2  N   UNL     1      -6.634   4.093  66.110  1.00  0.00    -0.041 NA 
HETATM    3  C   UNL     1      -6.621   2.835  65.359  1.00  0.00    -0.035 C  
ENDROOT
BRANCH   2   4
HETATM    4  C   UNL     1      -6.625   5.277  65.224  1.00  0.00    -0.040 C  
BRANCH   4   5
HETATM    5  C   UNL     1      -7.155   6.564  65.877  1.00  0.00    -0.062 C  
BRANCH   5   6
HETATM    6  C   UNL     1      -7.713   7.541  64.882  1.00  0.00    -0.115 A  
HETATM    7  C   UNL     1      -7.884   7.321  63.529  1.00  0.00    -0.108 A  
HETATM    8  N   UNL     1      -8.494   8.417  62.986  1.00  0.00    -0.399 NA 
HETATM    9  C   UNL     1      -8.756   9.347  63.964  1.00  0.00    -0.200 A  
HETATM   10  H   UNL     1      -8.721   8.528  61.999  1.00  0.00     0.000 HD 
HETATM   11  C   UNL     1      -8.224   8.853  65.154  1.00  0.00    -0.143 A  
HETATM   12  C   UNL     1      -8.310   9.659  66.309  1.00  0.00    -0.117 A  
HETATM   13  C   UNL     1      -8.964  10.908  66.256  1.00  0.00    -0.188 A  
HETATM   14  C   UNL     1      -9.426  10.572  63.881  1.00  0.00    -0.338 A  
HETATM   15  C   UNL     1      -9.530  11.338  65.048  1.00  0.00    -0.237 A  
BRANCH  13  16
HETATM   16  C   UNL     1      -9.043  11.775  67.486  1.00  0.00    -0.175 C  
BRANCH  16  17
HETATM   17  N   UNL     1     -10.367  11.869  68.082  1.00  0.00    -0.193 NA 
HETATM   18  C   UNL     1     -11.376  10.958  68.131  1.00  0.00    -0.315 A  
HETATM   19  N   UNL     1     -12.397  11.457  68.791  1.00  0.00    -0.419 NA 
HETATM   20  C   UNL     1     -11.959  12.700  69.135  1.00  0.00    -0.243 A  
HETATM   21  N   UNL     1     -10.722  13.000  68.726  1.00  0.00    -0.244 NA 
ENDBRANCH  16  17
ENDBRANCH  13  16
ENDBRANCH   5   6
ENDBRANCH   4   5
ENDBRANCH   2   4
TORSDOF 5
ENDMDL
MODEL      229
REMARK 921   NORMALIZED FREE ENERGY PREDICTED BY IDOCK:   -2.79 KCAL/MOL
REMARK 922        TOTAL FREE ENERGY PREDICTED BY IDOCK:   -4.06 KCAL/MOL
REMARK 923 INTER-LIGAND FREE ENERGY PREDICTED BY IDOCK:   -3.78 KCAL/MOL
REMARK 924 INTRA-LIGAND FREE ENERGY PREDICTED BY IDOCK:   -0.28 KCAL/MOL
REMARK 927      BINDING AFFINITY PREDICTED BY RF-SCORE:    0.00 PKD
ROOT
HETATM    1  C   UNL     1      -8.956   5.822  65.732  1.00  0.00    -0.135 C  
HETATM    2  N   UNL     1      -9.105   4.963  66.913  1.00  0.00    -0.116 NA 
HETATM    3  C   UNL     1      -9.589   3.643  66.501  1.00  0.00    -0.138 C  
ENDROOT
BRANCH   2   4
HETATM    4  C   UNL     1      -7.816   4.890  67.633  1.00  0.00    -0.094 C  
BRANCH   4   5
HETATM    5  C   UNL     1      -7.885   5.324  69.107  1.00  0.00    -0.085 C  
BRANCH   5   6
HETATM    6  C   UNL     1      -9.199   5.953  69.474  1.00  0.00    -0.149 A  
HETATM    7  C   UNL     1     -10.342   5.284  69.869  1.00  0.00    -0.304 A  
HETATM    8  N   UNL     1     -11.293   6.210  70.193  1.00  0.00    -0.393 NA 
HETATM    9  C   UNL     1     -10.789   7.480  70.047  1.00  0.00    -0.249 A  
HETATM   10  H   UNL     1     -12.240   5.989  70.499  1.00  0.00     0.000 HD 
HETATM   11  C   UNL     1      -9.497   7.353  69.539  1.00  0.00    -0.155 A  
HETATM   12  C   UNL     1      -8.778   8.530  69.240  1.00  0.00    -0.133 A  
HETATM   13  C   UNL     1      -9.348   9.794  69.500  1.00  0.00    -0.226 A  
HETATM   14  C   UNL     1     -11.375   8.718  70.333  1.00  0.00    -0.213 A  
HETATM   15  C   UNL     1     -10.630   9.870  70.062  1.00  0.00    -0.335 A  
BRANCH  13  16
HETATM   16  C   UNL     1      -8.586  11.052  69.167  1.00  0.00     0.003 C  
BRANCH  16  17
HETATM   17  N   UNL     1      -9.189  11.873  68.128  1.00  0.00    -0.183 NA 
HETATM   18  C   UNL     1     -10.074  11.543  67.148  1.00  0.00    -0.197 A  
HETATM   19  N   UNL     1     -10.369  12.607  66.436  1.00  0.00    -0.245 NA 
HETATM   20  C   UNL     1      -9.629  13.585  67.028  1.00  0.00    -0.248 A  
HETATM   21  N   UNL     1      -8.890  13.187  68.069  1.00  0.00    -0.184 NA 
ENDBRANCH  16  17
ENDBRANCH  13  16
ENDBRANCH   5   6
ENDBRANCH   4   5
ENDBRANCH   2   4
TORSDOF 5
ENDMDL
MODEL      230
REMARK 921   NORMALIZED FREE ENERGY PREDICTED BY IDOCK:   -2.78 KCAL/MOL
REMARK 922        TOTAL FREE ENERGY PREDICTED BY IDOCK:   -4.06 KCAL/MOL
REMARK 923 INTER-LIGAND FREE ENERGY PREDICTED BY IDOCK:   -3.54 KCAL/MOL
REMARK 924 INTRA-LIGAND FREE ENERGY PREDICTED BY IDOCK:   -0.51 KCAL/MOL
REMARK 927      BINDING AFFINITY PREDICTED BY RF-SCORE:    0.00 PKD
ROOT
HETATM    1  C   UNL     1      -8.869   4.430  63.434  1.00  0.00    -0.131 C  
HETATM    2  N   UNL     1      -8.925   4.065  64.854  1.00  0.00    -0.128 NA 
HETATM    3  C   UNL     1      -7.682   3.391  65.236  1.00  0.00    -0.081 C  
ENDROOT
BRANCH   2   4
HETATM    4  C   UNL     1      -9.180   5.275  65.663  1.00  0.00    -0.136 C  
BRANCH   4   5
HETATM    5  C   UNL     1     -10.575   5.327  66.309  1.00  0.00    -0.308 C  
BRANCH   5   6
HETATM    6  C   UNL     1     -10.648   6.271  67.475  1.00  0.00    -0.348 A  
HETATM    7  C   UNL     1     -10.978   7.612  67.419  1.00  0.00    -0.042 A  
HETATM    8  N   UNL     1     -11.014   8.101  68.695  1.00  0.00    -0.415 NA 
HETATM    9  C   UNL     1     -10.742   7.099  69.595  1.00  0.00    -0.239 A  
HETATM   10  H   UNL     1     -11.214   9.069  68.943  1.00  0.00     0.000 HD 
HETATM   11  C   UNL     1     -10.448   5.953  68.858  1.00  0.00    -0.325 A  
HETATM   12  C   UNL     1     -10.073   4.786  69.557  1.00  0.00    -0.260 A  
HETATM   13  C   UNL     1     -10.047   4.782  70.968  1.00  0.00    -0.269 A  
HETATM   14  C   UNL     1     -10.743   7.123  70.994  1.00  0.00    -0.252 A  
HETATM   15  C   UNL     1     -10.402   5.944  71.667  1.00  0.00    -0.268 A  
BRANCH  13  16
HETATM   16  C   UNL     1      -9.630   3.541  71.715  1.00  0.00    -0.153 C  
BRANCH  16  17
HETATM   17  N   UNL     1      -8.215   3.216  71.617  1.00  0.00    -0.060 NA 
HETATM   18  C   UNL     1      -7.601   2.063  71.237  1.00  0.00    -0.036 A  
HETATM   19  N   UNL     1      -6.297   2.218  71.276  1.00  0.00    -0.018 NA 
HETATM   20  C   UNL     1      -6.155   3.507  71.693  1.00  0.00    -0.014 A  
HETATM   21  N   UNL     1      -7.299   4.162  71.913  1.00  0.00    -0.061 NA 
ENDBRANCH  16  17
ENDBRANCH  13  16
ENDBRANCH   5   6
ENDBRANCH   4   5
ENDBRANCH   2   4
TORSDOF 5
ENDMDL
MODEL      231
REMARK 921   NORMALIZED FREE ENERGY PREDICTED BY IDOCK:   -2.78 KCAL/MOL
REMARK 922        TOTAL FREE ENERGY PREDICTED BY IDOCK:   -4.06 KCAL/MOL
REMARK 923 INTER-LIGAND FREE ENERGY PREDICTED BY IDOCK:   -3.57 KCAL/MOL
REMARK 924 INTRA-LIGAND FREE ENERGY PREDICTED BY IDOCK:   -0.48 KCAL/MOL
REMARK 927      BINDING AFFINITY PREDICTED BY RF-SCORE:    0.00 PKD
ROOT
HETATM    1  C   UNL     1      -9.886   4.850  67.848  1.00  0.00    -0.143 C  
HETATM    2  N   UNL     1      -8.778   4.908  68.809  1.00  0.00    -0.092 NA 
HETATM    3  C   UNL     1      -7.844   3.810  68.547  1.00  0.00    -0.067 C  
ENDROOT
BRANCH   2   4
HETATM    4  C   UNL     1      -8.126   6.232  68.728  1.00  0.00    -0.109 C  
BRANCH   4   5
HETATM    5  C   UNL     1      -7.979   6.784  67.300  1.00  0.00    -0.114 C  
BRANCH   5   6
HETATM    6  C   UNL     1      -7.417   8.176  67.263  1.00  0.00    -0.090 A  
HETATM    7  C   UNL     1      -6.082   8.515  67.156  1.00  0.00    -0.055 A  
HETATM    8  N   UNL     1      -5.986   9.875  67.073  1.00  0.00    -0.051 NA 
HETATM    9  C   UNL     1      -7.239  10.441  67.093  1.00  0.00    -0.091 A  
HETATM   10  H   UNL     1      -5.113  10.396  67.005  1.00  0.00     0.000 HD 
HETATM   11  C   UNL     1      -8.155   9.405  67.273  1.00  0.00    -0.110 A  
HETATM   12  C   UNL     1      -9.522   9.735  67.389  1.00  0.00    -0.178 A  
HETATM   13  C   UNL     1      -9.940  11.077  67.276  1.00  0.00    -0.210 A  
HETATM   14  C   UNL     1      -7.623  11.780  66.959  1.00  0.00    -0.147 A  
HETATM   15  C   UNL     1      -8.987  12.078  67.042  1.00  0.00    -0.198 A  
BRANCH  13  16
HETATM   16  C   UNL     1     -11.399  11.431  67.415  1.00  0.00    -0.288 C  
BRANCH  16  17
HETATM   17  N   UNL     1     -11.832  11.706  68.777  1.00  0.00    -0.344 NA 
HETATM   18  C   UNL     1     -12.189  10.854  69.776  1.00  0.00    -0.311 A  
HETATM   19  N   UNL     1     -12.494  11.536  70.857  1.00  0.00    -0.389 NA 
HETATM   20  C   UNL     1     -12.305  12.827  70.466  1.00  0.00    -0.275 A  
HETATM   21  N   UNL     1     -11.898  12.985  69.203  1.00  0.00    -0.312 NA 
ENDBRANCH  16  17
ENDBRANCH  13  16
ENDBRANCH   5   6
ENDBRANCH   4   5
ENDBRANCH   2   4
TORSDOF 5
ENDMDL
MODEL      232
REMARK 921   NORMALIZED FREE ENERGY PREDICTED BY IDOCK:   -2.64 KCAL/MOL
REMARK 922        TOTAL FREE ENERGY PREDICTED BY IDOCK:   -3.87 KCAL/MOL
REMARK 923 INTER-LIGAND FREE ENERGY PREDICTED BY IDOCK:   -3.46 KCAL/MOL
REMARK 924 INTRA-LIGAND FREE ENERGY PREDICTED BY IDOCK:   -0.41 KCAL/MOL
REMARK 927      BINDING AFFINITY PREDICTED BY RF-SCORE:    0.00 PKD
ROOT
HETATM    1  C   UNL     1     -10.252   3.861  64.340  1.00  0.00    -0.230 C  
HETATM    2  N   UNL     1      -8.870   4.336  64.474  1.00  0.00    -0.137 NA 
HETATM    3  C   UNL     1      -8.515   5.146  63.306  1.00  0.00    -0.114 C  
ENDROOT
BRANCH   2   4
HETATM    4  C   UNL     1      -8.727   5.084  65.741  1.00  0.00    -0.135 C  
BRANCH   4   5
HETATM    5  C   UNL     1     -10.026   5.735  66.246  1.00  0.00    -0.129 C  
BRANCH   5   6
HETATM    6  C   UNL     1      -9.798   7.063  66.911  1.00  0.00    -0.259 A  
HETATM    7  C   UNL     1      -9.974   8.306  66.334  1.00  0.00    -0.194 A  
HETATM    8  N   UNL     1      -9.745   9.260  67.285  1.00  0.00    -0.158 NA 
HETATM    9  C   UNL     1      -9.448   8.668  68.489  1.00  0.00    -0.142 A  
HETATM   10  H   UNL     1      -9.788  10.265  67.124  1.00  0.00     0.000 HD 
HETATM   11  C   UNL     1      -9.413   7.291  68.273  1.00  0.00    -0.141 A  
HETATM   12  C   UNL     1      -9.066   6.453  69.354  1.00  0.00    -0.140 A  
HETATM   13  C   UNL     1      -8.811   7.006  70.626  1.00  0.00    -0.150 A  
HETATM   14  C   UNL     1      -9.217   9.246  69.742  1.00  0.00    -0.191 A  
HETATM   15  C   UNL     1      -8.910   8.392  70.807  1.00  0.00    -0.171 A  
BRANCH  13  16
HETATM   16  C   UNL     1      -8.425   6.112  71.777  1.00  0.00    -0.129 C  
BRANCH  16  17
HETATM   17  N   UNL     1      -9.532   5.703  72.629  1.00  0.00    -0.147 NA 
HETATM   18  C   UNL     1     -10.827   5.429  72.317  1.00  0.00    -0.227 A  
HETATM   19  N   UNL     1     -11.482   5.075  73.400  1.00  0.00    -0.281 NA 
HETATM   20  C   UNL     1     -10.528   5.147  74.370  1.00  0.00    -0.255 A  
HETATM   21  N   UNL     1      -9.317   5.525  73.949  1.00  0.00    -0.132 NA 
ENDBRANCH  16  17
ENDBRANCH  13  16
ENDBRANCH   5   6
ENDBRANCH   4   5
ENDBRANCH   2   4
TORSDOF 5
ENDMDL
MODEL      233
REMARK 921   NORMALIZED FREE ENERGY PREDICTED BY IDOCK:   -2.64 KCAL/MOL
REMARK 922        TOTAL FREE ENERGY PREDICTED BY IDOCK:   -3.87 KCAL/MOL
REMARK 923 INTER-LIGAND FREE ENERGY PREDICTED BY IDOCK:   -3.39 KCAL/MOL
REMARK 924 INTRA-LIGAND FREE ENERGY PREDICTED BY IDOCK:   -0.48 KCAL/MOL
REMARK 927      BINDING AFFINITY PREDICTED BY RF-SCORE:    0.00 PKD
ROOT
HETATM    1  C   UNL     1      -6.151   8.965  73.221  1.00  0.00    -0.005 C  
HETATM    2  N   UNL     1      -7.098   7.846  73.167  1.00  0.00    -0.088 NA 
HETATM    3  C   UNL     1      -6.372   6.580  73.294  1.00  0.00    -0.064 C  
ENDROOT
BRANCH   2   4
HETATM    4  C   UNL     1      -8.120   8.016  74.222  1.00  0.00    -0.258 C  
BRANCH   4   5
HETATM    5  C   UNL     1      -9.501   7.438  73.869  1.00  0.00    -0.312 C  
BRANCH   5   6
HETATM    6  C   UNL     1      -9.917   7.730  72.456  1.00  0.00    -0.284 A  
HETATM    7  C   UNL     1     -10.281   8.964  71.950  1.00  0.00    -0.333 A  
HETATM    8  N   UNL     1     -10.510   8.831  70.610  1.00  0.00    -0.200 NA 
HETATM    9  C   UNL     1     -10.275   7.535  70.214  1.00  0.00    -0.204 A  
HETATM   10  H   UNL     1     -10.812   9.583  69.992  1.00  0.00     0.000 HD 
HETATM   11  C   UNL     1      -9.961   6.807  71.360  1.00  0.00    -0.191 A  
HETATM   12  C   UNL     1      -9.733   5.420  71.229  1.00  0.00    -0.215 A  
HETATM   13  C   UNL     1      -9.779   4.811  69.958  1.00  0.00    -0.280 A  
HETATM   14  C   UNL     1     -10.311   6.965  68.937  1.00  0.00    -0.198 A  
HETATM   15  C   UNL     1     -10.046   5.595  68.827  1.00  0.00    -0.245 A  
BRANCH  13  16
HETATM   16  C   UNL     1      -9.551   3.327  69.819  1.00  0.00    -0.087 C  
BRANCH  16  17
HETATM   17  N   UNL     1      -9.228   2.642  71.062  1.00  0.00    -0.116 NA 
HETATM   18  C   UNL     1      -8.023   2.393  71.643  1.00  0.00    -0.048 A  
HETATM   19  N   UNL     1      -8.197   1.757  72.779  1.00  0.00    -0.052 NA 
HETATM   20  C   UNL     1      -9.552   1.636  72.856  1.00  0.00    -0.081 A  
HETATM   21  N   UNL     1     -10.228   2.163  71.830  1.00  0.00    -0.125 NA 
ENDBRANCH  16  17
ENDBRANCH  13  16
ENDBRANCH   5   6
ENDBRANCH   4   5
ENDBRANCH   2   4
TORSDOF 5
ENDMDL
MODEL      234
REMARK 921   NORMALIZED FREE ENERGY PREDICTED BY IDOCK:   -2.56 KCAL/MOL
REMARK 922        TOTAL FREE ENERGY PREDICTED BY IDOCK:   -3.77 KCAL/MOL
REMARK 923 INTER-LIGAND FREE ENERGY PREDICTED BY IDOCK:   -3.25 KCAL/MOL
REMARK 924 INTRA-LIGAND FREE ENERGY PREDICTED BY IDOCK:   -0.52 KCAL/MOL
REMARK 927      BINDING AFFINITY PREDICTED BY RF-SCORE:    0.00 PKD
ROOT
HETATM    1  C   UNL     1     -10.598   8.956  67.696  1.00  0.00    -0.224 C  
HETATM    2  N   UNL     1      -9.739   8.029  66.950  1.00  0.00    -0.204 NA 
HETATM    3  C   UNL     1     -10.458   6.774  66.716  1.00  0.00    -0.228 C  
ENDROOT
BRANCH   2   4
HETATM    4  C   UNL     1      -9.301   8.669  65.692  1.00  0.00    -0.103 C  
BRANCH   4   5
HETATM    5  C   UNL     1      -7.776   8.710  65.496  1.00  0.00    -0.092 C  
BRANCH   5   6
HETATM    6  C   UNL     1      -7.067   9.499  66.561  1.00  0.00    -0.085 A  
HETATM    7  C   UNL     1      -6.012   9.059  67.336  1.00  0.00    -0.050 A  
HETATM    8  N   UNL     1      -5.595  10.093  68.126  1.00  0.00    -0.038 NA 
HETATM    9  C   UNL     1      -6.339  11.219  67.865  1.00  0.00    -0.054 A  
HETATM   10  H   UNL     1      -4.841  10.037  68.809  1.00  0.00     0.000 HD 
HETATM   11  C   UNL     1      -7.311  10.862  66.932  1.00  0.00    -0.128 A  
HETATM   12  C   UNL     1      -8.251  11.838  66.539  1.00  0.00    -0.066 A  
HETATM   13  C   UNL     1      -8.167  13.150  67.051  1.00  0.00    -0.062 A  
HETATM   14  C   UNL     1      -6.218  12.515  68.377  1.00  0.00    -0.058 A  
HETATM   15  C   UNL     1      -7.139  13.475  67.947  1.00  0.00    -0.140 A  
BRANCH  13  16
HETATM   16  C   UNL     1      -9.181  14.189  66.644  1.00  0.00    -0.252 C  
BRANCH  16  17
HETATM   17  N   UNL     1     -10.275  14.374  67.585  1.00  0.00    -0.229 NA 
HETATM   18  C   UNL     1     -10.922  13.472  68.371  1.00  0.00    -0.266 A  
HETATM   19  N   UNL     1     -11.842  14.081  69.086  1.00  0.00    -0.329 NA 
HETATM   20  C   UNL     1     -11.719  15.381  68.697  1.00  0.00    -0.354 A  
HETATM   21  N   UNL     1     -10.773  15.613  67.782  1.00  0.00    -0.290 NA 
ENDBRANCH  16  17
ENDBRANCH  13  16
ENDBRANCH   5   6
ENDBRANCH   4   5
ENDBRANCH   2   4
TORSDOF 5
ENDMDL
MODEL      235
REMARK 921   NORMALIZED FREE ENERGY PREDICTED BY IDOCK:   -2.53 KCAL/MOL
REMARK 922        TOTAL FREE ENERGY PREDICTED BY IDOCK:   -3.73 KCAL/MOL
REMARK 923 INTER-LIGAND FREE ENERGY PREDICTED BY IDOCK:   -3.80 KCAL/MOL
REMARK 924 INTRA-LIGAND FREE ENERGY PREDICTED BY IDOCK:    0.07 KCAL/MOL
REMARK 927      BINDING AFFINITY PREDICTED BY RF-SCORE:    0.00 PKD
ROOT
HETATM    1  C   UNL     1      -7.473   4.111  72.083  1.00  0.00    -0.070 C  
HETATM    2  N   UNL     1      -8.267   4.326  73.298  1.00  0.00    -0.090 NA 
HETATM    3  C   UNL     1      -7.630   5.353  74.125  1.00  0.00    -0.093 C  
ENDROOT
BRANCH   2   4
HETATM    4  C   UNL     1      -9.651   4.684  72.923  1.00  0.00    -0.131 C  
BRANCH   4   5
HETATM    5  C   UNL     1      -9.770   5.488  71.618  1.00  0.00    -0.203 C  
BRANCH   5   6
HETATM    6  C   UNL     1     -10.790   6.589  71.695  1.00  0.00    -0.281 A  
HETATM    7  C   UNL     1     -11.888   6.626  72.532  1.00  0.00    -0.113 A  
HETATM    8  N   UNL     1     -12.521   7.825  72.362  1.00  0.00    -0.534 NA 
HETATM    9  C   UNL     1     -11.842   8.594  71.447  1.00  0.00    -0.297 A  
HETATM   10  H   UNL     1     -13.373   8.108  72.843  1.00  0.00     0.000 HD 
HETATM   11  C   UNL     1     -10.785   7.822  70.965  1.00  0.00    -0.241 A  
HETATM   12  C   UNL     1      -9.963   8.370  69.958  1.00  0.00    -0.188 A  
HETATM   13  C   UNL     1     -10.188   9.683  69.494  1.00  0.00    -0.233 A  
HETATM   14  C   UNL     1     -12.080   9.905  71.021  1.00  0.00    -0.450 A  
HETATM   15  C   UNL     1     -11.230  10.440  70.047  1.00  0.00    -0.385 A  
BRANCH  13  16
HETATM   16  C   UNL     1      -9.319  10.263  68.407  1.00  0.00    -0.143 C  
BRANCH  16  17
HETATM   17  N   UNL     1      -7.972   9.715  68.346  1.00  0.00    -0.095 NA 
HETATM   18  C   UNL     1      -7.190   9.189  69.328  1.00  0.00    -0.065 A  
HETATM   19  N   UNL     1      -6.044   8.793  68.822  1.00  0.00    -0.044 NA 
HETATM   20  C   UNL     1      -6.171   9.101  67.501  1.00  0.00    -0.058 A  
HETATM   21  N   UNL     1      -7.333   9.665  67.158  1.00  0.00    -0.087 NA 
ENDBRANCH  16  17
ENDBRANCH  13  16
ENDBRANCH   5   6
ENDBRANCH   4   5
ENDBRANCH   2   4
TORSDOF 5
ENDMDL
MODEL      236
REMARK 921   NORMALIZED FREE ENERGY PREDICTED BY IDOCK:   -2.53 KCAL/MOL
REMARK 922        TOTAL FREE ENERGY PREDICTED BY IDOCK:   -3.72 KCAL/MOL
REMARK 923 INTER-LIGAND FREE ENERGY PREDICTED BY IDOCK:   -3.58 KCAL/MOL
REMARK 924 INTRA-LIGAND FREE ENERGY PREDICTED BY IDOCK:   -0.15 KCAL/MOL
REMARK 927      BINDING AFFINITY PREDICTED BY RF-SCORE:    0.00 PKD
ROOT
HETATM    1  C   UNL     1      -9.534   3.719  64.646  1.00  0.00    -0.165 C  
HETATM    2  N   UNL     1      -8.305   4.513  64.754  1.00  0.00    -0.111 NA 
HETATM    3  C   UNL     1      -7.583   4.475  63.480  1.00  0.00    -0.059 C  
ENDROOT
BRANCH   2   4
HETATM    4  C   UNL     1      -8.645   5.891  65.167  1.00  0.00    -0.091 C  
BRANCH   4   5
HETATM    5  C   UNL     1      -8.125   6.986  64.220  1.00  0.00    -0.040 C  
BRANCH   5   6
HETATM    6  C   UNL     1      -8.619   8.358  64.580  1.00  0.00    -0.046 A  
HETATM    7  C   UNL     1      -8.916   9.377  63.696  1.00  0.00    -0.115 A  
HETATM    8  N   UNL     1      -9.412  10.435  64.406  1.00  0.00    -0.261 NA 
HETATM    9  C   UNL     1      -9.474  10.121  65.743  1.00  0.00    -0.208 A  
HETATM   10  H   UNL     1      -9.694  11.327  64.003  1.00  0.00     0.000 HD 
HETATM   11  C   UNL     1      -8.927   8.848  65.892  1.00  0.00    -0.244 A  
HETATM   12  C   UNL     1      -8.819   8.315  67.195  1.00  0.00    -0.145 A  
HETATM   13  C   UNL     1      -9.301   9.045  68.301  1.00  0.00    -0.145 A  
HETATM   14  C   UNL     1      -9.977  10.863  66.818  1.00  0.00    -0.245 A  
HETATM   15  C   UNL     1      -9.891  10.299  68.095  1.00  0.00    -0.166 A  
BRANCH  13  16
HETATM   16  C   UNL     1      -9.172   8.483  69.694  1.00  0.00    -0.157 C  
BRANCH  16  17
HETATM   17  N   UNL     1     -10.435   8.177  70.348  1.00  0.00    -0.211 NA 
HETATM   18  C   UNL     1     -11.328   7.178  70.114  1.00  0.00    -0.241 A  
HETATM   19  N   UNL     1     -12.331   7.268  70.959  1.00  0.00    -0.322 NA 
HETATM   20  C   UNL     1     -12.003   8.358  71.706  1.00  0.00    -0.325 A  
HETATM   21  N   UNL     1     -10.851   8.950  71.374  1.00  0.00    -0.280 NA 
ENDBRANCH  16  17
ENDBRANCH  13  16
ENDBRANCH   5   6
ENDBRANCH   4   5
ENDBRANCH   2   4
TORSDOF 5
ENDMDL
MODEL      237
REMARK 921   NORMALIZED FREE ENERGY PREDICTED BY IDOCK:   -2.52 KCAL/MOL
REMARK 922        TOTAL FREE ENERGY PREDICTED BY IDOCK:   -3.71 KCAL/MOL
REMARK 923 INTER-LIGAND FREE ENERGY PREDICTED BY IDOCK:   -3.25 KCAL/MOL
REMARK 924 INTRA-LIGAND FREE ENERGY PREDICTED BY IDOCK:   -0.46 KCAL/MOL
REMARK 927      BINDING AFFINITY PREDICTED BY RF-SCORE:    0.00 PKD
ROOT
HETATM    1  C   UNL     1     -10.155   2.182  72.144  1.00  0.00    -0.158 C  
HETATM    2  N   UNL     1      -9.258   3.115  72.836  1.00  0.00    -0.090 NA 
HETATM    3  C   UNL     1      -8.044   2.409  73.252  1.00  0.00    -0.058 C  
ENDROOT
BRANCH   2   4
HETATM    4  C   UNL     1      -8.967   4.264  71.953  1.00  0.00    -0.120 C  
BRANCH   4   5
HETATM    5  C   UNL     1      -9.913   4.397  70.748  1.00  0.00    -0.247 C  
BRANCH   5   6
HETATM    6  C   UNL     1     -10.538   5.759  70.639  1.00  0.00    -0.346 A  
HETATM    7  C   UNL     1     -11.779   6.128  71.122  1.00  0.00    -0.132 A  
HETATM    8  N   UNL     1     -11.948   7.466  70.898  1.00  0.00    -0.406 NA 
HETATM    9  C   UNL     1     -10.828   7.993  70.302  1.00  0.00    -0.241 A  
HETATM   10  H   UNL     1     -12.785   7.996  71.139  1.00  0.00     0.000 HD 
HETATM   11  C   UNL     1      -9.950   6.936  70.070  1.00  0.00    -0.190 A  
HETATM   12  C   UNL     1      -8.736   7.208  69.404  1.00  0.00    -0.134 A  
HETATM   13  C   UNL     1      -8.413   8.530  69.032  1.00  0.00    -0.126 A  
HETATM   14  C   UNL     1     -10.530   9.317  69.960  1.00  0.00    -0.254 A  
HETATM   15  C   UNL     1      -9.305   9.568  69.333  1.00  0.00    -0.185 A  
BRANCH  13  16
HETATM   16  C   UNL     1      -7.123   8.820  68.306  1.00  0.00    -0.078 C  
BRANCH  16  17
HETATM   17  N   UNL     1      -7.284   9.251  66.926  1.00  0.00    -0.086 NA 
HETATM   18  C   UNL     1      -8.054   8.739  65.927  1.00  0.00    -0.110 A  
HETATM   19  N   UNL     1      -7.908   9.458  64.837  1.00  0.00    -0.112 NA 
HETATM   20  C   UNL     1      -7.022  10.419  65.222  1.00  0.00    -0.099 A  
HETATM   21  N   UNL     1      -6.612  10.338  66.492  1.00  0.00    -0.080 NA 
ENDBRANCH  16  17
ENDBRANCH  13  16
ENDBRANCH   5   6
ENDBRANCH   4   5
ENDBRANCH   2   4
TORSDOF 5
ENDMDL
MODEL      238
REMARK 921   NORMALIZED FREE ENERGY PREDICTED BY IDOCK:   -2.40 KCAL/MOL
REMARK 922        TOTAL FREE ENERGY PREDICTED BY IDOCK:   -3.57 KCAL/MOL
REMARK 923 INTER-LIGAND FREE ENERGY PREDICTED BY IDOCK:   -3.11 KCAL/MOL
REMARK 924 INTRA-LIGAND FREE ENERGY PREDICTED BY IDOCK:   -0.45 KCAL/MOL
REMARK 927      BINDING AFFINITY PREDICTED BY RF-SCORE:    0.00 PKD
ROOT
HETATM    1  C   UNL     1     -10.159   3.923  64.302  1.00  0.00    -0.211 C  
HETATM    2  N   UNL     1      -8.734   4.173  64.548  1.00  0.00    -0.123 NA 
HETATM    3  C   UNL     1      -8.087   4.594  63.303  1.00  0.00    -0.095 C  
ENDROOT
BRANCH   2   4
HETATM    4  C   UNL     1      -8.590   5.176  65.624  1.00  0.00    -0.139 C  
BRANCH   4   5
HETATM    5  C   UNL     1      -8.631   6.636  65.143  1.00  0.00     0.023 C  
BRANCH   5   6
HETATM    6  C   UNL     1      -7.912   7.579  66.065  1.00  0.00    -0.113 A  
HETATM    7  C   UNL     1      -6.649   8.105  65.872  1.00  0.00    -0.046 A  
HETATM    8  N   UNL     1      -6.385   8.981  66.887  1.00  0.00    -0.059 NA 
HETATM    9  C   UNL     1      -7.465   9.066  67.733  1.00  0.00    -0.085 A  
HETATM   10  H   UNL     1      -5.513   9.497  67.000  1.00  0.00     0.000 HD 
HETATM   11  C   UNL     1      -8.415   8.152  67.279  1.00  0.00    -0.125 A  
HETATM   12  C   UNL     1      -9.607   8.003  68.021  1.00  0.00    -0.170 A  
HETATM   13  C   UNL     1      -9.835   8.798  69.163  1.00  0.00    -0.181 A  
HETATM   14  C   UNL     1      -7.669   9.881  68.851  1.00  0.00    -0.085 A  
HETATM   15  C   UNL     1      -8.872   9.740  69.550  1.00  0.00    -0.202 A  
BRANCH  13  16
HETATM   16  C   UNL     1     -11.100   8.627  69.965  1.00  0.00    -0.157 C  
BRANCH  16  17
HETATM   17  N   UNL     1     -10.989   7.714  71.093  1.00  0.00    -0.243 NA 
HETATM   18  C   UNL     1     -11.024   7.959  72.431  1.00  0.00    -0.325 A  
HETATM   19  N   UNL     1     -10.904   6.831  73.094  1.00  0.00    -0.286 NA 
HETATM   20  C   UNL     1     -10.797   5.904  72.103  1.00  0.00    -0.241 A  
HETATM   21  N   UNL     1     -10.845   6.393  70.860  1.00  0.00    -0.249 NA 
ENDBRANCH  16  17
ENDBRANCH  13  16
ENDBRANCH   5   6
ENDBRANCH   4   5
ENDBRANCH   2   4
TORSDOF 5
ENDMDL
MODEL      239
REMARK 921   NORMALIZED FREE ENERGY PREDICTED BY IDOCK:   -2.40 KCAL/MOL
REMARK 922        TOTAL FREE ENERGY PREDICTED BY IDOCK:   -3.57 KCAL/MOL
REMARK 923 INTER-LIGAND FREE ENERGY PREDICTED BY IDOCK:   -3.02 KCAL/MOL
REMARK 924 INTRA-LIGAND FREE ENERGY PREDICTED BY IDOCK:   -0.55 KCAL/MOL
REMARK 927      BINDING AFFINITY PREDICTED BY RF-SCORE:    0.00 PKD
ROOT
HETATM    1  C   UNL     1     -10.198   1.891  72.225  1.00  0.00    -0.161 C  
HETATM    2  N   UNL     1      -9.635   3.234  72.401  1.00  0.00    -0.125 NA 
HETATM    3  C   UNL     1      -8.179   3.179  72.248  1.00  0.00    -0.067 C  
ENDROOT
BRANCH   2   4
HETATM    4  C   UNL     1     -10.267   4.162  71.440  1.00  0.00    -0.021 C  
BRANCH   4   5
HETATM    5  C   UNL     1     -11.060   5.308  72.089  1.00  0.00    -0.187 C  
BRANCH   5   6
HETATM    6  C   UNL     1     -10.180   6.362  72.697  1.00  0.00    -0.200 A  
HETATM    7  C   UNL     1     -10.048   6.639  74.044  1.00  0.00    -0.347 A  
HETATM    8  N   UNL     1      -9.094   7.606  74.196  1.00  0.00    -0.408 NA 
HETATM    9  C   UNL     1      -8.572   7.953  72.973  1.00  0.00    -0.188 A  
HETATM   10  H   UNL     1      -8.812   8.011  75.087  1.00  0.00     0.000 HD 
HETATM   11  C   UNL     1      -9.275   7.234  72.007  1.00  0.00    -0.149 A  
HETATM   12  C   UNL     1      -8.965   7.460  70.649  1.00  0.00    -0.155 A  
HETATM   13  C   UNL     1      -7.935   8.358  70.296  1.00  0.00    -0.102 A  
HETATM   14  C   UNL     1      -7.534   8.836  72.657  1.00  0.00     0.117 A  
HETATM   15  C   UNL     1      -7.221   9.017  71.305  1.00  0.00    -0.093 A  
BRANCH  13  16
HETATM   16  C   UNL     1      -7.615   8.611  68.845  1.00  0.00    -0.092 C  
BRANCH  16  17
HETATM   17  N   UNL     1      -8.698   9.206  68.076  1.00  0.00    -0.129 NA 
HETATM   18  C   UNL     1      -9.110  10.500  67.993  1.00  0.00    -0.138 A  
HETATM   19  N   UNL     1     -10.121  10.594  67.159  1.00  0.00    -0.198 NA 
HETATM   20  C   UNL     1     -10.296   9.307  66.746  1.00  0.00    -0.226 A  
HETATM   21  N   UNL     1      -9.449   8.420  67.277  1.00  0.00    -0.148 NA 
ENDBRANCH  16  17
ENDBRANCH  13  16
ENDBRANCH   5   6
ENDBRANCH   4   5
ENDBRANCH   2   4
TORSDOF 5
ENDMDL
MODEL      240
REMARK 921   NORMALIZED FREE ENERGY PREDICTED BY IDOCK:   -2.35 KCAL/MOL
REMARK 922        TOTAL FREE ENERGY PREDICTED BY IDOCK:   -3.50 KCAL/MOL
REMARK 923 INTER-LIGAND FREE ENERGY PREDICTED BY IDOCK:   -3.11 KCAL/MOL
REMARK 924 INTRA-LIGAND FREE ENERGY PREDICTED BY IDOCK:   -0.39 KCAL/MOL
REMARK 927      BINDING AFFINITY PREDICTED BY RF-SCORE:    0.00 PKD
ROOT
HETATM    1  C   UNL     1     -10.249   1.764  72.356  1.00  0.00    -0.155 C  
HETATM    2  N   UNL     1      -9.632   3.056  72.676  1.00  0.00    -0.109 NA 
HETATM    3  C   UNL     1      -8.175   2.910  72.705  1.00  0.00    -0.071 C  
ENDROOT
BRANCH   2   4
HETATM    4  C   UNL     1     -10.077   4.069  71.696  1.00  0.00    -0.113 C  
BRANCH   4   5
HETATM    5  C   UNL     1     -10.809   5.273  72.313  1.00  0.00    -0.269 C  
BRANCH   5   6
HETATM    6  C   UNL     1     -10.175   6.589  71.964  1.00  0.00    -0.212 A  
HETATM    7  C   UNL     1      -9.775   7.564  72.857  1.00  0.00    -0.207 A  
HETATM    8  N   UNL     1      -9.170   8.570  72.156  1.00  0.00    -0.249 NA 
HETATM    9  C   UNL     1      -9.138   8.262  70.817  1.00  0.00    -0.150 A  
HETATM   10  H   UNL     1      -8.798   9.425  72.568  1.00  0.00     0.000 HD 
HETATM   11  C   UNL     1      -9.814   7.054  70.657  1.00  0.00    -0.187 A  
HETATM   12  C   UNL     1      -9.974   6.546  69.350  1.00  0.00    -0.178 A  
HETATM   13  C   UNL     1      -9.416   7.231  68.250  1.00  0.00    -0.141 A  
HETATM   14  C   UNL     1      -8.558   8.956  69.749  1.00  0.00    -0.134 A  
HETATM   15  C   UNL     1      -8.699   8.415  68.467  1.00  0.00    -0.136 A  
BRANCH  13  16
HETATM   16  C   UNL     1      -9.600   6.696  66.852  1.00  0.00    -0.157 C  
BRANCH  16  17
HETATM   17  N   UNL     1      -9.110   5.341  66.648  1.00  0.00    -0.119 NA 
HETATM   18  C   UNL     1      -9.708   4.268  66.064  1.00  0.00    -0.211 A  
HETATM   19  N   UNL     1      -8.890   3.239  66.077  1.00  0.00    -0.132 NA 
HETATM   20  C   UNL     1      -7.782   3.739  66.691  1.00  0.00    -0.088 A  
HETATM   21  N   UNL     1      -7.865   5.022  67.058  1.00  0.00    -0.096 NA 
ENDBRANCH  16  17
ENDBRANCH  13  16
ENDBRANCH   5   6
ENDBRANCH   4   5
ENDBRANCH   2   4
TORSDOF 5
ENDMDL
MODEL      241
REMARK 921   NORMALIZED FREE ENERGY PREDICTED BY IDOCK:   -2.32 KCAL/MOL
REMARK 922        TOTAL FREE ENERGY PREDICTED BY IDOCK:   -3.45 KCAL/MOL
REMARK 923 INTER-LIGAND FREE ENERGY PREDICTED BY IDOCK:   -3.72 KCAL/MOL
REMARK 924 INTRA-LIGAND FREE ENERGY PREDICTED BY IDOCK:    0.27 KCAL/MOL
REMARK 927      BINDING AFFINITY PREDICTED BY RF-SCORE:    0.00 PKD
ROOT
HETATM    1  C   UNL     1     -10.678   8.624  71.977  1.00  0.00    -0.357 C  
HETATM    2  N   UNL     1      -9.267   8.461  71.607  1.00  0.00    -0.184 NA 
HETATM    3  C   UNL     1      -8.477   8.166  72.805  1.00  0.00    -0.188 C  
ENDROOT
BRANCH   2   4
HETATM    4  C   UNL     1      -9.147   7.403  70.581  1.00  0.00    -0.156 C  
BRANCH   4   5
HETATM    5  C   UNL     1      -7.708   6.928  70.321  1.00  0.00    -0.100 C  
BRANCH   5   6
HETATM    6  C   UNL     1      -7.190   7.331  68.970  1.00  0.00    -0.089 A  
HETATM    7  C   UNL     1      -6.054   6.845  68.352  1.00  0.00    -0.029 A  
HETATM    8  N   UNL     1      -5.971   7.396  67.104  1.00  0.00    -0.040 NA 
HETATM    9  C   UNL     1      -7.050   8.216  66.875  1.00  0.00    -0.078 A  
HETATM   10  H   UNL     1      -5.218   7.223  66.440  1.00  0.00     0.000 HD 
HETATM   11  C   UNL     1      -7.801   8.245  68.049  1.00  0.00    -0.118 A  
HETATM   12  C   UNL     1      -8.943   9.074  68.092  1.00  0.00    -0.133 A  
HETATM   13  C   UNL     1      -9.327   9.811  66.953  1.00  0.00    -0.184 A  
HETATM   14  C   UNL     1      -7.414   8.922  65.723  1.00  0.00    -0.089 A  
HETATM   15  C   UNL     1      -8.569   9.709  65.778  1.00  0.00    -0.149 A  
BRANCH  13  16
HETATM   16  C   UNL     1     -10.537  10.709  67.003  1.00  0.00    -0.262 C  
BRANCH  16  17
HETATM   17  N   UNL     1     -10.627  11.672  65.916  1.00  0.00    -0.264 NA 
HETATM   18  C   UNL     1     -10.280  12.987  65.873  1.00  0.00    -0.292 A  
HETATM   19  N   UNL     1     -10.516  13.473  64.675  1.00  0.00    -0.421 NA 
HETATM   20  C   UNL     1     -11.016  12.398  64.004  1.00  0.00    -0.391 A  
HETATM   21  N   UNL     1     -11.103  11.272  64.718  1.00  0.00    -0.194 NA 
ENDBRANCH  16  17
ENDBRANCH  13  16
ENDBRANCH   5   6
ENDBRANCH   4   5
ENDBRANCH   2   4
TORSDOF 5
ENDMDL
MODEL      242
REMARK 921   NORMALIZED FREE ENERGY PREDICTED BY IDOCK:   -2.30 KCAL/MOL
REMARK 922        TOTAL FREE ENERGY PREDICTED BY IDOCK:   -3.44 KCAL/MOL
REMARK 923 INTER-LIGAND FREE ENERGY PREDICTED BY IDOCK:   -4.05 KCAL/MOL
REMARK 924 INTRA-LIGAND FREE ENERGY PREDICTED BY IDOCK:    0.61 KCAL/MOL
REMARK 927      BINDING AFFINITY PREDICTED BY RF-SCORE:    0.00 PKD
ROOT
HETATM    1  C   UNL     1      -5.130  18.244  64.568  1.00  0.00    -0.003 C  
HETATM    2  N   UNL     1      -5.804  18.785  65.754  1.00  0.00    -0.166 NA 
HETATM    3  C   UNL     1      -7.234  18.941  65.478  1.00  0.00    -0.060 C  
ENDROOT
BRANCH   2   4
HETATM    4  C   UNL     1      -5.547  17.900  66.910  1.00  0.00    -0.143 C  
BRANCH   4   5
HETATM    5  C   UNL     1      -6.410  16.628  66.942  1.00  0.00    -0.208 C  
BRANCH   5   6
HETATM    6  C   UNL     1      -7.719  16.822  67.652  1.00  0.00    -0.183 A  
HETATM    7  C   UNL     1      -7.991  17.771  68.619  1.00  0.00    -0.276 A  
HETATM    8  N   UNL     1      -9.312  17.679  68.956  1.00  0.00    -0.143 NA 
HETATM    9  C   UNL     1      -9.926  16.703  68.207  1.00  0.00    -0.261 A  
HETATM   10  H   UNL     1      -9.775  18.251  69.661  1.00  0.00     0.000 HD 
HETATM   11  C   UNL     1      -8.940  16.106  67.423  1.00  0.00    -0.201 A  
HETATM   12  C   UNL     1      -9.308  15.021  66.598  1.00  0.00    -0.290 A  
HETATM   13  C   UNL     1     -10.652  14.596  66.544  1.00  0.00    -0.300 A  
HETATM   14  C   UNL     1     -11.270  16.316  68.163  1.00  0.00    -0.298 A  
HETATM   15  C   UNL     1     -11.617  15.262  67.311  1.00  0.00    -0.164 A  
BRANCH  13  16
HETATM   16  C   UNL     1     -11.042  13.427  65.675  1.00  0.00    -0.285 C  
BRANCH  16  17
HETATM   17  N   UNL     1     -10.201  12.249  65.824  1.00  0.00    -0.250 NA 
HETATM   18  C   UNL     1     -10.133  11.115  65.075  1.00  0.00    -0.283 A  
HETATM   19  N   UNL     1      -9.212  10.314  65.560  1.00  0.00    -0.176 NA 
HETATM   20  C   UNL     1      -8.732  11.011  66.627  1.00  0.00    -0.160 A  
HETATM   21  N   UNL     1      -9.303  12.203  66.831  1.00  0.00    -0.197 NA 
ENDBRANCH  16  17
ENDBRANCH  13  16
ENDBRANCH   5   6
ENDBRANCH   4   5
ENDBRANCH   2   4
TORSDOF 5
ENDMDL
MODEL      243
REMARK 921   NORMALIZED FREE ENERGY PREDICTED BY IDOCK:   -2.29 KCAL/MOL
REMARK 922        TOTAL FREE ENERGY PREDICTED BY IDOCK:   -3.42 KCAL/MOL
REMARK 923 INTER-LIGAND FREE ENERGY PREDICTED BY IDOCK:   -3.01 KCAL/MOL
REMARK 924 INTRA-LIGAND FREE ENERGY PREDICTED BY IDOCK:   -0.41 KCAL/MOL
REMARK 927      BINDING AFFINITY PREDICTED BY RF-SCORE:    0.00 PKD
ROOT
HETATM    1  C   UNL     1     -10.177   3.941  64.280  1.00  0.00    -0.226 C  
HETATM    2  N   UNL     1      -8.725   4.128  64.384  1.00  0.00    -0.124 NA 
HETATM    3  C   UNL     1      -8.176   4.451  63.065  1.00  0.00    -0.088 C  
ENDROOT
BRANCH   2   4
HETATM    4  C   UNL     1      -8.436   5.176  65.386  1.00  0.00    -0.141 C  
BRANCH   4   5
HETATM    5  C   UNL     1      -8.516   6.613  64.845  1.00  0.00     0.033 C  
BRANCH   5   6
HETATM    6  C   UNL     1      -7.533   7.543  65.499  1.00  0.00    -0.084 A  
HETATM    7  C   UNL     1      -6.323   7.953  64.973  1.00  0.00    -0.041 A  
HETATM    8  N   UNL     1      -5.764   8.858  65.830  1.00  0.00    -0.049 NA 
HETATM    9  C   UNL     1      -6.598   9.075  66.901  1.00  0.00    -0.064 A  
HETATM   10  H   UNL     1      -4.859   9.307  65.696  1.00  0.00     0.000 HD 
HETATM   11  C   UNL     1      -7.688   8.220  66.753  1.00  0.00    -0.094 A  
HETATM   12  C   UNL     1      -8.671   8.207  67.766  1.00  0.00    -0.130 A  
HETATM   13  C   UNL     1      -8.562   9.078  68.870  1.00  0.00    -0.131 A  
HETATM   14  C   UNL     1      -6.470   9.964  67.974  1.00  0.00    -0.056 A  
HETATM   15  C   UNL     1      -7.474   9.959  68.949  1.00  0.00    -0.081 A  
BRANCH  13  16
HETATM   16  C   UNL     1      -9.603   9.054  69.961  1.00  0.00    -0.186 C  
BRANCH  16  17
HETATM   17  N   UNL     1     -10.671  10.031  69.805  1.00  0.00    -0.251 NA 
HETATM   18  C   UNL     1     -11.196  10.590  68.682  1.00  0.00    -0.270 A  
HETATM   19  N   UNL     1     -12.166  11.415  69.005  1.00  0.00    -0.424 NA 
HETATM   20  C   UNL     1     -12.201  11.327  70.364  1.00  0.00    -0.365 A  
HETATM   21  N   UNL     1     -11.307  10.492  70.902  1.00  0.00    -0.237 NA 
ENDBRANCH  16  17
ENDBRANCH  13  16
ENDBRANCH   5   6
ENDBRANCH   4   5
ENDBRANCH   2   4
TORSDOF 5
ENDMDL
MODEL      244
REMARK 921   NORMALIZED FREE ENERGY PREDICTED BY IDOCK:   -2.28 KCAL/MOL
REMARK 922        TOTAL FREE ENERGY PREDICTED BY IDOCK:   -3.40 KCAL/MOL
REMARK 923 INTER-LIGAND FREE ENERGY PREDICTED BY IDOCK:   -3.16 KCAL/MOL
REMARK 924 INTRA-LIGAND FREE ENERGY PREDICTED BY IDOCK:   -0.25 KCAL/MOL
REMARK 927      BINDING AFFINITY PREDICTED BY RF-SCORE:    0.00 PKD
ROOT
HETATM    1  C   UNL     1      -5.813   4.964  67.197  1.00  0.00    -0.022 C  
HETATM    2  N   UNL     1      -5.510   5.089  68.627  1.00  0.00    -0.013 NA 
HETATM    3  C   UNL     1      -5.402   6.506  68.983  1.00  0.00    -0.013 C  
ENDROOT
BRANCH   2   4
HETATM    4  C   UNL     1      -6.547   4.389  69.413  1.00  0.00    -0.040 C  
BRANCH   4   5
HETATM    5  C   UNL     1      -6.555   4.737  70.911  1.00  0.00    -0.031 C  
BRANCH   5   6
HETATM    6  C   UNL     1      -7.940   4.872  71.476  1.00  0.00    -0.110 A  
HETATM    7  C   UNL     1      -8.338   4.524  72.752  1.00  0.00    -0.107 A  
HETATM    8  N   UNL     1      -9.650   4.875  72.906  1.00  0.00    -0.136 NA 
HETATM    9  C   UNL     1     -10.118   5.477  71.762  1.00  0.00    -0.196 A  
HETATM   10  H   UNL     1     -10.202   4.714  73.748  1.00  0.00     0.000 HD 
HETATM   11  C   UNL     1      -9.087   5.435  70.825  1.00  0.00    -0.168 A  
HETATM   12  C   UNL     1      -9.338   5.942  69.532  1.00  0.00    -0.156 A  
HETATM   13  C   UNL     1     -10.590   6.516  69.226  1.00  0.00    -0.292 A  
HETATM   14  C   UNL     1     -11.364   6.055  71.496  1.00  0.00    -0.309 A  
HETATM   15  C   UNL     1     -11.578   6.583  70.218  1.00  0.00    -0.473 A  
BRANCH  13  16
HETATM   16  C   UNL     1     -10.864   7.043  67.840  1.00  0.00    -0.183 C  
BRANCH  16  17
HETATM   17  N   UNL     1     -10.289   8.351  67.561  1.00  0.00    -0.248 NA 
HETATM   18  C   UNL     1     -10.834   9.593  67.670  1.00  0.00    -0.212 A  
HETATM   19  N   UNL     1      -9.947  10.501  67.330  1.00  0.00    -0.179 NA 
HETATM   20  C   UNL     1      -8.852   9.754  67.015  1.00  0.00    -0.135 A  
HETATM   21  N   UNL     1      -9.009   8.433  67.142  1.00  0.00    -0.135 NA 
ENDBRANCH  16  17
ENDBRANCH  13  16
ENDBRANCH   5   6
ENDBRANCH   4   5
ENDBRANCH   2   4
TORSDOF 5
ENDMDL
MODEL      245
REMARK 921   NORMALIZED FREE ENERGY PREDICTED BY IDOCK:   -2.25 KCAL/MOL
REMARK 922        TOTAL FREE ENERGY PREDICTED BY IDOCK:   -3.37 KCAL/MOL
REMARK 923 INTER-LIGAND FREE ENERGY PREDICTED BY IDOCK:   -2.90 KCAL/MOL
REMARK 924 INTRA-LIGAND FREE ENERGY PREDICTED BY IDOCK:   -0.47 KCAL/MOL
REMARK 927      BINDING AFFINITY PREDICTED BY RF-SCORE:    0.00 PKD
ROOT
HETATM    1  C   UNL     1     -10.609   6.472  66.892  1.00  0.00    -0.305 C  
HETATM    2  N   UNL     1     -10.257   6.492  68.316  1.00  0.00    -0.158 NA 
HETATM    3  C   UNL     1      -8.891   5.993  68.491  1.00  0.00    -0.112 C  
ENDROOT
BRANCH   2   4
HETATM    4  C   UNL     1     -10.427   7.862  68.845  1.00  0.00    -0.190 C  
BRANCH   4   5
HETATM    5  C   UNL     1     -10.634   8.940  67.767  1.00  0.00    -0.266 C  
BRANCH   5   6
HETATM    6  C   UNL     1      -9.657  10.076  67.876  1.00  0.00    -0.163 A  
HETATM    7  C   UNL     1      -9.762  11.165  68.719  1.00  0.00    -0.185 A  
HETATM    8  N   UNL     1      -8.638  11.930  68.580  1.00  0.00    -0.329 NA 
HETATM    9  C   UNL     1      -7.777  11.348  67.681  1.00  0.00    -0.121 A  
HETATM   10  H   UNL     1      -8.463  12.805  69.073  1.00  0.00     0.000 HD 
HETATM   11  C   UNL     1      -8.414  10.215  67.176  1.00  0.00    -0.125 A  
HETATM   12  C   UNL     1      -7.755   9.467  66.177  1.00  0.00    -0.100 A  
HETATM   13  C   UNL     1      -6.464   9.841  65.747  1.00  0.00    -0.083 A  
HETATM   14  C   UNL     1      -6.491  11.735  67.288  1.00  0.00    -0.131 A  
HETATM   15  C   UNL     1      -5.843  10.957  66.322  1.00  0.00    -0.139 A  
BRANCH  13  16
HETATM   16  C   UNL     1      -5.766   9.051  64.669  1.00  0.00    -0.063 C  
BRANCH  16  17
HETATM   17  N   UNL     1      -6.632   8.167  63.904  1.00  0.00    -0.067 NA 
HETATM   18  C   UNL     1      -7.366   8.406  62.783  1.00  0.00    -0.099 A  
HETATM   19  N   UNL     1      -7.990   7.310  62.415  1.00  0.00    -0.132 NA 
HETATM   20  C   UNL     1      -7.601   6.407  63.357  1.00  0.00    -0.087 A  
HETATM   21  N   UNL     1      -6.768   6.881  64.289  1.00  0.00    -0.044 NA 
ENDBRANCH  16  17
ENDBRANCH  13  16
ENDBRANCH   5   6
ENDBRANCH   4   5
ENDBRANCH   2   4
TORSDOF 5
ENDMDL
MODEL      246
REMARK 921   NORMALIZED FREE ENERGY PREDICTED BY IDOCK:   -2.23 KCAL/MOL
REMARK 922        TOTAL FREE ENERGY PREDICTED BY IDOCK:   -3.34 KCAL/MOL
REMARK 923 INTER-LIGAND FREE ENERGY PREDICTED BY IDOCK:   -2.88 KCAL/MOL
REMARK 924 INTRA-LIGAND FREE ENERGY PREDICTED BY IDOCK:   -0.46 KCAL/MOL
REMARK 927      BINDING AFFINITY PREDICTED BY RF-SCORE:    0.00 PKD
ROOT
HETATM    1  C   UNL     1     -10.379   5.176  71.817  1.00  0.00    -0.209 C  
HETATM    2  N   UNL     1     -10.758   6.543  71.440  1.00  0.00    -0.232 NA 
HETATM    3  C   UNL     1     -10.500   7.450  72.561  1.00  0.00    -0.236 C  
ENDROOT
BRANCH   2   4
HETATM    4  C   UNL     1     -10.027   6.936  70.217  1.00  0.00    -0.179 C  
BRANCH   4   5
HETATM    5  C   UNL     1      -9.884   5.817  69.173  1.00  0.00    -0.211 C  
BRANCH   5   6
HETATM    6  C   UNL     1      -8.584   5.875  68.423  1.00  0.00    -0.113 A  
HETATM    7  C   UNL     1      -7.589   4.916  68.438  1.00  0.00    -0.078 A  
HETATM    8  N   UNL     1      -6.608   5.298  67.566  1.00  0.00    -0.052 NA 
HETATM    9  C   UNL     1      -6.951   6.479  66.953  1.00  0.00    -0.067 A  
HETATM   10  H   UNL     1      -5.746   4.781  67.396  1.00  0.00     0.000 HD 
HETATM   11  C   UNL     1      -8.156   6.898  67.514  1.00  0.00    -0.116 A  
HETATM   12  C   UNL     1      -8.697   8.132  67.092  1.00  0.00    -0.130 A  
HETATM   13  C   UNL     1      -8.047   8.886  66.093  1.00  0.00    -0.114 A  
HETATM   14  C   UNL     1      -6.291   7.195  65.949  1.00  0.00    -0.044 A  
HETATM   15  C   UNL     1      -6.864   8.397  65.521  1.00  0.00    -0.070 A  
BRANCH  13  16
HETATM   16  C   UNL     1      -8.616  10.211  65.653  1.00  0.00    -0.155 C  
BRANCH  16  17
HETATM   17  N   UNL     1      -8.988  11.105  66.740  1.00  0.00    -0.160 NA 
HETATM   18  C   UNL     1      -8.229  11.965  67.472  1.00  0.00    -0.155 A  
HETATM   19  N   UNL     1      -8.983  12.595  68.344  1.00  0.00    -0.165 NA 
HETATM   20  C   UNL     1     -10.221  12.080  68.105  1.00  0.00    -0.201 A  
HETATM   21  N   UNL     1     -10.278  11.166  67.131  1.00  0.00    -0.194 NA 
ENDBRANCH  16  17
ENDBRANCH  13  16
ENDBRANCH   5   6
ENDBRANCH   4   5
ENDBRANCH   2   4
TORSDOF 5
ENDMDL
MODEL      247
REMARK 921   NORMALIZED FREE ENERGY PREDICTED BY IDOCK:   -2.22 KCAL/MOL
REMARK 922        TOTAL FREE ENERGY PREDICTED BY IDOCK:   -3.32 KCAL/MOL
REMARK 923 INTER-LIGAND FREE ENERGY PREDICTED BY IDOCK:   -3.08 KCAL/MOL
REMARK 924 INTRA-LIGAND FREE ENERGY PREDICTED BY IDOCK:   -0.24 KCAL/MOL
REMARK 927      BINDING AFFINITY PREDICTED BY RF-SCORE:    0.00 PKD
ROOT
HETATM    1  C   UNL     1      -5.820   4.983  67.186  1.00  0.00    -0.025 C  
HETATM    2  N   UNL     1      -5.563   5.238  68.608  1.00  0.00    -0.014 NA 
HETATM    3  C   UNL     1      -5.433   6.680  68.832  1.00  0.00    -0.016 C  
ENDROOT
BRANCH   2   4
HETATM    4  C   UNL     1      -6.645   4.638  69.418  1.00  0.00    -0.040 C  
BRANCH   4   5
HETATM    5  C   UNL     1      -6.733   5.171  70.858  1.00  0.00    -0.043 C  
BRANCH   5   6
HETATM    6  C   UNL     1      -8.146   5.366  71.327  1.00  0.00    -0.115 A  
HETATM    7  C   UNL     1      -8.605   5.212  72.621  1.00  0.00    -0.117 A  
HETATM    8  N   UNL     1      -9.927   5.558  72.655  1.00  0.00    -0.165 NA 
HETATM    9  C   UNL     1     -10.343   5.966  71.410  1.00  0.00    -0.218 A  
HETATM   10  H   UNL     1     -10.518   5.519  73.484  1.00  0.00     0.000 HD 
HETATM   11  C   UNL     1      -9.265   5.798  70.542  1.00  0.00    -0.168 A  
HETATM   12  C   UNL     1      -9.456   6.093  69.175  1.00  0.00    -0.144 A  
HETATM   13  C   UNL     1     -10.697   6.588  68.723  1.00  0.00    -0.320 A  
HETATM   14  C   UNL     1     -11.580   6.471  70.997  1.00  0.00    -0.405 A  
HETATM   15  C   UNL     1     -11.735   6.790  69.643  1.00  0.00    -0.164 A  
BRANCH  13  16
HETATM   16  C   UNL     1     -10.906   6.888  67.260  1.00  0.00    -0.356 C  
BRANCH  16  17
HETATM   17  N   UNL     1     -10.259   5.957  66.349  1.00  0.00    -0.144 NA 
HETATM   18  C   UNL     1      -9.056   6.035  65.718  1.00  0.00    -0.067 A  
HETATM   19  N   UNL     1      -8.859   4.954  64.997  1.00  0.00    -0.152 NA 
HETATM   20  C   UNL     1      -9.988   4.227  65.222  1.00  0.00    -0.219 A  
HETATM   21  N   UNL     1     -10.876   4.796  66.043  1.00  0.00    -0.191 NA 
ENDBRANCH  16  17
ENDBRANCH  13  16
ENDBRANCH   5   6
ENDBRANCH   4   5
ENDBRANCH   2   4
TORSDOF 5
ENDMDL
MODEL      248
REMARK 921   NORMALIZED FREE ENERGY PREDICTED BY IDOCK:   -2.12 KCAL/MOL
REMARK 922        TOTAL FREE ENERGY PREDICTED BY IDOCK:   -3.20 KCAL/MOL
REMARK 923 INTER-LIGAND FREE ENERGY PREDICTED BY IDOCK:   -2.70 KCAL/MOL
REMARK 924 INTRA-LIGAND FREE ENERGY PREDICTED BY IDOCK:   -0.50 KCAL/MOL
REMARK 927      BINDING AFFINITY PREDICTED BY RF-SCORE:    0.00 PKD
ROOT
HETATM    1  C   UNL     1     -10.722   9.849  69.923  1.00  0.00    -0.280 C  
HETATM    2  N   UNL     1     -10.737   8.477  70.443  1.00  0.00    -0.224 NA 
HETATM    3  C   UNL     1     -11.929   8.280  71.272  1.00  0.00    -0.287 C  
ENDROOT
BRANCH   2   4
HETATM    4  C   UNL     1     -10.673   7.524  69.315  1.00  0.00    -0.176 C  
BRANCH   4   5
HETATM    5  C   UNL     1      -9.386   6.682  69.266  1.00  0.00    -0.142 C  
BRANCH   5   6
HETATM    6  C   UNL     1      -8.418   7.150  68.217  1.00  0.00    -0.124 A  
HETATM    7  C   UNL     1      -7.764   8.366  68.194  1.00  0.00    -0.103 A  
HETATM    8  N   UNL     1      -6.910   8.378  67.127  1.00  0.00    -0.069 NA 
HETATM    9  C   UNL     1      -6.968   7.178  66.460  1.00  0.00    -0.076 A  
HETATM   10  H   UNL     1      -6.317   9.164  66.864  1.00  0.00     0.000 HD 
HETATM   11  C   UNL     1      -7.949   6.408  67.083  1.00  0.00    -0.112 A  
HETATM   12  C   UNL     1      -8.245   5.139  66.543  1.00  0.00    -0.108 A  
HETATM   13  C   UNL     1      -7.526   4.656  65.430  1.00  0.00    -0.081 A  
HETATM   14  C   UNL     1      -6.224   6.721  65.367  1.00  0.00    -0.039 A  
HETATM   15  C   UNL     1      -6.512   5.445  64.871  1.00  0.00    -0.039 A  
BRANCH  13  16
HETATM   16  C   UNL     1      -7.853   3.306  64.843  1.00  0.00    -0.082 C  
BRANCH  16  17
HETATM   17  N   UNL     1      -9.085   3.261  64.070  1.00  0.00    -0.100 NA 
HETATM   18  C   UNL     1      -9.590   4.143  63.166  1.00  0.00    -0.132 A  
HETATM   19  N   UNL     1     -10.729   3.692  62.690  1.00  0.00    -0.195 NA 
HETATM   20  C   UNL     1     -10.884   2.507  63.342  1.00  0.00    -0.210 A  
HETATM   21  N   UNL     1      -9.904   2.196  64.196  1.00  0.00    -0.125 NA 
ENDBRANCH  16  17
ENDBRANCH  13  16
ENDBRANCH   5   6
ENDBRANCH   4   5
ENDBRANCH   2   4
TORSDOF 5
ENDMDL
MODEL      249
REMARK 921   NORMALIZED FREE ENERGY PREDICTED BY IDOCK:   -2.07 KCAL/MOL
REMARK 922        TOTAL FREE ENERGY PREDICTED BY IDOCK:   -3.14 KCAL/MOL
REMARK 923 INTER-LIGAND FREE ENERGY PREDICTED BY IDOCK:   -2.93 KCAL/MOL
REMARK 924 INTRA-LIGAND FREE ENERGY PREDICTED BY IDOCK:   -0.21 KCAL/MOL
REMARK 927      BINDING AFFINITY PREDICTED BY RF-SCORE:    0.00 PKD
ROOT
HETATM    1  C   UNL     1      -8.847   5.279  65.511  1.00  0.00    -0.153 C  
HETATM    2  N   UNL     1      -8.820   4.310  66.613  1.00  0.00    -0.113 NA 
HETATM    3  C   UNL     1      -9.116   2.971  66.095  1.00  0.00    -0.141 C  
ENDROOT
BRANCH   2   4
HETATM    4  C   UNL     1      -7.508   4.372  67.291  1.00  0.00    -0.077 C  
BRANCH   4   5
HETATM    5  C   UNL     1      -7.580   4.294  68.825  1.00  0.00    -0.059 C  
BRANCH   5   6
HETATM    6  C   UNL     1      -8.791   4.977  69.392  1.00  0.00    -0.116 A  
HETATM    7  C   UNL     1      -9.786   4.383  70.145  1.00  0.00    -0.218 A  
HETATM    8  N   UNL     1     -10.665   5.351  70.540  1.00  0.00    -0.240 NA 
HETATM    9  C   UNL     1     -10.252   6.581  70.086  1.00  0.00    -0.192 A  
HETATM   10  H   UNL     1     -11.506   5.185  71.092  1.00  0.00     0.000 HD 
HETATM   11  C   UNL     1      -9.113   6.372  69.311  1.00  0.00    -0.136 A  
HETATM   12  C   UNL     1      -8.524   7.485  68.674  1.00  0.00    -0.129 A  
HETATM   13  C   UNL     1      -9.059   8.776  68.865  1.00  0.00    -0.141 A  
HETATM   14  C   UNL     1     -10.797   7.850  70.309  1.00  0.00    -0.241 A  
HETATM   15  C   UNL     1     -10.175   8.944  69.696  1.00  0.00    -0.209 A  
BRANCH  13  16
HETATM   16  C   UNL     1      -8.440   9.963  68.172  1.00  0.00    -0.114 C  
BRANCH  16  17
HETATM   17  N   UNL     1      -8.209   9.785  66.746  1.00  0.00    -0.119 NA 
HETATM   18  C   UNL     1      -7.466   8.856  66.084  1.00  0.00    -0.090 A  
HETATM   19  N   UNL     1      -7.554   9.056  64.788  1.00  0.00    -0.102 NA 
HETATM   20  C   UNL     1      -8.377  10.138  64.702  1.00  0.00    -0.166 A  
HETATM   21  N   UNL     1      -8.807  10.620  65.872  1.00  0.00    -0.168 NA 
ENDBRANCH  16  17
ENDBRANCH  13  16
ENDBRANCH   5   6
ENDBRANCH   4   5
ENDBRANCH   2   4
TORSDOF 5
ENDMDL
MODEL      250
REMARK 921   NORMALIZED FREE ENERGY PREDICTED BY IDOCK:   -2.07 KCAL/MOL
REMARK 922        TOTAL FREE ENERGY PREDICTED BY IDOCK:   -3.14 KCAL/MOL
REMARK 923 INTER-LIGAND FREE ENERGY PREDICTED BY IDOCK:   -2.65 KCAL/MOL
REMARK 924 INTRA-LIGAND FREE ENERGY PREDICTED BY IDOCK:   -0.48 KCAL/MOL
REMARK 927      BINDING AFFINITY PREDICTED BY RF-SCORE:    0.00 PKD
ROOT
HETATM    1  C   UNL     1     -10.152  10.074  66.107  1.00  0.00    -0.247 C  
HETATM    2  N   UNL     1      -8.735   9.721  66.246  1.00  0.00    -0.137 NA 
HETATM    3  C   UNL     1      -7.939  10.941  66.401  1.00  0.00    -0.157 C  
ENDROOT
BRANCH   2   4
HETATM    4  C   UNL     1      -8.569   8.792  67.383  1.00  0.00    -0.126 C  
BRANCH   4   5
HETATM    5  C   UNL     1      -7.338   7.875  67.283  1.00  0.00    -0.092 C  
BRANCH   5   6
HETATM    6  C   UNL     1      -7.682   6.416  67.381  1.00  0.00    -0.104 A  
HETATM    7  C   UNL     1      -7.844   5.543  66.323  1.00  0.00    -0.100 A  
HETATM    8  N   UNL     1      -8.070   4.292  66.825  1.00  0.00    -0.101 NA 
HETATM    9  C   UNL     1      -8.031   4.319  68.199  1.00  0.00    -0.078 A  
HETATM   10  H   UNL     1      -8.242   3.460  66.262  1.00  0.00     0.000 HD 
HETATM   11  C   UNL     1      -7.851   5.648  68.579  1.00  0.00    -0.096 A  
HETATM   12  C   UNL     1      -7.837   5.953  69.957  1.00  0.00    -0.100 A  
HETATM   13  C   UNL     1      -7.957   4.922  70.913  1.00  0.00    -0.084 A  
HETATM   14  C   UNL     1      -8.135   3.272  69.121  1.00  0.00    -0.072 A  
HETATM   15  C   UNL     1      -8.083   3.594  70.482  1.00  0.00    -0.062 A  
BRANCH  13  16
HETATM   16  C   UNL     1      -7.958   5.249  72.384  1.00  0.00    -0.103 C  
BRANCH  16  17
HETATM   17  N   UNL     1      -8.651   6.480  72.734  1.00  0.00    -0.124 NA 
HETATM   18  C   UNL     1      -8.159   7.695  73.098  1.00  0.00    -0.123 A  
HETATM   19  N   UNL     1      -9.148   8.534  73.307  1.00  0.00    -0.245 NA 
HETATM   20  C   UNL     1     -10.250   7.775  73.054  1.00  0.00    -0.330 A  
HETATM   21  N   UNL     1     -10.000   6.511  72.698  1.00  0.00    -0.170 NA 
ENDBRANCH  16  17
ENDBRANCH  13  16
ENDBRANCH   5   6
ENDBRANCH   4   5
ENDBRANCH   2   4
TORSDOF 5
ENDMDL
MODEL      251
REMARK 921   NORMALIZED FREE ENERGY PREDICTED BY IDOCK:   -2.06 KCAL/MOL
REMARK 922        TOTAL FREE ENERGY PREDICTED BY IDOCK:   -3.12 KCAL/MOL
REMARK 923 INTER-LIGAND FREE ENERGY PREDICTED BY IDOCK:   -2.64 KCAL/MOL
REMARK 924 INTRA-LIGAND FREE ENERGY PREDICTED BY IDOCK:   -0.48 KCAL/MOL
REMARK 927      BINDING AFFINITY PREDICTED BY RF-SCORE:    0.00 PKD
ROOT
HETATM    1  C   UNL     1     -10.636   8.699  67.702  1.00  0.00    -0.203 C  
HETATM    2  N   UNL     1     -10.084   7.340  67.702  1.00  0.00    -0.168 NA 
HETATM    3  C   UNL     1     -11.035   6.424  67.068  1.00  0.00    -0.389 C  
ENDROOT
BRANCH   2   4
HETATM    4  C   UNL     1      -8.770   7.344  67.025  1.00  0.00    -0.123 C  
BRANCH   4   5
HETATM    5  C   UNL     1      -7.632   6.706  67.839  1.00  0.00    -0.107 C  
BRANCH   5   6
HETATM    6  C   UNL     1      -7.234   7.524  69.035  1.00  0.00    -0.085 A  
HETATM    7  C   UNL     1      -7.077   7.060  70.326  1.00  0.00    -0.067 A  
HETATM    8  N   UNL     1      -6.630   8.090  71.105  1.00  0.00    -0.037 NA 
HETATM    9  C   UNL     1      -6.461   9.222  70.342  1.00  0.00    -0.064 A  
HETATM   10  H   UNL     1      -6.448   8.029  72.106  1.00  0.00     0.000 HD 
HETATM   11  C   UNL     1      -6.889   8.916  69.052  1.00  0.00    -0.059 A  
HETATM   12  C   UNL     1      -6.873   9.940  68.082  1.00  0.00    -0.064 A  
HETATM   13  C   UNL     1      -6.388  11.223  68.413  1.00  0.00    -0.046 A  
HETATM   14  C   UNL     1      -5.958  10.478  70.698  1.00  0.00    -0.104 A  
HETATM   15  C   UNL     1      -5.918  11.468  69.710  1.00  0.00    -0.116 A  
BRANCH  13  16
HETATM   16  C   UNL     1      -6.386  12.322  67.381  1.00  0.00    -0.152 C  
BRANCH  16  17
HETATM   17  N   UNL     1      -7.369  13.371  67.606  1.00  0.00    -0.155 NA 
HETATM   18  C   UNL     1      -7.223  14.724  67.631  1.00  0.00    -0.188 A  
HETATM   19  N   UNL     1      -8.386  15.295  67.850  1.00  0.00    -0.144 NA 
HETATM   20  C   UNL     1      -9.232  14.232  67.955  1.00  0.00    -0.194 A  
HETATM   21  N   UNL     1      -8.659  13.033  67.811  1.00  0.00    -0.175 NA 
ENDBRANCH  16  17
ENDBRANCH  13  16
ENDBRANCH   5   6
ENDBRANCH   4   5
ENDBRANCH   2   4
TORSDOF 5
ENDMDL
MODEL      252
REMARK 921   NORMALIZED FREE ENERGY PREDICTED BY IDOCK:   -2.04 KCAL/MOL
REMARK 922        TOTAL FREE ENERGY PREDICTED BY IDOCK:   -3.09 KCAL/MOL
REMARK 923 INTER-LIGAND FREE ENERGY PREDICTED BY IDOCK:   -2.59 KCAL/MOL
REMARK 924 INTRA-LIGAND FREE ENERGY PREDICTED BY IDOCK:   -0.51 KCAL/MOL
REMARK 927      BINDING AFFINITY PREDICTED BY RF-SCORE:    0.00 PKD
ROOT
HETATM    1  C   UNL     1      -7.881   5.933  65.994  1.00  0.00    -0.105 C  
HETATM    2  N   UNL     1      -7.900   4.474  65.840  1.00  0.00    -0.094 NA 
HETATM    3  C   UNL     1      -8.527   4.124  64.562  1.00  0.00    -0.107 C  
ENDROOT
BRANCH   2   4
HETATM    4  C   UNL     1      -6.523   3.949  65.953  1.00  0.00    -0.033 C  
BRANCH   4   5
HETATM    5  C   UNL     1      -6.145   3.451  67.357  1.00  0.00    -0.028 C  
BRANCH   5   6
HETATM    6  C   UNL     1      -7.335   3.028  68.171  1.00  0.00    -0.050 A  
HETATM    7  C   UNL     1      -7.963   1.799  68.122  1.00  0.00    -0.057 A  
HETATM    8  N   UNL     1      -8.947   1.778  69.069  1.00  0.00    -0.087 NA 
HETATM    9  C   UNL     1      -8.962   2.963  69.765  1.00  0.00    -0.104 A  
HETATM   10  H   UNL     1      -9.580   0.996  69.236  1.00  0.00     0.000 HD 
HETATM   11  C   UNL     1      -8.003   3.792  69.184  1.00  0.00    -0.059 A  
HETATM   12  C   UNL     1      -7.862   5.104  69.685  1.00  0.00    -0.072 A  
HETATM   13  C   UNL     1      -8.646   5.535  70.776  1.00  0.00    -0.128 A  
HETATM   14  C   UNL     1      -9.742   3.354  70.858  1.00  0.00    -0.200 A  
HETATM   15  C   UNL     1      -9.560   4.648  71.360  1.00  0.00    -0.230 A  
BRANCH  13  16
HETATM   16  C   UNL     1      -8.506   6.941  71.300  1.00  0.00    -0.120 C  
BRANCH  16  17
HETATM   17  N   UNL     1      -9.364   7.921  70.652  1.00  0.00    -0.158 NA 
HETATM   18  C   UNL     1     -10.095   7.832  69.508  1.00  0.00    -0.194 A  
HETATM   19  N   UNL     1     -10.743   8.956  69.302  1.00  0.00    -0.202 NA 
HETATM   20  C   UNL     1     -10.372   9.721  70.367  1.00  0.00    -0.293 A  
HETATM   21  N   UNL     1      -9.531   9.133  71.223  1.00  0.00    -0.268 NA 
ENDBRANCH  16  17
ENDBRANCH  13  16
ENDBRANCH   5   6
ENDBRANCH   4   5
ENDBRANCH   2   4
TORSDOF 5
ENDMDL
MODEL      253
REMARK 921   NORMALIZED FREE ENERGY PREDICTED BY IDOCK:   -2.03 KCAL/MOL
REMARK 922        TOTAL FREE ENERGY PREDICTED BY IDOCK:   -3.08 KCAL/MOL
REMARK 923 INTER-LIGAND FREE ENERGY PREDICTED BY IDOCK:   -2.45 KCAL/MOL
REMARK 924 INTRA-LIGAND FREE ENERGY PREDICTED BY IDOCK:   -0.62 KCAL/MOL
REMARK 927      BINDING AFFINITY PREDICTED BY RF-SCORE:    0.00 PKD
ROOT
HETATM    1  C   UNL     1     -11.075  10.121  70.099  1.00  0.00    -0.315 C  
HETATM    2  N   UNL     1     -10.395   8.876  69.723  1.00  0.00    -0.202 NA 
HETATM    3  C   UNL     1     -11.009   7.749  70.429  1.00  0.00    -0.249 C  
ENDROOT
BRANCH   2   4
HETATM    4  C   UNL     1     -10.444   8.714  68.255  1.00  0.00    -0.184 C  
BRANCH   4   5
HETATM    5  C   UNL     1      -9.074   8.786  67.560  1.00  0.00    -0.146 C  
BRANCH   5   6
HETATM    6  C   UNL     1      -8.676   7.492  66.909  1.00  0.00    -0.131 A  
HETATM    7  C   UNL     1      -8.677   7.226  65.553  1.00  0.00    -0.024 A  
HETATM    8  N   UNL     1      -8.173   5.971  65.358  1.00  0.00    -0.135 NA 
HETATM    9  C   UNL     1      -7.811   5.413  66.562  1.00  0.00    -0.100 A  
HETATM   10  H   UNL     1      -8.079   5.515  64.452  1.00  0.00     0.000 HD 
HETATM   11  C   UNL     1      -8.171   6.318  67.559  1.00  0.00    -0.113 A  
HETATM   12  C   UNL     1      -7.957   5.950  68.904  1.00  0.00    -0.102 A  
HETATM   13  C   UNL     1      -7.351   4.714  69.214  1.00  0.00    -0.052 A  
HETATM   14  C   UNL     1      -7.192   4.189  66.834  1.00  0.00    -0.068 A  
HETATM   15  C   UNL     1      -6.958   3.861  68.174  1.00  0.00    -0.051 A  
BRANCH  13  16
HETATM   16  C   UNL     1      -7.137   4.314  70.651  1.00  0.00    -0.041 C  
BRANCH  16  17
HETATM   17  N   UNL     1      -8.324   3.813  71.327  1.00  0.00    -0.071 NA 
HETATM   18  C   UNL     1      -9.012   4.317  72.387  1.00  0.00    -0.111 A  
HETATM   19  N   UNL     1     -10.041   3.546  72.659  1.00  0.00    -0.159 NA 
HETATM   20  C   UNL     1      -9.941   2.563  71.721  1.00  0.00    -0.124 A  
HETATM   21  N   UNL     1      -8.908   2.681  70.881  1.00  0.00    -0.075 NA 
ENDBRANCH  16  17
ENDBRANCH  13  16
ENDBRANCH   5   6
ENDBRANCH   4   5
ENDBRANCH   2   4
TORSDOF 5
ENDMDL
MODEL      254
REMARK 921   NORMALIZED FREE ENERGY PREDICTED BY IDOCK:   -1.97 KCAL/MOL
REMARK 922        TOTAL FREE ENERGY PREDICTED BY IDOCK:   -3.00 KCAL/MOL
REMARK 923 INTER-LIGAND FREE ENERGY PREDICTED BY IDOCK:   -2.48 KCAL/MOL
REMARK 924 INTRA-LIGAND FREE ENERGY PREDICTED BY IDOCK:   -0.53 KCAL/MOL
REMARK 927      BINDING AFFINITY PREDICTED BY RF-SCORE:    0.00 PKD
ROOT
HETATM    1  C   UNL     1     -10.748   3.735  63.729  1.00  0.00    -0.232 C  
HETATM    2  N   UNL     1      -9.702   2.709  63.815  1.00  0.00    -0.130 NA 
HETATM    3  C   UNL     1      -8.644   3.005  62.846  1.00  0.00    -0.085 C  
ENDROOT
BRANCH   2   4
HETATM    4  C   UNL     1      -9.193   2.641  65.201  1.00  0.00    -0.131 C  
BRANCH   4   5
HETATM    5  C   UNL     1      -8.236   3.781  65.585  1.00  0.00    -0.105 C  
BRANCH   5   6
HETATM    6  C   UNL     1      -7.319   3.423  66.718  1.00  0.00    -0.075 A  
HETATM    7  C   UNL     1      -6.048   2.892  66.603  1.00  0.00    -0.024 A  
HETATM    8  N   UNL     1      -5.510   2.784  67.855  1.00  0.00    -0.017 NA 
HETATM    9  C   UNL     1      -6.393   3.262  68.794  1.00  0.00    -0.029 A  
HETATM   10  H   UNL     1      -4.587   2.404  68.062  1.00  0.00     0.000 HD 
HETATM   11  C   UNL     1      -7.561   3.613  68.118  1.00  0.00    -0.061 A  
HETATM   12  C   UNL     1      -8.656   4.080  68.876  1.00  0.00    -0.112 A  
HETATM   13  C   UNL     1      -8.540   4.227  70.274  1.00  0.00    -0.102 A  
HETATM   14  C   UNL     1      -6.240   3.413  70.176  1.00  0.00    -0.027 A  
HETATM   15  C   UNL     1      -7.327   3.911  70.902  1.00  0.00    -0.037 A  
BRANCH  13  16
HETATM   16  C   UNL     1      -9.715   4.711  71.085  1.00  0.00    -0.181 C  
BRANCH  16  17
HETATM   17  N   UNL     1     -10.189   6.042  70.737  1.00  0.00    -0.196 NA 
HETATM   18  C   UNL     1     -11.395   6.450  70.259  1.00  0.00    -0.403 A  
HETATM   19  N   UNL     1     -11.396   7.755  70.102  1.00  0.00    -0.176 NA 
HETATM   20  C   UNL     1     -10.145   8.111  70.505  1.00  0.00    -0.192 A  
HETATM   21  N   UNL     1      -9.367   7.100  70.906  1.00  0.00    -0.160 NA 
ENDBRANCH  16  17
ENDBRANCH  13  16
ENDBRANCH   5   6
ENDBRANCH   4   5
ENDBRANCH   2   4
TORSDOF 5
ENDMDL
MODEL      255
REMARK 921   NORMALIZED FREE ENERGY PREDICTED BY IDOCK:   -1.93 KCAL/MOL
REMARK 922        TOTAL FREE ENERGY PREDICTED BY IDOCK:   -2.95 KCAL/MOL
REMARK 923 INTER-LIGAND FREE ENERGY PREDICTED BY IDOCK:   -2.91 KCAL/MOL
REMARK 924 INTRA-LIGAND FREE ENERGY PREDICTED BY IDOCK:   -0.03 KCAL/MOL
REMARK 927      BINDING AFFINITY PREDICTED BY RF-SCORE:    0.00 PKD
ROOT
HETATM    1  C   UNL     1     -10.534   5.670  66.824  1.00  0.00    -0.291 C  
HETATM    2  N   UNL     1      -9.923   6.073  68.096  1.00  0.00    -0.138 NA 
HETATM    3  C   UNL     1      -8.522   5.646  68.124  1.00  0.00    -0.098 C  
ENDROOT
BRANCH   2   4
HETATM    4  C   UNL     1     -10.070   7.533  68.271  1.00  0.00    -0.183 C  
BRANCH   4   5
HETATM    5  C   UNL     1     -10.535   8.283  67.011  1.00  0.00    -0.384 C  
BRANCH   5   6
HETATM    6  C   UNL     1      -9.540   9.302  66.533  1.00  0.00    -0.285 A  
HETATM    7  C   UNL     1      -9.581   9.980  65.330  1.00  0.00    -0.291 A  
HETATM    8  N   UNL     1      -8.550  10.876  65.304  1.00  0.00    -0.310 NA 
HETATM    9  C   UNL     1      -7.845  10.823  66.483  1.00  0.00    -0.145 A  
HETATM   10  H   UNL     1      -8.334  11.494  64.523  1.00  0.00     0.000 HD 
HETATM   11  C   UNL     1      -8.405   9.803  67.250  1.00  0.00    -0.121 A  
HETATM   12  C   UNL     1      -7.815   9.504  68.497  1.00  0.00    -0.085 A  
HETATM   13  C   UNL     1      -6.718  10.259  68.961  1.00  0.00    -0.055 A  
HETATM   14  C   UNL     1      -6.769  11.602  66.922  1.00  0.00    -0.124 A  
HETATM   15  C   UNL     1      -6.223  11.310  68.177  1.00  0.00    -0.049 A  
BRANCH  13  16
HETATM   16  C   UNL     1      -6.077   9.930  70.286  1.00  0.00    -0.074 C  
BRANCH  16  17
HETATM   17  N   UNL     1      -6.360   8.592  70.784  1.00  0.00    -0.038 NA 
HETATM   18  C   UNL     1      -5.809   7.394  70.449  1.00  0.00    -0.024 A  
HETATM   19  N   UNL     1      -6.353   6.436  71.166  1.00  0.00    -0.047 NA 
HETATM   20  C   UNL     1      -7.249   7.108  71.941  1.00  0.00    -0.080 A  
HETATM   21  N   UNL     1      -7.291   8.429  71.747  1.00  0.00    -0.093 NA 
ENDBRANCH  16  17
ENDBRANCH  13  16
ENDBRANCH   5   6
ENDBRANCH   4   5
ENDBRANCH   2   4
TORSDOF 5
ENDMDL
MODEL      256
REMARK 921   NORMALIZED FREE ENERGY PREDICTED BY IDOCK:   -1.90 KCAL/MOL
REMARK 922        TOTAL FREE ENERGY PREDICTED BY IDOCK:   -2.91 KCAL/MOL
REMARK 923 INTER-LIGAND FREE ENERGY PREDICTED BY IDOCK:   -2.54 KCAL/MOL
REMARK 924 INTRA-LIGAND FREE ENERGY PREDICTED BY IDOCK:   -0.37 KCAL/MOL
REMARK 927      BINDING AFFINITY PREDICTED BY RF-SCORE:    0.00 PKD
ROOT
HETATM    1  C   UNL     1      -8.352   5.067  64.113  1.00  0.00    -0.133 C  
HETATM    2  N   UNL     1      -8.656   5.102  65.548  1.00  0.00    -0.137 NA 
HETATM    3  C   UNL     1      -7.652   4.328  66.281  1.00  0.00    -0.089 C  
ENDROOT
BRANCH   2   4
HETATM    4  C   UNL     1      -8.723   6.508  66.001  1.00  0.00    -0.148 C  
BRANCH   4   5
HETATM    5  C   UNL     1     -10.132   7.123  65.962  1.00  0.00     0.493 C  
BRANCH   5   6
HETATM    6  C   UNL     1     -10.302   8.264  66.924  1.00  0.00    -0.391 A  
HETATM    7  C   UNL     1     -10.744   9.535  66.612  1.00  0.00    -0.016 A  
HETATM    8  N   UNL     1     -10.840  10.256  67.769  1.00  0.00    -0.273 NA 
HETATM    9  C   UNL     1     -10.497   9.472  68.845  1.00  0.00    -0.216 A  
HETATM   10  H   UNL     1     -11.125  11.232  67.826  1.00  0.00     0.000 HD 
HETATM   11  C   UNL     1     -10.095   8.236  68.342  1.00  0.00    -0.227 A  
HETATM   12  C   UNL     1      -9.631   7.263  69.252  1.00  0.00    -0.156 A  
HETATM   13  C   UNL     1      -9.625   7.533  70.637  1.00  0.00    -0.171 A  
HETATM   14  C   UNL     1     -10.519   9.765  70.213  1.00  0.00    -0.345 A  
HETATM   15  C   UNL     1     -10.088   8.772  71.099  1.00  0.00    -0.317 A  
BRANCH  13  16
HETATM   16  C   UNL     1      -9.114   6.499  71.608  1.00  0.00    -0.143 C  
BRANCH  16  17
HETATM   17  N   UNL     1      -7.664   6.407  71.695  1.00  0.00    -0.099 NA 
HETATM   18  C   UNL     1      -6.848   5.319  71.673  1.00  0.00    -0.057 A  
HETATM   19  N   UNL     1      -5.593   5.700  71.759  1.00  0.00    -0.020 NA 
HETATM   20  C   UNL     1      -5.691   7.057  71.834  1.00  0.00    -0.037 A  
HETATM   21  N   UNL     1      -6.937   7.540  71.797  1.00  0.00    -0.061 NA 
ENDBRANCH  16  17
ENDBRANCH  13  16
ENDBRANCH   5   6
ENDBRANCH   4   5
ENDBRANCH   2   4
TORSDOF 5
ENDMDL
MODEL      257
REMARK 921   NORMALIZED FREE ENERGY PREDICTED BY IDOCK:   -1.64 KCAL/MOL
REMARK 922        TOTAL FREE ENERGY PREDICTED BY IDOCK:   -2.58 KCAL/MOL
REMARK 923 INTER-LIGAND FREE ENERGY PREDICTED BY IDOCK:   -2.73 KCAL/MOL
REMARK 924 INTRA-LIGAND FREE ENERGY PREDICTED BY IDOCK:    0.15 KCAL/MOL
REMARK 927      BINDING AFFINITY PREDICTED BY RF-SCORE:    0.00 PKD
ROOT
HETATM    1  C   UNL     1     -10.861   8.115  67.533  1.00  0.00    -0.039 C  
HETATM    2  N   UNL     1      -9.574   7.412  67.575  1.00  0.00    -0.136 NA 
HETATM    3  C   UNL     1      -8.527   8.332  68.026  1.00  0.00    -0.132 C  
ENDROOT
BRANCH   2   4
HETATM    4  C   UNL     1      -9.691   6.223  68.446  1.00  0.00    -0.124 C  
BRANCH   4   5
HETATM    5  C   UNL     1     -10.170   4.951  67.726  1.00  0.00    -0.120 C  
BRANCH   5   6
HETATM    6  C   UNL     1      -9.540   3.698  68.264  1.00  0.00    -0.165 A  
HETATM    7  C   UNL     1      -9.234   2.563  67.539  1.00  0.00    -0.168 A  
HETATM    8  N   UNL     1      -8.600   1.680  68.367  1.00  0.00    -0.060 NA 
HETATM    9  C   UNL     1      -8.454   2.225  69.621  1.00  0.00    -0.048 A  
HETATM   10  H   UNL     1      -8.280   0.751  68.094  1.00  0.00     0.000 HD 
HETATM   11  C   UNL     1      -9.088   3.466  69.605  1.00  0.00    -0.202 A  
HETATM   12  C   UNL     1      -9.132   4.210  70.803  1.00  0.00    -0.175 A  
HETATM   13  C   UNL     1      -8.504   3.717  71.967  1.00  0.00    -0.098 A  
HETATM   14  C   UNL     1      -7.807   1.717  70.752  1.00  0.00    -0.036 A  
HETATM   15  C   UNL     1      -7.834   2.488  71.919  1.00  0.00    -0.052 A  
BRANCH  13  16
HETATM   16  C   UNL     1      -8.565   4.504  73.251  1.00  0.00    -0.101 C  
BRANCH  16  17
HETATM   17  N   UNL     1      -9.347   5.729  73.180  1.00  0.00    -0.140 NA 
HETATM   18  C   UNL     1      -8.949   7.030  73.184  1.00  0.00    -0.129 A  
HETATM   19  N   UNL     1      -9.996   7.818  73.082  1.00  0.00    -0.292 NA 
HETATM   20  C   UNL     1     -11.034   6.938  73.017  1.00  0.00    -0.274 A  
HETATM   21  N   UNL     1     -10.690   5.648  73.071  1.00  0.00    -0.236 NA 
ENDBRANCH  16  17
ENDBRANCH  13  16
ENDBRANCH   5   6
ENDBRANCH   4   5
ENDBRANCH   2   4
TORSDOF 5
ENDMDL
MODEL      258
REMARK 921   NORMALIZED FREE ENERGY PREDICTED BY IDOCK:   -1.46 KCAL/MOL
REMARK 922        TOTAL FREE ENERGY PREDICTED BY IDOCK:   -2.35 KCAL/MOL
REMARK 923 INTER-LIGAND FREE ENERGY PREDICTED BY IDOCK:   -2.37 KCAL/MOL
REMARK 924 INTRA-LIGAND FREE ENERGY PREDICTED BY IDOCK:    0.02 KCAL/MOL
REMARK 927      BINDING AFFINITY PREDICTED BY RF-SCORE:    0.00 PKD
ROOT
HETATM    1  C   UNL     1     -10.157  10.053  66.146  1.00  0.00    -0.247 C  
HETATM    2  N   UNL     1      -8.840   9.540  66.540  1.00  0.00    -0.137 NA 
HETATM    3  C   UNL     1      -7.960  10.659  66.883  1.00  0.00    -0.124 C  
ENDROOT
BRANCH   2   4
HETATM    4  C   UNL     1      -8.999   8.587  67.659  1.00  0.00    -0.135 C  
BRANCH   4   5
HETATM    5  C   UNL     1      -7.852   7.572  67.799  1.00  0.00    -0.117 C  
BRANCH   5   6
HETATM    6  C   UNL     1      -8.303   6.148  67.641  1.00  0.00    -0.112 A  
HETATM    7  C   UNL     1      -8.624   5.520  66.453  1.00  0.00    -0.121 A  
HETATM    8  N   UNL     1      -8.907   4.210  66.720  1.00  0.00    -0.115 NA 
HETATM    9  C   UNL     1      -8.749   3.954  68.061  1.00  0.00    -0.102 A  
HETATM   10  H   UNL     1      -9.193   3.522  66.024  1.00  0.00     0.000 HD 
HETATM   11  C   UNL     1      -8.431   5.164  68.676  1.00  0.00    -0.088 A  
HETATM   12  C   UNL     1      -8.276   5.181  70.078  1.00  0.00    -0.082 A  
HETATM   13  C   UNL     1      -8.397   3.986  70.819  1.00  0.00    -0.088 A  
HETATM   14  C   UNL     1      -8.859   2.750  68.765  1.00  0.00    -0.154 A  
HETATM   15  C   UNL     1      -8.666   2.784  70.150  1.00  0.00    -0.126 A  
BRANCH  13  16
HETATM   16  C   UNL     1      -8.247   4.006  72.319  1.00  0.00    -0.097 C  
BRANCH  16  17
HETATM   17  N   UNL     1      -9.300   3.315  73.047  1.00  0.00    -0.090 NA 
HETATM   18  C   UNL     1     -10.270   3.802  73.867  1.00  0.00    -0.154 A  
HETATM   19  N   UNL     1     -11.027   2.818  74.298  1.00  0.00    -0.099 NA 
HETATM   20  C   UNL     1     -10.473   1.725  73.703  1.00  0.00    -0.103 A  
HETATM   21  N   UNL     1      -9.415   1.976  72.926  1.00  0.00    -0.080 NA 
ENDBRANCH  16  17
ENDBRANCH  13  16
ENDBRANCH   5   6
ENDBRANCH   4   5
ENDBRANCH   2   4
TORSDOF 5
ENDMDL
MODEL      259
REMARK 921   NORMALIZED FREE ENERGY PREDICTED BY IDOCK:   -1.38 KCAL/MOL
REMARK 922        TOTAL FREE ENERGY PREDICTED BY IDOCK:   -2.25 KCAL/MOL
REMARK 923 INTER-LIGAND FREE ENERGY PREDICTED BY IDOCK:   -2.08 KCAL/MOL
REMARK 924 INTRA-LIGAND FREE ENERGY PREDICTED BY IDOCK:   -0.16 KCAL/MOL
REMARK 927      BINDING AFFINITY PREDICTED BY RF-SCORE:    0.00 PKD
ROOT
HETATM    1  C   UNL     1      -7.274   3.799  72.106  1.00  0.00    -0.051 C  
HETATM    2  N   UNL     1      -8.491   3.780  72.925  1.00  0.00    -0.093 NA 
HETATM    3  C   UNL     1      -8.161   4.146  74.304  1.00  0.00    -0.091 C  
ENDROOT
BRANCH   2   4
HETATM    4  C   UNL     1      -9.499   4.683  72.329  1.00  0.00    -0.141 C  
BRANCH   4   5
HETATM    5  C   UNL     1      -9.042   5.384  71.039  1.00  0.00    -0.167 C  
BRANCH   5   6
HETATM    6  C   UNL     1      -8.866   6.866  71.206  1.00  0.00    -0.135 A  
HETATM    7  C   UNL     1      -9.227   7.611  72.312  1.00  0.00    -0.144 A  
HETATM    8  N   UNL     1      -8.828   8.903  72.112  1.00  0.00    -0.380 NA 
HETATM    9  C   UNL     1      -8.184   9.019  70.903  1.00  0.00    -0.185 A  
HETATM   10  H   UNL     1      -8.987   9.670  72.764  1.00  0.00     0.000 HD 
HETATM   11  C   UNL     1      -8.245   7.771  70.284  1.00  0.00    -0.125 A  
HETATM   12  C   UNL     1      -7.701   7.641  68.988  1.00  0.00    -0.117 A  
HETATM   13  C   UNL     1      -7.073   8.741  68.369  1.00  0.00    -0.077 A  
HETATM   14  C   UNL     1      -7.553  10.124  70.323  1.00  0.00    -0.038 A  
HETATM   15  C   UNL     1      -6.989   9.962  69.053  1.00  0.00    -0.059 A  
BRANCH  13  16
HETATM   16  C   UNL     1      -6.505   8.606  66.979  1.00  0.00    -0.057 C  
BRANCH  16  17
HETATM   17  N   UNL     1      -6.453   7.243  66.472  1.00  0.00    -0.050 NA 
HETATM   18  C   UNL     1      -7.457   6.397  66.115  1.00  0.00    -0.082 A  
HETATM   19  N   UNL     1      -6.953   5.261  65.689  1.00  0.00    -0.064 NA 
HETATM   20  C   UNL     1      -5.610   5.460  65.804  1.00  0.00    -0.013 A  
HETATM   21  N   UNL     1      -5.252   6.658  66.277  1.00  0.00    -0.016 NA 
ENDBRANCH  16  17
ENDBRANCH  13  16
ENDBRANCH   5   6
ENDBRANCH   4   5
ENDBRANCH   2   4
TORSDOF 5
ENDMDL
MODEL      260
REMARK 921   NORMALIZED FREE ENERGY PREDICTED BY IDOCK:   -0.21 KCAL/MOL
REMARK 922        TOTAL FREE ENERGY PREDICTED BY IDOCK:   -0.73 KCAL/MOL
REMARK 923 INTER-LIGAND FREE ENERGY PREDICTED BY IDOCK:   -1.46 KCAL/MOL
REMARK 924 INTRA-LIGAND FREE ENERGY PREDICTED BY IDOCK:    0.73 KCAL/MOL
REMARK 927      BINDING AFFINITY PREDICTED BY RF-SCORE:    0.00 PKD
ROOT
HETATM    1  C   UNL     1     -10.555   5.762  70.406  1.00  0.00    -0.294 C  
HETATM    2  N   UNL     1     -11.536   6.038  69.352  1.00  0.00    -0.067 NA 
HETATM    3  C   UNL     1     -12.506   7.026  69.831  1.00  0.00     0.766 C  
ENDROOT
BRANCH   2   4
HETATM    4  C   UNL     1     -10.833   6.487  68.131  1.00  0.00    -0.295 C  
BRANCH   4   5
HETATM    5  C   UNL     1     -10.425   5.352  67.177  1.00  0.00    -0.298 C  
BRANCH   5   6
HETATM    6  C   UNL     1      -8.949   5.078  67.187  1.00  0.00    -0.112 A  
HETATM    7  C   UNL     1      -8.254   4.313  66.270  1.00  0.00    -0.102 A  
HETATM    8  N   UNL     1      -6.924   4.373  66.575  1.00  0.00    -0.058 NA 
HETATM    9  C   UNL     1      -6.723   5.190  67.663  1.00  0.00    -0.055 A  
HETATM   10  H   UNL     1      -6.186   3.884  66.070  1.00  0.00     0.000 HD 
HETATM   11  C   UNL     1      -7.980   5.598  68.107  1.00  0.00    -0.097 A  
HETATM   12  C   UNL     1      -8.051   6.406  69.262  1.00  0.00    -0.111 A  
HETATM   13  C   UNL     1      -6.869   6.819  69.912  1.00  0.00    -0.054 A  
HETATM   14  C   UNL     1      -5.532   5.597  68.273  1.00  0.00    -0.008 A  
HETATM   15  C   UNL     1      -5.626   6.427  69.396  1.00  0.00    -0.013 A  
BRANCH  13  16
HETATM   16  C   UNL     1      -6.944   7.669  71.155  1.00  0.00    -0.050 C  
BRANCH  16  17
HETATM   17  N   UNL     1      -7.738   7.101  72.234  1.00  0.00    -0.089 NA 
HETATM   18  C   UNL     1      -7.574   5.945  72.934  1.00  0.00    -0.099 A  
HETATM   19  N   UNL     1      -8.520   5.833  73.839  1.00  0.00    -0.118 NA 
HETATM   20  C   UNL     1      -9.255   6.965  73.654  1.00  0.00    -0.162 A  
HETATM   21  N   UNL     1      -8.817   7.775  72.685  1.00  0.00    -0.144 NA 
ENDBRANCH  16  17
ENDBRANCH  13  16
ENDBRANCH   5   6
ENDBRANCH   4   5
ENDBRANCH   2   4
TORSDOF 5
ENDMDL
MODEL      261
REMARK 921   NORMALIZED FREE ENERGY PREDICTED BY IDOCK:   10.40 KCAL/MOL
REMARK 922        TOTAL FREE ENERGY PREDICTED BY IDOCK:   12.98 KCAL/MOL
REMARK 923 INTER-LIGAND FREE ENERGY PREDICTED BY IDOCK:   13.22 KCAL/MOL
REMARK 924 INTRA-LIGAND FREE ENERGY PREDICTED BY IDOCK:   -0.24 KCAL/MOL
REMARK 927      BINDING AFFINITY PREDICTED BY RF-SCORE:    0.00 PKD
ROOT
HETATM    1  C   UNL     1     -12.550  20.881  68.671  1.00  0.00     6.302 C  
HETATM    2  N   UNL     1     -11.462  19.946  68.364  1.00  0.00     1.497 NA 
HETATM    3  C   UNL     1     -11.485  18.836  69.320  1.00  0.00     3.739 C  
ENDROOT
BRANCH   2   4
HETATM    4  C   UNL     1     -11.590  19.485  66.965  1.00  0.00     0.961 C  
BRANCH   4   5
HETATM    5  C   UNL     1     -10.411  18.634  66.464  1.00  0.00    -0.462 C  
BRANCH   5   6
HETATM    6  C   UNL     1     -10.744  17.174  66.352  1.00  0.00    -0.072 A  
HETATM    7  C   UNL     1     -11.971  16.641  66.006  1.00  0.00     2.215 A  
HETATM    8  N   UNL     1     -11.847  15.282  65.934  1.00  0.00     0.085 NA 
HETATM    9  C   UNL     1     -10.551  14.909  66.199  1.00  0.00    -0.318 A  
HETATM   10  H   UNL     1     -12.607  14.638  65.717  1.00  0.00     0.000 HD 
HETATM   11  C   UNL     1      -9.849  16.068  66.524  1.00  0.00    -0.284 A  
HETATM   12  C   UNL     1      -8.493  15.945  66.899  1.00  0.00    -0.275 A  
HETATM   13  C   UNL     1      -7.868  14.681  66.894  1.00  0.00     0.090 A  
HETATM   14  C   UNL     1      -9.956  13.644  66.166  1.00  0.00    -0.314 A  
HETATM   15  C   UNL     1      -8.602  13.551  66.507  1.00  0.00     0.184 A  
BRANCH  13  16
HETATM   16  C   UNL     1      -6.425  14.547  67.309  1.00  0.00     0.324 C  
BRANCH  16  17
HETATM   17  N   UNL     1      -6.127  13.366  68.106  1.00  0.00    -0.098 NA 
HETATM   18  C   UNL     1      -5.759  12.114  67.722  1.00  0.00    -0.085 A  
HETATM   19  N   UNL     1      -5.571  11.359  68.780  1.00  0.00    -0.043 NA 
HETATM   20  C   UNL     1      -5.841  12.207  69.811  1.00  0.00    -0.123 A  
HETATM   21  N   UNL     1      -6.184  13.447  69.452  1.00  0.00    -0.104 NA 
ENDBRANCH  16  17
ENDBRANCH  13  16
ENDBRANCH   5   6
ENDBRANCH   4   5
ENDBRANCH   2   4
TORSDOF 5
ENDMDL
