MODEL        1
REMARK 921   NORMALIZED FREE ENERGY PREDICTED BY IDOCK:   -6.85 KCAL/MOL
REMARK 922        TOTAL FREE ENERGY PREDICTED BY IDOCK:   -9.55 KCAL/MOL
REMARK 923 INTER-LIGAND FREE ENERGY PREDICTED BY IDOCK:   -9.25 KCAL/MOL
REMARK 924 INTRA-LIGAND FREE ENERGY PREDICTED BY IDOCK:   -0.30 KCAL/MOL
REMARK 927      BINDING AFFINITY PREDICTED BY RF-SCORE:    0.00 PKD
ROOT
HETATM    1  C   UNL     1      -7.960  10.269  68.654  1.00  0.00    -0.111 C  
HETATM    2  C   UNL     1      -8.228  10.423  70.067  1.00  0.00     0.174 C  
HETATM    3  C   UNL     1      -9.505   9.819  69.513  1.00  0.00    -0.212 C  
HETATM    4  C   UNL     1      -9.328   9.161  67.545  1.00  0.00    -0.135 C  
HETATM    5  C   UNL     1     -11.699  14.780  69.666  1.00  0.00    -0.314 C  
HETATM    6  C   UNL     1     -11.013  15.881  68.822  1.00  0.00    -0.301 C  
HETATM    7  C   UNL     1      -9.656  15.338  68.401  1.00  0.00    -0.206 C  
HETATM    8  C   UNL     1      -9.847  14.369  67.246  1.00  0.00    -0.247 C  
HETATM    9  C   UNL     1      -8.983   8.704  68.764  1.00  0.00    -0.138 C  
HETATM   10  C   UNL     1     -10.881   9.014  68.253  1.00  0.00    -0.072 C  
HETATM   11  C   UNL     1      -8.088   7.457  68.912  1.00  0.00    -0.127 C  
HETATM   12  C   UNL     1      -8.484  13.871  66.739  1.00  0.00    -0.003 C  
HETATM   13  C   UNL     1     -10.901  13.247  67.518  1.00  0.00    -0.276 C  
HETATM   14  C   UNL     1     -11.680  13.051  66.190  1.00  0.00    -0.445 C  
HETATM   15  C   UNL     1     -11.177  10.602  67.606  1.00  0.00    -0.361 C  
HETATM   16  C   UNL     1     -12.028  13.628  68.654  1.00  0.00    -0.395 C  
HETATM   17  H   UNL     1     -11.631  17.449  69.758  1.00  0.00     0.000 HD 
HETATM   18  O   UNL     1     -10.783  17.110  69.495  1.00  0.00    -0.269 OA 
HETATM   19  C   UNL     1      -7.819  12.837  67.655  1.00  0.00    -0.165 C  
HETATM   20  C   UNL     1     -10.221  11.887  67.970  1.00  0.00    -0.199 C  
HETATM   21  C   UNL     1      -8.673  11.573  67.680  1.00  0.00    -0.142 C  
ENDROOT
BRANCH   3  22
HETATM   22  N   UNL     1     -10.342   8.854  70.854  1.00  0.00    -0.221 N  
HETATM   23  C   UNL     1     -10.308   6.367  71.200  1.00  0.00    -0.244 C  
HETATM   24  C   UNL     1      -9.229   6.999  72.034  1.00  0.00    -0.148 C  
HETATM   25  C   UNL     1     -11.019   7.475  70.466  1.00  0.00    -0.252 C  
HETATM   26  C   UNL     1      -9.514   8.482  72.096  1.00  0.00    -0.305 C  
BRANCH  22  27
HETATM   27  C   UNL     1     -11.507   9.813  71.423  1.00  0.00    -0.365 C  
BRANCH  27  28
HETATM   28  C   UNL     1     -12.908   9.307  71.302  1.00  0.00    -0.354 C  
HETATM   29  C   UNL     1     -13.703   9.118  72.364  1.00  0.00    -0.543 C  
ENDBRANCH  27  28
ENDBRANCH  22  27
ENDBRANCH   3  22
BRANCH   4  30
HETATM   30  O   UNL     1      -9.422   7.684  67.021  1.00  0.00    -0.146 OA 
BRANCH  30  31
HETATM   31  C   UNL     1      -8.997   7.201  65.828  1.00  0.00    -0.008 C  
HETATM   32  C   UNL     1      -8.473   8.360  65.007  1.00  0.00    -0.160 C  
HETATM   33  O   UNL     1      -8.836   6.016  65.580  1.00  0.00    -0.156 OA 
ENDBRANCH  30  31
ENDBRANCH   4  30
BRANCH   5  34
HETATM   34  N   UNL     1     -12.732  15.248  70.624  1.00  0.00    -0.404 NA 
HETATM   35  C   UNL     1     -13.872  14.388  70.966  1.00  0.00    -0.076 C  
HETATM   36  C   UNL     1     -13.516  13.410  72.082  1.00  0.00    -0.552 C  
HETATM   37  O   UNL     1     -13.176  14.123  73.277  1.00  0.00    -0.584 OA 
HETATM   38  C   UNL     1     -12.095  15.036  73.056  1.00  0.00    -0.319 C  
HETATM   39  C   UNL     1     -12.311  15.953  71.837  1.00  0.00    -0.471 C  
ENDBRANCH   5  34
TORSDOF 6
ENDMDL
MODEL        2
REMARK 921   NORMALIZED FREE ENERGY PREDICTED BY IDOCK:   -6.65 KCAL/MOL
REMARK 922        TOTAL FREE ENERGY PREDICTED BY IDOCK:   -9.28 KCAL/MOL
REMARK 923 INTER-LIGAND FREE ENERGY PREDICTED BY IDOCK:   -8.98 KCAL/MOL
REMARK 924 INTRA-LIGAND FREE ENERGY PREDICTED BY IDOCK:   -0.30 KCAL/MOL
REMARK 927      BINDING AFFINITY PREDICTED BY RF-SCORE:    0.00 PKD
ROOT
HETATM    1  C   UNL     1      -9.757   9.825  65.263  1.00  0.00    -0.371 C  
HETATM    2  C   UNL     1      -8.531  10.393  64.747  1.00  0.00    -0.176 C  
HETATM    3  C   UNL     1      -8.372  10.483  66.253  1.00  0.00    -0.152 C  
HETATM    4  C   UNL     1      -9.835   9.440  67.306  1.00  0.00    -0.179 C  
HETATM    5  C   UNL     1      -9.681  15.738  65.888  1.00  0.00    -0.354 C  
HETATM    6  C   UNL     1     -11.072  16.078  65.301  1.00  0.00    -0.213 C  
HETATM    7  C   UNL     1     -11.605  14.809  64.655  1.00  0.00    -0.401 C  
HETATM    8  C   UNL     1     -12.131  13.885  65.741  1.00  0.00    -0.449 C  
HETATM    9  C   UNL     1      -8.700   9.136  66.648  1.00  0.00    -0.140 C  
HETATM   10  C   UNL     1      -8.706  10.317  68.250  1.00  0.00    -0.126 C  
HETATM   11  C   UNL     1      -8.313   7.667  66.383  1.00  0.00    -0.129 C  
HETATM   12  C   UNL     1     -12.759  12.631  65.113  1.00  0.00    -0.329 C  
HETATM   13  C   UNL     1     -11.113  13.607  66.895  1.00  0.00    -0.314 C  
HETATM   14  C   UNL     1     -11.938  13.594  68.209  1.00  0.00    -0.385 C  
HETATM   15  C   UNL     1      -9.842  11.630  68.142  1.00  0.00    -0.191 C  
HETATM   16  C   UNL     1      -9.966  14.769  67.089  1.00  0.00    -0.236 C  
HETATM   17  H   UNL     1     -10.746  17.884  64.709  1.00  0.00     0.000 HD 
HETATM   18  O   UNL     1     -11.080  17.092  64.306  1.00  0.00    -1.092 OA 
HETATM   19  C   UNL     1     -11.736  11.622  64.581  1.00  0.00    -0.157 C  
HETATM   20  C   UNL     1     -10.355  12.227  66.701  1.00  0.00    -0.237 C  
HETATM   21  C   UNL     1     -10.929  11.067  65.751  1.00  0.00    -0.102 C  
ENDROOT
BRANCH   3  22
HETATM   22  N   UNL     1      -6.569  10.439  66.670  1.00  0.00    -0.077 N  
HETATM   23  C   UNL     1      -5.257   8.505  67.588  1.00  0.00    -0.034 C  
HETATM   24  C   UNL     1      -5.129   8.524  66.091  1.00  0.00    -0.027 C  
HETATM   25  C   UNL     1      -6.128   9.669  67.983  1.00  0.00    -0.051 C  
HETATM   26  C   UNL     1      -5.601   9.879  65.614  1.00  0.00    -0.059 C  
BRANCH  22  27
HETATM   27  C   UNL     1      -6.121  11.978  66.846  1.00  0.00    -0.075 C  
BRANCH  27  28
HETATM   28  C   UNL     1      -5.842  12.437  68.240  1.00  0.00    -0.059 C  
HETATM   29  C   UNL     1      -6.659  13.266  68.906  1.00  0.00    -0.107 C  
ENDBRANCH  27  28
ENDBRANCH  22  27
ENDBRANCH   3  22
BRANCH   4  30
HETATM   30  O   UNL     1      -9.635   8.182  68.226  1.00  0.00    -0.141 OA 
BRANCH  30  31
HETATM   31  C   UNL     1     -10.533   7.626  69.074  1.00  0.00    -0.205 C  
HETATM   32  C   UNL     1     -10.992   6.311  68.482  1.00  0.00    -0.421 C  
HETATM   33  O   UNL     1     -10.730   8.004  70.218  1.00  0.00    -0.231 OA 
ENDBRANCH  30  31
ENDBRANCH   4  30
BRANCH   5  34
HETATM   34  N   UNL     1      -8.751  16.881  66.058  1.00  0.00    -0.517 NA 
HETATM   35  C   UNL     1      -9.212  18.129  66.680  1.00  0.00    -0.290 C  
HETATM   36  C   UNL     1      -9.134  18.054  68.202  1.00  0.00    -0.276 C  
HETATM   37  O   UNL     1      -7.776  17.872  68.621  1.00  0.00    -0.284 OA 
HETATM   38  C   UNL     1      -7.197  16.700  68.036  1.00  0.00    -0.155 C  
HETATM   39  C   UNL     1      -7.381  16.624  66.509  1.00  0.00    -0.238 C  
ENDBRANCH   5  34
TORSDOF 6
ENDMDL
MODEL        3
REMARK 921   NORMALIZED FREE ENERGY PREDICTED BY IDOCK:   -6.59 KCAL/MOL
REMARK 922        TOTAL FREE ENERGY PREDICTED BY IDOCK:   -9.21 KCAL/MOL
REMARK 923 INTER-LIGAND FREE ENERGY PREDICTED BY IDOCK:   -9.52 KCAL/MOL
REMARK 924 INTRA-LIGAND FREE ENERGY PREDICTED BY IDOCK:    0.31 KCAL/MOL
REMARK 927      BINDING AFFINITY PREDICTED BY RF-SCORE:    0.00 PKD
ROOT
HETATM    1  C   UNL     1      -9.719  10.007  64.188  1.00  0.00    -0.197 C  
HETATM    2  C   UNL     1      -8.503  10.665  63.763  1.00  0.00    -0.068 C  
HETATM    3  C   UNL     1      -8.342  10.529  65.266  1.00  0.00    -0.155 C  
HETATM    4  C   UNL     1      -9.787   9.318  66.150  1.00  0.00    -0.293 C  
HETATM    5  C   UNL     1      -9.729  15.759  65.696  1.00  0.00    -0.297 C  
HETATM    6  C   UNL     1     -11.126  16.163  65.166  1.00  0.00    -0.249 C  
HETATM    7  C   UNL     1     -11.642  14.998  64.337  1.00  0.00    -0.281 C  
HETATM    8  C   UNL     1     -12.152  13.913  65.271  1.00  0.00    -0.422 C  
HETATM    9  C   UNL     1      -8.650   9.134  65.454  1.00  0.00    -0.192 C  
HETATM   10  C   UNL     1      -8.669  10.060  67.215  1.00  0.00    -0.127 C  
HETATM   11  C   UNL     1      -8.241   7.728  64.970  1.00  0.00    -0.123 C  
HETATM   12  C   UNL     1     -12.763  12.759  64.462  1.00  0.00    -0.405 C  
HETATM   13  C   UNL     1     -11.127  13.480  66.370  1.00  0.00    -0.311 C  
HETATM   14  C   UNL     1     -11.949  13.257  67.668  1.00  0.00    -0.366 C  
HETATM   15  C   UNL     1      -9.824  11.357  67.306  1.00  0.00    -0.209 C  
HETATM   16  C   UNL     1      -9.997  14.617  66.738  1.00  0.00    -0.265 C  
HETATM   17  H   UNL     1     -10.828  18.043  64.853  1.00  0.00     0.000 HD 
HETATM   18  O   UNL     1     -11.151  17.315  64.335  1.00  0.00    -0.998 OA 
HETATM   19  C   UNL     1     -11.726  11.857  63.784  1.00  0.00    -0.554 C  
HETATM   20  C   UNL     1     -10.349  12.157  65.971  1.00  0.00    -0.268 C  
HETATM   21  C   UNL     1     -10.908  11.144  64.858  1.00  0.00    -0.261 C  
ENDROOT
BRANCH   3  22
HETATM   22  N   UNL     1      -6.537  10.450  65.671  1.00  0.00    -0.125 N  
HETATM   23  C   UNL     1      -5.441  10.934  67.878  1.00  0.00    -0.039 C  
HETATM   24  C   UNL     1      -5.699   9.458  67.765  1.00  0.00    -0.041 C  
HETATM   25  C   UNL     1      -5.936  11.577  66.608  1.00  0.00    -0.135 C  
HETATM   26  C   UNL     1      -6.001   9.160  66.315  1.00  0.00    -0.059 C  
BRANCH  22  27
HETATM   27  C   UNL     1      -5.765  10.543  64.258  1.00  0.00    -0.100 C  
BRANCH  27  28
HETATM   28  C   UNL     1      -5.166   9.276  63.739  1.00  0.00    -0.061 C  
HETATM   29  C   UNL     1      -5.282   8.891  62.460  1.00  0.00    -0.070 C  
ENDBRANCH  27  28
ENDBRANCH  22  27
ENDBRANCH   3  22
BRANCH   4  30
HETATM   30  O   UNL     1      -9.566   7.940  66.870  1.00  0.00    -0.174 OA 
BRANCH  30  31
HETATM   31  C   UNL     1     -10.397   7.320  67.743  1.00  0.00    -0.209 C  
HETATM   32  C   UNL     1     -10.781   5.977  67.159  1.00  0.00    -0.409 C  
HETATM   33  O   UNL     1     -10.582   7.680  68.894  1.00  0.00    -0.211 OA 
ENDBRANCH  30  31
ENDBRANCH   4  30
BRANCH   5  34
HETATM   34  N   UNL     1      -8.815  16.878  66.035  1.00  0.00    -0.515 NA 
HETATM   35  C   UNL     1      -9.344  18.123  66.605  1.00  0.00    -0.297 C  
HETATM   36  C   UNL     1      -9.509  18.017  68.118  1.00  0.00    -0.289 C  
HETATM   37  O   UNL     1      -8.238  17.797  68.741  1.00  0.00    -0.289 OA 
HETATM   38  C   UNL     1      -7.596  16.623  68.229  1.00  0.00    -0.181 C  
HETATM   39  C   UNL     1      -7.539  16.581  66.691  1.00  0.00    -0.275 C  
ENDBRANCH   5  34
TORSDOF 6
ENDMDL
MODEL        4
REMARK 921   NORMALIZED FREE ENERGY PREDICTED BY IDOCK:   -6.49 KCAL/MOL
REMARK 922        TOTAL FREE ENERGY PREDICTED BY IDOCK:   -9.06 KCAL/MOL
REMARK 923 INTER-LIGAND FREE ENERGY PREDICTED BY IDOCK:   -9.03 KCAL/MOL
REMARK 924 INTRA-LIGAND FREE ENERGY PREDICTED BY IDOCK:   -0.03 KCAL/MOL
REMARK 927      BINDING AFFINITY PREDICTED BY RF-SCORE:    0.00 PKD
ROOT
HETATM    1  C   UNL     1      -9.692  10.034  65.680  1.00  0.00    -0.336 C  
HETATM    2  C   UNL     1      -8.453  10.601  65.195  1.00  0.00    -0.146 C  
HETATM    3  C   UNL     1      -8.372  10.772  66.701  1.00  0.00    -0.141 C  
HETATM    4  C   UNL     1      -9.865   9.753  67.734  1.00  0.00    -0.160 C  
HETATM    5  C   UNL     1      -9.758  15.972  66.000  1.00  0.00    -0.344 C  
HETATM    6  C   UNL     1     -11.124  16.252  65.329  1.00  0.00    -0.151 C  
HETATM    7  C   UNL     1     -11.602  14.941  64.725  1.00  0.00    -0.410 C  
HETATM    8  C   UNL     1     -12.163  14.063  65.830  1.00  0.00    -0.481 C  
HETATM    9  C   UNL     1      -8.694   9.440  67.149  1.00  0.00    -0.134 C  
HETATM   10  C   UNL     1      -8.801  10.700  68.685  1.00  0.00    -0.151 C  
HETATM   11  C   UNL     1      -8.267   7.968  66.979  1.00  0.00    -0.116 C  
HETATM   12  C   UNL     1     -12.736  12.765  65.239  1.00  0.00    -0.332 C  
HETATM   13  C   UNL     1     -11.199  13.865  67.045  1.00  0.00    -0.327 C  
HETATM   14  C   UNL     1     -12.087  13.902  68.317  1.00  0.00    -0.322 C  
HETATM   15  C   UNL     1      -9.954  11.982  68.454  1.00  0.00    -0.209 C  
HETATM   16  C   UNL     1     -10.085  15.060  67.235  1.00  0.00    -0.235 C  
HETATM   17  H   UNL     1     -10.804  18.033  64.660  1.00  0.00     0.000 HD 
HETATM   18  O   UNL     1     -11.102  17.213  64.283  1.00  0.00    -0.989 OA 
HETATM   19  C   UNL     1     -11.669  11.752  64.810  1.00  0.00    -0.212 C  
HETATM   20  C   UNL     1     -10.406  12.494  66.960  1.00  0.00    -0.236 C  
HETATM   21  C   UNL     1     -10.911  11.275  66.046  1.00  0.00    -0.273 C  
ENDROOT
BRANCH   3  22
HETATM   22  N   UNL     1      -6.590  10.787  67.206  1.00  0.00    -0.071 N  
HETATM   23  C   UNL     1      -5.399   9.126  68.664  1.00  0.00    -0.034 C  
HETATM   24  C   UNL     1      -5.207   8.747  67.223  1.00  0.00    -0.033 C  
HETATM   25  C   UNL     1      -6.237  10.378  68.695  1.00  0.00    -0.047 C  
HETATM   26  C   UNL     1      -5.603   9.941  66.384  1.00  0.00    -0.049 C  
BRANCH  22  27
HETATM   27  C   UNL     1      -6.088  12.305  66.997  1.00  0.00    -0.042 C  
BRANCH  27  28
HETATM   28  C   UNL     1      -6.887  13.373  67.669  1.00  0.00    -0.172 C  
HETATM   29  C   UNL     1      -6.564  13.871  68.871  1.00  0.00    -0.103 C  
ENDBRANCH  27  28
ENDBRANCH  22  27
ENDBRANCH   3  22
BRANCH   4  30
HETATM   30  O   UNL     1      -9.687   8.548  68.727  1.00  0.00    -0.158 OA 
BRANCH  30  31
HETATM   31  C   UNL     1     -10.635   7.968  69.501  1.00  0.00    -0.214 C  
HETATM   32  C   UNL     1     -10.512   6.467  69.355  1.00  0.00    -0.277 C  
HETATM   33  O   UNL     1     -11.288   8.555  70.351  1.00  0.00    -0.256 OA 
ENDBRANCH  30  31
ENDBRANCH   4  30
BRANCH   5  34
HETATM   34  N   UNL     1      -8.859  17.142  66.154  1.00  0.00    -0.477 NA 
HETATM   35  C   UNL     1      -9.412  18.471  66.443  1.00  0.00    -0.301 C  
HETATM   36  C   UNL     1      -9.648  18.664  67.938  1.00  0.00    -0.310 C  
HETATM   37  O   UNL     1      -8.409  18.580  68.650  1.00  0.00    -0.326 OA 
HETATM   38  C   UNL     1      -7.746  17.333  68.410  1.00  0.00    -0.247 C  
HETATM   39  C   UNL     1      -7.616  16.990  66.914  1.00  0.00    -0.209 C  
ENDBRANCH   5  34
TORSDOF 6
ENDMDL
MODEL        5
REMARK 921   NORMALIZED FREE ENERGY PREDICTED BY IDOCK:   -6.35 KCAL/MOL
REMARK 922        TOTAL FREE ENERGY PREDICTED BY IDOCK:   -8.88 KCAL/MOL
REMARK 923 INTER-LIGAND FREE ENERGY PREDICTED BY IDOCK:   -8.94 KCAL/MOL
REMARK 924 INTRA-LIGAND FREE ENERGY PREDICTED BY IDOCK:    0.07 KCAL/MOL
REMARK 927      BINDING AFFINITY PREDICTED BY RF-SCORE:    0.00 PKD
ROOT
HETATM    1  C   UNL     1      -7.886  10.236  68.616  1.00  0.00    -0.101 C  
HETATM    2  C   UNL     1      -8.084  10.428  70.036  1.00  0.00     0.137 C  
HETATM    3  C   UNL     1      -9.379   9.791  69.567  1.00  0.00    -0.213 C  
HETATM    4  C   UNL     1      -9.294   9.079  67.612  1.00  0.00    -0.136 C  
HETATM    5  C   UNL     1     -11.632  14.727  69.691  1.00  0.00    -0.304 C  
HETATM    6  C   UNL     1     -11.006  15.811  68.781  1.00  0.00    -0.291 C  
HETATM    7  C   UNL     1      -9.665  15.273  68.306  1.00  0.00    -0.210 C  
HETATM    8  C   UNL     1      -9.901  14.269  67.191  1.00  0.00    -0.252 C  
HETATM    9  C   UNL     1      -8.880   8.662  68.824  1.00  0.00    -0.139 C  
HETATM   10  C   UNL     1     -10.806   8.933  68.404  1.00  0.00    -0.043 C  
HETATM   11  C   UNL     1      -7.961   7.431  68.961  1.00  0.00    -0.122 C  
HETATM   12  C   UNL     1      -8.559  13.773  66.629  1.00  0.00     0.047 C  
HETATM   13  C   UNL     1     -10.924  13.141  67.549  1.00  0.00    -0.282 C  
HETATM   14  C   UNL     1     -11.767  12.896  66.269  1.00  0.00    -0.457 C  
HETATM   15  C   UNL     1     -11.157  10.497  67.727  1.00  0.00    -0.382 C  
HETATM   16  C   UNL     1     -11.996  13.541  68.730  1.00  0.00    -0.374 C  
HETATM   17  H   UNL     1     -11.597  17.398  69.703  1.00  0.00     0.000 HD 
HETATM   18  O   UNL     1     -10.759  17.062  69.406  1.00  0.00    -0.322 OA 
HETATM   19  C   UNL     1      -7.834  12.775  67.538  1.00  0.00    -0.171 C  
HETATM   20  C   UNL     1     -10.202  11.804  68.004  1.00  0.00    -0.202 C  
HETATM   21  C   UNL     1      -8.667  11.501  67.644  1.00  0.00    -0.142 C  
ENDROOT
BRANCH   3  22
HETATM   22  N   UNL     1     -10.132   8.856  70.977  1.00  0.00    -0.232 N  
HETATM   23  C   UNL     1     -12.572   8.585  71.503  1.00  0.00    -0.348 C  
HETATM   24  C   UNL     1     -12.106   7.408  70.693  1.00  0.00    -0.167 C  
HETATM   25  C   UNL     1     -11.386   9.493  71.705  1.00  0.00    -0.341 C  
HETATM   26  C   UNL     1     -10.594   7.413  70.716  1.00  0.00    -0.223 C  
BRANCH  22  27
HETATM   27  C   UNL     1      -8.965   8.710  72.080  1.00  0.00    -0.216 C  
BRANCH  27  28
HETATM   28  C   UNL     1      -9.339   8.046  73.365  1.00  0.00    -0.323 C  
HETATM   29  C   UNL     1      -8.428   7.567  74.224  1.00  0.00    -0.267 C  
ENDBRANCH  27  28
ENDBRANCH  22  27
ENDBRANCH   3  22
BRANCH   4  30
HETATM   30  O   UNL     1      -9.393   7.585  67.136  1.00  0.00    -0.132 OA 
BRANCH  30  31
HETATM   31  C   UNL     1      -9.021   7.073  65.938  1.00  0.00    -0.062 C  
HETATM   32  C   UNL     1      -8.403   8.185  65.118  1.00  0.00    -0.152 C  
HETATM   33  O   UNL     1      -8.966   5.879  65.684  1.00  0.00    -0.152 OA 
ENDBRANCH  30  31
ENDBRANCH   4  30
BRANCH   5  34
HETATM   34  N   UNL     1     -12.621  15.209  70.687  1.00  0.00    -0.370 NA 
HETATM   35  C   UNL     1     -13.748  14.359  71.087  1.00  0.00    -0.235 C  
HETATM   36  C   UNL     1     -13.350  13.391  72.197  1.00  0.00    -0.520 C  
HETATM   37  O   UNL     1     -12.955  14.115  73.369  1.00  0.00    -0.491 OA 
HETATM   38  C   UNL     1     -11.881  15.021  73.092  1.00  0.00    -0.255 C  
HETATM   39  C   UNL     1     -12.145  15.926  71.873  1.00  0.00    -0.498 C  
ENDBRANCH   5  34
TORSDOF 6
ENDMDL
MODEL        6
REMARK 921   NORMALIZED FREE ENERGY PREDICTED BY IDOCK:   -6.24 KCAL/MOL
REMARK 922        TOTAL FREE ENERGY PREDICTED BY IDOCK:   -8.72 KCAL/MOL
REMARK 923 INTER-LIGAND FREE ENERGY PREDICTED BY IDOCK:   -8.31 KCAL/MOL
REMARK 924 INTRA-LIGAND FREE ENERGY PREDICTED BY IDOCK:   -0.41 KCAL/MOL
REMARK 927      BINDING AFFINITY PREDICTED BY RF-SCORE:    0.00 PKD
ROOT
HETATM    1  C   UNL     1     -11.246  14.751  69.065  1.00  0.00    -0.286 C  
HETATM    2  C   UNL     1     -10.073  15.008  69.870  1.00  0.00    -0.065 C  
HETATM    3  C   UNL     1      -9.511  14.640  68.510  1.00  0.00    -0.216 C  
HETATM    4  C   UNL     1     -10.959  14.529  67.016  1.00  0.00    -0.312 C  
HETATM    5  C   UNL     1      -8.449   9.701  70.492  1.00  0.00    -0.080 C  
HETATM    6  C   UNL     1      -9.652   8.875  71.009  1.00  0.00    -0.255 C  
HETATM    7  C   UNL     1     -10.830   9.830  71.126  1.00  0.00    -0.333 C  
HETATM    8  C   UNL     1     -11.408  10.074  69.742  1.00  0.00    -0.281 C  
HETATM    9  C   UNL     1     -10.279  15.504  67.649  1.00  0.00    -0.255 C  
HETATM   10  C   UNL     1      -9.361  14.122  66.551  1.00  0.00    -0.285 C  
HETATM   11  C   UNL     1     -10.652  16.986  67.440  1.00  0.00    -0.289 C  
HETATM   12  C   UNL     1     -12.656  10.965  69.837  1.00  0.00    -0.211 C  
HETATM   13  C   UNL     1     -10.355  10.524  68.677  1.00  0.00    -0.201 C  
HETATM   14  C   UNL     1     -10.737   9.804  67.356  1.00  0.00    -0.314 C  
HETATM   15  C   UNL     1      -9.798  12.493  66.976  1.00  0.00    -0.217 C  
HETATM   16  C   UNL     1      -8.809  10.072  69.011  1.00  0.00    -0.159 C  
HETATM   17  H   UNL     1      -8.737   7.675  72.209  1.00  0.00     0.000 HD 
HETATM   18  O   UNL     1      -9.473   8.271  72.282  1.00  0.00    -0.215 OA 
HETATM   19  C   UNL     1     -12.348  12.443  70.101  1.00  0.00    -0.209 C  
HETATM   20  C   UNL     1     -10.349  12.097  68.472  1.00  0.00    -0.233 C  
HETATM   21  C   UNL     1     -11.593  13.016  68.905  1.00  0.00    -0.355 C  
ENDROOT
BRANCH   3  22
HETATM   22  N   UNL     1      -7.867  15.464  68.297  1.00  0.00    -0.120 N  
HETATM   23  C   UNL     1      -7.314  17.419  66.821  1.00  0.00    -0.250 C  
HETATM   24  C   UNL     1      -7.622  17.914  68.206  1.00  0.00    -0.266 C  
HETATM   25  C   UNL     1      -7.447  15.918  66.838  1.00  0.00    -0.198 C  
HETATM   26  C   UNL     1      -7.579  16.722  69.134  1.00  0.00    -0.181 C  
BRANCH  22  27
HETATM   27  C   UNL     1      -6.771  14.392  68.796  1.00  0.00    -0.093 C  
BRANCH  27  28
HETATM   28  C   UNL     1      -5.883  13.805  67.747  1.00  0.00    -0.103 C  
HETATM   29  C   UNL     1      -6.012  12.543  67.313  1.00  0.00    -0.111 C  
ENDBRANCH  27  28
ENDBRANCH  22  27
ENDBRANCH   3  22
BRANCH   4  30
HETATM   30  O   UNL     1     -11.097  15.451  65.752  1.00  0.00    -0.324 OA 
BRANCH  30  31
HETATM   31  C   UNL     1     -11.875  15.247  64.661  1.00  0.00    -0.267 C  
HETATM   32  C   UNL     1     -12.520  13.883  64.787  1.00  0.00    -0.386 C  
HETATM   33  O   UNL     1     -12.189  16.117  63.864  1.00  0.00    -0.935 OA 
ENDBRANCH  30  31
ENDBRANCH   4  30
BRANCH   5  34
HETATM   34  N   UNL     1      -7.105   9.164  70.820  1.00  0.00    -0.091 NA 
HETATM   35  C   UNL     1      -6.843   7.721  70.745  1.00  0.00    -0.042 C  
HETATM   36  C   UNL     1      -6.485   7.293  69.325  1.00  0.00    -0.036 C  
HETATM   37  O   UNL     1      -5.282   7.945  68.899  1.00  0.00    -0.022 OA 
HETATM   38  C   UNL     1      -5.401   9.371  68.972  1.00  0.00    -0.037 C  
HETATM   39  C   UNL     1      -5.918   9.870  70.334  1.00  0.00    -0.075 C  
ENDBRANCH   5  34
TORSDOF 6
ENDMDL
MODEL        7
REMARK 921   NORMALIZED FREE ENERGY PREDICTED BY IDOCK:   -5.86 KCAL/MOL
REMARK 922        TOTAL FREE ENERGY PREDICTED BY IDOCK:   -8.21 KCAL/MOL
REMARK 923 INTER-LIGAND FREE ENERGY PREDICTED BY IDOCK:   -8.16 KCAL/MOL
REMARK 924 INTRA-LIGAND FREE ENERGY PREDICTED BY IDOCK:   -0.06 KCAL/MOL
REMARK 927      BINDING AFFINITY PREDICTED BY RF-SCORE:    0.00 PKD
ROOT
HETATM    1  C   UNL     1      -7.873   8.564  69.660  1.00  0.00    -0.095 C  
HETATM    2  C   UNL     1      -8.349   9.088  70.921  1.00  0.00    -0.238 C  
HETATM    3  C   UNL     1      -9.608   8.612  70.221  1.00  0.00    -0.170 C  
HETATM    4  C   UNL     1      -9.233   7.496  68.504  1.00  0.00    -0.143 C  
HETATM    5  C   UNL     1     -10.623  13.786  68.937  1.00  0.00    -0.205 C  
HETATM    6  C   UNL     1      -9.567  14.519  68.074  1.00  0.00    -0.217 C  
HETATM    7  C   UNL     1      -8.314  13.657  68.078  1.00  0.00    -0.170 C  
HETATM    8  C   UNL     1      -8.507  12.498  67.115  1.00  0.00    -0.186 C  
HETATM    9  C   UNL     1      -9.223   7.278  69.833  1.00  0.00    -0.141 C  
HETATM   10  C   UNL     1     -10.881   7.799  68.862  1.00  0.00    -0.022 C  
HETATM   11  C   UNL     1      -8.673   5.959  70.411  1.00  0.00    -0.139 C  
HETATM   12  C   UNL     1      -7.223  11.658  67.029  1.00  0.00    -0.143 C  
HETATM   13  C   UNL     1      -9.818  11.678  67.352  1.00  0.00    -0.197 C  
HETATM   14  C   UNL     1     -10.370  11.324  65.945  1.00  0.00    -0.304 C  
HETATM   15  C   UNL     1     -10.692   9.221  67.876  1.00  0.00    -0.248 C  
HETATM   16  C   UNL     1     -11.015  12.509  68.114  1.00  0.00    -0.260 C  
HETATM   17  H   UNL     1      -9.976  16.346  68.534  1.00  0.00     0.000 HD 
HETATM   18  O   UNL     1      -9.193  15.808  68.536  1.00  0.00    -0.186 OA 
HETATM   19  C   UNL     1      -6.983  10.763  68.249  1.00  0.00    -0.069 C  
HETATM   20  C   UNL     1      -9.553  10.360  68.194  1.00  0.00    -0.155 C  
HETATM   21  C   UNL     1      -8.089   9.714  68.322  1.00  0.00    -0.105 C  
ENDROOT
BRANCH   3  22
HETATM   22  N   UNL     1     -10.867   8.152  71.499  1.00  0.00    -0.230 N  
HETATM   23  C   UNL     1     -11.510   5.844  72.252  1.00  0.00    -0.351 C  
HETATM   24  C   UNL     1     -10.460   6.392  73.176  1.00  0.00    -0.265 C  
HETATM   25  C   UNL     1     -11.793   6.898  71.213  1.00  0.00    -0.341 C  
HETATM   26  C   UNL     1     -10.372   7.881  72.930  1.00  0.00    -0.347 C  
BRANCH  22  27
HETATM   27  C   UNL     1     -11.833   9.434  71.646  1.00  0.00    -0.394 C  
BRANCH  27  28
HETATM   28  C   UNL     1     -13.294   9.198  71.438  1.00  0.00    -0.362 C  
HETATM   29  C   UNL     1     -14.155   9.051  72.455  1.00  0.00    -0.478 C  
ENDBRANCH  27  28
ENDBRANCH  22  27
ENDBRANCH   3  22
BRANCH   4  30
HETATM   30  O   UNL     1      -9.561   5.978  68.261  1.00  0.00    -0.117 OA 
BRANCH  30  31
HETATM   31  C   UNL     1      -9.177   5.206  67.216  1.00  0.00    -0.115 C  
HETATM   32  C   UNL     1      -8.808   6.117  66.065  1.00  0.00    -0.160 C  
HETATM   33  O   UNL     1      -8.933   4.012  67.292  1.00  0.00    -0.116 OA 
ENDBRANCH  30  31
ENDBRANCH   4  30
BRANCH   5  34
HETATM   34  N   UNL     1     -11.679  14.641  69.533  1.00  0.00    -0.305 NA 
HETATM   35  C   UNL     1     -12.933  14.048  70.014  1.00  0.00     0.231 C  
HETATM   36  C   UNL     1     -12.790  13.519  71.437  1.00  0.00    -0.355 C  
HETATM   37  O   UNL     1     -12.481  14.590  72.336  1.00  0.00    -0.323 OA 
HETATM   38  C   UNL     1     -11.290  15.282  71.942  1.00  0.00    -0.366 C  
HETATM   39  C   UNL     1     -11.293  15.707  70.462  1.00  0.00    -0.367 C  
ENDBRANCH   5  34
TORSDOF 6
ENDMDL
MODEL        8
REMARK 921   NORMALIZED FREE ENERGY PREDICTED BY IDOCK:   -5.80 KCAL/MOL
REMARK 922        TOTAL FREE ENERGY PREDICTED BY IDOCK:   -8.14 KCAL/MOL
REMARK 923 INTER-LIGAND FREE ENERGY PREDICTED BY IDOCK:   -8.82 KCAL/MOL
REMARK 924 INTRA-LIGAND FREE ENERGY PREDICTED BY IDOCK:    0.68 KCAL/MOL
REMARK 927      BINDING AFFINITY PREDICTED BY RF-SCORE:    0.00 PKD
ROOT
HETATM    1  C   UNL     1      -7.768  10.715  68.225  1.00  0.00    -0.107 C  
HETATM    2  C   UNL     1      -8.183  10.549  69.600  1.00  0.00    -0.031 C  
HETATM    3  C   UNL     1      -9.375  10.065  68.795  1.00  0.00    -0.162 C  
HETATM    4  C   UNL     1      -8.977   9.864  66.761  1.00  0.00    -0.138 C  
HETATM    5  C   UNL     1     -11.752  14.840  69.801  1.00  0.00    -0.310 C  
HETATM    6  C   UNL     1     -11.024  16.109  69.296  1.00  0.00    -0.315 C  
HETATM    7  C   UNL     1      -9.613  15.691  68.913  1.00  0.00    -0.224 C  
HETATM    8  C   UNL     1      -9.652  15.001  67.560  1.00  0.00    -0.203 C  
HETATM    9  C   UNL     1      -8.740   9.152  67.879  1.00  0.00    -0.128 C  
HETATM   10  C   UNL     1     -10.587   9.543  67.251  1.00  0.00    -0.317 C  
HETATM   11  C   UNL     1      -7.820   7.915  67.844  1.00  0.00    -0.127 C  
HETATM   12  C   UNL     1      -8.228  14.645  67.103  1.00  0.00    -0.227 C  
HETATM   13  C   UNL     1     -10.687  13.832  67.465  1.00  0.00    -0.262 C  
HETATM   14  C   UNL     1     -11.320  13.926  66.051  1.00  0.00    -0.324 C  
HETATM   15  C   UNL     1     -10.874  11.231  66.941  1.00  0.00    -0.333 C  
HETATM   16  C   UNL     1     -11.935  13.937  68.531  1.00  0.00    -0.394 C  
HETATM   17  H   UNL     1     -11.790  17.422  70.483  1.00  0.00     0.000 HD 
HETATM   18  O   UNL     1     -10.908  17.161  70.243  1.00  0.00     0.081 OA 
HETATM   19  C   UNL     1      -7.622  13.443  67.835  1.00  0.00    -0.151 C  
HETATM   20  C   UNL     1     -10.006  12.415  67.677  1.00  0.00    -0.200 C  
HETATM   21  C   UNL     1      -8.427  12.193  67.491  1.00  0.00    -0.169 C  
ENDROOT
BRANCH   3  22
HETATM   22  N   UNL     1     -10.307   8.816  69.796  1.00  0.00    -0.206 N  
HETATM   23  C   UNL     1     -10.455   8.662  72.297  1.00  0.00    -0.376 C  
HETATM   24  C   UNL     1     -11.632   9.438  71.778  1.00  0.00    -0.433 C  
HETATM   25  C   UNL     1      -9.621   8.256  71.109  1.00  0.00    -0.163 C  
HETATM   26  C   UNL     1     -11.714   9.195  70.289  1.00  0.00    -0.017 C  
BRANCH  22  27
HETATM   27  C   UNL     1     -10.552   7.561  68.813  1.00  0.00    -0.156 C  
BRANCH  27  28
HETATM   28  C   UNL     1     -11.048   6.303  69.447  1.00  0.00    -0.477 C  
HETATM   29  C   UNL     1     -10.324   5.175  69.482  1.00  0.00    -0.292 C  
ENDBRANCH  27  28
ENDBRANCH  22  27
ENDBRANCH   3  22
BRANCH   4  30
HETATM   30  O   UNL     1      -8.965   8.539  65.918  1.00  0.00    -0.173 OA 
BRANCH  30  31
HETATM   31  C   UNL     1      -8.621   8.390  64.616  1.00  0.00    -0.018 C  
HETATM   32  C   UNL     1      -8.955   9.674  63.888  1.00  0.00    -0.254 C  
HETATM   33  O   UNL     1      -7.933   7.479  64.183  1.00  0.00    -0.133 OA 
ENDBRANCH  30  31
ENDBRANCH   4  30
BRANCH   5  34
HETATM   34  N   UNL     1     -12.891  15.069  70.723  1.00  0.00    -0.378 NA 
HETATM   35  C   UNL     1     -13.869  14.004  70.976  1.00  0.00     0.096 C  
HETATM   36  C   UNL     1     -13.388  13.056  72.071  1.00  0.00    -0.492 C  
HETATM   37  O   UNL     1     -13.234  13.764  73.307  1.00  0.00    -0.482 OA 
HETATM   38  C   UNL     1     -12.329  14.867  73.174  1.00  0.00    -0.365 C  
HETATM   39  C   UNL     1     -12.657  15.784  71.980  1.00  0.00    -0.455 C  
ENDBRANCH   5  34
TORSDOF 6
ENDMDL
MODEL        9
REMARK 921   NORMALIZED FREE ENERGY PREDICTED BY IDOCK:   -5.78 KCAL/MOL
REMARK 922        TOTAL FREE ENERGY PREDICTED BY IDOCK:   -8.10 KCAL/MOL
REMARK 923 INTER-LIGAND FREE ENERGY PREDICTED BY IDOCK:   -7.62 KCAL/MOL
REMARK 924 INTRA-LIGAND FREE ENERGY PREDICTED BY IDOCK:   -0.49 KCAL/MOL
REMARK 927      BINDING AFFINITY PREDICTED BY RF-SCORE:    0.00 PKD
ROOT
HETATM    1  C   UNL     1      -9.890  15.867  69.287  1.00  0.00    -0.259 C  
HETATM    2  C   UNL     1      -8.635  15.387  69.822  1.00  0.00    -0.006 C  
HETATM    3  C   UNL     1      -8.372  15.527  68.334  1.00  0.00    -0.154 C  
HETATM    4  C   UNL     1      -9.891  16.518  67.311  1.00  0.00    -0.254 C  
HETATM    5  C   UNL     1      -8.994  10.152  67.910  1.00  0.00    -0.128 C  
HETATM    6  C   UNL     1     -10.361   9.565  68.335  1.00  0.00    -0.206 C  
HETATM    7  C   UNL     1     -11.098  10.657  69.095  1.00  0.00    -0.309 C  
HETATM    8  C   UNL     1     -11.672  11.652  68.100  1.00  0.00    -0.365 C  
HETATM    9  C   UNL     1      -8.850  16.865  68.092  1.00  0.00    -0.223 C  
HETATM   10  C   UNL     1      -8.598  15.926  66.355  1.00  0.00    -0.364 C  
HETATM   11  C   UNL     1      -8.678  18.319  68.575  1.00  0.00    -0.325 C  
HETATM   12  C   UNL     1     -12.499  12.720  68.832  1.00  0.00     0.421 C  
HETATM   13  C   UNL     1     -10.630  12.210  67.076  1.00  0.00    -0.256 C  
HETATM   14  C   UNL     1     -11.365  12.303  65.713  1.00  0.00    -0.400 C  
HETATM   15  C   UNL     1      -9.555  14.481  66.201  1.00  0.00    -0.325 C  
HETATM   16  C   UNL     1      -9.329  11.235  66.825  1.00  0.00    -0.191 C  
HETATM   17  H   UNL     1      -9.838   7.748  68.712  1.00  0.00     0.000 HD 
HETATM   18  O   UNL     1     -10.298   8.430  69.187  1.00  0.00    -0.215 OA 
HETATM   19  C   UNL     1     -11.653  13.763  69.571  1.00  0.00    -0.355 C  
HETATM   20  C   UNL     1     -10.074  13.632  67.507  1.00  0.00    -0.237 C  
HETATM   21  C   UNL     1     -10.855  14.570  68.550  1.00  0.00    -0.256 C  
ENDROOT
BRANCH   3  22
HETATM   22  N   UNL     1      -6.567  15.849  68.073  1.00  0.00    -0.121 N  
HETATM   23  C   UNL     1      -5.468  18.038  67.522  1.00  0.00    -0.142 C  
HETATM   24  C   UNL     1      -5.432  17.826  69.009  1.00  0.00    -0.183 C  
HETATM   25  C   UNL     1      -6.151  16.842  66.911  1.00  0.00    -0.188 C  
HETATM   26  C   UNL     1      -5.750  16.370  69.267  1.00  0.00    -0.137 C  
BRANCH  22  27
HETATM   27  C   UNL     1      -5.910  14.416  67.733  1.00  0.00    -0.079 C  
BRANCH  27  28
HETATM   28  C   UNL     1      -6.615  13.213  68.268  1.00  0.00    -0.097 C  
HETATM   29  C   UNL     1      -6.300  12.654  69.445  1.00  0.00    -0.112 C  
ENDBRANCH  27  28
ENDBRANCH  22  27
ENDBRANCH   3  22
BRANCH   4  30
HETATM   30  O   UNL     1      -9.801  17.906  66.581  1.00  0.00    -0.309 OA 
BRANCH  30  31
HETATM   31  C   UNL     1     -10.657  18.414  65.662  1.00  0.00    -0.103 C  
HETATM   32  C   UNL     1     -10.603  19.924  65.747  1.00  0.00    -0.490 C  
HETATM   33  O   UNL     1     -11.172  17.764  64.765  1.00  0.00    -0.767 OA 
ENDBRANCH  30  31
ENDBRANCH   4  30
BRANCH   5  34
HETATM   34  N   UNL     1      -7.912   9.165  67.669  1.00  0.00    -0.100 NA 
HETATM   35  C   UNL     1      -8.042   8.165  66.602  1.00  0.00    -0.103 C  
HETATM   36  C   UNL     1      -7.603   8.729  65.254  1.00  0.00    -0.091 C  
HETATM   37  O   UNL     1      -6.218   9.095  65.297  1.00  0.00    -0.062 OA 
HETATM   38  C   UNL     1      -5.956  10.042  66.339  1.00  0.00    -0.065 C  
HETATM   39  C   UNL     1      -6.518   9.614  67.708  1.00  0.00    -0.058 C  
ENDBRANCH   5  34
TORSDOF 6
ENDMDL
MODEL       10
REMARK 921   NORMALIZED FREE ENERGY PREDICTED BY IDOCK:   -5.74 KCAL/MOL
REMARK 922        TOTAL FREE ENERGY PREDICTED BY IDOCK:   -8.06 KCAL/MOL
REMARK 923 INTER-LIGAND FREE ENERGY PREDICTED BY IDOCK:   -7.78 KCAL/MOL
REMARK 924 INTRA-LIGAND FREE ENERGY PREDICTED BY IDOCK:   -0.28 KCAL/MOL
REMARK 927      BINDING AFFINITY PREDICTED BY RF-SCORE:    0.00 PKD
ROOT
HETATM    1  C   UNL     1      -7.596   7.416  69.623  1.00  0.00    -0.095 C  
HETATM    2  C   UNL     1      -8.076   8.233  70.716  1.00  0.00    -0.109 C  
HETATM    3  C   UNL     1      -9.312   7.984  69.872  1.00  0.00    -0.156 C  
HETATM    4  C   UNL     1      -9.028   6.554  68.384  1.00  0.00    -0.125 C  
HETATM    5  C   UNL     1      -8.705  12.981  67.843  1.00  0.00    -0.189 C  
HETATM    6  C   UNL     1      -7.385  13.282  67.094  1.00  0.00     0.094 C  
HETATM    7  C   UNL     1      -6.425  12.146  67.410  1.00  0.00    -0.149 C  
HETATM    8  C   UNL     1      -6.794  10.936  66.569  1.00  0.00    -0.132 C  
HETATM    9  C   UNL     1      -9.255   6.552  69.711  1.00  0.00    -0.145 C  
HETATM   10  C   UNL     1     -10.564   7.313  68.419  1.00  0.00    -0.209 C  
HETATM   11  C   UNL     1      -9.165   5.245  70.523  1.00  0.00    -0.187 C  
HETATM   12  C   UNL     1      -5.786   9.799  66.801  1.00  0.00    -0.054 C  
HETATM   13  C   UNL     1      -8.297  10.517  66.673  1.00  0.00    -0.131 C  
HETATM   14  C   UNL     1      -8.732  10.096  65.244  1.00  0.00    -0.180 C  
HETATM   15  C   UNL     1      -9.867   8.469  67.322  1.00  0.00    -0.259 C  
HETATM   16  C   UNL     1      -9.315  11.730  67.119  1.00  0.00    -0.178 C  
HETATM   17  H   UNL     1      -7.340  15.202  67.263  1.00  0.00     0.000 HD 
HETATM   18  O   UNL     1      -6.739  14.492  67.460  1.00  0.00    -0.185 OA 
HETATM   19  C   UNL     1      -5.963   9.074  68.139  1.00  0.00    -0.046 C  
HETATM   20  C   UNL     1      -8.514   9.323  67.694  1.00  0.00    -0.116 C  
HETATM   21  C   UNL     1      -7.311   8.359  68.144  1.00  0.00    -0.096 C  
ENDROOT
BRANCH   3  22
HETATM   22  N   UNL     1     -10.807   8.059  70.962  1.00  0.00    -0.231 N  
HETATM   23  C   UNL     1     -11.907   6.160  72.182  1.00  0.00    -0.339 C  
HETATM   24  C   UNL     1     -10.939   6.846  73.104  1.00  0.00    -0.297 C  
HETATM   25  C   UNL     1     -11.861   6.880  70.859  1.00  0.00    -0.376 C  
HETATM   26  C   UNL     1     -10.585   8.177  72.479  1.00  0.00    -0.340 C  
BRANCH  22  27
HETATM   27  C   UNL     1     -11.574   9.419  70.563  1.00  0.00    -0.235 C  
BRANCH  27  28
HETATM   28  C   UNL     1     -12.627   9.896  71.509  1.00  0.00    -0.513 C  
HETATM   29  C   UNL     1     -12.980  11.185  71.610  1.00  0.00    -0.548 C  
ENDBRANCH  27  28
ENDBRANCH  22  27
ENDBRANCH   3  22
BRANCH   4  30
HETATM   30  O   UNL     1      -9.719   5.149  68.267  1.00  0.00    -0.129 OA 
BRANCH  30  31
HETATM   31  C   UNL     1      -9.549   4.222  67.293  1.00  0.00    -0.189 C  
HETATM   32  C   UNL     1      -8.929   4.904  66.093  1.00  0.00    -0.125 C  
HETATM   33  O   UNL     1      -9.643   3.017  67.463  1.00  0.00    -0.180 OA 
ENDBRANCH  30  31
ENDBRANCH   4  30
BRANCH   5  34
HETATM   34  N   UNL     1      -9.559  14.155  68.148  1.00  0.00    -0.211 NA 
HETATM   35  C   UNL     1      -9.950  15.088  67.084  1.00  0.00    -0.237 C  
HETATM   36  C   UNL     1     -11.183  14.593  66.335  1.00  0.00    -0.336 C  
HETATM   37  O   UNL     1     -12.302  14.507  67.225  1.00  0.00    -0.276 OA 
HETATM   38  C   UNL     1     -12.024  13.652  68.340  1.00  0.00    -0.356 C  
HETATM   39  C   UNL     1     -10.700  13.990  69.052  1.00  0.00    -0.211 C  
ENDBRANCH   5  34
TORSDOF 6
ENDMDL
MODEL       11
REMARK 921   NORMALIZED FREE ENERGY PREDICTED BY IDOCK:   -5.72 KCAL/MOL
REMARK 922        TOTAL FREE ENERGY PREDICTED BY IDOCK:   -8.02 KCAL/MOL
REMARK 923 INTER-LIGAND FREE ENERGY PREDICTED BY IDOCK:   -7.72 KCAL/MOL
REMARK 924 INTRA-LIGAND FREE ENERGY PREDICTED BY IDOCK:   -0.30 KCAL/MOL
REMARK 927      BINDING AFFINITY PREDICTED BY RF-SCORE:    0.00 PKD
ROOT
HETATM    1  C   UNL     1      -9.303   9.892  66.037  1.00  0.00    -0.240 C  
HETATM    2  C   UNL     1      -8.011  10.512  65.843  1.00  0.00    -0.154 C  
HETATM    3  C   UNL     1      -8.209  10.537  67.348  1.00  0.00    -0.118 C  
HETATM    4  C   UNL     1      -9.842   9.414  67.990  1.00  0.00    -0.164 C  
HETATM    5  C   UNL     1      -9.569  15.772  66.890  1.00  0.00    -0.230 C  
HETATM    6  C   UNL     1     -10.796  16.106  66.008  1.00  0.00    -0.154 C  
HETATM    7  C   UNL     1     -11.123  14.856  65.208  1.00  0.00    -0.382 C  
HETATM    8  C   UNL     1     -11.856  13.872  66.104  1.00  0.00    -0.422 C  
HETATM    9  C   UNL     1      -8.576   9.167  67.603  1.00  0.00    -0.117 C  
HETATM   10  C   UNL     1      -8.991  10.273  69.204  1.00  0.00    -0.187 C  
HETATM   11  C   UNL     1      -8.089   7.721  67.379  1.00  0.00    -0.123 C  
HETATM   12  C   UNL     1     -12.280  12.633  65.300  1.00  0.00    -0.532 C  
HETATM   13  C   UNL     1     -11.125  13.565  67.452  1.00  0.00    -0.300 C  
HETATM   14  C   UNL     1     -12.232  13.474  68.537  1.00  0.00    -0.160 C  
HETATM   15  C   UNL     1     -10.114  11.564  68.885  1.00  0.00    -0.144 C  
HETATM   16  C   UNL     1     -10.093  14.743  67.954  1.00  0.00    -0.221 C  
HETATM   17  H   UNL     1     -10.401  17.944  65.579  1.00  0.00     0.000 HD 
HETATM   18  O   UNL     1     -10.606  17.163  65.078  1.00  0.00    -0.704 OA 
HETATM   19  C   UNL     1     -11.128  11.673  64.982  1.00  0.00    -0.312 C  
HETATM   20  C   UNL     1     -10.297  12.214  67.388  1.00  0.00    -0.220 C  
HETATM   21  C   UNL     1     -10.597  11.084  66.286  1.00  0.00    -0.295 C  
ENDROOT
BRANCH   3  22
HETATM   22  N   UNL     1      -6.551  10.516  68.171  1.00  0.00    -0.063 N  
HETATM   23  C   UNL     1      -5.599   8.721  69.647  1.00  0.00    -0.030 C  
HETATM   24  C   UNL     1      -5.137   8.498  68.235  1.00  0.00    -0.034 C  
HETATM   25  C   UNL     1      -6.464   9.955  69.651  1.00  0.00    -0.052 C  
HETATM   26  C   UNL     1      -5.407   9.770  67.464  1.00  0.00    -0.036 C  
BRANCH  22  27
HETATM   27  C   UNL     1      -6.062  12.051  68.214  1.00  0.00    -0.051 C  
BRANCH  27  28
HETATM   28  C   UNL     1      -6.614  12.899  69.314  1.00  0.00    -0.085 C  
HETATM   29  C   UNL     1      -5.850  13.397  70.297  1.00  0.00    -0.157 C  
ENDBRANCH  27  28
ENDBRANCH  22  27
ENDBRANCH   3  22
BRANCH   4  30
HETATM   30  O   UNL     1      -9.819   8.122  68.882  1.00  0.00    -0.168 OA 
BRANCH  30  31
HETATM   31  C   UNL     1     -10.877   7.467  69.416  1.00  0.00    -0.171 C  
HETATM   32  C   UNL     1     -11.122   6.216  68.600  1.00  0.00    -0.378 C  
HETATM   33  O   UNL     1     -11.368   7.719  70.505  1.00  0.00    -0.274 OA 
ENDBRANCH  30  31
ENDBRANCH   4  30
BRANCH   5  34
HETATM   34  N   UNL     1      -8.742  16.927  67.316  1.00  0.00    -0.191 NA 
HETATM   35  C   UNL     1      -8.644  17.290  68.735  1.00  0.00    -0.230 C  
HETATM   36  C   UNL     1      -7.571  16.471  69.447  1.00  0.00    -0.061 C  
HETATM   37  O   UNL     1      -6.285  16.736  68.874  1.00  0.00    -0.148 OA 
HETATM   38  C   UNL     1      -6.267  16.461  67.468  1.00  0.00    -0.158 C  
HETATM   39  C   UNL     1      -7.426  17.126  66.702  1.00  0.00    -0.258 C  
ENDBRANCH   5  34
TORSDOF 6
ENDMDL
MODEL       12
REMARK 921   NORMALIZED FREE ENERGY PREDICTED BY IDOCK:   -5.68 KCAL/MOL
REMARK 922        TOTAL FREE ENERGY PREDICTED BY IDOCK:   -7.97 KCAL/MOL
REMARK 923 INTER-LIGAND FREE ENERGY PREDICTED BY IDOCK:   -8.26 KCAL/MOL
REMARK 924 INTRA-LIGAND FREE ENERGY PREDICTED BY IDOCK:    0.29 KCAL/MOL
REMARK 927      BINDING AFFINITY PREDICTED BY RF-SCORE:    0.00 PKD
ROOT
HETATM    1  C   UNL     1      -7.836   7.856  69.553  1.00  0.00    -0.110 C  
HETATM    2  C   UNL     1      -8.307   8.630  70.681  1.00  0.00    -0.157 C  
HETATM    3  C   UNL     1      -9.579   8.131  70.019  1.00  0.00    -0.171 C  
HETATM    4  C   UNL     1      -9.241   6.701  68.543  1.00  0.00    -0.127 C  
HETATM    5  C   UNL     1     -10.130  13.054  67.801  1.00  0.00    -0.229 C  
HETATM    6  C   UNL     1      -8.992  13.540  66.871  1.00  0.00    -0.209 C  
HETATM    7  C   UNL     1      -7.814  12.602  67.083  1.00  0.00    -0.110 C  
HETATM    8  C   UNL     1      -8.070  11.307  66.331  1.00  0.00    -0.138 C  
HETATM    9  C   UNL     1      -9.291   6.725  69.888  1.00  0.00    -0.157 C  
HETATM   10  C   UNL     1     -10.870   7.186  68.767  1.00  0.00    -0.157 C  
HETATM   11  C   UNL     1      -8.867   5.493  70.714  1.00  0.00    -0.143 C  
HETATM   12  C   UNL     1      -6.856  10.373  66.452  1.00  0.00    -0.112 C  
HETATM   13  C   UNL     1      -9.449  10.642  66.648  1.00  0.00    -0.195 C  
HETATM   14  C   UNL     1      -9.984  10.084  65.303  1.00  0.00    -0.368 C  
HETATM   15  C   UNL     1     -10.535   8.390  67.557  1.00  0.00    -0.328 C  
HETATM   16  C   UNL     1     -10.598  11.683  67.198  1.00  0.00    -0.269 C  
HETATM   17  H   UNL     1      -9.265  15.445  66.984  1.00  0.00     0.000 HD 
HETATM   18  O   UNL     1      -8.529  14.860  67.116  1.00  0.00    -0.193 OA 
HETATM   19  C   UNL     1      -6.727   9.694  67.820  1.00  0.00    -0.066 C  
HETATM   20  C   UNL     1      -9.318   9.480  67.720  1.00  0.00    -0.143 C  
HETATM   21  C   UNL     1      -7.916   8.760  68.026  1.00  0.00    -0.106 C  
ENDROOT
BRANCH   3  22
HETATM   22  N   UNL     1     -10.910   8.002  71.300  1.00  0.00    -0.229 N  
HETATM   23  C   UNL     1     -11.494   6.003  72.702  1.00  0.00    -0.297 C  
HETATM   24  C   UNL     1     -10.549   6.886  73.467  1.00  0.00    -0.378 C  
HETATM   25  C   UNL     1     -11.746   6.658  71.369  1.00  0.00    -0.324 C  
HETATM   26  C   UNL     1     -10.517   8.226  72.770  1.00  0.00    -0.258 C  
BRANCH  22  27
HETATM   27  C   UNL     1     -11.947   9.193  70.977  1.00  0.00    -0.282 C  
BRANCH  27  28
HETATM   28  C   UNL     1     -12.919   9.544  72.056  1.00  0.00    -0.514 C  
HETATM   29  C   UNL     1     -14.040   8.843  72.276  1.00  0.00    -0.512 C  
ENDBRANCH  27  28
ENDBRANCH  22  27
ENDBRANCH   3  22
BRANCH   4  30
HETATM   30  O   UNL     1      -9.683   5.194  68.556  1.00  0.00    -0.133 OA 
BRANCH  30  31
HETATM   31  C   UNL     1      -9.587   4.295  67.547  1.00  0.00    -0.173 C  
HETATM   32  C   UNL     1      -9.068   5.014  66.320  1.00  0.00    -0.129 C  
HETATM   33  O   UNL     1      -9.663   3.085  67.690  1.00  0.00    -0.116 OA 
ENDBRANCH  30  31
ENDBRANCH   4  30
BRANCH   5  34
HETATM   34  N   UNL     1     -11.132  14.078  68.189  1.00  0.00    -0.251 NA 
HETATM   35  C   UNL     1     -12.346  13.691  68.918  1.00  0.00    -0.012 C  
HETATM   36  C   UNL     1     -12.092  13.609  70.420  1.00  0.00    -0.351 C  
HETATM   37  O   UNL     1     -11.707  14.892  70.929  1.00  0.00    -0.294 OA 
HETATM   38  C   UNL     1     -10.549  15.400  70.257  1.00  0.00    -0.277 C  
HETATM   39  C   UNL     1     -10.668  15.361  68.722  1.00  0.00    -0.241 C  
ENDBRANCH   5  34
TORSDOF 6
ENDMDL
MODEL       13
REMARK 921   NORMALIZED FREE ENERGY PREDICTED BY IDOCK:   -5.60 KCAL/MOL
REMARK 922        TOTAL FREE ENERGY PREDICTED BY IDOCK:   -7.86 KCAL/MOL
REMARK 923 INTER-LIGAND FREE ENERGY PREDICTED BY IDOCK:   -8.42 KCAL/MOL
REMARK 924 INTRA-LIGAND FREE ENERGY PREDICTED BY IDOCK:    0.56 KCAL/MOL
REMARK 927      BINDING AFFINITY PREDICTED BY RF-SCORE:    0.00 PKD
ROOT
HETATM    1  C   UNL     1     -11.039  14.824  69.145  1.00  0.00    -0.278 C  
HETATM    2  C   UNL     1      -9.832  15.055  69.908  1.00  0.00     0.019 C  
HETATM    3  C   UNL     1      -9.330  14.733  68.513  1.00  0.00    -0.199 C  
HETATM    4  C   UNL     1     -10.839  14.671  67.079  1.00  0.00    -0.304 C  
HETATM    5  C   UNL     1      -8.190   9.730  70.284  1.00  0.00    -0.148 C  
HETATM    6  C   UNL     1      -9.371   8.888  70.823  1.00  0.00    -0.230 C  
HETATM    7  C   UNL     1     -10.542   9.838  71.021  1.00  0.00    -0.295 C  
HETATM    8  C   UNL     1     -11.178  10.128  69.672  1.00  0.00    -0.310 C  
HETATM    9  C   UNL     1     -10.132  15.625  67.715  1.00  0.00    -0.226 C  
HETATM   10  C   UNL     1      -9.263  14.280  66.533  1.00  0.00    -0.259 C  
HETATM   11  C   UNL     1     -10.511  17.113  67.572  1.00  0.00    -0.348 C  
HETATM   12  C   UNL     1     -12.420  11.015  69.849  1.00  0.00    -0.286 C  
HETATM   13  C   UNL     1     -10.171  10.613  68.579  1.00  0.00    -0.191 C  
HETATM   14  C   UNL     1     -10.609   9.937  67.252  1.00  0.00    -0.316 C  
HETATM   15  C   UNL     1      -9.683  12.637  66.922  1.00  0.00    -0.234 C  
HETATM   16  C   UNL     1      -8.613  10.151  68.832  1.00  0.00    -0.141 C  
HETATM   17  H   UNL     1      -8.408   7.648  71.943  1.00  0.00     0.000 HD 
HETATM   18  O   UNL     1      -9.139   8.242  72.066  1.00  0.00    -0.160 OA 
HETATM   19  C   UNL     1     -12.099  12.483  70.150  1.00  0.00    -0.368 C  
HETATM   20  C   UNL     1     -10.172  12.192  68.426  1.00  0.00    -0.212 C  
HETATM   21  C   UNL     1     -11.395  13.095  68.942  1.00  0.00    -0.335 C  
ENDROOT
BRANCH   3  22
HETATM   22  N   UNL     1      -7.695  15.563  68.258  1.00  0.00    -0.114 N  
HETATM   23  C   UNL     1      -6.125  16.425  70.019  1.00  0.00    -0.151 C  
HETATM   24  C   UNL     1      -5.718  15.032  69.631  1.00  0.00    -0.105 C  
HETATM   25  C   UNL     1      -7.331  16.791  69.192  1.00  0.00    -0.213 C  
HETATM   26  C   UNL     1      -6.427  14.695  68.339  1.00  0.00    -0.104 C  
BRANCH  22  27
HETATM   27  C   UNL     1      -7.710  16.108  66.741  1.00  0.00    -0.253 C  
BRANCH  27  28
HETATM   28  C   UNL     1      -6.853  17.296  66.448  1.00  0.00    -0.300 C  
HETATM   29  C   UNL     1      -7.334  18.414  65.886  1.00  0.00    -0.238 C  
ENDBRANCH  27  28
ENDBRANCH  22  27
ENDBRANCH   3  22
BRANCH   4  30
HETATM   30  O   UNL     1     -11.030  15.634  65.853  1.00  0.00    -0.308 OA 
BRANCH  30  31
HETATM   31  C   UNL     1     -11.795  15.432  64.754  1.00  0.00    -0.169 C  
HETATM   32  C   UNL     1     -12.620  14.182  64.975  1.00  0.00    -0.399 C  
HETATM   33  O   UNL     1     -11.965  16.255  63.869  1.00  0.00    -1.003 OA 
ENDBRANCH  30  31
ENDBRANCH   4  30
BRANCH   5  34
HETATM   34  N   UNL     1      -6.835   9.183  70.536  1.00  0.00    -0.063 NA 
HETATM   35  C   UNL     1      -6.603   7.733  70.520  1.00  0.00    -0.038 C  
HETATM   36  C   UNL     1      -6.364   7.223  69.102  1.00  0.00    -0.036 C  
HETATM   37  O   UNL     1      -5.188   7.826  68.550  1.00  0.00    -0.025 OA 
HETATM   38  C   UNL     1      -5.276   9.256  68.554  1.00  0.00    -0.034 C  
HETATM   39  C   UNL     1      -5.676   9.838  69.923  1.00  0.00    -0.041 C  
ENDBRANCH   5  34
TORSDOF 6
ENDMDL
MODEL       14
REMARK 921   NORMALIZED FREE ENERGY PREDICTED BY IDOCK:   -5.55 KCAL/MOL
REMARK 922        TOTAL FREE ENERGY PREDICTED BY IDOCK:   -7.79 KCAL/MOL
REMARK 923 INTER-LIGAND FREE ENERGY PREDICTED BY IDOCK:   -8.09 KCAL/MOL
REMARK 924 INTRA-LIGAND FREE ENERGY PREDICTED BY IDOCK:    0.29 KCAL/MOL
REMARK 927      BINDING AFFINITY PREDICTED BY RF-SCORE:    0.00 PKD
ROOT
HETATM    1  C   UNL     1     -12.018  13.152  68.888  1.00  0.00    -0.317 C  
HETATM    2  C   UNL     1     -10.970  13.775  69.667  1.00  0.00    -0.017 C  
HETATM    3  C   UNL     1     -10.245  13.209  68.460  1.00  0.00    -0.215 C  
HETATM    4  C   UNL     1     -11.526  12.527  66.966  1.00  0.00    -0.356 C  
HETATM    5  C   UNL     1      -8.630   9.086  71.599  1.00  0.00     0.022 C  
HETATM    6  C   UNL     1      -9.736   8.210  72.236  1.00  0.00    -0.254 C  
HETATM    7  C   UNL     1     -11.049   8.958  72.067  1.00  0.00    -0.421 C  
HETATM    8  C   UNL     1     -11.536   8.787  70.638  1.00  0.00    -0.263 C  
HETATM    9  C   UNL     1     -11.057  13.719  67.384  1.00  0.00    -0.312 C  
HETATM   10  C   UNL     1      -9.851  12.297  66.688  1.00  0.00    -0.230 C  
HETATM   11  C   UNL     1     -11.628  15.033  66.815  1.00  0.00    -0.209 C  
HETATM   12  C   UNL     1     -12.907   9.457  70.459  1.00  0.00     0.231 C  
HETATM   13  C   UNL     1     -10.475   9.154  69.550  1.00  0.00    -0.226 C  
HETATM   14  C   UNL     1     -10.629   8.103  68.418  1.00  0.00    -0.148 C  
HETATM   15  C   UNL     1     -10.074  10.755  67.463  1.00  0.00    -0.218 C  
HETATM   16  C   UNL     1      -8.913   9.051  70.056  1.00  0.00    -0.184 C  
HETATM   17  H   UNL     1      -8.758   7.478  73.728  1.00  0.00     0.000 HD 
HETATM   18  O   UNL     1      -9.578   7.945  73.622  1.00  0.00    -0.280 OA 
HETATM   19  C   UNL     1     -12.847  10.986  70.383  1.00  0.00    -0.221 C  
HETATM   20  C   UNL     1     -10.687  10.619  68.981  1.00  0.00    -0.257 C  
HETATM   21  C   UNL     1     -12.086  11.393  69.124  1.00  0.00    -0.331 C  
ENDROOT
BRANCH   3  22
HETATM   22  N   UNL     1      -8.730  14.224  68.140  1.00  0.00    -0.167 N  
HETATM   23  C   UNL     1      -8.565  16.350  66.814  1.00  0.00    -0.270 C  
HETATM   24  C   UNL     1      -8.742  16.686  68.268  1.00  0.00    -0.216 C  
HETATM   25  C   UNL     1      -8.545  14.848  66.696  1.00  0.00    -0.172 C  
HETATM   26  C   UNL     1      -8.465  15.428  69.060  1.00  0.00    -0.229 C  
BRANCH  22  27
HETATM   27  C   UNL     1      -7.479  13.240  68.398  1.00  0.00    -0.124 C  
BRANCH  27  28
HETATM   28  C   UNL     1      -6.630  13.538  69.591  1.00  0.00    -0.025 C  
HETATM   29  C   UNL     1      -5.671  12.706  70.022  1.00  0.00    -0.138 C  
ENDBRANCH  27  28
ENDBRANCH  22  27
ENDBRANCH   3  22
BRANCH   4  30
HETATM   30  O   UNL     1     -11.692  13.106  65.515  1.00  0.00    -0.328 OA 
BRANCH  30  31
HETATM   31  C   UNL     1     -12.322  12.531  64.462  1.00  0.00    -0.467 C  
HETATM   32  C   UNL     1     -11.270  11.993  63.516  1.00  0.00    -0.526 C  
HETATM   33  O   UNL     1     -13.515  12.274  64.428  1.00  0.00    -0.686 OA 
ENDBRANCH  30  31
ENDBRANCH   4  30
BRANCH   5  34
HETATM   34  N   UNL     1      -7.254   8.866  72.110  1.00  0.00    -0.324 NA 
HETATM   35  C   UNL     1      -6.853   7.551  72.623  1.00  0.00    -0.065 C  
HETATM   36  C   UNL     1      -6.404   6.626  71.495  1.00  0.00    -0.042 C  
HETATM   37  O   UNL     1      -5.254   7.170  70.836  1.00  0.00    -0.023 OA 
HETATM   38  C   UNL     1      -5.511   8.484  70.327  1.00  0.00    -0.021 C  
HETATM   39  C   UNL     1      -6.122   9.435  71.373  1.00  0.00    -0.060 C  
ENDBRANCH   5  34
TORSDOF 6
ENDMDL
MODEL       15
REMARK 921   NORMALIZED FREE ENERGY PREDICTED BY IDOCK:   -5.42 KCAL/MOL
REMARK 922        TOTAL FREE ENERGY PREDICTED BY IDOCK:   -7.62 KCAL/MOL
REMARK 923 INTER-LIGAND FREE ENERGY PREDICTED BY IDOCK:   -7.79 KCAL/MOL
REMARK 924 INTRA-LIGAND FREE ENERGY PREDICTED BY IDOCK:    0.16 KCAL/MOL
REMARK 927      BINDING AFFINITY PREDICTED BY RF-SCORE:    0.00 PKD
ROOT
HETATM    1  C   UNL     1     -10.469  12.803  66.011  1.00  0.00    -0.291 C  
HETATM    2  C   UNL     1     -11.651  12.616  66.823  1.00  0.00    -0.438 C  
HETATM    3  C   UNL     1     -10.569  12.968  67.826  1.00  0.00    -0.226 C  
HETATM    4  C   UNL     1      -8.801  13.628  66.943  1.00  0.00    -0.187 C  
HETATM    5  C   UNL     1     -10.231   7.688  69.034  1.00  0.00    -0.206 C  
HETATM    6  C   UNL     1      -9.846   6.725  67.884  1.00  0.00    -0.129 C  
HETATM    7  C   UNL     1      -9.979   7.506  66.586  1.00  0.00    -0.270 C  
HETATM    8  C   UNL     1      -8.769   8.411  66.427  1.00  0.00    -0.159 C  
HETATM    9  C   UNL     1     -10.009  14.153  67.226  1.00  0.00    -0.249 C  
HETATM   10  C   UNL     1      -8.788  13.492  68.651  1.00  0.00    -0.003 C  
HETATM   11  C   UNL     1     -10.405  15.546  66.695  1.00  0.00    -0.287 C  
HETATM   12  C   UNL     1      -8.830   9.148  65.079  1.00  0.00    -0.230 C  
HETATM   13  C   UNL     1      -8.481   9.322  67.665  1.00  0.00    -0.116 C  
HETATM   14  C   UNL     1      -6.938   9.357  67.830  1.00  0.00    -0.080 C  
HETATM   15  C   UNL     1      -8.217  11.871  68.381  1.00  0.00    -0.160 C  
HETATM   16  C   UNL     1      -9.077   8.750  69.087  1.00  0.00    -0.141 C  
HETATM   17  H   UNL     1     -10.575   5.079  68.575  1.00  0.00     0.000 HD 
HETATM   18  O   UNL     1     -10.658   5.567  67.763  1.00  0.00    -0.211 OA 
HETATM   19  C   UNL     1      -9.845  10.296  65.043  1.00  0.00    -0.397 C  
HETATM   20  C   UNL     1      -9.054  10.788  67.473  1.00  0.00    -0.143 C  
HETATM   21  C   UNL     1      -9.405  11.381  66.022  1.00  0.00    -0.235 C  
ENDROOT
BRANCH   3  22
HETATM   22  N   UNL     1     -11.354  13.774  69.296  1.00  0.00    -0.268 N  
HETATM   23  C   UNL     1     -11.030  16.129  70.106  1.00  0.00    -0.359 C  
HETATM   24  C   UNL     1     -12.244  16.071  69.222  1.00  0.00     0.044 C  
HETATM   25  C   UNL     1     -10.459  14.736  70.182  1.00  0.00     0.111 C  
HETATM   26  C   UNL     1     -12.621  14.615  69.064  1.00  0.00     0.237 C  
BRANCH  22  27
HETATM   27  C   UNL     1     -11.844  12.569  70.249  1.00  0.00    -0.223 C  
BRANCH  27  28
HETATM   28  C   UNL     1     -12.725  12.939  71.397  1.00  0.00    -0.366 C  
HETATM   29  C   UNL     1     -13.361  12.026  72.145  1.00  0.00    -0.396 C  
ENDBRANCH  27  28
ENDBRANCH  22  27
ENDBRANCH   3  22
BRANCH   4  30
HETATM   30  O   UNL     1      -8.159  15.057  67.048  1.00  0.00    -0.204 OA 
BRANCH  30  31
HETATM   31  C   UNL     1      -6.849  15.366  67.207  1.00  0.00    -0.108 C  
HETATM   32  C   UNL     1      -6.750  16.824  67.599  1.00  0.00    -0.163 C  
HETATM   33  O   UNL     1      -5.949  14.543  67.271  1.00  0.00    -0.296 OA 
ENDBRANCH  30  31
ENDBRANCH   4  30
BRANCH   5  34
HETATM   34  N   UNL     1     -10.712   7.047  70.282  1.00  0.00    -0.233 NA 
HETATM   35  C   UNL     1      -9.988   7.240  71.544  1.00  0.00    -0.182 C  
HETATM   36  C   UNL     1     -10.413   8.530  72.239  1.00  0.00    -0.332 C  
HETATM   37  O   UNL     1     -11.804   8.476  72.577  1.00  0.00    -0.384 OA 
HETATM   38  C   UNL     1     -12.618   8.244  71.422  1.00  0.00    -0.275 C  
HETATM   39  C   UNL     1     -12.148   7.046  70.575  1.00  0.00    -0.229 C  
ENDBRANCH   5  34
TORSDOF 6
ENDMDL
MODEL       16
REMARK 921   NORMALIZED FREE ENERGY PREDICTED BY IDOCK:   -5.36 KCAL/MOL
REMARK 922        TOTAL FREE ENERGY PREDICTED BY IDOCK:   -7.53 KCAL/MOL
REMARK 923 INTER-LIGAND FREE ENERGY PREDICTED BY IDOCK:   -7.11 KCAL/MOL
REMARK 924 INTRA-LIGAND FREE ENERGY PREDICTED BY IDOCK:   -0.42 KCAL/MOL
REMARK 927      BINDING AFFINITY PREDICTED BY RF-SCORE:    0.00 PKD
ROOT
HETATM    1  C   UNL     1      -8.440   9.318  70.794  1.00  0.00    -0.244 C  
HETATM    2  C   UNL     1      -7.649   8.641  69.790  1.00  0.00    -0.079 C  
HETATM    3  C   UNL     1      -9.080   8.300  69.422  1.00  0.00    -0.154 C  
HETATM    4  C   UNL     1     -10.496   9.398  70.483  1.00  0.00    -0.274 C  
HETATM    5  C   UNL     1      -8.322   3.448  71.732  1.00  0.00    -0.066 C  
HETATM    6  C   UNL     1      -7.955   3.433  73.236  1.00  0.00    -0.070 C  
HETATM    7  C   UNL     1      -7.574   4.855  73.615  1.00  0.00    -0.091 C  
HETATM    8  C   UNL     1      -8.839   5.679  73.785  1.00  0.00    -0.124 C  
HETATM    9  C   UNL     1      -9.688   9.607  69.427  1.00  0.00    -0.203 C  
HETATM   10  C   UNL     1     -11.110   8.215  69.407  1.00  0.00     0.089 C  
HETATM   11  C   UNL     1      -9.537  11.015  68.816  1.00  0.00    -0.194 C  
HETATM   12  C   UNL     1      -8.490   7.099  74.256  1.00  0.00    -0.214 C  
HETATM   13  C   UNL     1      -9.818   5.609  72.568  1.00  0.00    -0.185 C  
HETATM   14  C   UNL     1     -11.250   5.559  73.163  1.00  0.00    -0.321 C  
HETATM   15  C   UNL     1     -11.049   7.138  70.771  1.00  0.00    -0.296 C  
HETATM   16  C   UNL     1      -9.663   4.258  71.643  1.00  0.00    -0.243 C  
HETATM   17  H   UNL     1      -7.101   1.708  73.350  1.00  0.00     0.000 HD 
HETATM   18  O   UNL     1      -6.862   2.597  73.587  1.00  0.00    -0.025 OA 
HETATM   19  C   UNL     1      -7.910   7.995  73.156  1.00  0.00    -0.206 C  
HETATM   20  C   UNL     1      -9.660   6.858  71.603  1.00  0.00    -0.161 C  
HETATM   21  C   UNL     1      -8.976   8.226  72.089  1.00  0.00    -0.274 C  
ENDROOT
BRANCH   3  22
HETATM   22  N   UNL     1      -9.171   7.983  67.600  1.00  0.00    -0.133 N  
HETATM   23  C   UNL     1      -9.840   9.599  65.797  1.00  0.00    -0.373 C  
HETATM   24  C   UNL     1      -8.344   9.604  65.937  1.00  0.00    -0.124 C  
HETATM   25  C   UNL     1     -10.384   8.610  66.796  1.00  0.00    -0.266 C  
HETATM   26  C   UNL     1      -7.959   8.382  66.740  1.00  0.00    -0.098 C  
BRANCH  22  27
HETATM   27  C   UNL     1      -9.268   6.382  67.436  1.00  0.00    -0.117 C  
BRANCH  27  28
HETATM   28  C   UNL     1     -10.462   5.855  66.708  1.00  0.00    -0.344 C  
HETATM   29  C   UNL     1     -10.393   4.819  65.860  1.00  0.00    -0.303 C  
ENDBRANCH  27  28
ENDBRANCH  22  27
ENDBRANCH   3  22
BRANCH   4  30
HETATM   30  O   UNL     1     -11.510  10.452  69.911  1.00  0.00    -0.258 OA 
BRANCH  30  31
HETATM   31  C   UNL     1     -12.304  11.300  70.609  1.00  0.00    -0.383 C  
HETATM   32  C   UNL     1     -12.989  10.512  71.706  1.00  0.00    -0.582 C  
HETATM   33  O   UNL     1     -12.263  12.517  70.520  1.00  0.00    -0.365 OA 
ENDBRANCH  30  31
ENDBRANCH   4  30
BRANCH   5  34
HETATM   34  N   UNL     1      -8.183   2.154  71.019  1.00  0.00    -0.049 NA 
HETATM   35  C   UNL     1      -9.266   1.658  70.161  1.00  0.00    -0.100 C  
HETATM   36  C   UNL     1      -9.183   2.253  68.758  1.00  0.00    -0.163 C  
HETATM   37  O   UNL     1      -7.958   1.862  68.126  1.00  0.00    -0.057 OA 
HETATM   38  C   UNL     1      -6.818   2.254  68.899  1.00  0.00    -0.033 C  
HETATM   39  C   UNL     1      -6.907   1.828  70.377  1.00  0.00    -0.033 C  
ENDBRANCH   5  34
TORSDOF 6
ENDMDL
MODEL       17
REMARK 921   NORMALIZED FREE ENERGY PREDICTED BY IDOCK:   -5.35 KCAL/MOL
REMARK 922        TOTAL FREE ENERGY PREDICTED BY IDOCK:   -7.53 KCAL/MOL
REMARK 923 INTER-LIGAND FREE ENERGY PREDICTED BY IDOCK:   -7.50 KCAL/MOL
REMARK 924 INTRA-LIGAND FREE ENERGY PREDICTED BY IDOCK:   -0.03 KCAL/MOL
REMARK 927      BINDING AFFINITY PREDICTED BY RF-SCORE:    0.00 PKD
ROOT
HETATM    1  C   UNL     1      -7.572  11.056  68.112  1.00  0.00    -0.095 C  
HETATM    2  C   UNL     1      -7.725  11.092  69.549  1.00  0.00     0.039 C  
HETATM    3  C   UNL     1      -9.017  10.467  69.056  1.00  0.00    -0.179 C  
HETATM    4  C   UNL     1      -8.980   9.967  67.035  1.00  0.00    -0.138 C  
HETATM    5  C   UNL     1     -11.404  15.288  69.776  1.00  0.00    -0.289 C  
HETATM    6  C   UNL     1     -10.840  16.481  68.967  1.00  0.00    -0.329 C  
HETATM    7  C   UNL     1      -9.502  16.039  68.396  1.00  0.00    -0.207 C  
HETATM    8  C   UNL     1      -9.748  15.151  67.188  1.00  0.00    -0.230 C  
HETATM    9  C   UNL     1      -8.513   9.438  68.181  1.00  0.00    -0.120 C  
HETATM   10  C   UNL     1     -10.459   9.691  67.854  1.00  0.00    -0.296 C  
HETATM   11  C   UNL     1      -7.555   8.230  68.158  1.00  0.00    -0.098 C  
HETATM   12  C   UNL     1      -8.413  14.760  66.534  1.00  0.00     0.024 C  
HETATM   13  C   UNL     1     -10.726  13.960  67.456  1.00  0.00    -0.271 C  
HETATM   14  C   UNL     1     -11.606  13.825  66.185  1.00  0.00    -0.369 C  
HETATM   15  C   UNL     1     -10.878  11.305  67.359  1.00  0.00    -0.311 C  
HETATM   16  C   UNL     1     -11.767  14.199  68.706  1.00  0.00    -0.380 C  
HETATM   17  H   UNL     1     -11.444  17.942  70.071  1.00  0.00     0.000 HD 
HETATM   18  O   UNL     1     -10.608  17.667  69.713  1.00  0.00     0.088 OA 
HETATM   19  C   UNL     1      -7.629  13.696  67.309  1.00  0.00    -0.073 C  
HETATM   20  C   UNL     1      -9.951  12.606  67.743  1.00  0.00    -0.218 C  
HETATM   21  C   UNL     1      -8.421  12.392  67.305  1.00  0.00    -0.183 C  
ENDROOT
BRANCH   3  22
HETATM   22  N   UNL     1      -9.694   9.365  70.382  1.00  0.00    -0.244 N  
HETATM   23  C   UNL     1     -12.105   8.988  70.975  1.00  0.00    -0.304 C  
HETATM   24  C   UNL     1     -11.657   7.919  70.019  1.00  0.00     0.143 C  
HETATM   25  C   UNL     1     -10.926   9.891  71.228  1.00  0.00    -0.155 C  
HETATM   26  C   UNL     1     -10.146   7.951  69.979  1.00  0.00    -0.199 C  
BRANCH  22  27
HETATM   27  C   UNL     1      -8.478   9.119  71.411  1.00  0.00     0.029 C  
BRANCH  27  28
HETATM   28  C   UNL     1      -8.748   8.197  72.556  1.00  0.00    -0.266 C  
HETATM   29  C   UNL     1      -8.331   8.453  73.805  1.00  0.00    -0.177 C  
ENDBRANCH  27  28
ENDBRANCH  22  27
ENDBRANCH   3  22
BRANCH   4  30
HETATM   30  O   UNL     1      -9.054   8.530  66.406  1.00  0.00    -0.160 OA 
BRANCH  30  31
HETATM   31  C   UNL     1      -8.643   8.144  65.174  1.00  0.00    -0.071 C  
HETATM   32  C   UNL     1      -8.282   9.385  64.385  1.00  0.00    -0.147 C  
HETATM   33  O   UNL     1      -8.373   6.994  64.864  1.00  0.00    -0.107 OA 
ENDBRANCH  30  31
ENDBRANCH   4  30
BRANCH   5  34
HETATM   34  N   UNL     1     -12.370  15.631  70.848  1.00  0.00    -0.410 NA 
HETATM   35  C   UNL     1     -13.551  14.791  71.081  1.00  0.00    -0.371 C  
HETATM   36  C   UNL     1     -13.223  13.606  71.984  1.00  0.00    -0.434 C  
HETATM   37  O   UNL     1     -12.796  14.067  73.272  1.00  0.00    -0.371 OA 
HETATM   38  C   UNL     1     -11.666  14.941  73.170  1.00  0.00    -0.093 C  
HETATM   39  C   UNL     1     -11.863  16.077  72.149  1.00  0.00    -0.528 C  
ENDBRANCH   5  34
TORSDOF 6
ENDMDL
MODEL       18
REMARK 921   NORMALIZED FREE ENERGY PREDICTED BY IDOCK:   -5.35 KCAL/MOL
REMARK 922        TOTAL FREE ENERGY PREDICTED BY IDOCK:   -7.53 KCAL/MOL
REMARK 923 INTER-LIGAND FREE ENERGY PREDICTED BY IDOCK:   -7.92 KCAL/MOL
REMARK 924 INTRA-LIGAND FREE ENERGY PREDICTED BY IDOCK:    0.40 KCAL/MOL
REMARK 927      BINDING AFFINITY PREDICTED BY RF-SCORE:    0.00 PKD
ROOT
HETATM    1  C   UNL     1     -10.484  10.155  65.739  1.00  0.00    -0.128 C  
HETATM    2  C   UNL     1      -9.238  10.463  65.073  1.00  0.00    -0.256 C  
HETATM    3  C   UNL     1      -8.863  10.398  66.542  1.00  0.00    -0.138 C  
HETATM    4  C   UNL     1     -10.381   9.644  67.753  1.00  0.00    -0.236 C  
HETATM    5  C   UNL     1      -8.910  15.825  66.601  1.00  0.00    -0.288 C  
HETATM    6  C   UNL     1     -10.244  16.522  66.240  1.00  0.00    -0.332 C  
HETATM    7  C   UNL     1     -11.147  15.464  65.626  1.00  0.00    -0.272 C  
HETATM    8  C   UNL     1     -11.730  14.606  66.736  1.00  0.00    -0.355 C  
HETATM    9  C   UNL     1      -9.450   9.137  66.923  1.00  0.00    -0.222 C  
HETATM   10  C   UNL     1      -8.959  10.160  68.558  1.00  0.00    -0.127 C  
HETATM   11  C   UNL     1      -9.465   7.643  66.540  1.00  0.00    -0.250 C  
HETATM   12  C   UNL     1     -12.719  13.583  66.154  1.00  0.00    -0.232 C  
HETATM   13  C   UNL     1     -10.665  14.012  67.715  1.00  0.00    -0.248 C  
HETATM   14  C   UNL     1     -11.287  14.089  69.134  1.00  0.00    -0.323 C  
HETATM   15  C   UNL     1      -9.751  11.705  68.675  1.00  0.00    -0.151 C  
HETATM   16  C   UNL     1      -9.257  14.859  67.788  1.00  0.00    -0.186 C  
HETATM   17  H   UNL     1      -9.576  18.244  65.685  1.00  0.00     0.000 HD 
HETATM   18  O   UNL     1     -10.141  17.583  65.301  1.00  0.00    -0.362 OA 
HETATM   19  C   UNL     1     -12.047  12.409  65.434  1.00  0.00    -0.428 C  
HETATM   20  C   UNL     1     -10.292  12.514  67.352  1.00  0.00    -0.222 C  
HETATM   21  C   UNL     1     -11.249  11.594  66.448  1.00  0.00    -0.349 C  
ENDROOT
BRANCH   3  22
HETATM   22  N   UNL     1      -7.084   9.906  66.686  1.00  0.00    -0.085 N  
HETATM   23  C   UNL     1      -5.459  10.553  68.488  1.00  0.00    -0.037 C  
HETATM   24  C   UNL     1      -6.074   9.225  68.829  1.00  0.00    -0.044 C  
HETATM   25  C   UNL     1      -6.048  11.000  67.175  1.00  0.00    -0.074 C  
HETATM   26  C   UNL     1      -6.742   8.700  67.578  1.00  0.00    -0.066 C  
BRANCH  22  27
HETATM   27  C   UNL     1      -6.633   9.450  65.207  1.00  0.00    -0.078 C  
BRANCH  27  28
HETATM   28  C   UNL     1      -6.106   8.059  65.067  1.00  0.00    -0.045 C  
HETATM   29  C   UNL     1      -6.539   7.213  64.122  1.00  0.00    -0.043 C  
ENDBRANCH  27  28
ENDBRANCH  22  27
ENDBRANCH   3  22
BRANCH   4  30
HETATM   30  O   UNL     1     -10.367   8.307  68.578  1.00  0.00    -0.206 OA 
BRANCH  30  31
HETATM   31  C   UNL     1     -11.022   8.042  69.734  1.00  0.00    -0.137 C  
HETATM   32  C   UNL     1     -11.114   6.540  69.893  1.00  0.00    -0.430 C  
HETATM   33  O   UNL     1     -11.258   8.870  70.600  1.00  0.00    -0.256 OA 
ENDBRANCH  30  31
ENDBRANCH   4  30
BRANCH   5  34
HETATM   34  N   UNL     1      -7.719  16.706  66.680  1.00  0.00    -0.252 NA 
HETATM   35  C   UNL     1      -7.859  18.111  67.082  1.00  0.00    -0.218 C  
HETATM   36  C   UNL     1      -7.864  18.258  68.601  1.00  0.00    -0.296 C  
HETATM   37  O   UNL     1      -6.620  17.805  69.147  1.00  0.00    -0.234 OA 
HETATM   38  C   UNL     1      -6.348  16.447  68.782  1.00  0.00    -0.135 C  
HETATM   39  C   UNL     1      -6.484  16.182  67.271  1.00  0.00    -0.181 C  
ENDBRANCH   5  34
TORSDOF 6
ENDMDL
MODEL       19
REMARK 921   NORMALIZED FREE ENERGY PREDICTED BY IDOCK:   -5.26 KCAL/MOL
REMARK 922        TOTAL FREE ENERGY PREDICTED BY IDOCK:   -7.40 KCAL/MOL
REMARK 923 INTER-LIGAND FREE ENERGY PREDICTED BY IDOCK:   -6.70 KCAL/MOL
REMARK 924 INTRA-LIGAND FREE ENERGY PREDICTED BY IDOCK:   -0.70 KCAL/MOL
REMARK 927      BINDING AFFINITY PREDICTED BY RF-SCORE:    0.00 PKD
ROOT
HETATM    1  C   UNL     1      -8.268  10.101  69.093  1.00  0.00    -0.145 C  
HETATM    2  C   UNL     1      -7.117   9.350  68.642  1.00  0.00    -0.070 C  
HETATM    3  C   UNL     1      -8.231   8.914  67.708  1.00  0.00    -0.110 C  
HETATM    4  C   UNL     1      -9.958  10.065  67.881  1.00  0.00    -0.154 C  
HETATM    5  C   UNL     1      -8.671   4.378  70.655  1.00  0.00    -0.090 C  
HETATM    6  C   UNL     1      -9.026   4.542  72.152  1.00  0.00    -0.125 C  
HETATM    7  C   UNL     1      -8.838   6.011  72.496  1.00  0.00    -0.132 C  
HETATM    8  C   UNL     1     -10.031   6.797  71.979  1.00  0.00    -0.183 C  
HETATM    9  C   UNL     1      -8.756  10.189  67.287  1.00  0.00    -0.130 C  
HETATM   10  C   UNL     1     -10.034   8.748  66.787  1.00  0.00    -0.338 C  
HETATM   11  C   UNL     1      -8.325  11.527  66.653  1.00  0.00    -0.167 C  
HETATM   12  C   UNL     1      -9.913   8.274  72.390  1.00  0.00    -0.379 C  
HETATM   13  C   UNL     1     -10.353   6.556  70.468  1.00  0.00    -0.240 C  
HETATM   14  C   UNL     1     -11.899   6.514  70.354  1.00  0.00    -0.378 C  
HETATM   15  C   UNL     1     -10.613   7.829  68.147  1.00  0.00    -0.182 C  
HETATM   16  C   UNL     1      -9.814   5.119  69.876  1.00  0.00    -0.289 C  
HETATM   17  H   UNL     1      -8.340   2.875  72.838  1.00  0.00     0.000 HD 
HETATM   18  O   UNL     1      -8.223   3.793  73.054  1.00  0.00    -0.087 OA 
HETATM   19  C   UNL     1      -8.884   9.066  71.575  1.00  0.00    -0.167 C  
HETATM   20  C   UNL     1      -9.757   7.697  69.542  1.00  0.00    -0.168 C  
HETATM   21  C   UNL     1      -9.347   9.137  70.123  1.00  0.00    -0.235 C  
ENDROOT
BRANCH   3  22
HETATM   22  N   UNL     1      -7.490   8.397  66.092  1.00  0.00    -0.087 N  
HETATM   23  C   UNL     1      -7.500   9.670  63.927  1.00  0.00    -0.123 C  
HETATM   24  C   UNL     1      -6.222   9.955  64.664  1.00  0.00    -0.112 C  
HETATM   25  C   UNL     1      -8.302   8.710  64.768  1.00  0.00    -0.157 C  
HETATM   26  C   UNL     1      -6.081   8.912  65.749  1.00  0.00    -0.052 C  
BRANCH  22  27
HETATM   27  C   UNL     1      -7.320   6.796  66.178  1.00  0.00    -0.072 C  
BRANCH  27  28
HETATM   28  C   UNL     1      -8.216   5.980  65.304  1.00  0.00    -0.138 C  
HETATM   29  C   UNL     1      -9.250   5.275  65.785  1.00  0.00    -0.159 C  
ENDBRANCH  27  28
ENDBRANCH  22  27
ENDBRANCH   3  22
BRANCH   4  30
HETATM   30  O   UNL     1     -10.588  11.009  66.795  1.00  0.00    -0.244 OA 
BRANCH  30  31
HETATM   31  C   UNL     1     -11.661  11.824  66.930  1.00  0.00    -0.234 C  
HETATM   32  C   UNL     1     -11.757  12.244  68.381  1.00  0.00    -0.390 C  
HETATM   33  O   UNL     1     -12.272  12.324  65.998  1.00  0.00    -0.646 OA 
ENDBRANCH  30  31
ENDBRANCH   4  30
BRANCH   5  34
HETATM   34  N   UNL     1      -8.242   3.021  70.236  1.00  0.00    -0.044 NA 
HETATM   35  C   UNL     1      -9.205   2.088  69.638  1.00  0.00    -0.108 C  
HETATM   36  C   UNL     1      -9.353   2.324  68.138  1.00  0.00    -0.210 C  
HETATM   37  O   UNL     1      -8.104   2.095  67.474  1.00  0.00    -0.064 OA 
HETATM   38  C   UNL     1      -7.064   2.923  68.007  1.00  0.00    -0.049 C  
HETATM   39  C   UNL     1      -6.961   2.861  69.542  1.00  0.00    -0.040 C  
ENDBRANCH   5  34
TORSDOF 6
ENDMDL
MODEL       20
REMARK 921   NORMALIZED FREE ENERGY PREDICTED BY IDOCK:   -5.24 KCAL/MOL
REMARK 922        TOTAL FREE ENERGY PREDICTED BY IDOCK:   -7.38 KCAL/MOL
REMARK 923 INTER-LIGAND FREE ENERGY PREDICTED BY IDOCK:   -8.36 KCAL/MOL
REMARK 924 INTRA-LIGAND FREE ENERGY PREDICTED BY IDOCK:    0.98 KCAL/MOL
REMARK 927      BINDING AFFINITY PREDICTED BY RF-SCORE:    0.00 PKD
ROOT
HETATM    1  C   UNL     1      -7.433  11.051  67.670  1.00  0.00    -0.096 C  
HETATM    2  C   UNL     1      -7.719  10.533  68.990  1.00  0.00    -0.125 C  
HETATM    3  C   UNL     1      -8.866  10.022  68.138  1.00  0.00    -0.122 C  
HETATM    4  C   UNL     1      -8.581  10.319  66.096  1.00  0.00    -0.139 C  
HETATM    5  C   UNL     1     -11.931  13.987  70.222  1.00  0.00    -0.339 C  
HETATM    6  C   UNL     1     -11.462  15.441  69.980  1.00  0.00    -0.316 C  
HETATM    7  C   UNL     1     -10.031  15.369  69.471  1.00  0.00    -0.266 C  
HETATM    8  C   UNL     1     -10.047  14.977  68.003  1.00  0.00    -0.223 C  
HETATM    9  C   UNL     1      -8.152   9.445  67.027  1.00  0.00    -0.105 C  
HETATM   10  C   UNL     1     -10.078   9.622  66.557  1.00  0.00    -0.314 C  
HETATM   11  C   UNL     1      -7.043   8.426  66.697  1.00  0.00    -0.073 C  
HETATM   12  C   UNL     1      -8.618  14.982  67.435  1.00  0.00    -0.208 C  
HETATM   13  C   UNL     1     -10.876  13.688  67.691  1.00  0.00    -0.268 C  
HETATM   14  C   UNL     1     -11.613  13.957  66.352  1.00  0.00    -0.382 C  
HETATM   15  C   UNL     1     -10.662  11.260  66.626  1.00  0.00    -0.321 C  
HETATM   16  C   UNL     1     -12.048  13.347  68.794  1.00  0.00    -0.281 C  
HETATM   17  H   UNL     1     -12.352  16.323  71.445  1.00  0.00     0.000 HD 
HETATM   18  O   UNL     1     -11.458  16.278  71.127  1.00  0.00    -0.420 OA 
HETATM   19  C   UNL     1      -7.771  13.782  67.872  1.00  0.00    -0.161 C  
HETATM   20  C   UNL     1      -9.956  12.402  67.572  1.00  0.00    -0.196 C  
HETATM   21  C   UNL     1      -8.379  12.507  67.293  1.00  0.00    -0.185 C  
ENDROOT
BRANCH   3  22
HETATM   22  N   UNL     1      -9.505   8.448  68.875  1.00  0.00    -0.147 N  
HETATM   23  C   UNL     1      -8.818   6.101  68.303  1.00  0.00    -0.112 C  
HETATM   24  C   UNL     1      -8.019   6.578  69.483  1.00  0.00    -0.117 C  
HETATM   25  C   UNL     1      -9.748   7.219  67.905  1.00  0.00    -0.140 C  
HETATM   26  C   UNL     1      -8.702   7.814  70.023  1.00  0.00    -0.141 C  
BRANCH  22  27
HETATM   27  C   UNL     1     -10.927   8.820  69.539  1.00  0.00    -0.068 C  
BRANCH  27  28
HETATM   28  C   UNL     1     -11.052  10.186  70.130  1.00  0.00    -0.378 C  
HETATM   29  C   UNL     1     -11.898  10.466  71.132  1.00  0.00    -0.432 C  
ENDBRANCH  27  28
ENDBRANCH  22  27
ENDBRANCH   3  22
BRANCH   4  30
HETATM   30  O   UNL     1      -8.406   9.220  64.988  1.00  0.00    -0.136 OA 
BRANCH  30  31
HETATM   31  C   UNL     1      -8.564   9.362  63.650  1.00  0.00    -0.208 C  
HETATM   32  C   UNL     1      -7.898   8.187  62.966  1.00  0.00    -0.148 C  
HETATM   33  O   UNL     1      -9.327  10.158  63.125  1.00  0.00    -0.280 OA 
ENDBRANCH  30  31
ENDBRANCH   4  30
BRANCH   5  34
HETATM   34  N   UNL     1     -13.027  13.814  71.208  1.00  0.00    -0.343 NA 
HETATM   35  C   UNL     1     -12.723  13.604  72.629  1.00  0.00    -0.032 C  
HETATM   36  C   UNL     1     -12.503  14.929  73.353  1.00  0.00    -0.446 C  
HETATM   37  O   UNL     1     -13.695  15.722  73.309  1.00  0.00    -0.496 OA 
HETATM   38  C   UNL     1     -14.121  15.959  71.962  1.00  0.00    -0.029 C  
HETATM   39  C   UNL     1     -14.209  14.675  71.116  1.00  0.00    -0.161 C  
ENDBRANCH   5  34
TORSDOF 6
ENDMDL
MODEL       21
REMARK 921   NORMALIZED FREE ENERGY PREDICTED BY IDOCK:   -5.12 KCAL/MOL
REMARK 922        TOTAL FREE ENERGY PREDICTED BY IDOCK:   -7.22 KCAL/MOL
REMARK 923 INTER-LIGAND FREE ENERGY PREDICTED BY IDOCK:   -7.15 KCAL/MOL
REMARK 924 INTRA-LIGAND FREE ENERGY PREDICTED BY IDOCK:   -0.07 KCAL/MOL
REMARK 927      BINDING AFFINITY PREDICTED BY RF-SCORE:    0.00 PKD
ROOT
HETATM    1  C   UNL     1     -11.470  13.901  66.537  1.00  0.00    -0.361 C  
HETATM    2  C   UNL     1     -12.340  13.202  67.456  1.00  0.00     0.018 C  
HETATM    3  C   UNL     1     -11.154  13.609  68.310  1.00  0.00    -0.256 C  
HETATM    4  C   UNL     1      -9.858  14.931  67.356  1.00  0.00    -0.221 C  
HETATM    5  C   UNL     1      -9.330   8.516  67.871  1.00  0.00    -0.135 C  
HETATM    6  C   UNL     1      -9.030   7.996  66.445  1.00  0.00    -0.169 C  
HETATM    7  C   UNL     1      -9.655   8.982  65.471  1.00  0.00    -0.166 C  
HETATM    8  C   UNL     1      -8.762  10.207  65.366  1.00  0.00    -0.176 C  
HETATM    9  C   UNL     1     -11.046  15.009  67.986  1.00  0.00    -0.304 C  
HETATM   10  C   UNL     1      -9.393  14.416  68.922  1.00  0.00    -0.096 C  
HETATM   11  C   UNL     1     -11.868  16.313  67.956  1.00  0.00     0.313 C  
HETATM   12  C   UNL     1      -9.321  11.185  64.320  1.00  0.00    -0.183 C  
HETATM   13  C   UNL     1      -8.393  10.852  66.742  1.00  0.00    -0.138 C  
HETATM   14  C   UNL     1      -6.908  11.288  66.635  1.00  0.00    -0.130 C  
HETATM   15  C   UNL     1      -8.551  13.133  68.102  1.00  0.00    -0.181 C  
HETATM   16  C   UNL     1      -8.473   9.822  68.022  1.00  0.00    -0.118 C  
HETATM   17  H   UNL     1      -9.170   6.097  66.751  1.00  0.00     0.000 HD 
HETATM   18  O   UNL     1      -9.560   6.713  66.142  1.00  0.00    -0.096 OA 
HETATM   19  C   UNL     1     -10.548  11.970  64.795  1.00  0.00    -0.340 C  
HETATM   20  C   UNL     1      -9.316  12.096  67.083  1.00  0.00    -0.193 C  
HETATM   21  C   UNL     1     -10.140  12.880  65.950  1.00  0.00    -0.295 C  
ENDROOT
BRANCH   3  22
HETATM   22  N   UNL     1     -11.715  13.796  70.065  1.00  0.00    -0.277 N  
HETATM   23  C   UNL     1     -11.721  15.887  71.455  1.00  0.00    -0.530 C  
HETATM   24  C   UNL     1     -13.071  15.710  70.819  1.00  0.00    -0.347 C  
HETATM   25  C   UNL     1     -10.862  14.727  71.022  1.00  0.00     0.261 C  
HETATM   26  C   UNL     1     -13.151  14.288  70.312  1.00  0.00     0.088 C  
BRANCH  22  27
HETATM   27  C   UNL     1     -11.687  12.312  70.695  1.00  0.00     0.266 C  
BRANCH  27  28
HETATM   28  C   UNL     1     -12.865  11.915  71.523  1.00  0.00    -0.421 C  
HETATM   29  C   UNL     1     -13.146  10.637  71.817  1.00  0.00    -0.571 C  
ENDBRANCH  27  28
ENDBRANCH  22  27
ENDBRANCH   3  22
BRANCH   4  30
HETATM   30  O   UNL     1      -9.554  16.421  67.750  1.00  0.00    -0.228 OA 
BRANCH  30  31
HETATM   31  C   UNL     1      -8.799  17.318  67.072  1.00  0.00    -0.228 C  
HETATM   32  C   UNL     1      -8.528  18.495  67.985  1.00  0.00    -0.302 C  
HETATM   33  O   UNL     1      -8.236  17.088  66.014  1.00  0.00    -0.463 OA 
ENDBRANCH  30  31
ENDBRANCH   4  30
BRANCH   5  34
HETATM   34  N   UNL     1      -9.328   7.495  68.948  1.00  0.00    -0.143 NA 
HETATM   35  C   UNL     1      -8.541   7.704  70.169  1.00  0.00    -0.140 C  
HETATM   36  C   UNL     1      -9.308   8.539  71.190  1.00  0.00    -0.196 C  
HETATM   37  O   UNL     1     -10.502   7.858  71.592  1.00  0.00    -0.202 OA 
HETATM   38  C   UNL     1     -11.340   7.556  70.469  1.00  0.00    -0.260 C  
HETATM   39  C   UNL     1     -10.591   6.852  69.322  1.00  0.00    -0.226 C  
ENDBRANCH   5  34
TORSDOF 6
ENDMDL
MODEL       22
REMARK 921   NORMALIZED FREE ENERGY PREDICTED BY IDOCK:   -5.02 KCAL/MOL
REMARK 922        TOTAL FREE ENERGY PREDICTED BY IDOCK:   -7.09 KCAL/MOL
REMARK 923 INTER-LIGAND FREE ENERGY PREDICTED BY IDOCK:   -6.79 KCAL/MOL
REMARK 924 INTRA-LIGAND FREE ENERGY PREDICTED BY IDOCK:   -0.29 KCAL/MOL
REMARK 927      BINDING AFFINITY PREDICTED BY RF-SCORE:    0.00 PKD
ROOT
HETATM    1  C   UNL     1      -8.841  11.152  65.739  1.00  0.00    -0.182 C  
HETATM    2  C   UNL     1     -10.257  10.918  65.920  1.00  0.00    -0.314 C  
HETATM    3  C   UNL     1      -9.806  11.496  67.249  1.00  0.00    -0.190 C  
HETATM    4  C   UNL     1      -7.867  12.255  67.210  1.00  0.00    -0.171 C  
HETATM    5  C   UNL     1      -9.827   6.445  69.237  1.00  0.00    -0.147 C  
HETATM    6  C   UNL     1      -8.891   5.417  68.558  1.00  0.00    -0.100 C  
HETATM    7  C   UNL     1      -8.424   6.036  67.249  1.00  0.00    -0.104 C  
HETATM    8  C   UNL     1      -7.333   7.051  67.543  1.00  0.00    -0.092 C  
HETATM    9  C   UNL     1      -9.087  12.666  66.814  1.00  0.00    -0.214 C  
HETATM   10  C   UNL     1      -8.667  12.303  68.725  1.00  0.00     0.134 C  
HETATM   11  C   UNL     1      -9.249  13.941  65.961  1.00  0.00     0.045 C  
HETATM   12  C   UNL     1      -6.777   7.629  66.232  1.00  0.00    -0.057 C  
HETATM   13  C   UNL     1      -7.718   8.114  68.623  1.00  0.00    -0.112 C  
HETATM   14  C   UNL     1      -6.447   8.342  69.483  1.00  0.00    -0.037 C  
HETATM   15  C   UNL     1      -7.957  10.737  68.996  1.00  0.00    -0.137 C  
HETATM   16  C   UNL     1      -8.894   7.632  69.667  1.00  0.00    -0.140 C  
HETATM   17  H   UNL     1      -9.779   3.781  69.060  1.00  0.00     0.000 HD 
HETATM   18  O   UNL     1      -9.487   4.167  68.243  1.00  0.00    -0.148 OA 
HETATM   19  C   UNL     1      -7.707   8.643  65.557  1.00  0.00    -0.092 C  
HETATM   20  C   UNL     1      -8.201   9.477  67.971  1.00  0.00    -0.114 C  
HETATM   21  C   UNL     1      -7.843   9.869  66.456  1.00  0.00    -0.110 C  
ENDROOT
BRANCH   3  22
HETATM   22  N   UNL     1     -11.239  12.358  68.045  1.00  0.00    -0.248 N  
HETATM   23  C   UNL     1     -11.450  14.803  68.576  1.00  0.00    -0.330 C  
HETATM   24  C   UNL     1     -12.082  14.530  67.241  1.00  0.00    -0.298 C  
HETATM   25  C   UNL     1     -10.927  13.492  69.106  1.00  0.00    -0.177 C  
HETATM   26  C   UNL     1     -12.271  13.034  67.126  1.00  0.00    -0.138 C  
BRANCH  22  27
HETATM   27  C   UNL     1     -12.075  11.209  68.808  1.00  0.00    -0.162 C  
BRANCH  27  28
HETATM   28  C   UNL     1     -11.857  11.090  70.281  1.00  0.00    -0.456 C  
HETATM   29  C   UNL     1     -12.866  11.088  71.164  1.00  0.00    -0.491 C  
ENDBRANCH  27  28
ENDBRANCH  22  27
ENDBRANCH   3  22
BRANCH   4  30
HETATM   30  O   UNL     1      -7.425  13.751  67.391  1.00  0.00    -0.174 OA 
BRANCH  30  31
HETATM   31  C   UNL     1      -6.178  14.221  67.634  1.00  0.00    -0.081 C  
HETATM   32  C   UNL     1      -5.246  13.037  67.785  1.00  0.00    -0.100 C  
HETATM   33  O   UNL     1      -5.839  15.386  67.497  1.00  0.00    -0.274 OA 
ENDBRANCH  30  31
ENDBRANCH   4  30
BRANCH   5  34
HETATM   34  N   UNL     1     -10.815   5.889  70.194  1.00  0.00    -0.318 NA 
HETATM   35  C   UNL     1     -10.367   5.138  71.373  1.00  0.00    -0.203 C  
HETATM   36  C   UNL     1     -10.019   6.071  72.529  1.00  0.00    -0.176 C  
HETATM   37  O   UNL     1     -11.178   6.807  72.938  1.00  0.00    -0.255 OA 
HETATM   38  C   UNL     1     -11.738   7.553  71.851  1.00  0.00    -0.284 C  
HETATM   39  C   UNL     1     -11.967   6.707  70.584  1.00  0.00    -0.343 C  
ENDBRANCH   5  34
TORSDOF 6
ENDMDL
MODEL       23
REMARK 921   NORMALIZED FREE ENERGY PREDICTED BY IDOCK:   -4.96 KCAL/MOL
REMARK 922        TOTAL FREE ENERGY PREDICTED BY IDOCK:   -7.00 KCAL/MOL
REMARK 923 INTER-LIGAND FREE ENERGY PREDICTED BY IDOCK:   -6.60 KCAL/MOL
REMARK 924 INTRA-LIGAND FREE ENERGY PREDICTED BY IDOCK:   -0.39 KCAL/MOL
REMARK 927      BINDING AFFINITY PREDICTED BY RF-SCORE:    0.00 PKD
ROOT
HETATM    1  C   UNL     1      -9.921   4.705  68.990  1.00  0.00    -0.186 C  
HETATM    2  C   UNL     1     -10.231   5.347  67.732  1.00  0.00    -0.230 C  
HETATM    3  C   UNL     1      -8.795   5.754  68.009  1.00  0.00    -0.109 C  
HETATM    4  C   UNL     1      -7.930   4.720  69.596  1.00  0.00    -0.066 C  
HETATM    5  C   UNL     1     -10.677  10.563  69.679  1.00  0.00    -0.259 C  
HETATM    6  C   UNL     1     -11.655  10.559  70.878  1.00  0.00    -0.292 C  
HETATM    7  C   UNL     1     -12.103   9.120  71.083  1.00  0.00    -0.365 C  
HETATM    8  C   UNL     1     -11.001   8.355  71.795  1.00  0.00    -0.359 C  
HETATM    9  C   UNL     1      -8.195   4.476  68.299  1.00  0.00    -0.090 C  
HETATM   10  C   UNL     1      -6.962   5.931  68.867  1.00  0.00    -0.068 C  
HETATM   11  C   UNL     1      -8.009   3.063  67.709  1.00  0.00    -0.074 C  
HETATM   12  C   UNL     1     -11.459   6.919  72.096  1.00  0.00    -0.316 C  
HETATM   13  C   UNL     1      -9.597   8.471  71.116  1.00  0.00    -0.248 C  
HETATM   14  C   UNL     1      -8.564   8.586  72.269  1.00  0.00    -0.235 C  
HETATM   15  C   UNL     1      -7.650   7.002  70.053  1.00  0.00    -0.099 C  
HETATM   16  C   UNL     1      -9.395   9.815  70.190  1.00  0.00    -0.261 C  
HETATM   17  H   UNL     1     -12.546  12.243  70.582  1.00  0.00     0.000 HD 
HETATM   18  O   UNL     1     -12.827  11.344  70.710  1.00  0.00    -0.265 OA 
HETATM   19  C   UNL     1     -11.471   6.000  70.870  1.00  0.00    -0.230 C  
HETATM   20  C   UNL     1      -9.272   7.218  70.200  1.00  0.00    -0.152 C  
HETATM   21  C   UNL     1     -10.041   5.818  70.370  1.00  0.00    -0.271 C  
ENDROOT
BRANCH   3  22
HETATM   22  N   UNL     1      -7.942   6.077  66.398  1.00  0.00    -0.104 N  
HETATM   23  C   UNL     1      -6.301   4.592  65.211  1.00  0.00    -0.035 C  
HETATM   24  C   UNL     1      -7.681   4.336  64.673  1.00  0.00    -0.077 C  
HETATM   25  C   UNL     1      -6.419   5.661  66.267  1.00  0.00    -0.044 C  
HETATM   26  C   UNL     1      -8.562   5.478  65.124  1.00  0.00    -0.141 C  
BRANCH  22  27
HETATM   27  C   UNL     1      -8.022   7.671  66.170  1.00  0.00    -0.110 C  
BRANCH  27  28
HETATM   28  C   UNL     1      -9.345   8.221  65.748  1.00  0.00    -0.101 C  
HETATM   29  C   UNL     1     -10.303   8.555  66.624  1.00  0.00    -0.303 C  
ENDBRANCH  27  28
ENDBRANCH  22  27
ENDBRANCH   3  22
BRANCH   4  30
HETATM   30  O   UNL     1      -6.725   3.713  69.536  1.00  0.00    -0.036 OA 
BRANCH  30  31
HETATM   31  C   UNL     1      -6.176   3.019  70.561  1.00  0.00    -0.023 C  
HETATM   32  C   UNL     1      -6.936   3.359  71.825  1.00  0.00    -0.031 C  
HETATM   33  O   UNL     1      -5.383   2.100  70.426  1.00  0.00    -0.004 OA 
ENDBRANCH  30  31
ENDBRANCH   4  30
BRANCH   5  34
HETATM   34  N   UNL     1     -10.548  11.850  68.952  1.00  0.00    -0.204 NA 
HETATM   35  C   UNL     1      -9.242  12.293  68.449  1.00  0.00    -0.145 C  
HETATM   36  C   UNL     1      -8.933  11.681  67.086  1.00  0.00    -0.173 C  
HETATM   37  O   UNL     1      -9.901  12.107  66.120  1.00  0.00    -0.228 OA 
HETATM   38  C   UNL     1     -11.233  11.768  66.525  1.00  0.00    -0.321 C  
HETATM   39  C   UNL     1     -11.566  12.213  67.962  1.00  0.00    -0.348 C  
ENDBRANCH   5  34
TORSDOF 6
ENDMDL
MODEL       24
REMARK 921   NORMALIZED FREE ENERGY PREDICTED BY IDOCK:   -4.94 KCAL/MOL
REMARK 922        TOTAL FREE ENERGY PREDICTED BY IDOCK:   -6.97 KCAL/MOL
REMARK 923 INTER-LIGAND FREE ENERGY PREDICTED BY IDOCK:   -6.71 KCAL/MOL
REMARK 924 INTRA-LIGAND FREE ENERGY PREDICTED BY IDOCK:   -0.27 KCAL/MOL
REMARK 927      BINDING AFFINITY PREDICTED BY RF-SCORE:    0.00 PKD
ROOT
HETATM    1  C   UNL     1      -9.498   7.840  66.118  1.00  0.00    -0.135 C  
HETATM    2  C   UNL     1     -10.645   8.124  66.951  1.00  0.00    -0.311 C  
HETATM    3  C   UNL     1      -9.503   8.847  67.640  1.00  0.00    -0.138 C  
HETATM    4  C   UNL     1      -7.757   8.911  66.507  1.00  0.00    -0.099 C  
HETATM    5  C   UNL     1      -9.305   4.752  71.196  1.00  0.00    -0.148 C  
HETATM    6  C   UNL     1      -9.013   3.341  70.631  1.00  0.00    -0.095 C  
HETATM    7  C   UNL     1      -9.180   3.423  69.122  1.00  0.00    -0.227 C  
HETATM    8  C   UNL     1      -7.946   4.076  68.522  1.00  0.00    -0.072 C  
HETATM    9  C   UNL     1      -8.928   9.575  66.536  1.00  0.00    -0.173 C  
HETATM   10  C   UNL     1      -7.665   9.597  68.074  1.00  0.00    -0.086 C  
HETATM   11  C   UNL     1      -9.297  10.572  65.420  1.00  0.00    -0.255 C  
HETATM   12  C   UNL     1      -8.045   4.092  66.988  1.00  0.00    -0.100 C  
HETATM   13  C   UNL     1      -7.564   5.445  69.173  1.00  0.00    -0.085 C  
HETATM   14  C   UNL     1      -6.015   5.467  69.263  1.00  0.00    -0.024 C  
HETATM   15  C   UNL     1      -7.169   8.011  68.590  1.00  0.00    -0.081 C  
HETATM   16  C   UNL     1      -8.111   5.647  70.711  1.00  0.00    -0.117 C  
HETATM   17  H   UNL     1      -9.769   2.259  72.037  1.00  0.00     0.000 HD 
HETATM   18  O   UNL     1      -9.873   2.310  71.093  1.00  0.00    -0.138 OA 
HETATM   19  C   UNL     1      -9.017   5.142  66.439  1.00  0.00    -0.125 C  
HETATM   20  C   UNL     1      -8.090   6.677  68.324  1.00  0.00    -0.111 C  
HETATM   21  C   UNL     1      -8.488   6.534  66.775  1.00  0.00    -0.113 C  
ENDROOT
BRANCH   3  22
HETATM   22  N   UNL     1     -10.184  10.294  68.573  1.00  0.00    -0.165 N  
HETATM   23  C   UNL     1     -10.026  12.723  67.957  1.00  0.00    -0.225 C  
HETATM   24  C   UNL     1     -11.327  12.167  67.450  1.00  0.00    -0.393 C  
HETATM   25  C   UNL     1      -9.299  11.606  68.659  1.00  0.00    -0.114 C  
HETATM   26  C   UNL     1     -11.555  10.844  68.145  1.00  0.00    -0.241 C  
BRANCH  22  27
HETATM   27  C   UNL     1     -10.414   9.775  70.082  1.00  0.00    -0.286 C  
BRANCH  27  28
HETATM   28  C   UNL     1     -11.580  10.352  70.817  1.00  0.00    -0.450 C  
HETATM   29  C   UNL     1     -12.543   9.592  71.358  1.00  0.00    -0.447 C  
ENDBRANCH  27  28
ENDBRANCH  22  27
ENDBRANCH   3  22
BRANCH   4  30
HETATM   30  O   UNL     1      -7.056  10.182  65.905  1.00  0.00    -0.107 OA 
BRANCH  30  31
HETATM   31  C   UNL     1      -5.815  10.266  65.369  1.00  0.00    -0.110 C  
HETATM   32  C   UNL     1      -5.517   8.964  64.657  1.00  0.00    -0.051 C  
HETATM   33  O   UNL     1      -5.174  11.301  65.268  1.00  0.00    -0.256 OA 
ENDBRANCH  30  31
ENDBRANCH   4  30
BRANCH   5  34
HETATM   34  N   UNL     1      -9.749   4.804  72.611  1.00  0.00    -0.139 NA 
HETATM   35  C   UNL     1      -8.767   4.943  73.694  1.00  0.00    -0.103 C  
HETATM   36  C   UNL     1      -8.399   6.405  73.928  1.00  0.00    -0.115 C  
HETATM   37  O   UNL     1      -9.555   7.148  74.334  1.00  0.00    -0.226 OA 
HETATM   38  C   UNL     1     -10.610   7.050  73.370  1.00  0.00    -0.364 C  
HETATM   39  C   UNL     1     -10.928   5.601  72.959  1.00  0.00    -0.284 C  
ENDBRANCH   5  34
TORSDOF 6
ENDMDL
MODEL       25
REMARK 921   NORMALIZED FREE ENERGY PREDICTED BY IDOCK:   -4.91 KCAL/MOL
REMARK 922        TOTAL FREE ENERGY PREDICTED BY IDOCK:   -6.93 KCAL/MOL
REMARK 923 INTER-LIGAND FREE ENERGY PREDICTED BY IDOCK:   -8.13 KCAL/MOL
REMARK 924 INTRA-LIGAND FREE ENERGY PREDICTED BY IDOCK:    1.20 KCAL/MOL
REMARK 927      BINDING AFFINITY PREDICTED BY RF-SCORE:    0.00 PKD
ROOT
HETATM    1  C   UNL     1      -8.884  12.566  68.302  1.00  0.00    -0.171 C  
HETATM    2  C   UNL     1      -8.602  12.288  66.911  1.00  0.00    -0.182 C  
HETATM    3  C   UNL     1     -10.101  12.084  67.030  1.00  0.00    -0.203 C  
HETATM    4  C   UNL     1     -10.885  12.730  68.848  1.00  0.00    -0.196 C  
HETATM    5  C   UNL     1      -9.174   6.738  67.157  1.00  0.00    -0.134 C  
HETATM    6  C   UNL     1      -8.292   6.203  68.311  1.00  0.00    -0.114 C  
HETATM    7  C   UNL     1      -7.623   7.407  68.955  1.00  0.00    -0.103 C  
HETATM    8  C   UNL     1      -8.626   8.108  69.855  1.00  0.00    -0.130 C  
HETATM    9  C   UNL     1     -10.496  13.301  67.693  1.00  0.00    -0.231 C  
HETATM   10  C   UNL     1     -11.992  11.991  67.769  1.00  0.00    -0.177 C  
HETATM   11  C   UNL     1     -10.401  14.835  67.566  1.00  0.00    -0.238 C  
HETATM   12  C   UNL     1      -7.955   9.278  70.591  1.00  0.00    -0.189 C  
HETATM   13  C   UNL     1      -9.981   8.458  69.156  1.00  0.00    -0.197 C  
HETATM   14  C   UNL     1     -11.094   8.190  70.204  1.00  0.00    -0.187 C  
HETATM   15  C   UNL     1     -11.576  10.506  68.574  1.00  0.00    -0.222 C  
HETATM   16  C   UNL     1     -10.343   7.516  67.857  1.00  0.00    -0.266 C  
HETATM   17  H   UNL     1      -7.679   4.554  67.520  1.00  0.00     0.000 HD 
HETATM   18  O   UNL     1      -7.260   5.307  67.923  1.00  0.00    -0.069 OA 
HETATM   19  C   UNL     1      -7.705  10.506  69.709  1.00  0.00    -0.079 C  
HETATM   20  C   UNL     1     -10.027   9.966  68.668  1.00  0.00    -0.177 C  
HETATM   21  C   UNL     1      -9.047  11.086  69.271  1.00  0.00     0.074 C  
ENDROOT
BRANCH   3  22
HETATM   22  N   UNL     1     -10.885  12.422  65.387  1.00  0.00    -0.277 N  
HETATM   23  C   UNL     1     -12.653  14.125  64.857  1.00  0.00    -0.362 C  
HETATM   24  C   UNL     1     -11.298  14.710  64.570  1.00  0.00    -0.316 C  
HETATM   25  C   UNL     1     -12.441  12.718  65.354  1.00  0.00    -0.416 C  
HETATM   26  C   UNL     1     -10.309  13.568  64.538  1.00  0.00    -0.358 C  
BRANCH  22  27
HETATM   27  C   UNL     1     -10.633  11.100  64.500  1.00  0.00    -0.328 C  
BRANCH  27  28
HETATM   28  C   UNL     1      -9.903   9.978  65.163  1.00  0.00    -0.388 C  
HETATM   29  C   UNL     1      -8.781   9.445  64.658  1.00  0.00    -0.229 C  
ENDBRANCH  27  28
ENDBRANCH  22  27
ENDBRANCH   3  22
BRANCH   4  30
HETATM   30  O   UNL     1     -11.897  13.908  69.086  1.00  0.00    -0.313 OA 
BRANCH  30  31
HETATM   31  C   UNL     1     -12.411  14.330  70.266  1.00  0.00    -0.361 C  
HETATM   32  C   UNL     1     -12.637  13.119  71.145  1.00  0.00    -0.403 C  
HETATM   33  O   UNL     1     -12.439  15.495  70.631  1.00  0.00    -0.392 OA 
ENDBRANCH  30  31
ENDBRANCH   4  30
BRANCH   5  34
HETATM   34  N   UNL     1      -9.467   5.776  66.066  1.00  0.00    -0.128 NA 
HETATM   35  C   UNL     1      -8.531   5.614  64.946  1.00  0.00    -0.122 C  
HETATM   36  C   UNL     1      -7.417   4.629  65.290  1.00  0.00    -0.077 C  
HETATM   37  O   UNL     1      -7.965   3.331  65.549  1.00  0.00    -0.085 OA 
HETATM   38  C   UNL     1      -8.935   3.369  66.602  1.00  0.00    -0.152 C  
HETATM   39  C   UNL     1     -10.007   4.457  66.405  1.00  0.00    -0.232 C  
ENDBRANCH   5  34
TORSDOF 6
ENDMDL
MODEL       26
REMARK 921   NORMALIZED FREE ENERGY PREDICTED BY IDOCK:   -4.87 KCAL/MOL
REMARK 922        TOTAL FREE ENERGY PREDICTED BY IDOCK:   -6.87 KCAL/MOL
REMARK 923 INTER-LIGAND FREE ENERGY PREDICTED BY IDOCK:   -6.45 KCAL/MOL
REMARK 924 INTRA-LIGAND FREE ENERGY PREDICTED BY IDOCK:   -0.42 KCAL/MOL
REMARK 927      BINDING AFFINITY PREDICTED BY RF-SCORE:    0.00 PKD
ROOT
HETATM    1  C   UNL     1      -7.522   5.212  70.272  1.00  0.00    -0.067 C  
HETATM    2  C   UNL     1      -7.292   6.586  70.659  1.00  0.00    -0.079 C  
HETATM    3  C   UNL     1      -8.794   6.415  70.786  1.00  0.00    -0.144 C  
HETATM    4  C   UNL     1      -9.421   4.436  70.616  1.00  0.00    -0.172 C  
HETATM    5  C   UNL     1      -9.301   8.981  66.031  1.00  0.00    -0.242 C  
HETATM    6  C   UNL     1      -8.616   8.333  64.804  1.00  0.00    -0.020 C  
HETATM    7  C   UNL     1      -7.669   7.267  65.334  1.00  0.00    -0.111 C  
HETATM    8  C   UNL     1      -8.474   6.036  65.715  1.00  0.00    -0.146 C  
HETATM    9  C   UNL     1      -8.870   5.208  71.572  1.00  0.00    -0.145 C  
HETATM   10  C   UNL     1     -10.659   5.607  70.795  1.00  0.00    -0.335 C  
HETATM   11  C   UNL     1      -8.374   4.591  72.895  1.00  0.00    -0.103 C  
HETATM   12  C   UNL     1      -7.535   4.907  66.171  1.00  0.00    -0.086 C  
HETATM   13  C   UNL     1      -9.674   6.325  66.675  1.00  0.00    -0.195 C  
HETATM   14  C   UNL     1     -10.841   5.420  66.199  1.00  0.00    -0.095 C  
HETATM   15  C   UNL     1     -10.664   5.669  69.056  1.00  0.00    -0.307 C  
HETATM   16  C   UNL     1     -10.241   7.868  66.614  1.00  0.00    -0.303 C  
HETATM   17  H   UNL     1      -8.438   9.882  63.669  1.00  0.00     0.000 HD 
HETATM   18  O   UNL     1      -7.847   9.216  64.000  1.00  0.00    -0.116 OA 
HETATM   19  C   UNL     1      -6.953   5.111  67.574  1.00  0.00    -0.065 C  
HETATM   20  C   UNL     1      -9.313   6.018  68.189  1.00  0.00    -0.115 C  
HETATM   21  C   UNL     1      -8.087   5.064  68.594  1.00  0.00    -0.085 C  
ENDROOT
BRANCH   3  22
HETATM   22  N   UNL     1      -9.426   7.593  72.067  1.00  0.00    -0.149 N  
HETATM   23  C   UNL     1     -10.053   7.079  74.443  1.00  0.00    -0.089 C  
HETATM   24  C   UNL     1      -8.629   7.558  74.399  1.00  0.00    -0.242 C  
HETATM   25  C   UNL     1     -10.579   7.094  73.031  1.00  0.00    -0.308 C  
HETATM   26  C   UNL     1      -8.409   8.201  73.048  1.00  0.00    -0.199 C  
BRANCH  22  27
HETATM   27  C   UNL     1     -10.001   8.860  71.252  1.00  0.00    -0.288 C  
BRANCH  27  28
HETATM   28  C   UNL     1     -11.488   8.967  71.145  1.00  0.00    -0.364 C  
HETATM   29  C   UNL     1     -12.144  10.125  71.308  1.00  0.00    -0.489 C  
ENDBRANCH  27  28
ENDBRANCH  22  27
ENDBRANCH   3  22
BRANCH   4  30
HETATM   30  O   UNL     1     -10.094   3.550  71.725  1.00  0.00    -0.163 OA 
BRANCH  30  31
HETATM   31  C   UNL     1     -10.282   2.208  71.710  1.00  0.00     0.009 C  
HETATM   32  C   UNL     1      -9.462   1.627  70.578  1.00  0.00    -0.162 C  
HETATM   33  O   UNL     1     -10.813   1.575  72.609  1.00  0.00    -0.157 OA 
ENDBRANCH  30  31
ENDBRANCH   4  30
BRANCH   5  34
HETATM   34  N   UNL     1      -9.812  10.360  65.835  1.00  0.00    -0.221 NA 
HETATM   35  C   UNL     1     -11.144  10.737  66.326  1.00  0.00     0.097 C  
HETATM   36  C   UNL     1     -11.102  11.138  67.797  1.00  0.00    -0.285 C  
HETATM   37  O   UNL     1     -10.267  12.289  67.973  1.00  0.00    -0.195 OA 
HETATM   38  C   UNL     1      -8.940  12.058  67.485  1.00  0.00    -0.174 C  
HETATM   39  C   UNL     1      -8.908  11.492  66.052  1.00  0.00    -0.143 C  
ENDBRANCH   5  34
TORSDOF 6
ENDMDL
MODEL       27
REMARK 921   NORMALIZED FREE ENERGY PREDICTED BY IDOCK:   -4.85 KCAL/MOL
REMARK 922        TOTAL FREE ENERGY PREDICTED BY IDOCK:   -6.85 KCAL/MOL
REMARK 923 INTER-LIGAND FREE ENERGY PREDICTED BY IDOCK:   -6.67 KCAL/MOL
REMARK 924 INTRA-LIGAND FREE ENERGY PREDICTED BY IDOCK:   -0.18 KCAL/MOL
REMARK 927      BINDING AFFINITY PREDICTED BY RF-SCORE:    0.00 PKD
ROOT
HETATM    1  C   UNL     1      -7.099   6.385  70.653  1.00  0.00    -0.069 C  
HETATM    2  C   UNL     1      -7.690   7.399  71.498  1.00  0.00    -0.086 C  
HETATM    3  C   UNL     1      -8.857   6.872  70.683  1.00  0.00    -0.150 C  
HETATM    4  C   UNL     1      -8.402   5.156  69.594  1.00  0.00    -0.093 C  
HETATM    5  C   UNL     1      -8.421  11.282  67.550  1.00  0.00    -0.131 C  
HETATM    6  C   UNL     1      -7.078  11.490  66.810  1.00  0.00    -0.112 C  
HETATM    7  C   UNL     1      -6.074  10.532  67.431  1.00  0.00    -0.053 C  
HETATM    8  C   UNL     1      -6.322   9.135  66.887  1.00  0.00    -0.063 C  
HETATM    9  C   UNL     1      -8.707   5.451  70.872  1.00  0.00    -0.140 C  
HETATM   10  C   UNL     1      -9.978   5.791  69.379  1.00  0.00    -0.244 C  
HETATM   11  C   UNL     1      -8.590   4.380  71.976  1.00  0.00    -0.120 C  
HETATM   12  C   UNL     1      -5.265   8.158  67.428  1.00  0.00    -0.033 C  
HETATM   13  C   UNL     1      -7.801   8.647  67.020  1.00  0.00    -0.096 C  
HETATM   14  C   UNL     1      -8.124   7.872  65.715  1.00  0.00    -0.123 C  
HETATM   15  C   UNL     1      -9.285   6.703  68.069  1.00  0.00    -0.112 C  
HETATM   16  C   UNL     1      -8.913   9.855  67.119  1.00  0.00    -0.150 C  
HETATM   17  H   UNL     1      -7.155  13.395  66.517  1.00  0.00     0.000 HD 
HETATM   18  O   UNL     1      -6.527  12.796  66.905  1.00  0.00    -0.112 OA 
HETATM   19  C   UNL     1      -5.479   7.758  68.891  1.00  0.00    -0.026 C  
HETATM   20  C   UNL     1      -8.009   7.715  68.287  1.00  0.00    -0.123 C  
HETATM   21  C   UNL     1      -6.782   6.971  69.007  1.00  0.00    -0.056 C  
ENDROOT
BRANCH   3  22
HETATM   22  N   UNL     1     -10.417   7.095  71.656  1.00  0.00    -0.199 N  
HETATM   23  C   UNL     1     -11.651   5.360  72.988  1.00  0.00    -0.268 C  
HETATM   24  C   UNL     1     -10.724   6.117  73.897  1.00  0.00    -0.137 C  
HETATM   25  C   UNL     1     -11.497   5.937  71.604  1.00  0.00    -0.172 C  
HETATM   26  C   UNL     1     -10.290   7.366  73.165  1.00  0.00    -0.334 C  
BRANCH  22  27
HETATM   27  C   UNL     1     -11.115   8.424  71.069  1.00  0.00    -0.258 C  
BRANCH  27  28
HETATM   28  C   UNL     1     -11.835   9.291  72.050  1.00  0.00    -0.370 C  
HETATM   29  C   UNL     1     -13.161   9.227  72.235  1.00  0.00    -0.517 C  
ENDBRANCH  27  28
ENDBRANCH  22  27
ENDBRANCH   3  22
BRANCH   4  30
HETATM   30  O   UNL     1      -9.002   3.717  69.785  1.00  0.00    -0.082 OA 
BRANCH  30  31
HETATM   31  C   UNL     1      -8.877   2.653  68.956  1.00  0.00    -0.099 C  
HETATM   32  C   UNL     1      -8.074   1.587  69.670  1.00  0.00    -0.059 C  
HETATM   33  O   UNL     1      -9.519   2.499  67.929  1.00  0.00    -0.209 OA 
ENDBRANCH  30  31
ENDBRANCH   4  30
BRANCH   5  34
HETATM   34  N   UNL     1      -9.359  12.431  67.528  1.00  0.00    -0.176 NA 
HETATM   35  C   UNL     1      -9.912  12.916  66.257  1.00  0.00    -0.270 C  
HETATM   36  C   UNL     1     -11.143  12.116  65.843  1.00  0.00    -0.318 C  
HETATM   37  O   UNL     1     -12.182  12.267  66.818  1.00  0.00    -0.558 OA 
HETATM   38  C   UNL     1     -11.745  11.865  68.121  1.00  0.00    -0.320 C  
HETATM   39  C   UNL     1     -10.412  12.511  68.543  1.00  0.00    -0.231 C  
ENDBRANCH   5  34
TORSDOF 6
ENDMDL
MODEL       28
REMARK 921   NORMALIZED FREE ENERGY PREDICTED BY IDOCK:   -4.78 KCAL/MOL
REMARK 922        TOTAL FREE ENERGY PREDICTED BY IDOCK:   -6.76 KCAL/MOL
REMARK 923 INTER-LIGAND FREE ENERGY PREDICTED BY IDOCK:   -6.29 KCAL/MOL
REMARK 924 INTRA-LIGAND FREE ENERGY PREDICTED BY IDOCK:   -0.46 KCAL/MOL
REMARK 927      BINDING AFFINITY PREDICTED BY RF-SCORE:    0.00 PKD
ROOT
HETATM    1  C   UNL     1     -10.753   7.402  70.994  1.00  0.00    -0.244 C  
HETATM    2  C   UNL     1     -10.926   6.417  69.949  1.00  0.00    -0.410 C  
HETATM    3  C   UNL     1      -9.422   6.494  70.136  1.00  0.00    -0.157 C  
HETATM    4  C   UNL     1      -8.849   7.591  71.811  1.00  0.00    -0.115 C  
HETATM    5  C   UNL     1      -9.215   9.588  65.681  1.00  0.00    -0.223 C  
HETATM    6  C   UNL     1     -10.002  10.920  65.712  1.00  0.00    -0.247 C  
HETATM    7  C   UNL     1     -10.928  10.863  66.917  1.00  0.00    -0.286 C  
HETATM    8  C   UNL     1     -10.122  11.144  68.174  1.00  0.00    -0.193 C  
HETATM    9  C   UNL     1      -9.313   6.350  71.566  1.00  0.00    -0.152 C  
HETATM   10  C   UNL     1      -7.579   6.992  70.829  1.00  0.00    -0.090 C  
HETATM   11  C   UNL     1      -9.722   5.419  72.725  1.00  0.00    -0.169 C  
HETATM   12  C   UNL     1     -11.047  11.182  69.401  1.00  0.00    -0.314 C  
HETATM   13  C   UNL     1      -8.850  10.250  68.334  1.00  0.00    -0.129 C  
HETATM   14  C   UNL     1      -7.739  11.171  68.905  1.00  0.00    -0.137 C  
HETATM   15  C   UNL     1      -7.701   8.508  69.985  1.00  0.00    -0.086 C  
HETATM   16  C   UNL     1      -8.258   9.645  66.923  1.00  0.00    -0.113 C  
HETATM   17  H   UNL     1     -10.232  11.210  63.819  1.00  0.00     0.000 HD 
HETATM   18  O   UNL     1     -10.810  11.175  64.572  1.00  0.00    -0.326 OA 
HETATM   19  C   UNL     1     -11.520   9.801  69.867  1.00  0.00    -0.190 C  
HETATM   20  C   UNL     1      -9.104   9.018  69.301  1.00  0.00    -0.145 C  
HETATM   21  C   UNL     1     -10.316   9.001  70.354  1.00  0.00    -0.253 C  
ENDROOT
BRANCH   3  22
HETATM   22  N   UNL     1      -8.675   4.869  69.658  1.00  0.00    -0.085 N  
HETATM   23  C   UNL     1      -7.889   3.037  71.186  1.00  0.00    -0.050 C  
HETATM   24  C   UNL     1      -9.302   2.755  70.759  1.00  0.00    -0.221 C  
HETATM   25  C   UNL     1      -7.466   4.324  70.525  1.00  0.00    -0.049 C  
HETATM   26  C   UNL     1      -9.605   3.646  69.576  1.00  0.00    -0.137 C  
BRANCH  22  27
HETATM   27  C   UNL     1      -8.132   5.061  68.152  1.00  0.00    -0.086 C  
BRANCH  27  28
HETATM   28  C   UNL     1      -8.932   5.956  67.262  1.00  0.00    -0.108 C  
HETATM   29  C   UNL     1      -9.980   5.518  66.548  1.00  0.00    -0.214 C  
ENDBRANCH  27  28
ENDBRANCH  22  27
ENDBRANCH   3  22
BRANCH   4  30
HETATM   30  O   UNL     1      -8.114   7.059  73.094  1.00  0.00    -0.101 OA 
BRANCH  30  31
HETATM   31  C   UNL     1      -7.502   7.787  74.058  1.00  0.00    -0.141 C  
HETATM   32  C   UNL     1      -6.223   7.078  74.448  1.00  0.00    -0.078 C  
HETATM   33  O   UNL     1      -7.808   8.931  74.359  1.00  0.00    -0.378 OA 
ENDBRANCH  30  31
ENDBRANCH   4  30
BRANCH   5  34
HETATM   34  N   UNL     1      -8.693   9.173  64.356  1.00  0.00    -0.183 NA 
HETATM   35  C   UNL     1      -7.890  10.101  63.550  1.00  0.00    -0.158 C  
HETATM   36  C   UNL     1      -6.420  10.063  63.957  1.00  0.00    -0.132 C  
HETATM   37  O   UNL     1      -5.876   8.758  63.730  1.00  0.00    -0.070 OA 
HETATM   38  C   UNL     1      -6.611   7.750  64.435  1.00  0.00    -0.056 C  
HETATM   39  C   UNL     1      -8.131   7.829  64.200  1.00  0.00    -0.068 C  
ENDBRANCH   5  34
TORSDOF 6
ENDMDL
MODEL       29
REMARK 921   NORMALIZED FREE ENERGY PREDICTED BY IDOCK:   -4.75 KCAL/MOL
REMARK 922        TOTAL FREE ENERGY PREDICTED BY IDOCK:   -6.71 KCAL/MOL
REMARK 923 INTER-LIGAND FREE ENERGY PREDICTED BY IDOCK:   -6.91 KCAL/MOL
REMARK 924 INTRA-LIGAND FREE ENERGY PREDICTED BY IDOCK:    0.21 KCAL/MOL
REMARK 927      BINDING AFFINITY PREDICTED BY RF-SCORE:    0.00 PKD
ROOT
HETATM    1  C   UNL     1      -8.005  10.357  69.392  1.00  0.00    -0.161 C  
HETATM    2  C   UNL     1      -7.159   9.683  68.431  1.00  0.00    -0.070 C  
HETATM    3  C   UNL     1      -8.559   9.516  67.869  1.00  0.00    -0.119 C  
HETATM    4  C   UNL     1      -9.991  10.665  68.853  1.00  0.00    -0.204 C  
HETATM    5  C   UNL     1      -8.532   4.448  69.812  1.00  0.00    -0.065 C  
HETATM    6  C   UNL     1      -8.358   4.281  71.340  1.00  0.00    -0.090 C  
HETATM    7  C   UNL     1      -7.900   5.624  71.886  1.00  0.00    -0.106 C  
HETATM    8  C   UNL     1      -9.097   6.554  71.980  1.00  0.00    -0.140 C  
HETATM    9  C   UNL     1      -9.042  10.873  67.920  1.00  0.00    -0.149 C  
HETATM   10  C   UNL     1     -10.571   9.637  67.611  1.00  0.00    -0.334 C  
HETATM   11  C   UNL     1      -8.691  12.302  67.459  1.00  0.00    -0.177 C  
HETATM   12  C   UNL     1      -8.683   7.892  72.613  1.00  0.00    -0.223 C  
HETATM   13  C   UNL     1      -9.920   6.677  70.656  1.00  0.00    -0.201 C  
HETATM   14  C   UNL     1     -11.414   6.724  71.075  1.00  0.00    -0.372 C  
HETATM   15  C   UNL     1     -10.776   8.456  68.873  1.00  0.00    -0.095 C  
HETATM   16  C   UNL     1      -9.773   5.393  69.639  1.00  0.00    -0.240 C  
HETATM   17  H   UNL     1      -7.683   2.475  71.399  1.00  0.00     0.000 HD 
HETATM   18  O   UNL     1      -7.397   3.315  71.740  1.00  0.00    -0.044 OA 
HETATM   19  C   UNL     1      -7.893   8.807  71.672  1.00  0.00    -0.124 C  
HETATM   20  C   UNL     1      -9.532   7.975  69.831  1.00  0.00    -0.160 C  
HETATM   21  C   UNL     1      -8.793   9.227  70.513  1.00  0.00    -0.285 C  
ENDROOT
BRANCH   3  22
HETATM   22  N   UNL     1      -8.451   9.353  66.028  1.00  0.00    -0.122 N  
HETATM   23  C   UNL     1      -6.388   8.989  64.643  1.00  0.00    -0.070 C  
HETATM   24  C   UNL     1      -7.028   7.662  64.936  1.00  0.00    -0.055 C  
HETATM   25  C   UNL     1      -7.236  10.054  65.290  1.00  0.00    -0.137 C  
HETATM   26  C   UNL     1      -8.430   7.935  65.433  1.00  0.00    -0.119 C  
BRANCH  22  27
HETATM   27  C   UNL     1      -9.804  10.010  65.448  1.00  0.00    -0.314 C  
BRANCH  27  28
HETATM   28  C   UNL     1      -9.743  10.548  64.056  1.00  0.00    -0.383 C  
HETATM   29  C   UNL     1     -10.596  11.476  63.600  1.00  0.00    -0.491 C  
ENDBRANCH  27  28
ENDBRANCH  22  27
ENDBRANCH   3  22
BRANCH   4  30
HETATM   30  O   UNL     1     -10.827  11.857  68.263  1.00  0.00    -0.203 OA 
BRANCH  30  31
HETATM   31  C   UNL     1     -11.708  12.652  68.917  1.00  0.00    -0.325 C  
HETATM   32  C   UNL     1     -12.019  12.016  70.254  1.00  0.00    -0.398 C  
HETATM   33  O   UNL     1     -11.987  13.793  68.584  1.00  0.00    -0.351 OA 
ENDBRANCH  30  31
ENDBRANCH   4  30
BRANCH   5  34
HETATM   34  N   UNL     1      -8.423   3.207  69.007  1.00  0.00    -0.060 NA 
HETATM   35  C   UNL     1      -9.486   2.835  68.065  1.00  0.00    -0.155 C  
HETATM   36  C   UNL     1      -9.305   3.528  66.718  1.00  0.00    -0.182 C  
HETATM   37  O   UNL     1      -8.072   3.121  66.113  1.00  0.00    -0.087 OA 
HETATM   38  C   UNL     1      -6.952   3.394  66.965  1.00  0.00    -0.054 C  
HETATM   39  C   UNL     1      -7.134   2.863  68.400  1.00  0.00    -0.049 C  
ENDBRANCH   5  34
TORSDOF 6
ENDMDL
MODEL       30
REMARK 921   NORMALIZED FREE ENERGY PREDICTED BY IDOCK:   -4.73 KCAL/MOL
REMARK 922        TOTAL FREE ENERGY PREDICTED BY IDOCK:   -6.68 KCAL/MOL
REMARK 923 INTER-LIGAND FREE ENERGY PREDICTED BY IDOCK:   -7.39 KCAL/MOL
REMARK 924 INTRA-LIGAND FREE ENERGY PREDICTED BY IDOCK:    0.71 KCAL/MOL
REMARK 927      BINDING AFFINITY PREDICTED BY RF-SCORE:    0.00 PKD
ROOT
HETATM    1  C   UNL     1     -10.067  16.231  68.810  1.00  0.00    -0.243 C  
HETATM    2  C   UNL     1      -8.974  15.585  69.503  1.00  0.00    -0.244 C  
HETATM    3  C   UNL     1      -8.387  15.957  68.154  1.00  0.00    -0.162 C  
HETATM    4  C   UNL     1      -9.615  17.208  67.029  1.00  0.00    -0.260 C  
HETATM    5  C   UNL     1      -9.052  10.786  66.647  1.00  0.00    -0.159 C  
HETATM    6  C   UNL     1     -10.496  10.229  66.660  1.00  0.00    -0.194 C  
HETATM    7  C   UNL     1     -11.350  11.223  67.431  1.00  0.00    -0.349 C  
HETATM    8  C   UNL     1     -11.663  12.408  66.533  1.00  0.00    -0.443 C  
HETATM    9  C   UNL     1      -8.762  17.346  68.061  1.00  0.00    -0.241 C  
HETATM   10  C   UNL     1      -8.161  16.701  66.277  1.00  0.00    -0.365 C  
HETATM   11  C   UNL     1      -8.659  18.682  68.824  1.00  0.00    -0.292 C  
HETATM   12  C   UNL     1     -12.600  13.389  67.254  1.00  0.00     0.327 C  
HETATM   13  C   UNL     1     -10.406  13.061  65.871  1.00  0.00    -0.296 C  
HETATM   14  C   UNL     1     -10.820  13.433  64.422  1.00  0.00    -0.422 C  
HETATM   15  C   UNL     1      -9.101  15.370  65.666  1.00  0.00     0.128 C  
HETATM   16  C   UNL     1      -9.109  12.058  65.729  1.00  0.00     0.008 C  
HETATM   17  H   UNL     1     -10.119   8.343  66.806  1.00  0.00     0.000 HD 
HETATM   18  O   UNL     1     -10.653   8.964  67.287  1.00  0.00    -0.283 OA 
HETATM   19  C   UNL     1     -11.908  14.233  68.330  1.00  0.00    -0.373 C  
HETATM   20  C   UNL     1      -9.918  14.348  66.659  1.00  0.00    -0.278 C  
HETATM   21  C   UNL     1     -10.883  15.146  67.664  1.00  0.00    -0.295 C  
ENDROOT
BRANCH   3  22
HETATM   22  N   UNL     1      -6.560  16.198  68.342  1.00  0.00    -0.123 N  
HETATM   23  C   UNL     1      -5.169  15.811  70.397  1.00  0.00    -0.155 C  
HETATM   24  C   UNL     1      -5.133  14.581  69.534  1.00  0.00    -0.087 C  
HETATM   25  C   UNL     1      -6.030  16.830  69.695  1.00  0.00    -0.218 C  
HETATM   26  C   UNL     1      -5.652  14.969  68.168  1.00  0.00    -0.127 C  
BRANCH  22  27
HETATM   27  C   UNL     1      -6.123  17.191  67.149  1.00  0.00    -0.162 C  
BRANCH  27  28
HETATM   28  C   UNL     1      -5.159  18.276  67.502  1.00  0.00    -0.139 C  
HETATM   29  C   UNL     1      -5.439  19.576  67.332  1.00  0.00    -0.168 C  
ENDBRANCH  27  28
ENDBRANCH  22  27
ENDBRANCH   3  22
BRANCH   4  30
HETATM   30  O   UNL     1      -9.328  18.690  66.597  1.00  0.00    -0.295 OA 
BRANCH  30  31
HETATM   31  C   UNL     1     -10.217  19.606  66.142  1.00  0.00    -0.508 C  
HETATM   32  C   UNL     1      -9.883  20.942  66.769  1.00  0.00     0.007 C  
HETATM   33  O   UNL     1     -10.977  19.424  65.204  1.00  0.00    -0.430 OA 
ENDBRANCH  30  31
ENDBRANCH   4  30
BRANCH   5  34
HETATM   34  N   UNL     1      -7.972   9.785  66.466  1.00  0.00    -0.112 NA 
HETATM   35  C   UNL     1      -6.873  10.038  65.526  1.00  0.00    -0.120 C  
HETATM   36  C   UNL     1      -5.768  10.870  66.170  1.00  0.00    -0.142 C  
HETATM   37  O   UNL     1      -5.197  10.162  67.277  1.00  0.00    -0.040 OA 
HETATM   38  C   UNL     1      -6.189   9.816  68.250  1.00  0.00    -0.051 C  
HETATM   39  C   UNL     1      -7.419   9.114  67.645  1.00  0.00    -0.084 C  
ENDBRANCH   5  34
TORSDOF 6
ENDMDL
MODEL       31
REMARK 921   NORMALIZED FREE ENERGY PREDICTED BY IDOCK:   -4.70 KCAL/MOL
REMARK 922        TOTAL FREE ENERGY PREDICTED BY IDOCK:   -6.64 KCAL/MOL
REMARK 923 INTER-LIGAND FREE ENERGY PREDICTED BY IDOCK:   -6.82 KCAL/MOL
REMARK 924 INTRA-LIGAND FREE ENERGY PREDICTED BY IDOCK:    0.17 KCAL/MOL
REMARK 927      BINDING AFFINITY PREDICTED BY RF-SCORE:    0.00 PKD
ROOT
HETATM    1  C   UNL     1      -8.223   9.447  70.657  1.00  0.00    -0.207 C  
HETATM    2  C   UNL     1      -7.285   8.723  69.826  1.00  0.00    -0.051 C  
HETATM    3  C   UNL     1      -8.630   8.463  69.174  1.00  0.00    -0.134 C  
HETATM    4  C   UNL     1     -10.167   9.642  69.941  1.00  0.00    -0.245 C  
HETATM    5  C   UNL     1      -8.623   3.580  71.544  1.00  0.00    -0.076 C  
HETATM    6  C   UNL     1      -8.567   3.548  73.090  1.00  0.00    -0.085 C  
HETATM    7  C   UNL     1      -8.191   4.947  73.552  1.00  0.00    -0.107 C  
HETATM    8  C   UNL     1      -9.417   5.841  73.472  1.00  0.00    -0.138 C  
HETATM    9  C   UNL     1      -9.152   9.803  69.070  1.00  0.00    -0.157 C  
HETATM   10  C   UNL     1     -10.617   8.494  68.751  1.00  0.00    -0.162 C  
HETATM   11  C   UNL     1      -8.804  11.199  68.516  1.00  0.00    -0.161 C  
HETATM   12  C   UNL     1      -9.091   7.240  74.017  1.00  0.00    -0.284 C  
HETATM   13  C   UNL     1     -10.134   5.824  72.082  1.00  0.00    -0.219 C  
HETATM   14  C   UNL     1     -11.657   5.856  72.378  1.00  0.00    -0.341 C  
HETATM   15  C   UNL     1     -10.891   7.417  70.091  1.00  0.00    -0.270 C  
HETATM   16  C   UNL     1      -9.871   4.465  71.195  1.00  0.00    -0.258 C  
HETATM   17  H   UNL     1      -7.851   1.777  73.357  1.00  0.00     0.000 HD 
HETATM   18  O   UNL     1      -7.616   2.652  73.646  1.00  0.00    -0.048 OA 
HETATM   19  C   UNL     1      -8.252   8.099  73.065  1.00  0.00    -0.248 C  
HETATM   20  C   UNL     1      -9.716   7.060  71.181  1.00  0.00    -0.173 C  
HETATM   21  C   UNL     1      -9.068   8.389  71.807  1.00  0.00    -0.283 C  
ENDROOT
BRANCH   3  22
HETATM   22  N   UNL     1      -8.370   8.149  67.368  1.00  0.00    -0.121 N  
HETATM   23  C   UNL     1      -6.188   7.813  66.172  1.00  0.00    -0.045 C  
HETATM   24  C   UNL     1      -6.764   6.474  66.539  1.00  0.00    -0.056 C  
HETATM   25  C   UNL     1      -7.149   8.867  66.658  1.00  0.00    -0.084 C  
HETATM   26  C   UNL     1      -8.214   6.690  66.908  1.00  0.00    -0.113 C  
BRANCH  22  27
HETATM   27  C   UNL     1      -9.714   8.658  66.636  1.00  0.00    -0.247 C  
BRANCH  27  28
HETATM   28  C   UNL     1      -9.535   9.400  65.352  1.00  0.00    -0.322 C  
HETATM   29  C   UNL     1     -10.217  10.518  65.061  1.00  0.00    -0.365 C  
ENDBRANCH  27  28
ENDBRANCH  22  27
ENDBRANCH   3  22
BRANCH   4  30
HETATM   30  O   UNL     1     -10.985  10.751  69.187  1.00  0.00    -0.209 OA 
BRANCH  30  31
HETATM   31  C   UNL     1     -11.894  11.608  69.711  1.00  0.00    -0.357 C  
HETATM   32  C   UNL     1     -12.516  10.953  70.926  1.00  0.00    -0.507 C  
HETATM   33  O   UNL     1     -11.993  12.785  69.401  1.00  0.00    -0.301 OA 
ENDBRANCH  30  31
ENDBRANCH   4  30
BRANCH   5  34
HETATM   34  N   UNL     1      -8.416   2.280  70.860  1.00  0.00    -0.049 NA 
HETATM   35  C   UNL     1      -9.451   1.733  69.974  1.00  0.00    -0.064 C  
HETATM   36  C   UNL     1      -9.337   2.304  68.564  1.00  0.00    -0.191 C  
HETATM   37  O   UNL     1      -8.077   1.944  67.984  1.00  0.00    -0.057 OA 
HETATM   38  C   UNL     1      -6.979   2.388  68.789  1.00  0.00    -0.043 C  
HETATM   39  C   UNL     1      -7.107   1.986  70.271  1.00  0.00    -0.033 C  
ENDBRANCH   5  34
TORSDOF 6
ENDMDL
MODEL       32
REMARK 921   NORMALIZED FREE ENERGY PREDICTED BY IDOCK:   -4.55 KCAL/MOL
REMARK 922        TOTAL FREE ENERGY PREDICTED BY IDOCK:   -6.44 KCAL/MOL
REMARK 923 INTER-LIGAND FREE ENERGY PREDICTED BY IDOCK:   -5.96 KCAL/MOL
REMARK 924 INTRA-LIGAND FREE ENERGY PREDICTED BY IDOCK:   -0.49 KCAL/MOL
REMARK 927      BINDING AFFINITY PREDICTED BY RF-SCORE:    0.00 PKD
ROOT
HETATM    1  C   UNL     1      -9.694  10.226  69.465  1.00  0.00    -0.235 C  
HETATM    2  C   UNL     1      -8.343  10.055  69.953  1.00  0.00    -0.169 C  
HETATM    3  C   UNL     1      -8.219   9.864  68.452  1.00  0.00    -0.106 C  
HETATM    4  C   UNL     1      -9.945  10.375  67.404  1.00  0.00    -0.187 C  
HETATM    5  C   UNL     1      -8.053   4.512  69.338  1.00  0.00    -0.064 C  
HETATM    6  C   UNL     1      -9.279   3.875  70.034  1.00  0.00    -0.149 C  
HETATM    7  C   UNL     1     -10.112   5.014  70.601  1.00  0.00    -0.313 C  
HETATM    8  C   UNL     1     -10.904   5.656  69.475  1.00  0.00    -0.345 C  
HETATM    9  C   UNL     1      -8.911  11.031  67.965  1.00  0.00    -0.145 C  
HETATM   10  C   UNL     1      -8.655   9.741  66.472  1.00  0.00    -0.135 C  
HETATM   11  C   UNL     1      -8.924  12.569  68.082  1.00  0.00    -0.199 C  
HETATM   12  C   UNL     1     -11.824   6.754  70.030  1.00  0.00    -0.265 C  
HETATM   13  C   UNL     1     -10.040   6.080  68.242  1.00  0.00    -0.194 C  
HETATM   14  C   UNL     1     -10.884   5.746  66.983  1.00  0.00    -0.328 C  
HETATM   15  C   UNL     1      -9.392   8.191  66.758  1.00  0.00    -0.233 C  
HETATM   16  C   UNL     1      -8.630   5.249  68.078  1.00  0.00    -0.103 C  
HETATM   17  H   UNL     1      -8.460   2.285  70.756  1.00  0.00     0.000 HD 
HETATM   18  O   UNL     1      -8.980   2.997  71.110  1.00  0.00    -0.084 OA 
HETATM   19  C   UNL     1     -11.092   8.045  70.413  1.00  0.00    -0.238 C  
HETATM   20  C   UNL     1      -9.674   7.623  68.273  1.00  0.00    -0.166 C  
HETATM   21  C   UNL     1     -10.505   8.677  69.154  1.00  0.00    -0.223 C  
ENDROOT
BRANCH   3  22
HETATM   22  N   UNL     1      -6.510  10.343  67.926  1.00  0.00    -0.060 N  
HETATM   23  C   UNL     1      -5.734  12.584  67.101  1.00  0.00    -0.012 C  
HETATM   24  C   UNL     1      -5.481  12.485  68.579  1.00  0.00    -0.056 C  
HETATM   25  C   UNL     1      -6.358  11.285  66.661  1.00  0.00    -0.135 C  
HETATM   26  C   UNL     1      -5.604  11.029  68.964  1.00  0.00    -0.040 C  
BRANCH  22  27
HETATM   27  C   UNL     1      -5.752   8.961  67.585  1.00  0.00    -0.039 C  
BRANCH  27  28
HETATM   28  C   UNL     1      -6.046   7.799  68.477  1.00  0.00    -0.036 C  
HETATM   29  C   UNL     1      -5.356   7.557  69.601  1.00  0.00    -0.023 C  
ENDBRANCH  27  28
ENDBRANCH  22  27
ENDBRANCH   3  22
BRANCH   4  30
HETATM   30  O   UNL     1     -10.122  11.545  66.371  1.00  0.00    -0.206 OA 
BRANCH  30  31
HETATM   31  C   UNL     1     -11.251  11.902  65.712  1.00  0.00    -0.312 C  
HETATM   32  C   UNL     1     -11.135  11.422  64.281  1.00  0.00    -0.356 C  
HETATM   33  O   UNL     1     -12.269  12.306  66.252  1.00  0.00    -0.628 OA 
ENDBRANCH  30  31
ENDBRANCH   4  30
BRANCH   5  34
HETATM   34  N   UNL     1      -6.856   3.644  69.210  1.00  0.00    -0.044 NA 
HETATM   35  C   UNL     1      -6.975   2.290  68.655  1.00  0.00    -0.040 C  
HETATM   36  C   UNL     1      -6.922   2.306  67.131  1.00  0.00    -0.044 C  
HETATM   37  O   UNL     1      -5.659   2.815  66.684  1.00  0.00    -0.019 OA 
HETATM   38  C   UNL     1      -5.406   4.126  67.203  1.00  0.00    -0.013 C  
HETATM   39  C   UNL     1      -5.602   4.227  68.727  1.00  0.00    -0.013 C  
ENDBRANCH   5  34
TORSDOF 6
ENDMDL
MODEL       33
REMARK 921   NORMALIZED FREE ENERGY PREDICTED BY IDOCK:   -4.48 KCAL/MOL
REMARK 922        TOTAL FREE ENERGY PREDICTED BY IDOCK:   -6.35 KCAL/MOL
REMARK 923 INTER-LIGAND FREE ENERGY PREDICTED BY IDOCK:   -6.98 KCAL/MOL
REMARK 924 INTRA-LIGAND FREE ENERGY PREDICTED BY IDOCK:    0.62 KCAL/MOL
REMARK 927      BINDING AFFINITY PREDICTED BY RF-SCORE:    0.00 PKD
ROOT
HETATM    1  C   UNL     1     -10.861  10.262  66.615  1.00  0.00    -0.115 C  
HETATM    2  C   UNL     1      -9.507  10.311  66.108  1.00  0.00    -0.229 C  
HETATM    3  C   UNL     1      -9.338  10.375  67.614  1.00  0.00    -0.148 C  
HETATM    4  C   UNL     1     -11.096   9.991  68.664  1.00  0.00    -0.174 C  
HETATM    5  C   UNL     1      -8.560  15.723  67.110  1.00  0.00    -0.201 C  
HETATM    6  C   UNL     1      -9.714  16.547  66.491  1.00  0.00    -0.272 C  
HETATM    7  C   UNL     1     -10.683  15.557  65.864  1.00  0.00    -0.346 C  
HETATM    8  C   UNL     1     -11.528  14.929  66.960  1.00  0.00    -0.333 C  
HETATM    9  C   UNL     1     -10.155   9.263  68.033  1.00  0.00    -0.234 C  
HETATM   10  C   UNL     1      -9.726  10.401  69.609  1.00  0.00    -0.158 C  
HETATM   11  C   UNL     1     -10.349   7.750  67.807  1.00  0.00    -0.284 C  
HETATM   12  C   UNL     1     -12.579  13.989  66.350  1.00  0.00    -0.287 C  
HETATM   13  C   UNL     1     -10.700  14.319  68.138  1.00  0.00    -0.249 C  
HETATM   14  C   UNL     1     -11.479  14.654  69.438  1.00  0.00    -0.330 C  
HETATM   15  C   UNL     1     -10.280  12.043  69.452  1.00  0.00     0.408 C  
HETATM   16  C   UNL     1      -9.200  14.967  68.327  1.00  0.00    -0.187 C  
HETATM   17  H   UNL     1      -8.725  18.080  65.865  1.00  0.00     0.000 HD 
HETATM   18  O   UNL     1      -9.331  17.461  65.474  1.00  0.00    -0.344 OA 
HETATM   19  C   UNL     1     -12.008  12.654  65.858  1.00  0.00    -0.497 C  
HETATM   20  C   UNL     1     -10.518  12.750  67.988  1.00  0.00    -0.233 C  
HETATM   21  C   UNL     1     -11.480  11.868  67.054  1.00  0.00    -0.384 C  
ENDROOT
BRANCH   3  22
HETATM   22  N   UNL     1      -7.689   9.664  68.064  1.00  0.00    -0.086 N  
HETATM   23  C   UNL     1      -6.844   7.346  67.598  1.00  0.00    -0.078 C  
HETATM   24  C   UNL     1      -6.386   8.269  66.505  1.00  0.00    -0.054 C  
HETATM   25  C   UNL     1      -7.641   8.167  68.579  1.00  0.00    -0.104 C  
HETATM   26  C   UNL     1      -6.582   9.685  66.996  1.00  0.00    -0.067 C  
BRANCH  22  27
HETATM   27  C   UNL     1      -7.118  10.595  69.250  1.00  0.00    -0.107 C  
BRANCH  27  28
HETATM   28  C   UNL     1      -6.290  11.769  68.840  1.00  0.00    -0.067 C  
HETATM   29  C   UNL     1      -5.146  12.098  69.456  1.00  0.00    -0.066 C  
ENDBRANCH  27  28
ENDBRANCH  22  27
ENDBRANCH   3  22
BRANCH   4  30
HETATM   30  O   UNL     1     -11.393   8.776  69.615  1.00  0.00    -0.022 OA 
BRANCH  30  31
HETATM   31  C   UNL     1     -11.800   8.817  70.906  1.00  0.00    -0.230 C  
HETATM   32  C   UNL     1     -12.963   9.781  71.006  1.00  0.00    -0.368 C  
HETATM   33  O   UNL     1     -11.452   8.024  71.767  1.00  0.00    -0.256 OA 
ENDBRANCH  30  31
ENDBRANCH   4  30
BRANCH   5  34
HETATM   34  N   UNL     1      -7.268  16.434  67.271  1.00  0.00    -0.156 NA 
HETATM   35  C   UNL     1      -7.220  17.751  67.919  1.00  0.00    -0.210 C  
HETATM   36  C   UNL     1      -7.148  17.622  69.437  1.00  0.00    -0.033 C  
HETATM   37  O   UNL     1      -5.949  16.940  69.821  1.00  0.00    -0.215 OA 
HETATM   38  C   UNL     1      -5.858  15.648  69.209  1.00  0.00    -0.112 C  
HETATM   39  C   UNL     1      -6.085  15.677  67.686  1.00  0.00    -0.149 C  
ENDBRANCH   5  34
TORSDOF 6
ENDMDL
MODEL       34
REMARK 921   NORMALIZED FREE ENERGY PREDICTED BY IDOCK:   -4.48 KCAL/MOL
REMARK 922        TOTAL FREE ENERGY PREDICTED BY IDOCK:   -6.35 KCAL/MOL
REMARK 923 INTER-LIGAND FREE ENERGY PREDICTED BY IDOCK:   -7.77 KCAL/MOL
REMARK 924 INTRA-LIGAND FREE ENERGY PREDICTED BY IDOCK:    1.42 KCAL/MOL
REMARK 927      BINDING AFFINITY PREDICTED BY RF-SCORE:    0.00 PKD
ROOT
HETATM    1  C   UNL     1     -10.559   6.522  69.167  1.00  0.00    -0.286 C  
HETATM    2  C   UNL     1     -11.015   6.348  67.805  1.00  0.00    -0.425 C  
HETATM    3  C   UNL     1      -9.514   6.530  67.671  1.00  0.00    -0.123 C  
HETATM    4  C   UNL     1      -8.505   6.476  69.492  1.00  0.00    -0.131 C  
HETATM    5  C   UNL     1     -10.459  11.661  66.176  1.00  0.00    -0.247 C  
HETATM    6  C   UNL     1     -11.194  12.567  67.193  1.00  0.00    -0.300 C  
HETATM    7  C   UNL     1     -11.768  11.657  68.267  1.00  0.00    -0.374 C  
HETATM    8  C   UNL     1     -10.655  11.249  69.218  1.00  0.00    -0.187 C  
HETATM    9  C   UNL     1      -9.031   5.577  68.638  1.00  0.00    -0.118 C  
HETATM   10  C   UNL     1      -7.547   6.792  68.106  1.00  0.00    -0.107 C  
HETATM   11  C   UNL     1      -9.129   4.088  69.026  1.00  0.00    -0.193 C  
HETATM   12  C   UNL     1     -11.221  10.399  70.367  1.00  0.00    -0.399 C  
HETATM   13  C   UNL     1      -9.396  10.648  68.511  1.00  0.00    -0.170 C  
HETATM   14  C   UNL     1      -8.163  11.201  69.274  1.00  0.00     0.075 C  
HETATM   15  C   UNL     1      -7.871   8.470  68.433  1.00  0.00    -0.106 C  
HETATM   16  C   UNL     1      -9.206  11.111  66.944  1.00  0.00    -0.179 C  
HETATM   17  H   UNL     1     -11.914  13.894  65.993  1.00  0.00     0.000 HD 
HETATM   18  O   UNL     1     -12.273  13.325  66.664  1.00  0.00    -0.370 OA 
HETATM   19  C   UNL     1     -11.570   8.962  69.965  1.00  0.00     0.111 C  
HETATM   20  C   UNL     1      -9.399   9.062  68.534  1.00  0.00    -0.141 C  
HETATM   21  C   UNL     1     -10.288   8.229  69.579  1.00  0.00    -0.219 C  
ENDROOT
BRANCH   3  22
HETATM   22  N   UNL     1      -8.939   5.656  66.143  1.00  0.00    -0.147 N  
HETATM   23  C   UNL     1      -7.002   6.269  64.667  1.00  0.00    -0.051 C  
HETATM   24  C   UNL     1      -6.553   5.250  65.676  1.00  0.00    -0.044 C  
HETATM   25  C   UNL     1      -8.463   6.539  64.916  1.00  0.00     0.024 C  
HETATM   26  C   UNL     1      -7.794   4.638  66.285  1.00  0.00    -0.099 C  
BRANCH  22  27
HETATM   27  C   UNL     1     -10.194   4.779  65.639  1.00  0.00    -0.188 C  
BRANCH  27  28
HETATM   28  C   UNL     1      -9.938   3.830  64.514  1.00  0.00    -0.201 C  
HETATM   29  C   UNL     1     -10.908   3.404  63.692  1.00  0.00    -0.206 C  
ENDBRANCH  27  28
ENDBRANCH  22  27
ENDBRANCH   3  22
BRANCH   4  30
HETATM   30  O   UNL     1      -7.462   5.404  69.973  1.00  0.00    -0.066 OA 
BRANCH  30  31
HETATM   31  C   UNL     1      -6.822   5.351  71.166  1.00  0.00    -0.052 C  
HETATM   32  C   UNL     1      -7.374   6.449  72.049  1.00  0.00    -0.092 C  
HETATM   33  O   UNL     1      -6.119   4.422  71.532  1.00  0.00    -0.016 OA 
ENDBRANCH  30  31
ENDBRANCH   4  30
BRANCH   5  34
HETATM   34  N   UNL     1     -10.311  12.211  64.806  1.00  0.00    -0.279 NA 
HETATM   35  C   UNL     1     -11.024  11.599  63.678  1.00  0.00    -0.431 C  
HETATM   36  C   UNL     1     -12.448  12.136  63.562  1.00  0.00    -0.555 C  
HETATM   37  O   UNL     1     -12.427  13.546  63.308  1.00  0.00    -0.763 OA 
HETATM   38  C   UNL     1     -11.712  14.254  64.328  1.00  0.00    -0.329 C  
HETATM   39  C   UNL     1     -10.319  13.664  64.618  1.00  0.00    -0.384 C  
ENDBRANCH   5  34
TORSDOF 6
ENDMDL
MODEL       35
REMARK 921   NORMALIZED FREE ENERGY PREDICTED BY IDOCK:   -4.46 KCAL/MOL
REMARK 922        TOTAL FREE ENERGY PREDICTED BY IDOCK:   -6.33 KCAL/MOL
REMARK 923 INTER-LIGAND FREE ENERGY PREDICTED BY IDOCK:   -6.84 KCAL/MOL
REMARK 924 INTRA-LIGAND FREE ENERGY PREDICTED BY IDOCK:    0.52 KCAL/MOL
REMARK 927      BINDING AFFINITY PREDICTED BY RF-SCORE:    0.00 PKD
ROOT
HETATM    1  C   UNL     1      -7.672  12.499  67.702  1.00  0.00    -0.151 C  
HETATM    2  C   UNL     1      -7.585  11.763  66.460  1.00  0.00     0.072 C  
HETATM    3  C   UNL     1      -9.046  11.649  66.853  1.00  0.00    -0.188 C  
HETATM    4  C   UNL     1      -9.578  12.889  68.440  1.00  0.00    -0.176 C  
HETATM    5  C   UNL     1      -7.981   6.635  68.637  1.00  0.00    -0.118 C  
HETATM    6  C   UNL     1      -6.932   6.497  69.765  1.00  0.00    -0.067 C  
HETATM    7  C   UNL     1      -6.207   7.830  69.865  1.00  0.00    -0.027 C  
HETATM    8  C   UNL     1      -7.089   8.818  70.610  1.00  0.00    -0.063 C  
HETATM    9  C   UNL     1      -9.371  13.029  67.117  1.00  0.00    -0.230 C  
HETATM   10  C   UNL     1     -10.809  11.859  67.840  1.00  0.00    -0.254 C  
HETATM   11  C   UNL     1      -9.332  14.428  66.469  1.00  0.00    -0.300 C  
HETATM   12  C   UNL     1      -6.347  10.150  70.806  1.00  0.00    -0.052 C  
HETATM   13  C   UNL     1      -8.537   8.947  70.034  1.00  0.00    -0.145 C  
HETATM   14  C   UNL     1      -9.482   9.075  71.258  1.00  0.00    -0.339 C  
HETATM   15  C   UNL     1     -10.247  10.720  69.030  1.00  0.00    -0.229 C  
HETATM   16  C   UNL     1      -9.057   7.633  69.193  1.00  0.00    -0.141 C  
HETATM   17  H   UNL     1      -6.398   4.663  69.496  1.00  0.00     0.000 HD 
HETATM   18  O   UNL     1      -5.945   5.496  69.559  1.00  0.00    -0.016 OA 
HETATM   19  C   UNL     1      -6.255  11.003  69.536  1.00  0.00    -0.085 C  
HETATM   20  C   UNL     1      -8.688  10.204  69.079  1.00  0.00    -0.161 C  
HETATM   21  C   UNL     1      -7.659  11.436  69.125  1.00  0.00    -0.038 C  
ENDROOT
BRANCH   3  22
HETATM   22  N   UNL     1     -10.064  11.436  65.321  1.00  0.00    -0.254 N  
HETATM   23  C   UNL     1      -9.264  11.432  62.941  1.00  0.00    -0.313 C  
HETATM   24  C   UNL     1      -9.335  10.018  63.441  1.00  0.00    -0.300 C  
HETATM   25  C   UNL     1      -9.711  12.333  64.064  1.00  0.00    -0.057 C  
HETATM   26  C   UNL     1     -10.156  10.027  64.711  1.00  0.00    -0.059 C  
BRANCH  22  27
HETATM   27  C   UNL     1     -11.578  11.788  65.747  1.00  0.00    -0.125 C  
BRANCH  27  28
HETATM   28  C   UNL     1     -12.300  12.778  64.893  1.00  0.00    -0.551 C  
HETATM   29  C   UNL     1     -12.737  13.956  65.362  1.00  0.00    -0.525 C  
ENDBRANCH  27  28
ENDBRANCH  22  27
ENDBRANCH   3  22
BRANCH   4  30
HETATM   30  O   UNL     1     -10.573  14.104  68.409  1.00  0.00    -0.244 OA 
BRANCH  30  31
HETATM   31  C   UNL     1     -11.126  14.746  69.466  1.00  0.00    -0.279 C  
HETATM   32  C   UNL     1     -10.865  16.229  69.308  1.00  0.00    -0.318 C  
HETATM   33  O   UNL     1     -11.908  14.236  70.253  1.00  0.00    -0.281 OA 
ENDBRANCH  30  31
ENDBRANCH   4  30
BRANCH   5  34
HETATM   34  N   UNL     1      -8.404   5.370  67.986  1.00  0.00    -0.099 NA 
HETATM   35  C   UNL     1      -9.787   4.894  68.114  1.00  0.00    -0.138 C  
HETATM   36  C   UNL     1     -10.697   5.540  67.074  1.00  0.00    -0.204 C  
HETATM   37  O   UNL     1     -10.270   5.187  65.753  1.00  0.00    -0.138 OA 
HETATM   38  C   UNL     1      -8.907   5.563  65.521  1.00  0.00    -0.144 C  
HETATM   39  C   UNL     1      -7.946   5.082  66.624  1.00  0.00    -0.107 C  
ENDBRANCH   5  34
TORSDOF 6
ENDMDL
MODEL       36
REMARK 921   NORMALIZED FREE ENERGY PREDICTED BY IDOCK:   -4.46 KCAL/MOL
REMARK 922        TOTAL FREE ENERGY PREDICTED BY IDOCK:   -6.32 KCAL/MOL
REMARK 923 INTER-LIGAND FREE ENERGY PREDICTED BY IDOCK:   -5.85 KCAL/MOL
REMARK 924 INTRA-LIGAND FREE ENERGY PREDICTED BY IDOCK:   -0.47 KCAL/MOL
REMARK 927      BINDING AFFINITY PREDICTED BY RF-SCORE:    0.00 PKD
ROOT
HETATM    1  C   UNL     1     -10.375   8.563  66.382  1.00  0.00    -0.081 C  
HETATM    2  C   UNL     1     -10.661   9.322  67.579  1.00  0.00    -0.329 C  
HETATM    3  C   UNL     1      -9.176   9.539  67.351  1.00  0.00    -0.133 C  
HETATM    4  C   UNL     1      -8.508   8.843  65.506  1.00  0.00    -0.159 C  
HETATM    5  C   UNL     1      -8.235   5.855  71.224  1.00  0.00    -0.123 C  
HETATM    6  C   UNL     1      -8.787   4.428  70.988  1.00  0.00    -0.106 C  
HETATM    7  C   UNL     1      -9.767   4.516  69.828  1.00  0.00    -0.285 C  
HETATM    8  C   UNL     1      -8.987   4.585  68.526  1.00  0.00    -0.145 C  
HETATM    9  C   UNL     1      -9.162   9.928  65.963  1.00  0.00    -0.215 C  
HETATM   10  C   UNL     1      -7.311   9.488  66.548  1.00  0.00    -0.090 C  
HETATM   11  C   UNL     1      -9.778  10.947  64.984  1.00  0.00    -0.319 C  
HETATM   12  C   UNL     1      -9.951   4.584  67.328  1.00  0.00    -0.187 C  
HETATM   13  C   UNL     1      -7.892   5.701  68.491  1.00  0.00    -0.096 C  
HETATM   14  C   UNL     1      -6.672   5.091  67.752  1.00  0.00    -0.055 C  
HETATM   15  C   UNL     1      -7.135   7.858  67.130  1.00  0.00    -0.079 C  
HETATM   16  C   UNL     1      -7.343   6.164  69.970  1.00  0.00    -0.078 C  
HETATM   17  H   UNL     1      -8.872   3.802  72.810  1.00  0.00     0.000 HD 
HETATM   18  O   UNL     1      -9.484   3.856  72.085  1.00  0.00    -0.119 OA 
HETATM   19  C   UNL     1     -10.672   5.918  67.109  1.00  0.00    -0.387 C  
HETATM   20  C   UNL     1      -8.397   7.008  67.748  1.00  0.00    -0.117 C  
HETATM   21  C   UNL     1      -9.644   6.983  66.737  1.00  0.00    -0.221 C  
ENDROOT
BRANCH   3  22
HETATM   22  N   UNL     1      -8.691  11.172  68.078  1.00  0.00    -0.136 N  
HETATM   23  C   UNL     1      -8.547  13.387  66.904  1.00  0.00    -0.114 C  
HETATM   24  C   UNL     1      -9.895  13.258  67.556  1.00  0.00    -0.220 C  
HETATM   25  C   UNL     1      -7.775  12.129  67.208  1.00  0.00    -0.168 C  
HETATM   26  C   UNL     1      -9.814  12.114  68.542  1.00  0.00    -0.162 C  
BRANCH  22  27
HETATM   27  C   UNL     1      -7.875  10.827  69.425  1.00  0.00    -0.087 C  
BRANCH  27  28
HETATM   28  C   UNL     1      -6.480  11.356  69.516  1.00  0.00    -0.122 C  
HETATM   29  C   UNL     1      -5.406  10.557  69.584  1.00  0.00    -0.038 C  
ENDBRANCH  27  28
ENDBRANCH  22  27
ENDBRANCH   3  22
BRANCH   4  30
HETATM   30  O   UNL     1      -7.937   9.693  64.315  1.00  0.00    -0.124 OA 
BRANCH  30  31
HETATM   31  C   UNL     1      -7.445   9.240  63.137  1.00  0.00    -0.106 C  
HETATM   32  C   UNL     1      -6.180  10.010  62.824  1.00  0.00    -0.124 C  
HETATM   33  O   UNL     1      -7.822   8.223  62.576  1.00  0.00    -0.127 OA 
ENDBRANCH  30  31
ENDBRANCH   4  30
BRANCH   5  34
HETATM   34  N   UNL     1      -7.726   6.135  72.589  1.00  0.00    -0.102 NA 
HETATM   35  C   UNL     1      -6.432   6.803  72.777  1.00  0.00    -0.058 C  
HETATM   36  C   UNL     1      -6.571   8.320  72.696  1.00  0.00    -0.087 C  
HETATM   37  O   UNL     1      -7.426   8.796  73.742  1.00  0.00    -0.393 OA 
HETATM   38  C   UNL     1      -8.717   8.177  73.690  1.00  0.00    -0.241 C  
HETATM   39  C   UNL     1      -8.653   6.640  73.605  1.00  0.00    -0.123 C  
ENDBRANCH   5  34
TORSDOF 6
ENDMDL
MODEL       37
REMARK 921   NORMALIZED FREE ENERGY PREDICTED BY IDOCK:   -4.46 KCAL/MOL
REMARK 922        TOTAL FREE ENERGY PREDICTED BY IDOCK:   -6.32 KCAL/MOL
REMARK 923 INTER-LIGAND FREE ENERGY PREDICTED BY IDOCK:   -7.49 KCAL/MOL
REMARK 924 INTRA-LIGAND FREE ENERGY PREDICTED BY IDOCK:    1.17 KCAL/MOL
REMARK 927      BINDING AFFINITY PREDICTED BY RF-SCORE:    0.00 PKD
ROOT
HETATM    1  C   UNL     1     -10.665   6.601  69.387  1.00  0.00    -0.303 C  
HETATM    2  C   UNL     1     -11.129   6.379  68.035  1.00  0.00    -0.365 C  
HETATM    3  C   UNL     1      -9.628   6.544  67.886  1.00  0.00    -0.118 C  
HETATM    4  C   UNL     1      -8.609   6.551  69.702  1.00  0.00    -0.132 C  
HETATM    5  C   UNL     1     -10.542  11.623  66.204  1.00  0.00    -0.262 C  
HETATM    6  C   UNL     1     -11.264  12.572  67.189  1.00  0.00    -0.300 C  
HETATM    7  C   UNL     1     -11.839  11.708  68.300  1.00  0.00    -0.335 C  
HETATM    8  C   UNL     1     -10.724  11.327  69.259  1.00  0.00    -0.221 C  
HETATM    9  C   UNL     1      -9.147   5.625  68.886  1.00  0.00    -0.125 C  
HETATM   10  C   UNL     1      -7.657   6.807  68.301  1.00  0.00    -0.107 C  
HETATM   11  C   UNL     1      -9.255   4.152  69.331  1.00  0.00    -0.210 C  
HETATM   12  C   UNL     1     -11.290  10.527  70.443  1.00  0.00    -0.411 C  
HETATM   13  C   UNL     1      -9.473  10.691  68.569  1.00  0.00    -0.176 C  
HETATM   14  C   UNL     1      -8.232  11.262  69.304  1.00  0.00     0.138 C  
HETATM   15  C   UNL     1      -7.966   8.499  68.566  1.00  0.00    -0.117 C  
HETATM   16  C   UNL     1      -9.289  11.092  66.985  1.00  0.00    -0.182 C  
HETATM   17  H   UNL     1     -11.980  13.858  65.943  1.00  0.00     0.000 HD 
HETATM   18  O   UNL     1     -12.340  13.318  66.638  1.00  0.00    -0.338 OA 
HETATM   19  C   UNL     1     -11.652   9.078  70.098  1.00  0.00    -0.007 C  
HETATM   20  C   UNL     1      -9.489   9.107  68.652  1.00  0.00    -0.145 C  
HETATM   21  C   UNL     1     -10.378   8.320  69.733  1.00  0.00    -0.216 C  
ENDROOT
BRANCH   3  22
HETATM   22  N   UNL     1      -9.068   5.609  66.389  1.00  0.00    -0.142 N  
HETATM   23  C   UNL     1      -8.149   3.274  66.300  1.00  0.00    -0.092 C  
HETATM   24  C   UNL     1      -9.627   3.235  66.033  1.00  0.00    -0.020 C  
HETATM   25  C   UNL     1      -7.766   4.715  66.516  1.00  0.00    -0.091 C  
HETATM   26  C   UNL     1     -10.069   4.648  65.726  1.00  0.00    -0.244 C  
BRANCH  22  27
HETATM   27  C   UNL     1      -8.774   6.722  65.261  1.00  0.00     0.076 C  
BRANCH  27  28
HETATM   28  C   UNL     1      -7.357   6.852  64.804  1.00  0.00    -0.088 C  
HETATM   29  C   UNL     1      -6.762   8.040  64.620  1.00  0.00    -0.059 C  
ENDBRANCH  27  28
ENDBRANCH  22  27
ENDBRANCH   3  22
BRANCH   4  30
HETATM   30  O   UNL     1      -7.572   5.490  70.219  1.00  0.00    -0.076 OA 
BRANCH  30  31
HETATM   31  C   UNL     1      -6.843   5.534  71.360  1.00  0.00    -0.061 C  
HETATM   32  C   UNL     1      -6.755   4.130  71.919  1.00  0.00    -0.026 C  
HETATM   33  O   UNL     1      -6.173   6.490  71.715  1.00  0.00    -0.041 OA 
ENDBRANCH  30  31
ENDBRANCH   4  30
BRANCH   5  34
HETATM   34  N   UNL     1     -10.398  12.120  64.813  1.00  0.00    -0.279 NA 
HETATM   35  C   UNL     1     -11.100  11.454  63.709  1.00  0.00    -0.334 C  
HETATM   36  C   UNL     1     -12.530  11.968  63.568  1.00  0.00    -0.540 C  
HETATM   37  O   UNL     1     -12.526  13.366  63.258  1.00  0.00    -0.739 OA 
HETATM   38  C   UNL     1     -11.822  14.124  64.250  1.00  0.00    -0.397 C  
HETATM   39  C   UNL     1     -10.423  13.564  64.566  1.00  0.00    -0.407 C  
ENDBRANCH   5  34
TORSDOF 6
ENDMDL
MODEL       38
REMARK 921   NORMALIZED FREE ENERGY PREDICTED BY IDOCK:   -4.44 KCAL/MOL
REMARK 922        TOTAL FREE ENERGY PREDICTED BY IDOCK:   -6.30 KCAL/MOL
REMARK 923 INTER-LIGAND FREE ENERGY PREDICTED BY IDOCK:   -7.03 KCAL/MOL
REMARK 924 INTRA-LIGAND FREE ENERGY PREDICTED BY IDOCK:    0.73 KCAL/MOL
REMARK 927      BINDING AFFINITY PREDICTED BY RF-SCORE:    0.00 PKD
ROOT
HETATM    1  C   UNL     1     -10.030  10.301  65.460  1.00  0.00    -0.364 C  
HETATM    2  C   UNL     1      -8.771  10.890  65.058  1.00  0.00    -0.109 C  
HETATM    3  C   UNL     1      -8.523  10.426  66.481  1.00  0.00    -0.132 C  
HETATM    4  C   UNL     1     -10.048   9.230  67.244  1.00  0.00    -0.231 C  
HETATM    5  C   UNL     1      -9.174  15.574  68.073  1.00  0.00    -0.187 C  
HETATM    6  C   UNL     1     -10.539  16.237  67.773  1.00  0.00    -0.314 C  
HETATM    7  C   UNL     1     -11.263  15.337  66.783  1.00  0.00    -0.241 C  
HETATM    8  C   UNL     1     -11.843  14.147  67.528  1.00  0.00    -0.437 C  
HETATM    9  C   UNL     1      -8.997   9.066  66.417  1.00  0.00    -0.189 C  
HETATM   10  C   UNL     1      -8.768   9.599  68.321  1.00  0.00    -0.120 C  
HETATM   11  C   UNL     1      -8.814   7.755  65.627  1.00  0.00    -0.102 C  
HETATM   12  C   UNL     1     -12.657  13.264  66.569  1.00  0.00     0.005 C  
HETATM   13  C   UNL     1     -10.809  13.379  68.415  1.00  0.00    -0.284 C  
HETATM   14  C   UNL     1     -11.557  12.985  69.716  1.00  0.00    -0.286 C  
HETATM   15  C   UNL     1      -9.733  10.973  68.780  1.00  0.00    -0.199 C  
HETATM   16  C   UNL     1      -9.515  14.277  68.889  1.00  0.00    -0.071 C  
HETATM   17  H   UNL     1     -10.020  18.093  67.811  1.00  0.00     0.000 HD 
HETATM   18  O   UNL     1     -10.472  17.532  67.193  1.00  0.00    -0.335 OA 
HETATM   19  C   UNL     1     -11.799  12.412  65.628  1.00  0.00    -0.468 C  
HETATM   20  C   UNL     1     -10.242  12.089  67.687  1.00  0.00    -0.210 C  
HETATM   21  C   UNL     1     -11.008  11.402  66.454  1.00  0.00    -0.315 C  
ENDROOT
BRANCH   3  22
HETATM   22  N   UNL     1      -6.720  10.058  66.686  1.00  0.00    -0.078 N  
HETATM   23  C   UNL     1      -5.255   8.693  65.169  1.00  0.00    -0.035 C  
HETATM   24  C   UNL     1      -5.135  10.145  64.800  1.00  0.00    -0.084 C  
HETATM   25  C   UNL     1      -6.214   8.599  66.328  1.00  0.00    -0.060 C  
HETATM   26  C   UNL     1      -5.715  10.952  65.939  1.00  0.00    -0.142 C  
BRANCH  22  27
HETATM   27  C   UNL     1      -6.395  10.306  68.245  1.00  0.00    -0.048 C  
BRANCH  27  28
HETATM   28  C   UNL     1      -6.078  11.709  68.647  1.00  0.00    -0.051 C  
HETATM   29  C   UNL     1      -6.035  12.103  69.928  1.00  0.00    -0.149 C  
ENDBRANCH  27  28
ENDBRANCH  22  27
ENDBRANCH   3  22
BRANCH   4  30
HETATM   30  O   UNL     1      -9.959   7.715  67.651  1.00  0.00    -0.154 OA 
BRANCH  30  31
HETATM   31  C   UNL     1     -10.701   7.064  68.579  1.00  0.00    -0.179 C  
HETATM   32  C   UNL     1     -10.742   5.597  68.208  1.00  0.00    -0.227 C  
HETATM   33  O   UNL     1     -11.046   7.543  69.648  1.00  0.00    -0.198 OA 
ENDBRANCH  30  31
ENDBRANCH   4  30
BRANCH   5  34
HETATM   34  N   UNL     1      -8.099  16.485  68.538  1.00  0.00    -0.206 NA 
HETATM   35  C   UNL     1      -6.972  15.966  69.323  1.00  0.00    -0.198 C  
HETATM   36  C   UNL     1      -5.877  15.403  68.422  1.00  0.00    -0.107 C  
HETATM   37  O   UNL     1      -5.344  16.436  67.585  1.00  0.00    -0.120 OA 
HETATM   38  C   UNL     1      -6.366  17.055  66.795  1.00  0.00    -0.211 C  
HETATM   39  C   UNL     1      -7.585  17.506  67.622  1.00  0.00    -0.195 C  
ENDBRANCH   5  34
TORSDOF 6
ENDMDL
MODEL       39
REMARK 921   NORMALIZED FREE ENERGY PREDICTED BY IDOCK:   -4.29 KCAL/MOL
REMARK 922        TOTAL FREE ENERGY PREDICTED BY IDOCK:   -6.09 KCAL/MOL
REMARK 923 INTER-LIGAND FREE ENERGY PREDICTED BY IDOCK:   -5.80 KCAL/MOL
REMARK 924 INTRA-LIGAND FREE ENERGY PREDICTED BY IDOCK:   -0.29 KCAL/MOL
REMARK 927      BINDING AFFINITY PREDICTED BY RF-SCORE:    0.00 PKD
ROOT
HETATM    1  C   UNL     1     -10.396   8.160  67.527  1.00  0.00    -0.330 C  
HETATM    2  C   UNL     1     -11.148   7.280  68.395  1.00  0.00     0.068 C  
HETATM    3  C   UNL     1     -10.240   8.043  69.341  1.00  0.00    -0.210 C  
HETATM    4  C   UNL     1      -9.251   9.639  68.438  1.00  0.00    -0.133 C  
HETATM    5  C   UNL     1      -7.034   3.666  69.494  1.00  0.00    -0.042 C  
HETATM    6  C   UNL     1      -6.423   3.194  68.153  1.00  0.00    -0.036 C  
HETATM    7  C   UNL     1      -7.167   3.920  67.043  1.00  0.00    -0.064 C  
HETATM    8  C   UNL     1      -6.643   5.343  66.945  1.00  0.00    -0.053 C  
HETATM    9  C   UNL     1     -10.484   9.402  68.926  1.00  0.00    -0.236 C  
HETATM   10  C   UNL     1      -8.864   9.343  70.081  1.00  0.00    -0.249 C  
HETATM   11  C   UNL     1     -11.625  10.415  68.707  1.00  0.00    -0.188 C  
HETATM   12  C   UNL     1      -7.314   6.077  65.773  1.00  0.00    -0.076 C  
HETATM   13  C   UNL     1      -6.646   6.123  68.301  1.00  0.00    -0.058 C  
HETATM   14  C   UNL     1      -5.339   6.959  68.325  1.00  0.00    -0.016 C  
HETATM   15  C   UNL     1      -7.602   8.320  69.458  1.00  0.00    -0.095 C  
HETATM   16  C   UNL     1      -6.600   5.167  69.639  1.00  0.00    -0.043 C  
HETATM   17  H   UNL     1      -6.068   1.348  68.584  1.00  0.00     0.000 HD 
HETATM   18  O   UNL     1      -6.533   1.802  67.891  1.00  0.00    -0.028 OA 
HETATM   19  C   UNL     1      -8.761   6.500  66.049  1.00  0.00    -0.155 C  
HETATM   20  C   UNL     1      -7.914   7.066  68.443  1.00  0.00    -0.123 C  
HETATM   21  C   UNL     1      -8.771   7.536  67.170  1.00  0.00    -0.121 C  
ENDROOT
BRANCH   3  22
HETATM   22  N   UNL     1     -11.049   8.136  71.004  1.00  0.00    -0.249 N  
HETATM   23  C   UNL     1     -12.901   9.671  71.721  1.00  0.00    -0.514 C  
HETATM   24  C   UNL     1     -13.488   8.363  71.273  1.00  0.00    -0.158 C  
HETATM   25  C   UNL     1     -11.405   9.569  71.579  1.00  0.00    -0.385 C  
HETATM   26  C   UNL     1     -12.360   7.358  71.210  1.00  0.00    -0.346 C  
BRANCH  22  27
HETATM   27  C   UNL     1     -10.013   7.453  72.035  1.00  0.00    -0.166 C  
BRANCH  27  28
HETATM   28  C   UNL     1     -10.474   7.311  73.449  1.00  0.00    -0.423 C  
HETATM   29  C   UNL     1     -10.182   6.239  74.200  1.00  0.00    -0.338 C  
ENDBRANCH  27  28
ENDBRANCH  22  27
ENDBRANCH   3  22
BRANCH   4  30
HETATM   30  O   UNL     1      -9.425  11.168  68.750  1.00  0.00    -0.191 OA 
BRANCH  30  31
HETATM   31  C   UNL     1      -8.903  12.216  68.068  1.00  0.00    -0.181 C  
HETATM   32  C   UNL     1      -7.720  11.717  67.267  1.00  0.00    -0.158 C  
HETATM   33  O   UNL     1      -9.455  13.297  67.934  1.00  0.00    -0.199 OA 
ENDBRANCH  30  31
ENDBRANCH   4  30
BRANCH   5  34
HETATM   34  N   UNL     1      -6.886   2.734  70.638  1.00  0.00    -0.032 NA 
HETATM   35  C   UNL     1      -6.273   3.187  71.893  1.00  0.00    -0.014 C  
HETATM   36  C   UNL     1      -7.295   3.872  72.796  1.00  0.00    -0.063 C  
HETATM   37  O   UNL     1      -8.329   2.950  73.163  1.00  0.00    -0.073 OA 
HETATM   38  C   UNL     1      -8.977   2.399  72.010  1.00  0.00    -0.079 C  
HETATM   39  C   UNL     1      -7.993   1.832  70.970  1.00  0.00    -0.046 C  
ENDBRANCH   5  34
TORSDOF 6
ENDMDL
MODEL       40
REMARK 921   NORMALIZED FREE ENERGY PREDICTED BY IDOCK:   -4.26 KCAL/MOL
REMARK 922        TOTAL FREE ENERGY PREDICTED BY IDOCK:   -6.05 KCAL/MOL
REMARK 923 INTER-LIGAND FREE ENERGY PREDICTED BY IDOCK:   -7.47 KCAL/MOL
REMARK 924 INTRA-LIGAND FREE ENERGY PREDICTED BY IDOCK:    1.42 KCAL/MOL
REMARK 927      BINDING AFFINITY PREDICTED BY RF-SCORE:    0.00 PKD
ROOT
HETATM    1  C   UNL     1      -7.471   6.612  69.268  1.00  0.00    -0.095 C  
HETATM    2  C   UNL     1      -7.709   7.334  70.499  1.00  0.00    -0.093 C  
HETATM    3  C   UNL     1      -9.098   7.102  69.933  1.00  0.00    -0.141 C  
HETATM    4  C   UNL     1      -9.128   5.791  68.315  1.00  0.00    -0.117 C  
HETATM    5  C   UNL     1      -9.048  12.246  68.205  1.00  0.00    -0.196 C  
HETATM    6  C   UNL     1      -7.934  12.644  67.207  1.00  0.00    -0.166 C  
HETATM    7  C   UNL     1      -6.908  11.522  67.216  1.00  0.00    -0.118 C  
HETATM    8  C   UNL     1      -7.434  10.362  66.388  1.00  0.00    -0.120 C  
HETATM    9  C   UNL     1      -9.053   5.688  69.656  1.00  0.00    -0.148 C  
HETATM   10  C   UNL     1     -10.631   6.491  68.747  1.00  0.00    -0.282 C  
HETATM   11  C   UNL     1      -8.760   4.331  70.326  1.00  0.00    -0.118 C  
HETATM   12  C   UNL     1      -6.380   9.247  66.304  1.00  0.00    -0.065 C  
HETATM   13  C   UNL     1      -8.869   9.886  66.790  1.00  0.00    -0.147 C  
HETATM   14  C   UNL     1      -9.604   9.551  65.465  1.00  0.00    -0.349 C  
HETATM   15  C   UNL     1     -10.217   7.745  67.614  1.00  0.00    -0.282 C  
HETATM   16  C   UNL     1      -9.782  11.029  67.541  1.00  0.00    -0.190 C  
HETATM   17  H   UNL     1      -7.887  14.548  67.507  1.00  0.00     0.000 HD 
HETATM   18  O   UNL     1      -7.245  13.847  67.512  1.00  0.00    -0.170 OA 
HETATM   19  C   UNL     1      -6.240   8.424  67.590  1.00  0.00    -0.053 C  
HETATM   20  C   UNL     1      -8.831   8.617  67.741  1.00  0.00    -0.137 C  
HETATM   21  C   UNL     1      -7.541   7.666  67.839  1.00  0.00    -0.117 C  
ENDROOT
BRANCH   3  22
HETATM   22  N   UNL     1     -10.313   7.049  71.329  1.00  0.00    -0.202 N  
HETATM   23  C   UNL     1     -11.877   8.870  72.066  1.00  0.00    -0.438 C  
HETATM   24  C   UNL     1     -12.598   7.948  71.123  1.00  0.00    -0.194 C  
HETATM   25  C   UNL     1     -10.473   8.347  72.224  1.00  0.00    -0.337 C  
HETATM   26  C   UNL     1     -11.771   6.689  71.000  1.00  0.00    -0.360 C  
BRANCH  22  27
HETATM   27  C   UNL     1      -9.816   5.860  72.299  1.00  0.00    -0.160 C  
BRANCH  27  28
HETATM   28  C   UNL     1     -10.818   5.328  73.271  1.00  0.00    -0.349 C  
HETATM   29  C   UNL     1     -10.808   4.056  73.696  1.00  0.00    -0.338 C  
ENDBRANCH  27  28
ENDBRANCH  22  27
ENDBRANCH   3  22
BRANCH   4  30
HETATM   30  O   UNL     1      -9.803   4.374  68.248  1.00  0.00    -0.138 OA 
BRANCH  30  31
HETATM   31  C   UNL     1      -9.365   3.281  67.578  1.00  0.00    -0.206 C  
HETATM   32  C   UNL     1      -8.412   3.738  66.495  1.00  0.00    -0.106 C  
HETATM   33  O   UNL     1      -9.520   2.130  67.957  1.00  0.00    -0.205 OA 
ENDBRANCH  30  31
ENDBRANCH   4  30
BRANCH   5  34
HETATM   34  N   UNL     1      -9.833  13.367  68.780  1.00  0.00    -0.094 NA 
HETATM   35  C   UNL     1      -9.698  14.724  68.238  1.00  0.00    -0.218 C  
HETATM   36  C   UNL     1     -10.600  14.933  67.025  1.00  0.00    -0.289 C  
HETATM   37  O   UNL     1     -11.975  14.783  67.398  1.00  0.00    -0.357 OA 
HETATM   38  C   UNL     1     -12.225  13.501  67.987  1.00  0.00    -0.123 C  
HETATM   39  C   UNL     1     -11.242  13.148  69.119  1.00  0.00    -0.247 C  
ENDBRANCH   5  34
TORSDOF 6
ENDMDL
MODEL       41
REMARK 921   NORMALIZED FREE ENERGY PREDICTED BY IDOCK:   -4.21 KCAL/MOL
REMARK 922        TOTAL FREE ENERGY PREDICTED BY IDOCK:   -5.99 KCAL/MOL
REMARK 923 INTER-LIGAND FREE ENERGY PREDICTED BY IDOCK:   -6.20 KCAL/MOL
REMARK 924 INTRA-LIGAND FREE ENERGY PREDICTED BY IDOCK:    0.21 KCAL/MOL
REMARK 927      BINDING AFFINITY PREDICTED BY RF-SCORE:    0.00 PKD
ROOT
HETATM    1  C   UNL     1      -9.503  11.073  68.967  1.00  0.00    -0.123 C  
HETATM    2  C   UNL     1      -8.142  10.823  69.389  1.00  0.00    -0.053 C  
HETATM    3  C   UNL     1      -8.363   9.840  68.254  1.00  0.00    -0.106 C  
HETATM    4  C   UNL     1     -10.129  10.170  67.201  1.00  0.00    -0.209 C  
HETATM    5  C   UNL     1      -9.078   5.972  71.994  1.00  0.00    -0.143 C  
HETATM    6  C   UNL     1     -10.240   6.169  72.997  1.00  0.00    -0.195 C  
HETATM    7  C   UNL     1     -10.700   7.612  72.869  1.00  0.00    -0.428 C  
HETATM    8  C   UNL     1     -11.561   7.748  71.624  1.00  0.00    -0.304 C  
HETATM    9  C   UNL     1      -8.895  10.708  67.234  1.00  0.00    -0.137 C  
HETATM   10  C   UNL     1      -9.205   8.811  66.717  1.00  0.00    -0.211 C  
HETATM   11  C   UNL     1      -8.582  12.006  66.463  1.00  0.00    -0.100 C  
HETATM   12  C   UNL     1     -12.116   9.177  71.515  1.00  0.00    -0.422 C  
HETATM   13  C   UNL     1     -10.897   7.196  70.321  1.00  0.00    -0.271 C  
HETATM   14  C   UNL     1     -12.026   6.493  69.521  1.00  0.00     0.271 C  
HETATM   15  C   UNL     1     -10.158   7.923  67.870  1.00  0.00    -0.240 C  
HETATM   16  C   UNL     1      -9.741   6.054  70.574  1.00  0.00    -0.210 C  
HETATM   17  H   UNL     1      -9.621   5.051  74.442  1.00  0.00     0.000 HD 
HETATM   18  O   UNL     1      -9.908   5.953  74.361  1.00  0.00    -0.189 OA 
HETATM   19  C   UNL     1     -11.082  10.213  71.060  1.00  0.00    -0.243 C  
HETATM   20  C   UNL     1     -10.236   8.349  69.455  1.00  0.00    -0.208 C  
HETATM   21  C   UNL     1     -10.649   9.890  69.633  1.00  0.00    -0.273 C  
ENDROOT
BRANCH   3  22
HETATM   22  N   UNL     1      -6.734   9.473  67.453  1.00  0.00    -0.071 N  
HETATM   23  C   UNL     1      -5.910  10.281  65.222  1.00  0.00    -0.125 C  
HETATM   24  C   UNL     1      -5.414  11.204  66.299  1.00  0.00    -0.142 C  
HETATM   25  C   UNL     1      -6.719   9.200  65.892  1.00  0.00    -0.079 C  
HETATM   26  C   UNL     1      -5.602  10.500  67.623  1.00  0.00    -0.044 C  
BRANCH  22  27
HETATM   27  C   UNL     1      -6.179   8.142  68.174  1.00  0.00    -0.050 C  
BRANCH  27  28
HETATM   28  C   UNL     1      -6.243   6.877  67.383  1.00  0.00    -0.037 C  
HETATM   29  C   UNL     1      -5.288   5.938  67.442  1.00  0.00    -0.005 C  
ENDBRANCH  27  28
ENDBRANCH  22  27
ENDBRANCH   3  22
BRANCH   4  30
HETATM   30  O   UNL     1     -10.277  10.609  65.700  1.00  0.00    -0.255 OA 
BRANCH  30  31
HETATM   31  C   UNL     1     -11.157  11.500  65.182  1.00  0.00    -0.194 C  
HETATM   32  C   UNL     1     -10.973  11.528  63.680  1.00  0.00    -0.482 C  
HETATM   33  O   UNL     1     -12.091  11.988  65.800  1.00  0.00    -0.536 OA 
ENDBRANCH  30  31
ENDBRANCH   4  30
BRANCH   5  34
HETATM   34  N   UNL     1      -8.126   4.879  72.310  1.00  0.00    -0.109 NA 
HETATM   35  C   UNL     1      -8.612   3.512  72.538  1.00  0.00    -0.085 C  
HETATM   36  C   UNL     1      -8.787   2.757  71.224  1.00  0.00    -0.075 C  
HETATM   37  O   UNL     1      -7.527   2.630  70.554  1.00  0.00    -0.036 OA 
HETATM   38  C   UNL     1      -6.926   3.908  70.315  1.00  0.00    -0.038 C  
HETATM   39  C   UNL     1      -6.864   4.797  71.571  1.00  0.00    -0.043 C  
ENDBRANCH   5  34
TORSDOF 6
ENDMDL
MODEL       42
REMARK 921   NORMALIZED FREE ENERGY PREDICTED BY IDOCK:   -4.21 KCAL/MOL
REMARK 922        TOTAL FREE ENERGY PREDICTED BY IDOCK:   -5.99 KCAL/MOL
REMARK 923 INTER-LIGAND FREE ENERGY PREDICTED BY IDOCK:   -5.71 KCAL/MOL
REMARK 924 INTRA-LIGAND FREE ENERGY PREDICTED BY IDOCK:   -0.27 KCAL/MOL
REMARK 927      BINDING AFFINITY PREDICTED BY RF-SCORE:    0.00 PKD
ROOT
HETATM    1  C   UNL     1     -10.356   4.977  69.227  1.00  0.00    -0.199 C  
HETATM    2  C   UNL     1     -10.831   5.265  67.891  1.00  0.00     0.168 C  
HETATM    3  C   UNL     1      -9.331   5.472  67.801  1.00  0.00    -0.113 C  
HETATM    4  C   UNL     1      -8.298   4.814  69.486  1.00  0.00    -0.082 C  
HETATM    5  C   UNL     1     -10.240  10.815  68.100  1.00  0.00    -0.172 C  
HETATM    6  C   UNL     1     -10.951  11.338  69.371  1.00  0.00    -0.228 C  
HETATM    7  C   UNL     1     -11.521  10.127  70.093  1.00  0.00    -0.368 C  
HETATM    8  C   UNL     1     -10.400   9.422  70.837  1.00  0.00    -0.380 C  
HETATM    9  C   UNL     1      -8.845   4.250  68.392  1.00  0.00    -0.135 C  
HETATM   10  C   UNL     1      -7.355   5.564  68.267  1.00  0.00    -0.073 C  
HETATM   11  C   UNL     1      -8.955   2.717  68.267  1.00  0.00    -0.194 C  
HETATM   12  C   UNL     1     -10.960   8.244  71.650  1.00  0.00    -0.327 C  
HETATM   13  C   UNL     1      -9.157   9.081  69.952  1.00  0.00    -0.176 C  
HETATM   14  C   UNL     1      -7.908   9.344  70.835  1.00  0.00    -0.097 C  
HETATM   15  C   UNL     1      -7.657   7.042  69.135  1.00  0.00    -0.100 C  
HETATM   16  C   UNL     1      -8.983  10.034  68.623  1.00  0.00    -0.136 C  
HETATM   17  H   UNL     1     -11.672  12.991  68.687  1.00  0.00     0.000 HD 
HETATM   18  O   UNL     1     -12.028  12.235  69.139  1.00  0.00    -0.297 OA 
HETATM   19  C   UNL     1     -11.330   7.022  70.802  1.00  0.00    -0.339 C  
HETATM   20  C   UNL     1      -9.177   7.577  69.450  1.00  0.00    -0.149 C  
HETATM   21  C   UNL     1     -10.062   6.450  70.176  1.00  0.00    -0.209 C  
ENDROOT
BRANCH   3  22
HETATM   22  N   UNL     1      -8.785   5.149  66.062  1.00  0.00    -0.126 N  
HETATM   23  C   UNL     1      -7.002   6.354  64.768  1.00  0.00    -0.051 C  
HETATM   24  C   UNL     1      -6.409   5.130  65.407  1.00  0.00    -0.035 C  
HETATM   25  C   UNL     1      -8.462   6.397  65.140  1.00  0.00    -0.068 C  
HETATM   26  C   UNL     1      -7.555   4.250  65.850  1.00  0.00    -0.089 C  
BRANCH  22  27
HETATM   27  C   UNL     1      -9.995   4.343  65.364  1.00  0.00    -0.218 C  
BRANCH  27  28
HETATM   28  C   UNL     1      -9.650   3.532  64.157  1.00  0.00    -0.156 C  
HETATM   29  C   UNL     1     -10.225   3.732  62.963  1.00  0.00    -0.189 C  
ENDBRANCH  27  28
ENDBRANCH  22  27
ENDBRANCH   3  22
BRANCH   4  30
HETATM   30  O   UNL     1      -7.262   3.637  69.570  1.00  0.00    -0.045 OA 
BRANCH  30  31
HETATM   31  C   UNL     1      -6.643   3.157  70.675  1.00  0.00    -0.032 C  
HETATM   32  C   UNL     1      -6.905   4.115  71.818  1.00  0.00    -0.030 C  
HETATM   33  O   UNL     1      -6.182   2.031  70.776  1.00  0.00    -0.018 OA 
ENDBRANCH  30  31
ENDBRANCH   4  30
BRANCH   5  34
HETATM   34  N   UNL     1     -10.104  11.786  66.986  1.00  0.00    -0.207 NA 
HETATM   35  C   UNL     1      -8.786  12.070  66.405  1.00  0.00    -0.126 C  
HETATM   36  C   UNL     1      -8.415  11.046  65.337  1.00  0.00    -0.030 C  
HETATM   37  O   UNL     1      -9.353  11.095  64.255  1.00  0.00    -0.210 OA 
HETATM   38  C   UNL     1     -10.694  10.875  64.709  1.00  0.00    -0.178 C  
HETATM   39  C   UNL     1     -11.088  11.767  65.901  1.00  0.00    -0.302 C  
ENDBRANCH   5  34
TORSDOF 6
ENDMDL
MODEL       43
REMARK 921   NORMALIZED FREE ENERGY PREDICTED BY IDOCK:   -4.20 KCAL/MOL
REMARK 922        TOTAL FREE ENERGY PREDICTED BY IDOCK:   -5.98 KCAL/MOL
REMARK 923 INTER-LIGAND FREE ENERGY PREDICTED BY IDOCK:   -7.15 KCAL/MOL
REMARK 924 INTRA-LIGAND FREE ENERGY PREDICTED BY IDOCK:    1.17 KCAL/MOL
REMARK 927      BINDING AFFINITY PREDICTED BY RF-SCORE:    0.00 PKD
ROOT
HETATM    1  C   UNL     1      -8.507  12.104  68.363  1.00  0.00    -0.145 C  
HETATM    2  C   UNL     1      -8.208  12.418  66.983  1.00  0.00    -0.141 C  
HETATM    3  C   UNL     1      -9.625  11.877  66.938  1.00  0.00    -0.200 C  
HETATM    4  C   UNL     1     -10.482  11.637  68.822  1.00  0.00    -0.204 C  
HETATM    5  C   UNL     1      -7.572   7.172  65.176  1.00  0.00    -0.102 C  
HETATM    6  C   UNL     1      -6.567   6.450  66.105  1.00  0.00    -0.048 C  
HETATM    7  C   UNL     1      -6.155   7.447  67.176  1.00  0.00    -0.046 C  
HETATM    8  C   UNL     1      -7.261   7.546  68.212  1.00  0.00    -0.093 C  
HETATM    9  C   UNL     1     -10.254  12.658  67.974  1.00  0.00    -0.230 C  
HETATM   10  C   UNL     1     -11.432  11.129  67.489  1.00  0.00    -0.296 C  
HETATM   11  C   UNL     1     -10.492  14.116  68.415  1.00  0.00    -0.254 C  
HETATM   12  C   UNL     1      -6.837   8.480  69.357  1.00  0.00    -0.046 C  
HETATM   13  C   UNL     1      -8.677   7.836  67.614  1.00  0.00    -0.126 C  
HETATM   14  C   UNL     1      -9.679   6.979  68.432  1.00  0.00    -0.139 C  
HETATM   15  C   UNL     1     -10.687   9.575  67.725  1.00  0.00    -0.302 C  
HETATM   16  C   UNL     1      -8.862   7.379  66.045  1.00  0.00    -0.173 C  
HETATM   17  H   UNL     1      -5.636   5.370  64.807  1.00  0.00     0.000 HD 
HETATM   18  O   UNL     1      -5.378   5.993  65.476  1.00  0.00    -0.012 OA 
HETATM   19  C   UNL     1      -6.878   9.968  68.993  1.00  0.00    -0.055 C  
HETATM   20  C   UNL     1      -9.058   9.373  67.702  1.00  0.00    -0.131 C  
HETATM   21  C   UNL     1      -8.324  10.374  68.721  1.00  0.00    -0.134 C  
ENDROOT
BRANCH   3  22
HETATM   22  N   UNL     1     -10.505  12.619  65.489  1.00  0.00    -0.276 N  
HETATM   23  C   UNL     1     -12.731  13.782  65.481  1.00  0.00    -0.530 C  
HETATM   24  C   UNL     1     -11.638  14.804  65.612  1.00  0.00    -0.290 C  
HETATM   25  C   UNL     1     -12.075  12.428  65.395  1.00  0.00    -0.365 C  
HETATM   26  C   UNL     1     -10.337  14.128  65.242  1.00  0.00    -0.388 C  
BRANCH  22  27
HETATM   27  C   UNL     1      -9.862  11.926  64.182  1.00  0.00    -0.207 C  
BRANCH  27  28
HETATM   28  C   UNL     1      -9.687  10.443  64.230  1.00  0.00    -0.389 C  
HETATM   29  C   UNL     1      -9.313   9.724  63.162  1.00  0.00    -0.125 C  
ENDBRANCH  27  28
ENDBRANCH  22  27
ENDBRANCH   3  22
BRANCH   4  30
HETATM   30  O   UNL     1     -11.716  12.408  69.413  1.00  0.00    -0.291 OA 
BRANCH  30  31
HETATM   31  C   UNL     1     -12.288  12.243  70.630  1.00  0.00    -0.286 C  
HETATM   32  C   UNL     1     -12.308  10.763  70.947  1.00  0.00    -0.497 C  
HETATM   33  O   UNL     1     -12.506  13.148  71.420  1.00  0.00    -0.299 OA 
ENDBRANCH  30  31
ENDBRANCH   4  30
BRANCH   5  34
HETATM   34  N   UNL     1      -7.681   6.636  63.797  1.00  0.00    -0.108 NA 
HETATM   35  C   UNL     1      -6.762   7.092  62.747  1.00  0.00    -0.052 C  
HETATM   36  C   UNL     1      -5.454   6.307  62.771  1.00  0.00    -0.022 C  
HETATM   37  O   UNL     1      -5.703   4.920  62.514  1.00  0.00    -0.013 OA 
HETATM   38  C   UNL     1      -6.631   4.367  63.455  1.00  0.00    -0.034 C  
HETATM   39  C   UNL     1      -7.917   5.202  63.606  1.00  0.00    -0.098 C  
ENDBRANCH   5  34
TORSDOF 6
ENDMDL
MODEL       44
REMARK 921   NORMALIZED FREE ENERGY PREDICTED BY IDOCK:   -4.20 KCAL/MOL
REMARK 922        TOTAL FREE ENERGY PREDICTED BY IDOCK:   -5.97 KCAL/MOL
REMARK 923 INTER-LIGAND FREE ENERGY PREDICTED BY IDOCK:   -6.09 KCAL/MOL
REMARK 924 INTRA-LIGAND FREE ENERGY PREDICTED BY IDOCK:    0.12 KCAL/MOL
REMARK 927      BINDING AFFINITY PREDICTED BY RF-SCORE:    0.00 PKD
ROOT
HETATM    1  C   UNL     1      -8.256  10.583  69.733  1.00  0.00     0.050 C  
HETATM    2  C   UNL     1      -7.357  10.197  68.668  1.00  0.00    -0.082 C  
HETATM    3  C   UNL     1      -8.727  10.190  68.015  1.00  0.00    -0.122 C  
HETATM    4  C   UNL     1     -10.219  11.026  69.204  1.00  0.00    -0.166 C  
HETATM    5  C   UNL     1      -8.722   4.784  68.500  1.00  0.00    -0.098 C  
HETATM    6  C   UNL     1      -8.616   4.206  69.931  1.00  0.00    -0.068 C  
HETATM    7  C   UNL     1      -8.203   5.349  70.845  1.00  0.00    -0.117 C  
HETATM    8  C   UNL     1      -9.416   6.218  71.131  1.00  0.00    -0.183 C  
HETATM    9  C   UNL     1      -9.231  11.482  68.410  1.00  0.00    -0.190 C  
HETATM   10  C   UNL     1     -10.726  10.376  67.702  1.00  0.00    -0.335 C  
HETATM   11  C   UNL     1      -8.878  12.982  68.374  1.00  0.00    -0.123 C  
HETATM   12  C   UNL     1      -9.050   7.332  72.124  1.00  0.00    -0.149 C  
HETATM   13  C   UNL     1     -10.178   6.697  69.852  1.00  0.00    -0.214 C  
HETATM   14  C   UNL     1     -11.690   6.628  70.195  1.00  0.00    -0.412 C  
HETATM   15  C   UNL     1     -10.974   8.895  68.582  1.00  0.00     0.066 C  
HETATM   16  C   UNL     1      -9.967   5.740  68.532  1.00  0.00    -0.197 C  
HETATM   17  H   UNL     1      -7.920   2.453  69.528  1.00  0.00     0.000 HD 
HETATM   18  O   UNL     1      -7.662   3.167  70.099  1.00  0.00    -0.044 OA 
HETATM   19  C   UNL     1      -8.229   8.470  71.508  1.00  0.00    -0.199 C  
HETATM   20  C   UNL     1      -9.769   8.171  69.432  1.00  0.00    -0.170 C  
HETATM   21  C   UNL     1      -9.080   9.189  70.465  1.00  0.00    -0.284 C  
ENDROOT
BRANCH   3  22
HETATM   22  N   UNL     1      -8.531  10.536  66.206  1.00  0.00    -0.144 N  
HETATM   23  C   UNL     1     -10.309  10.470  64.435  1.00  0.00    -0.244 C  
HETATM   24  C   UNL     1     -10.162  11.879  64.937  1.00  0.00    -0.310 C  
HETATM   25  C   UNL     1      -9.320   9.616  65.185  1.00  0.00    -0.259 C  
HETATM   26  C   UNL     1      -8.862  11.952  65.705  1.00  0.00     0.128 C  
BRANCH  22  27
HETATM   27  C   UNL     1      -6.960  10.357  65.893  1.00  0.00    -0.131 C  
BRANCH  27  28
HETATM   28  C   UNL     1      -6.595   9.997  64.490  1.00  0.00    -0.129 C  
HETATM   29  C   UNL     1      -5.967   8.854  64.176  1.00  0.00    -0.071 C  
ENDBRANCH  27  28
ENDBRANCH  22  27
ENDBRANCH   3  22
BRANCH   4  30
HETATM   30  O   UNL     1     -11.043  12.333  68.922  1.00  0.00    -0.224 OA 
BRANCH  30  31
HETATM   31  C   UNL     1     -11.947  12.932  69.734  1.00  0.00    -0.296 C  
HETATM   32  C   UNL     1     -12.381  11.929  70.781  1.00  0.00    -0.416 C  
HETATM   33  O   UNL     1     -12.164  14.133  69.759  1.00  0.00    -0.326 OA 
ENDBRANCH  30  31
ENDBRANCH   4  30
BRANCH   5  34
HETATM   34  N   UNL     1      -8.558   3.810  67.393  1.00  0.00    -0.099 NA 
HETATM   35  C   UNL     1      -9.524   3.771  66.288  1.00  0.00    -0.179 C  
HETATM   36  C   UNL     1      -9.184   4.798  65.213  1.00  0.00    -0.153 C  
HETATM   37  O   UNL     1      -7.903   4.510  64.639  1.00  0.00    -0.083 OA 
HETATM   38  C   UNL     1      -6.875   4.475  65.636  1.00  0.00    -0.057 C  
HETATM   39  C   UNL     1      -7.222   3.579  66.839  1.00  0.00    -0.063 C  
ENDBRANCH   5  34
TORSDOF 6
ENDMDL
MODEL       45
REMARK 921   NORMALIZED FREE ENERGY PREDICTED BY IDOCK:   -4.13 KCAL/MOL
REMARK 922        TOTAL FREE ENERGY PREDICTED BY IDOCK:   -5.87 KCAL/MOL
REMARK 923 INTER-LIGAND FREE ENERGY PREDICTED BY IDOCK:   -7.45 KCAL/MOL
REMARK 924 INTRA-LIGAND FREE ENERGY PREDICTED BY IDOCK:    1.57 KCAL/MOL
REMARK 927      BINDING AFFINITY PREDICTED BY RF-SCORE:    0.00 PKD
ROOT
HETATM    1  C   UNL     1      -8.835  13.114  68.499  1.00  0.00    -0.045 C  
HETATM    2  C   UNL     1      -8.498  13.296  67.104  1.00  0.00    -0.182 C  
HETATM    3  C   UNL     1      -9.930  12.794  67.075  1.00  0.00    -0.231 C  
HETATM    4  C   UNL     1     -10.832  12.747  68.951  1.00  0.00    -0.196 C  
HETATM    5  C   UNL     1      -7.989   7.894  65.779  1.00  0.00    -0.109 C  
HETATM    6  C   UNL     1      -7.026   7.228  66.791  1.00  0.00    -0.074 C  
HETATM    7  C   UNL     1      -6.605   8.304  67.779  1.00  0.00    -0.061 C  
HETATM    8  C   UNL     1      -7.728   8.526  68.778  1.00  0.00    -0.102 C  
HETATM    9  C   UNL     1     -10.555  13.682  68.023  1.00  0.00    -0.256 C  
HETATM   10  C   UNL     1     -11.771  12.152  67.647  1.00  0.00    -0.386 C  
HETATM   11  C   UNL     1     -10.757  15.180  68.329  1.00  0.00    -0.251 C  
HETATM   12  C   UNL     1      -7.298   9.545  69.845  1.00  0.00    -0.103 C  
HETATM   13  C   UNL     1      -9.122   8.803  68.124  1.00  0.00    -0.142 C  
HETATM   14  C   UNL     1     -10.167   8.051  68.991  1.00  0.00    -0.217 C  
HETATM   15  C   UNL     1     -11.079  10.603  68.036  1.00  0.00    -0.361 C  
HETATM   16  C   UNL     1      -9.289   8.215  66.597  1.00  0.00    -0.250 C  
HETATM   17  H   UNL     1      -6.103   6.010  65.614  1.00  0.00     0.000 HD 
HETATM   18  O   UNL     1      -5.839   6.682  66.232  1.00  0.00    -0.023 OA 
HETATM   19  C   UNL     1      -7.286  10.996  69.351  1.00  0.00    -0.114 C  
HETATM   20  C   UNL     1      -9.456  10.353  68.068  1.00  0.00    -0.152 C  
HETATM   21  C   UNL     1      -8.713  11.418  69.012  1.00  0.00     0.079 C  
ENDROOT
BRANCH   3  22
HETATM   22  N   UNL     1     -10.758  13.431  65.545  1.00  0.00    -0.288 N  
HETATM   23  C   UNL     1     -11.876  12.091  63.740  1.00  0.00    -0.581 C  
HETATM   24  C   UNL     1     -12.907  12.534  64.739  1.00  0.00    -0.287 C  
HETATM   25  C   UNL     1     -10.544  12.628  64.196  1.00  0.00    -0.407 C  
HETATM   26  C   UNL     1     -12.283  13.624  65.581  1.00  0.00    -0.454 C  
BRANCH  22  27
HETATM   27  C   UNL     1     -10.172  14.915  65.315  1.00  0.00    -0.373 C  
BRANCH  27  28
HETATM   28  C   UNL     1     -11.066  15.885  64.612  1.00  0.00    -0.368 C  
HETATM   29  C   UNL     1     -11.022  17.205  64.841  1.00  0.00     0.206 C  
ENDBRANCH  27  28
ENDBRANCH  22  27
ENDBRANCH   3  22
BRANCH   4  30
HETATM   30  O   UNL     1     -12.053  13.604  69.445  1.00  0.00    -0.326 OA 
BRANCH  30  31
HETATM   31  C   UNL     1     -12.675  13.540  70.647  1.00  0.00    -0.205 C  
HETATM   32  C   UNL     1     -13.330  14.879  70.912  1.00  0.00    -0.393 C  
HETATM   33  O   UNL     1     -12.878  12.508  71.266  1.00  0.00    -0.352 OA 
ENDBRANCH  30  31
ENDBRANCH   4  30
BRANCH   5  34
HETATM   34  N   UNL     1      -8.087   7.241  64.450  1.00  0.00    -0.107 NA 
HETATM   35  C   UNL     1      -7.470   7.860  63.271  1.00  0.00    -0.119 C  
HETATM   36  C   UNL     1      -5.993   7.494  63.158  1.00  0.00    -0.054 C  
HETATM   37  O   UNL     1      -5.844   6.078  62.995  1.00  0.00    -0.021 OA 
HETATM   38  C   UNL     1      -6.453   5.357  64.072  1.00  0.00    -0.029 C  
HETATM   39  C   UNL     1      -7.904   5.791  64.354  1.00  0.00    -0.110 C  
ENDBRANCH   5  34
TORSDOF 6
ENDMDL
MODEL       46
REMARK 921   NORMALIZED FREE ENERGY PREDICTED BY IDOCK:   -4.11 KCAL/MOL
REMARK 922        TOTAL FREE ENERGY PREDICTED BY IDOCK:   -5.85 KCAL/MOL
REMARK 923 INTER-LIGAND FREE ENERGY PREDICTED BY IDOCK:   -7.07 KCAL/MOL
REMARK 924 INTRA-LIGAND FREE ENERGY PREDICTED BY IDOCK:    1.22 KCAL/MOL
REMARK 927      BINDING AFFINITY PREDICTED BY RF-SCORE:    0.00 PKD
ROOT
HETATM    1  C   UNL     1      -8.796  12.755  68.200  1.00  0.00    -0.194 C  
HETATM    2  C   UNL     1      -8.555  12.633  66.779  1.00  0.00    -0.101 C  
HETATM    3  C   UNL     1      -9.986  12.160  66.951  1.00  0.00    -0.204 C  
HETATM    4  C   UNL     1     -10.759  12.524  68.851  1.00  0.00    -0.165 C  
HETATM    5  C   UNL     1      -8.147   7.066  66.595  1.00  0.00    -0.110 C  
HETATM    6  C   UNL     1      -7.118   6.612  67.659  1.00  0.00    -0.085 C  
HETATM    7  C   UNL     1      -6.629   7.865  68.368  1.00  0.00    -0.062 C  
HETATM    8  C   UNL     1      -7.682   8.311  69.369  1.00  0.00    -0.102 C  
HETATM    9  C   UNL     1     -10.544  13.237  67.730  1.00  0.00    -0.249 C  
HETATM   10  C   UNL     1     -11.785  11.682  67.767  1.00  0.00    -0.315 C  
HETATM   11  C   UNL     1     -10.722  14.769  67.725  1.00  0.00    -0.268 C  
HETATM   12  C   UNL     1      -7.179   9.525  70.166  1.00  0.00    -0.114 C  
HETATM   13  C   UNL     1      -9.116   8.467  68.765  1.00  0.00    -0.143 C  
HETATM   14  C   UNL     1     -10.101   7.931  69.837  1.00  0.00    -0.197 C  
HETATM   15  C   UNL     1     -11.072  10.239  68.427  1.00  0.00    -0.302 C  
HETATM   16  C   UNL     1      -9.388   7.573  67.411  1.00  0.00    -0.164 C  
HETATM   17  H   UNL     1      -6.280   5.160  66.708  1.00  0.00     0.000 HD 
HETATM   18  O   UNL     1      -5.974   5.942  67.151  1.00  0.00    -0.017 OA 
HETATM   19  C   UNL     1      -7.197  10.838  69.377  1.00  0.00    -0.132 C  
HETATM   20  C   UNL     1      -9.451   9.975  68.405  1.00  0.00    -0.146 C  
HETATM   21  C   UNL     1      -8.643  11.203  69.051  1.00  0.00    -0.033 C  
ENDROOT
BRANCH   3  22
HETATM   22  N   UNL     1     -10.914  12.473  65.380  1.00  0.00    -0.286 N  
HETATM   23  C   UNL     1     -12.761  14.131  64.998  1.00  0.00    -0.336 C  
HETATM   24  C   UNL     1     -11.451  14.748  64.597  1.00  0.00    -0.381 C  
HETATM   25  C   UNL     1     -12.474  12.731  65.477  1.00  0.00    -0.354 C  
HETATM   26  C   UNL     1     -10.440  13.630  64.484  1.00  0.00    -0.390 C  
BRANCH  22  27
HETATM   27  C   UNL     1     -10.705  11.155  64.476  1.00  0.00    -0.297 C  
BRANCH  27  28
HETATM   28  C   UNL     1      -9.742  11.269  63.339  1.00  0.00    -0.385 C  
HETATM   29  C   UNL     1      -9.430  10.232  62.548  1.00  0.00    -0.281 C  
ENDBRANCH  27  28
ENDBRANCH  22  27
ENDBRANCH   3  22
BRANCH   4  30
HETATM   30  O   UNL     1     -11.942  13.485  69.232  1.00  0.00    -0.315 OA 
BRANCH  30  31
HETATM   31  C   UNL     1     -12.431  13.744  70.468  1.00  0.00    -0.339 C  
HETATM   32  C   UNL     1     -12.743  15.223  70.553  1.00  0.00    -0.440 C  
HETATM   33  O   UNL     1     -12.788  12.890  71.263  1.00  0.00    -0.356 OA 
ENDBRANCH  30  31
ENDBRANCH   4  30
BRANCH   5  34
HETATM   34  N   UNL     1      -8.336   6.150  65.444  1.00  0.00    -0.148 NA 
HETATM   35  C   UNL     1      -8.752   6.673  64.137  1.00  0.00     0.578 C  
HETATM   36  C   UNL     1      -7.557   7.173  63.331  1.00  0.00    -0.112 C  
HETATM   37  O   UNL     1      -6.653   6.094  63.063  1.00  0.00    -0.037 OA 
HETATM   38  C   UNL     1      -6.208   5.467  64.272  1.00  0.00    -0.022 C  
HETATM   39  C   UNL     1      -7.361   5.079  65.218  1.00  0.00    -0.072 C  
ENDBRANCH   5  34
TORSDOF 6
ENDMDL
MODEL       47
REMARK 921   NORMALIZED FREE ENERGY PREDICTED BY IDOCK:   -4.07 KCAL/MOL
REMARK 922        TOTAL FREE ENERGY PREDICTED BY IDOCK:   -5.79 KCAL/MOL
REMARK 923 INTER-LIGAND FREE ENERGY PREDICTED BY IDOCK:   -5.93 KCAL/MOL
REMARK 924 INTRA-LIGAND FREE ENERGY PREDICTED BY IDOCK:    0.14 KCAL/MOL
REMARK 927      BINDING AFFINITY PREDICTED BY RF-SCORE:    0.00 PKD
ROOT
HETATM    1  C   UNL     1      -9.543  11.241  68.907  1.00  0.00    -0.119 C  
HETATM    2  C   UNL     1      -8.160  11.065  69.295  1.00  0.00    -0.012 C  
HETATM    3  C   UNL     1      -8.268  10.329  67.972  1.00  0.00    -0.113 C  
HETATM    4  C   UNL     1     -10.065  10.669  66.976  1.00  0.00    -0.211 C  
HETATM    5  C   UNL     1      -8.509   5.695  70.788  1.00  0.00    -0.124 C  
HETATM    6  C   UNL     1      -9.682   5.536  71.784  1.00  0.00    -0.163 C  
HETATM    7  C   UNL     1     -10.309   6.910  71.956  1.00  0.00    -0.220 C  
HETATM    8  C   UNL     1     -11.185   7.209  70.751  1.00  0.00    -0.309 C  
HETATM    9  C   UNL     1      -8.903  11.327  67.149  1.00  0.00    -0.153 C  
HETATM   10  C   UNL     1      -8.989   9.562  66.234  1.00  0.00    -0.188 C  
HETATM   11  C   UNL     1      -8.747  12.787  66.679  1.00  0.00    -0.065 C  
HETATM   12  C   UNL     1     -11.905   8.554  70.936  1.00  0.00    -0.243 C  
HETATM   13  C   UNL     1     -10.466   7.029  69.374  1.00  0.00    -0.227 C  
HETATM   14  C   UNL     1     -11.507   6.388  68.419  1.00  0.00     0.065 C  
HETATM   15  C   UNL     1      -9.827   8.343  67.151  1.00  0.00    -0.279 C  
HETATM   16  C   UNL     1      -9.182   6.001  69.403  1.00  0.00    -0.140 C  
HETATM   17  H   UNL     1      -8.930   4.215  72.971  1.00  0.00     0.000 HD 
HETATM   18  O   UNL     1      -9.322   5.074  73.078  1.00  0.00    -0.129 OA 
HETATM   19  C   UNL     1     -11.002   9.776  70.734  1.00  0.00    -0.406 C  
HETATM   20  C   UNL     1      -9.948   8.409  68.788  1.00  0.00    -0.197 C  
HETATM   21  C   UNL     1     -10.539   9.818  69.281  1.00  0.00    -0.240 C  
ENDROOT
BRANCH   3  22
HETATM   22  N   UNL     1      -6.611  10.333  67.147  1.00  0.00    -0.072 N  
HETATM   23  C   UNL     1      -5.725   8.672  65.485  1.00  0.00    -0.047 C  
HETATM   24  C   UNL     1      -6.331   9.834  64.749  1.00  0.00    -0.097 C  
HETATM   25  C   UNL     1      -5.870   8.945  66.960  1.00  0.00    -0.046 C  
HETATM   26  C   UNL     1      -6.508  10.958  65.745  1.00  0.00    -0.022 C  
BRANCH  22  27
HETATM   27  C   UNL     1      -5.664  11.258  68.067  1.00  0.00    -0.042 C  
BRANCH  27  28
HETATM   28  C   UNL     1      -5.201  12.546  67.469  1.00  0.00    -0.103 C  
HETATM   29  C   UNL     1      -5.475  13.738  68.017  1.00  0.00    -0.115 C  
ENDBRANCH  27  28
ENDBRANCH  22  27
ENDBRANCH   3  22
BRANCH   4  30
HETATM   30  O   UNL     1     -10.270  11.399  65.600  1.00  0.00    -0.232 OA 
BRANCH  30  31
HETATM   31  C   UNL     1     -11.403  11.972  65.129  1.00  0.00    -0.304 C  
HETATM   32  C   UNL     1     -11.431  11.800  63.625  1.00  0.00    -0.524 C  
HETATM   33  O   UNL     1     -12.340  12.328  65.827  1.00  0.00    -0.622 OA 
ENDBRANCH  30  31
ENDBRANCH   4  30
BRANCH   5  34
HETATM   34  N   UNL     1      -7.434   4.677  70.884  1.00  0.00    -0.055 NA 
HETATM   35  C   UNL     1      -7.767   3.252  70.999  1.00  0.00    -0.046 C  
HETATM   36  C   UNL     1      -8.011   2.624  69.630  1.00  0.00    -0.041 C  
HETATM   37  O   UNL     1      -6.823   2.697  68.833  1.00  0.00    -0.036 OA 
HETATM   38  C   UNL     1      -6.369   4.047  68.685  1.00  0.00    -0.033 C  
HETATM   39  C   UNL     1      -6.255   4.802  70.023  1.00  0.00    -0.026 C  
ENDBRANCH   5  34
TORSDOF 6
ENDMDL
MODEL       48
REMARK 921   NORMALIZED FREE ENERGY PREDICTED BY IDOCK:   -4.01 KCAL/MOL
REMARK 922        TOTAL FREE ENERGY PREDICTED BY IDOCK:   -5.72 KCAL/MOL
REMARK 923 INTER-LIGAND FREE ENERGY PREDICTED BY IDOCK:   -5.30 KCAL/MOL
REMARK 924 INTRA-LIGAND FREE ENERGY PREDICTED BY IDOCK:   -0.42 KCAL/MOL
REMARK 927      BINDING AFFINITY PREDICTED BY RF-SCORE:    0.00 PKD
ROOT
HETATM    1  C   UNL     1      -6.165   6.225  67.325  1.00  0.00    -0.032 C  
HETATM    2  C   UNL     1      -6.877   5.144  67.972  1.00  0.00    -0.060 C  
HETATM    3  C   UNL     1      -7.968   5.946  67.287  1.00  0.00    -0.102 C  
HETATM    4  C   UNL     1      -7.239   7.396  65.982  1.00  0.00    -0.070 C  
HETATM    5  C   UNL     1      -9.124   8.144  72.113  1.00  0.00    -0.186 C  
HETATM    6  C   UNL     1      -7.995   8.938  72.813  1.00  0.00     0.425 C  
HETATM    7  C   UNL     1      -6.702   8.613  72.083  1.00  0.00    -0.072 C  
HETATM    8  C   UNL     1      -6.652   9.406  70.787  1.00  0.00    -0.096 C  
HETATM    9  C   UNL     1      -7.431   6.064  65.954  1.00  0.00    -0.082 C  
HETATM   10  C   UNL     1      -8.940   7.342  66.176  1.00  0.00    -0.182 C  
HETATM   11  C   UNL     1      -6.891   5.215  64.786  1.00  0.00    -0.049 C  
HETATM   12  C   UNL     1      -5.315   9.168  70.068  1.00  0.00    -0.028 C  
HETATM   13  C   UNL     1      -7.922   9.249  69.889  1.00  0.00    -0.113 C  
HETATM   14  C   UNL     1      -8.210  10.651  69.292  1.00  0.00    -0.122 C  
HETATM   15  C   UNL     1      -8.694   8.493  67.457  1.00  0.00    -0.135 C  
HETATM   16  C   UNL     1      -9.284   8.812  70.702  1.00  0.00    -0.233 C  
HETATM   17  H   UNL     1      -8.602   8.830  74.640  1.00  0.00     0.000 HD 
HETATM   18  O   UNL     1      -7.793   8.627  74.184  1.00  0.00    -0.398 OA 
HETATM   19  C   UNL     1      -5.215   7.803  69.379  1.00  0.00    -0.019 C  
HETATM   20  C   UNL     1      -7.706   8.185  68.732  1.00  0.00    -0.107 C  
HETATM   21  C   UNL     1      -6.241   7.739  68.251  1.00  0.00    -0.045 C  
ENDROOT
BRANCH   3  22
HETATM   22  N   UNL     1      -9.383   4.818  66.893  1.00  0.00    -0.126 N  
HETATM   23  C   UNL     1      -9.850   3.650  64.720  1.00  0.00    -0.175 C  
HETATM   24  C   UNL     1      -9.087   2.725  65.626  1.00  0.00    -0.133 C  
HETATM   25  C   UNL     1     -10.058   4.943  65.465  1.00  0.00    -0.069 C  
HETATM   26  C   UNL     1      -9.151   3.303  67.021  1.00  0.00    -0.174 C  
BRANCH  22  27
HETATM   27  C   UNL     1     -10.521   5.143  67.988  1.00  0.00    -0.018 C  
BRANCH  27  28
HETATM   28  C   UNL     1     -10.065   5.295  69.402  1.00  0.00    -0.311 C  
HETATM   29  C   UNL     1      -9.700   4.251  70.161  1.00  0.00    -0.282 C  
ENDBRANCH  27  28
ENDBRANCH  22  27
ENDBRANCH   3  22
BRANCH   4  30
HETATM   30  O   UNL     1      -7.414   7.451  64.422  1.00  0.00    -0.085 OA 
BRANCH  30  31
HETATM   31  C   UNL     1      -6.835   8.316  63.554  1.00  0.00    -0.084 C  
HETATM   32  C   UNL     1      -6.726   9.665  64.232  1.00  0.00    -0.112 C  
HETATM   33  O   UNL     1      -6.278   7.987  62.519  1.00  0.00    -0.079 OA 
ENDBRANCH  30  31
ENDBRANCH   4  30
BRANCH   5  34
HETATM   34  N   UNL     1     -10.321   7.852  72.939  1.00  0.00    -0.325 NA 
HETATM   35  C   UNL     1     -11.668   8.104  72.413  1.00  0.00    -0.399 C  
HETATM   36  C   UNL     1     -12.166   6.932  71.572  1.00  0.00    -0.371 C  
HETATM   37  O   UNL     1     -12.263   5.751  72.377  1.00  0.00    -0.207 OA 
HETATM   38  C   UNL     1     -11.009   5.425  72.988  1.00  0.00    -0.297 C  
HETATM   39  C   UNL     1     -10.361   6.614  73.722  1.00  0.00    -0.349 C  
ENDBRANCH   5  34
TORSDOF 6
ENDMDL
MODEL       49
REMARK 921   NORMALIZED FREE ENERGY PREDICTED BY IDOCK:   -4.01 KCAL/MOL
REMARK 922        TOTAL FREE ENERGY PREDICTED BY IDOCK:   -5.72 KCAL/MOL
REMARK 923 INTER-LIGAND FREE ENERGY PREDICTED BY IDOCK:   -6.43 KCAL/MOL
REMARK 924 INTRA-LIGAND FREE ENERGY PREDICTED BY IDOCK:    0.71 KCAL/MOL
REMARK 927      BINDING AFFINITY PREDICTED BY RF-SCORE:    0.00 PKD
ROOT
HETATM    1  C   UNL     1     -10.743  11.382  66.394  1.00  0.00    -0.325 C  
HETATM    2  C   UNL     1     -11.234  10.146  66.961  1.00  0.00     0.123 C  
HETATM    3  C   UNL     1      -9.992  10.456  67.775  1.00  0.00    -0.175 C  
HETATM    4  C   UNL     1      -9.224  12.361  67.426  1.00  0.00    -0.184 C  
HETATM    5  C   UNL     1      -7.347   6.769  64.797  1.00  0.00    -0.088 C  
HETATM    6  C   UNL     1      -7.274   7.017  63.271  1.00  0.00    -0.074 C  
HETATM    7  C   UNL     1      -8.280   8.111  62.949  1.00  0.00    -0.120 C  
HETATM    8  C   UNL     1      -7.690   9.456  63.341  1.00  0.00    -0.117 C  
HETATM    9  C   UNL     1     -10.235  11.830  68.140  1.00  0.00    -0.210 C  
HETATM   10  C   UNL     1      -8.332  11.373  68.505  1.00  0.00    -0.153 C  
HETATM   11  C   UNL     1     -11.283  12.736  68.816  1.00  0.00    -0.327 C  
HETATM   12  C   UNL     1      -8.647  10.592  62.945  1.00  0.00    -0.205 C  
HETATM   13  C   UNL     1      -7.160   9.521  64.810  1.00  0.00    -0.108 C  
HETATM   14  C   UNL     1      -5.851  10.352  64.765  1.00  0.00    -0.129 C  
HETATM   15  C   UNL     1      -7.458  10.855  67.093  1.00  0.00    -0.109 C  
HETATM   16  C   UNL     1      -6.751   8.064  65.454  1.00  0.00    -0.055 C  
HETATM   17  H   UNL     1      -6.967   5.214  62.659  1.00  0.00     0.000 HD 
HETATM   18  O   UNL     1      -7.596   5.898  62.458  1.00  0.00    -0.060 OA 
HETATM   19  C   UNL     1      -9.868  10.724  63.861  1.00  0.00    -0.389 C  
HETATM   20  C   UNL     1      -8.210  10.190  65.793  1.00  0.00    -0.144 C  
HETATM   21  C   UNL     1      -9.402  11.123  65.258  1.00  0.00    -0.243 C  
ENDROOT
BRANCH   3  22
HETATM   22  N   UNL     1     -10.176   9.709  69.459  1.00  0.00    -0.204 N  
HETATM   23  C   UNL     1      -9.643   7.356  70.155  1.00  0.00    -0.165 C  
HETATM   24  C   UNL     1      -8.461   8.238  70.443  1.00  0.00    -0.129 C  
HETATM   25  C   UNL     1     -10.719   8.223  69.557  1.00  0.00    -0.174 C  
HETATM   26  C   UNL     1      -8.936   9.671  70.368  1.00  0.00    -0.187 C  
BRANCH  22  27
HETATM   27  C   UNL     1     -11.221  10.651  70.246  1.00  0.00    -0.285 C  
BRANCH  27  28
HETATM   28  C   UNL     1     -12.297   9.958  71.017  1.00  0.00    -0.451 C  
HETATM   29  C   UNL     1     -13.046  10.584  71.937  1.00  0.00    -0.567 C  
ENDBRANCH  27  28
ENDBRANCH  22  27
ENDBRANCH   3  22
BRANCH   4  30
HETATM   30  O   UNL     1      -9.139  13.556  68.441  1.00  0.00    -0.193 OA 
BRANCH  30  31
HETATM   31  C   UNL     1      -8.574  14.771  68.242  1.00  0.00    -0.164 C  
HETATM   32  C   UNL     1      -9.068  15.706  69.325  1.00  0.00    -0.270 C  
HETATM   33  O   UNL     1      -7.643  14.984  67.481  1.00  0.00    -0.159 OA 
ENDBRANCH  30  31
ENDBRANCH   4  30
BRANCH   5  34
HETATM   34  N   UNL     1      -6.907   5.429  65.258  1.00  0.00    -0.051 NA 
HETATM   35  C   UNL     1      -5.954   5.301  66.367  1.00  0.00    -0.022 C  
HETATM   36  C   UNL     1      -6.660   5.351  67.718  1.00  0.00    -0.053 C  
HETATM   37  O   UNL     1      -7.572   4.254  67.842  1.00  0.00    -0.068 OA 
HETATM   38  C   UNL     1      -8.534   4.245  66.780  1.00  0.00    -0.104 C  
HETATM   39  C   UNL     1      -7.899   4.357  65.382  1.00  0.00    -0.090 C  
ENDBRANCH   5  34
TORSDOF 6
ENDMDL
MODEL       50
REMARK 921   NORMALIZED FREE ENERGY PREDICTED BY IDOCK:   -4.00 KCAL/MOL
REMARK 922        TOTAL FREE ENERGY PREDICTED BY IDOCK:   -5.71 KCAL/MOL
REMARK 923 INTER-LIGAND FREE ENERGY PREDICTED BY IDOCK:   -5.46 KCAL/MOL
REMARK 924 INTRA-LIGAND FREE ENERGY PREDICTED BY IDOCK:   -0.24 KCAL/MOL
REMARK 927      BINDING AFFINITY PREDICTED BY RF-SCORE:    0.00 PKD
ROOT
HETATM    1  C   UNL     1      -9.456   6.435  66.212  1.00  0.00    -0.133 C  
HETATM    2  C   UNL     1     -10.324   7.176  67.099  1.00  0.00    -0.359 C  
HETATM    3  C   UNL     1      -8.935   7.686  67.434  1.00  0.00    -0.126 C  
HETATM    4  C   UNL     1      -7.472   7.053  66.093  1.00  0.00    -0.080 C  
HETATM    5  C   UNL     1      -9.015   4.472  71.808  1.00  0.00    -0.125 C  
HETATM    6  C   UNL     1      -9.172   2.952  71.562  1.00  0.00    -0.115 C  
HETATM    7  C   UNL     1      -9.602   2.777  70.114  1.00  0.00    -0.117 C  
HETATM    8  C   UNL     1      -8.389   2.942  69.214  1.00  0.00    -0.087 C  
HETATM    9  C   UNL     1      -8.430   8.000  66.121  1.00  0.00    -0.141 C  
HETATM   10  C   UNL     1      -6.925   7.984  67.424  1.00  0.00    -0.075 C  
HETATM   11  C   UNL     1      -8.765   8.819  64.859  1.00  0.00    -0.161 C  
HETATM   12  C   UNL     1      -8.774   2.682  67.749  1.00  0.00    -0.138 C  
HETATM   13  C   UNL     1      -7.581   4.259  69.461  1.00  0.00    -0.054 C  
HETATM   14  C   UNL     1      -6.082   3.881  69.333  1.00  0.00    -0.027 C  
HETATM   15  C   UNL     1      -6.722   6.457  68.233  1.00  0.00    -0.068 C  
HETATM   16  C   UNL     1      -7.762   4.899  70.965  1.00  0.00    -0.082 C  
HETATM   17  H   UNL     1      -9.875   2.413  73.275  1.00  0.00     0.000 HD 
HETATM   18  O   UNL     1     -10.143   2.303  72.370  1.00  0.00    -0.140 OA 
HETATM   19  C   UNL     1      -9.562   3.825  67.101  1.00  0.00    -0.218 C  
HETATM   20  C   UNL     1      -7.960   5.394  68.420  1.00  0.00    -0.088 C  
HETATM   21  C   UNL     1      -8.671   5.061  67.020  1.00  0.00    -0.103 C  
ENDROOT
BRANCH   3  22
HETATM   22  N   UNL     1      -9.070   9.417  68.077  1.00  0.00    -0.127 N  
HETATM   23  C   UNL     1      -7.530  10.577  69.685  1.00  0.00    -0.145 C  
HETATM   24  C   UNL     1      -7.115  10.904  68.279  1.00  0.00    -0.075 C  
HETATM   25  C   UNL     1      -8.732   9.671  69.604  1.00  0.00    -0.197 C  
HETATM   26  C   UNL     1      -8.256  10.512  67.367  1.00  0.00    -0.118 C  
BRANCH  22  27
HETATM   27  C   UNL     1     -10.606   9.851  67.851  1.00  0.00    -0.254 C  
BRANCH  27  28
HETATM   28  C   UNL     1     -10.843  11.047  66.987  1.00  0.00    -0.334 C  
HETATM   29  C   UNL     1     -11.533  12.117  67.407  1.00  0.00    -0.415 C  
ENDBRANCH  27  28
ENDBRANCH  22  27
ENDBRANCH   3  22
BRANCH   4  30
HETATM   30  O   UNL     1      -6.625   7.944  65.116  1.00  0.00    -0.047 OA 
BRANCH  30  31
HETATM   31  C   UNL     1      -5.700   7.534  64.215  1.00  0.00    -0.037 C  
HETATM   32  C   UNL     1      -5.439   6.060  64.441  1.00  0.00    -0.017 C  
HETATM   33  O   UNL     1      -5.347   8.183  63.243  1.00  0.00    -0.049 OA 
ENDBRANCH  30  31
ENDBRANCH   4  30
BRANCH   5  34
HETATM   34  N   UNL     1      -9.155   4.919  73.215  1.00  0.00    -0.116 NA 
HETATM   35  C   UNL     1      -8.089   5.699  73.857  1.00  0.00    -0.107 C  
HETATM   36  C   UNL     1      -8.222   7.187  73.545  1.00  0.00    -0.114 C  
HETATM   37  O   UNL     1      -9.459   7.693  74.061  1.00  0.00    -0.249 OA 
HETATM   38  C   UNL     1     -10.582   6.974  73.538  1.00  0.00    -0.368 C  
HETATM   39  C   UNL     1     -10.444   5.446  73.671  1.00  0.00    -0.257 C  
ENDBRANCH   5  34
TORSDOF 6
ENDMDL
MODEL       51
REMARK 921   NORMALIZED FREE ENERGY PREDICTED BY IDOCK:   -3.94 KCAL/MOL
REMARK 922        TOTAL FREE ENERGY PREDICTED BY IDOCK:   -5.62 KCAL/MOL
REMARK 923 INTER-LIGAND FREE ENERGY PREDICTED BY IDOCK:   -5.02 KCAL/MOL
REMARK 924 INTRA-LIGAND FREE ENERGY PREDICTED BY IDOCK:   -0.59 KCAL/MOL
REMARK 927      BINDING AFFINITY PREDICTED BY RF-SCORE:    0.00 PKD
ROOT
HETATM    1  C   UNL     1      -6.837   7.750  67.344  1.00  0.00    -0.069 C  
HETATM    2  C   UNL     1      -6.562   6.331  67.394  1.00  0.00    -0.052 C  
HETATM    3  C   UNL     1      -8.077   6.412  67.384  1.00  0.00    -0.116 C  
HETATM    4  C   UNL     1      -8.804   8.322  66.980  1.00  0.00    -0.135 C  
HETATM    5  C   UNL     1      -7.973   5.515  72.736  1.00  0.00    -0.102 C  
HETATM    6  C   UNL     1      -7.214   6.543  73.608  1.00  0.00    -0.081 C  
HETATM    7  C   UNL     1      -6.389   7.405  72.665  1.00  0.00    -0.055 C  
HETATM    8  C   UNL     1      -7.299   8.424  72.001  1.00  0.00    -0.122 C  
HETATM    9  C   UNL     1      -8.301   7.296  66.268  1.00  0.00    -0.129 C  
HETATM   10  C   UNL     1      -9.979   7.123  67.323  1.00  0.00    -0.243 C  
HETATM   11  C   UNL     1      -7.971   7.464  64.771  1.00  0.00    -0.127 C  
HETATM   12  C   UNL     1      -6.478   9.368  71.108  1.00  0.00    -0.067 C  
HETATM   13  C   UNL     1      -8.565   7.807  71.321  1.00  0.00    -0.127 C  
HETATM   14  C   UNL     1      -9.734   8.786  71.608  1.00  0.00    -0.366 C  
HETATM   15  C   UNL     1      -9.815   7.629  68.979  1.00  0.00    -0.168 C  
HETATM   16  C   UNL     1      -9.029   6.353  71.934  1.00  0.00    -0.138 C  
HETATM   17  H   UNL     1      -6.836   5.452  75.152  1.00  0.00     0.000 HD 
HETATM   18  O   UNL     1      -6.320   5.990  74.563  1.00  0.00    -0.068 OA 
HETATM   19  C   UNL     1      -6.021   8.736  69.789  1.00  0.00    -0.028 C  
HETATM   20  C   UNL     1      -8.369   7.616  69.759  1.00  0.00    -0.133 C  
HETATM   21  C   UNL     1      -7.248   8.419  68.937  1.00  0.00    -0.078 C  
ENDROOT
BRANCH   3  22
HETATM   22  N   UNL     1      -8.755   4.865  66.625  1.00  0.00    -0.109 N  
HETATM   23  C   UNL     1      -9.494   4.523  64.250  1.00  0.00    -0.055 C  
HETATM   24  C   UNL     1      -8.065   4.080  64.394  1.00  0.00    -0.090 C  
HETATM   25  C   UNL     1      -9.956   5.005  65.601  1.00  0.00    -0.073 C  
HETATM   26  C   UNL     1      -7.778   3.947  65.872  1.00  0.00    -0.089 C  
BRANCH  22  27
HETATM   27  C   UNL     1      -9.281   3.966  67.856  1.00  0.00    -0.165 C  
BRANCH  27  28
HETATM   28  C   UNL     1      -8.383   3.871  69.046  1.00  0.00    -0.088 C  
HETATM   29  C   UNL     1      -7.447   2.919  69.172  1.00  0.00    -0.047 C  
ENDBRANCH  27  28
ENDBRANCH  22  27
ENDBRANCH   3  22
BRANCH   4  30
HETATM   30  O   UNL     1      -9.632   8.782  65.727  1.00  0.00    -0.219 OA 
BRANCH  30  31
HETATM   31  C   UNL     1      -9.912  10.050  65.342  1.00  0.00    -0.294 C  
HETATM   32  C   UNL     1     -10.170  10.876  66.583  1.00  0.00    -0.282 C  
HETATM   33  O   UNL     1      -9.731  10.486  64.215  1.00  0.00    -0.279 OA 
ENDBRANCH  30  31
ENDBRANCH   4  30
BRANCH   5  34
HETATM   34  N   UNL     1      -8.378   4.260  73.417  1.00  0.00    -0.090 NA 
HETATM   35  C   UNL     1      -9.361   4.291  74.507  1.00  0.00    -0.107 C  
HETATM   36  C   UNL     1     -10.789   4.266  73.971  1.00  0.00    -0.232 C  
HETATM   37  O   UNL     1     -11.026   3.052  73.248  1.00  0.00    -0.184 OA 
HETATM   38  C   UNL     1     -10.090   2.885  72.176  1.00  0.00    -0.135 C  
HETATM   39  C   UNL     1      -8.624   3.060  72.614  1.00  0.00    -0.083 C  
ENDBRANCH   5  34
TORSDOF 6
ENDMDL
MODEL       52
REMARK 921   NORMALIZED FREE ENERGY PREDICTED BY IDOCK:   -3.82 KCAL/MOL
REMARK 922        TOTAL FREE ENERGY PREDICTED BY IDOCK:   -5.45 KCAL/MOL
REMARK 923 INTER-LIGAND FREE ENERGY PREDICTED BY IDOCK:   -5.39 KCAL/MOL
REMARK 924 INTRA-LIGAND FREE ENERGY PREDICTED BY IDOCK:   -0.07 KCAL/MOL
REMARK 927      BINDING AFFINITY PREDICTED BY RF-SCORE:    0.00 PKD
ROOT
HETATM    1  C   UNL     1      -7.561   7.093  70.026  1.00  0.00    -0.091 C  
HETATM    2  C   UNL     1      -7.164   7.816  68.837  1.00  0.00    -0.081 C  
HETATM    3  C   UNL     1      -8.642   7.543  68.626  1.00  0.00    -0.129 C  
HETATM    4  C   UNL     1      -9.599   6.798  70.319  1.00  0.00    -0.165 C  
HETATM    5  C   UNL     1      -7.227   3.487  65.309  1.00  0.00    -0.067 C  
HETATM    6  C   UNL     1      -6.375   2.345  65.915  1.00  0.00    -0.024 C  
HETATM    7  C   UNL     1      -5.865   2.837  67.261  1.00  0.00    -0.023 C  
HETATM    8  C   UNL     1      -6.986   2.736  68.282  1.00  0.00    -0.048 C  
HETATM    9  C   UNL     1      -9.191   8.003  69.877  1.00  0.00    -0.152 C  
HETATM   10  C   UNL     1     -10.559   6.932  68.907  1.00  0.00    -0.244 C  
HETATM   11  C   UNL     1      -9.233   9.236  70.801  1.00  0.00    -0.316 C  
HETATM   12  C   UNL     1      -6.476   3.142  69.674  1.00  0.00    -0.033 C  
HETATM   13  C   UNL     1      -8.319   3.424  67.841  1.00  0.00    -0.095 C  
HETATM   14  C   UNL     1      -9.467   2.498  68.323  1.00  0.00    -0.222 C  
HETATM   15  C   UNL     1     -10.058   5.298  68.577  1.00  0.00    -0.232 C  
HETATM   16  C   UNL     1      -8.506   3.571  66.213  1.00  0.00    -0.112 C  
HETATM   17  H   UNL     1      -5.560   1.654  64.310  1.00  0.00     0.000 HD 
HETATM   18  O   UNL     1      -5.241   1.961  65.151  1.00  0.00    -0.004 OA 
HETATM   19  C   UNL     1      -6.286   4.652  69.851  1.00  0.00    -0.027 C  
HETATM   20  C   UNL     1      -8.476   4.875  68.463  1.00  0.00    -0.095 C  
HETATM   21  C   UNL     1      -7.646   5.339  69.757  1.00  0.00    -0.069 C  
ENDROOT
BRANCH   3  22
HETATM   22  N   UNL     1      -9.346   8.864  67.537  1.00  0.00    -0.135 N  
HETATM   23  C   UNL     1     -10.960  10.678  68.179  1.00  0.00    -0.321 C  
HETATM   24  C   UNL     1      -9.557  11.206  68.274  1.00  0.00    -0.185 C  
HETATM   25  C   UNL     1     -10.873   9.244  67.723  1.00  0.00    -0.126 C  
HETATM   26  C   UNL     1      -8.657  10.239  67.538  1.00  0.00    -0.118 C  
BRANCH  22  27
HETATM   27  C   UNL     1      -9.169   8.329  66.026  1.00  0.00    -0.166 C  
BRANCH  27  28
HETATM   28  C   UNL     1      -9.122   9.365  64.951  1.00  0.00    -0.258 C  
HETATM   29  C   UNL     1      -8.496   9.167  63.782  1.00  0.00    -0.187 C  
ENDBRANCH  27  28
ENDBRANCH  22  27
ENDBRANCH   3  22
BRANCH   4  30
HETATM   30  O   UNL     1     -10.730   7.493  71.159  1.00  0.00    -0.225 OA 
BRANCH  30  31
HETATM   31  C   UNL     1     -11.711   6.897  71.879  1.00  0.00    -0.299 C  
HETATM   32  C   UNL     1     -11.062   6.015  72.924  1.00  0.00    -0.290 C  
HETATM   33  O   UNL     1     -12.887   7.221  71.845  1.00  0.00    -0.313 OA 
ENDBRANCH  30  31
ENDBRANCH   4  30
BRANCH   5  34
HETATM   34  N   UNL     1      -7.357   3.483  63.831  1.00  0.00    -0.054 NA 
HETATM   35  C   UNL     1      -8.508   2.837  63.188  1.00  0.00    -0.085 C  
HETATM   36  C   UNL     1      -9.711   3.773  63.127  1.00  0.00    -0.147 C  
HETATM   37  O   UNL     1      -9.401   4.927  62.335  1.00  0.00    -0.105 OA 
HETATM   38  C   UNL     1      -8.257   5.623  62.842  1.00  0.00    -0.098 C  
HETATM   39  C   UNL     1      -7.044   4.705  63.086  1.00  0.00    -0.043 C  
ENDBRANCH   5  34
TORSDOF 6
ENDMDL
MODEL       53
REMARK 921   NORMALIZED FREE ENERGY PREDICTED BY IDOCK:   -3.81 KCAL/MOL
REMARK 922        TOTAL FREE ENERGY PREDICTED BY IDOCK:   -5.45 KCAL/MOL
REMARK 923 INTER-LIGAND FREE ENERGY PREDICTED BY IDOCK:   -5.42 KCAL/MOL
REMARK 924 INTRA-LIGAND FREE ENERGY PREDICTED BY IDOCK:   -0.02 KCAL/MOL
REMARK 927      BINDING AFFINITY PREDICTED BY RF-SCORE:    0.00 PKD
ROOT
HETATM    1  C   UNL     1      -9.632   8.632  67.150  1.00  0.00    -0.227 C  
HETATM    2  C   UNL     1      -8.317   8.829  66.581  1.00  0.00    -0.108 C  
HETATM    3  C   UNL     1      -8.111   9.050  68.068  1.00  0.00    -0.105 C  
HETATM    4  C   UNL     1      -9.759   8.513  69.224  1.00  0.00    -0.173 C  
HETATM    5  C   UNL     1      -8.140  14.388  67.087  1.00  0.00    -0.145 C  
HETATM    6  C   UNL     1      -9.421  14.981  66.453  1.00  0.00    -0.297 C  
HETATM    7  C   UNL     1     -10.254  13.811  65.955  1.00  0.00    -0.315 C  
HETATM    8  C   UNL     1     -10.963  13.169  67.136  1.00  0.00    -0.289 C  
HETATM    9  C   UNL     1      -8.742   7.875  68.614  1.00  0.00    -0.128 C  
HETATM   10  C   UNL     1      -8.434   9.197  70.068  1.00  0.00    -0.164 C  
HETATM   11  C   UNL     1      -8.721   6.335  68.523  1.00  0.00    -0.112 C  
HETATM   12  C   UNL     1     -11.884  12.038  66.654  1.00  0.00    -0.239 C  
HETATM   13  C   UNL     1     -10.017  12.790  68.323  1.00  0.00    -0.230 C  
HETATM   14  C   UNL     1     -10.794  13.124  69.623  1.00  0.00     0.241 C  
HETATM   15  C   UNL     1      -9.227  10.723  69.800  1.00  0.00     0.397 C  
HETATM   16  C   UNL     1      -8.623  13.659  68.390  1.00  0.00    -0.151 C  
HETATM   17  H   UNL     1      -8.687  16.578  65.659  1.00  0.00     0.000 HD 
HETATM   18  O   UNL     1      -9.208  15.846  65.348  1.00  0.00    -0.271 OA 
HETATM   19  C   UNL     1     -11.141  10.760  66.249  1.00  0.00     0.027 C  
HETATM   20  C   UNL     1      -9.612  11.256  68.295  1.00  0.00    -0.193 C  
HETATM   21  C   UNL     1     -10.465  10.166  67.482  1.00  0.00    -0.304 C  
ENDROOT
BRANCH   3  22
HETATM   22  N   UNL     1      -6.362   8.625  68.500  1.00  0.00    -0.053 N  
HETATM   23  C   UNL     1      -5.544   6.618  69.769  1.00  0.00    -0.015 C  
HETATM   24  C   UNL     1      -5.472   6.336  68.294  1.00  0.00    -0.008 C  
HETATM   25  C   UNL     1      -6.078   8.017  69.936  1.00  0.00    -0.026 C  
HETATM   26  C   UNL     1      -5.607   7.657  67.573  1.00  0.00    -0.035 C  
BRANCH  22  27
HETATM   27  C   UNL     1      -5.536  10.005  68.396  1.00  0.00    -0.039 C  
BRANCH  27  28
HETATM   28  C   UNL     1      -5.167  10.663  69.686  1.00  0.00    -0.038 C  
HETATM   29  C   UNL     1      -5.786  11.762  70.141  1.00  0.00    -0.145 C  
ENDBRANCH  27  28
ENDBRANCH  22  27
ENDBRANCH   3  22
BRANCH   4  30
HETATM   30  O   UNL     1      -9.844   7.358  70.284  1.00  0.00    -0.186 OA 
BRANCH  30  31
HETATM   31  C   UNL     1     -10.849   7.112  71.160  1.00  0.00    -0.239 C  
HETATM   32  C   UNL     1     -10.599   7.929  72.409  1.00  0.00    -0.359 C  
HETATM   33  O   UNL     1     -11.887   6.536  70.876  1.00  0.00    -0.361 OA 
ENDBRANCH  30  31
ENDBRANCH   4  30
BRANCH   5  34
HETATM   34  N   UNL     1      -6.961  15.288  67.130  1.00  0.00    -0.246 NA 
HETATM   35  C   UNL     1      -7.139  16.745  67.173  1.00  0.00    -0.187 C  
HETATM   36  C   UNL     1      -7.359  17.236  68.601  1.00  0.00    -0.238 C  
HETATM   37  O   UNL     1      -6.211  16.946  69.408  1.00  0.00    -0.200 OA 
HETATM   38  C   UNL     1      -5.907  15.547  69.407  1.00  0.00    -0.115 C  
HETATM   39  C   UNL     1      -5.830  14.940  67.993  1.00  0.00    -0.146 C  
ENDBRANCH   5  34
TORSDOF 6
ENDMDL
MODEL       54
REMARK 921   NORMALIZED FREE ENERGY PREDICTED BY IDOCK:   -3.77 KCAL/MOL
REMARK 922        TOTAL FREE ENERGY PREDICTED BY IDOCK:   -5.39 KCAL/MOL
REMARK 923 INTER-LIGAND FREE ENERGY PREDICTED BY IDOCK:   -4.98 KCAL/MOL
REMARK 924 INTRA-LIGAND FREE ENERGY PREDICTED BY IDOCK:   -0.41 KCAL/MOL
REMARK 927      BINDING AFFINITY PREDICTED BY RF-SCORE:    0.00 PKD
ROOT
HETATM    1  C   UNL     1     -10.421   9.119  66.965  1.00  0.00    -0.311 C  
HETATM    2  C   UNL     1     -10.893   8.000  67.751  1.00  0.00    -0.081 C  
HETATM    3  C   UNL     1      -9.977   8.754  68.697  1.00  0.00    -0.182 C  
HETATM    4  C   UNL     1      -9.387  10.616  67.974  1.00  0.00    -0.147 C  
HETATM    5  C   UNL     1      -6.166   5.027  67.676  1.00  0.00    -0.039 C  
HETATM    6  C   UNL     1      -5.700   4.879  66.208  1.00  0.00    -0.018 C  
HETATM    7  C   UNL     1      -6.704   5.628  65.345  1.00  0.00    -0.041 C  
HETATM    8  C   UNL     1      -6.420   7.118  65.435  1.00  0.00    -0.047 C  
HETATM    9  C   UNL     1     -10.482  10.097  68.561  1.00  0.00    -0.221 C  
HETATM   10  C   UNL     1      -8.716  10.142  69.478  1.00  0.00    -0.189 C  
HETATM   11  C   UNL     1     -11.782  10.919  68.668  1.00  0.00    -0.334 C  
HETATM   12  C   UNL     1      -7.362   7.896  64.503  1.00  0.00    -0.086 C  
HETATM   13  C   UNL     1      -6.335   7.667  66.897  1.00  0.00    -0.053 C  
HETATM   14  C   UNL     1      -5.180   8.703  66.906  1.00  0.00    -0.036 C  
HETATM   15  C   UNL     1      -7.424   9.461  68.533  1.00  0.00    -0.080 C  
HETATM   16  C   UNL     1      -5.944   6.540  68.029  1.00  0.00    -0.020 C  
HETATM   17  H   UNL     1      -5.012   3.079  66.260  1.00  0.00     0.000 HD 
HETATM   18  O   UNL     1      -5.639   3.546  65.720  1.00  0.00    -0.016 OA 
HETATM   19  C   UNL     1      -8.798   8.014  65.027  1.00  0.00     0.126 C  
HETATM   20  C   UNL     1      -7.693   8.344  67.359  1.00  0.00    -0.098 C  
HETATM   21  C   UNL     1      -8.794   8.848  66.305  1.00  0.00    -0.187 C  
ENDROOT
BRANCH   3  22
HETATM   22  N   UNL     1     -10.530   8.448  70.437  1.00  0.00    -0.210 N  
HETATM   23  C   UNL     1     -12.377   9.607  71.682  1.00  0.00    -0.489 C  
HETATM   24  C   UNL     1     -12.911   8.345  71.065  1.00  0.00     0.020 C  
HETATM   25  C   UNL     1     -10.916   9.702  71.325  1.00  0.00    -0.329 C  
HETATM   26  C   UNL     1     -11.724   7.503  70.656  1.00  0.00    -0.215 C  
BRANCH  22  27
HETATM   27  C   UNL     1      -9.296   7.709  71.167  1.00  0.00    -0.154 C  
BRANCH  27  28
HETATM   28  C   UNL     1      -9.032   8.092  72.586  1.00  0.00    -0.299 C  
HETATM   29  C   UNL     1      -9.438   7.348  73.625  1.00  0.00    -0.321 C  
ENDBRANCH  27  28
ENDBRANCH  22  27
ENDBRANCH   3  22
BRANCH   4  30
HETATM   30  O   UNL     1      -9.739  12.026  68.570  1.00  0.00    -0.207 OA 
BRANCH  30  31
HETATM   31  C   UNL     1      -9.319  13.237  68.131  1.00  0.00    -0.220 C  
HETATM   32  C   UNL     1      -8.245  13.017  67.088  1.00  0.00    -0.132 C  
HETATM   33  O   UNL     1      -9.893  14.291  68.358  1.00  0.00    -0.221 OA 
ENDBRANCH  30  31
ENDBRANCH   4  30
BRANCH   5  34
HETATM   34  N   UNL     1      -5.708   3.969  68.611  1.00  0.00    -0.021 NA 
HETATM   35  C   UNL     1      -5.165   4.324  69.928  1.00  0.00    -0.004 C  
HETATM   36  C   UNL     1      -6.276   4.520  70.954  1.00  0.00    -0.018 C  
HETATM   37  O   UNL     1      -7.005   3.300  71.135  1.00  0.00    -0.031 OA 
HETATM   38  C   UNL     1      -7.551   2.824  69.899  1.00  0.00    -0.043 C  
HETATM   39  C   UNL     1      -6.514   2.755  68.762  1.00  0.00    -0.029 C  
ENDBRANCH   5  34
TORSDOF 6
ENDMDL
MODEL       55
REMARK 921   NORMALIZED FREE ENERGY PREDICTED BY IDOCK:   -3.72 KCAL/MOL
REMARK 922        TOTAL FREE ENERGY PREDICTED BY IDOCK:   -5.32 KCAL/MOL
REMARK 923 INTER-LIGAND FREE ENERGY PREDICTED BY IDOCK:   -5.73 KCAL/MOL
REMARK 924 INTRA-LIGAND FREE ENERGY PREDICTED BY IDOCK:    0.41 KCAL/MOL
REMARK 927      BINDING AFFINITY PREDICTED BY RF-SCORE:    0.00 PKD
ROOT
HETATM    1  C   UNL     1     -10.975  12.044  65.605  1.00  0.00    -0.343 C  
HETATM    2  C   UNL     1     -11.631  11.141  66.526  1.00  0.00     0.305 C  
HETATM    3  C   UNL     1     -10.588  11.842  67.377  1.00  0.00    -0.225 C  
HETATM    4  C   UNL     1      -9.684  13.457  66.421  1.00  0.00    -0.277 C  
HETATM    5  C   UNL     1      -7.503   7.400  66.925  1.00  0.00    -0.097 C  
HETATM    6  C   UNL     1      -7.083   6.976  65.497  1.00  0.00    -0.068 C  
HETATM    7  C   UNL     1      -7.945   7.767  64.526  1.00  0.00    -0.135 C  
HETATM    8  C   UNL     1      -7.403   9.182  64.421  1.00  0.00    -0.100 C  
HETATM    9  C   UNL     1     -10.849  13.223  67.055  1.00  0.00    -0.278 C  
HETATM   10  C   UNL     1      -9.096  13.079  67.986  1.00  0.00    -0.210 C  
HETATM   11  C   UNL     1     -11.983  14.268  67.030  1.00  0.00    -0.463 C  
HETATM   12  C   UNL     1      -8.200   9.982  63.378  1.00  0.00    -0.164 C  
HETATM   13  C   UNL     1      -7.210   9.899  65.797  1.00  0.00    -0.110 C  
HETATM   14  C   UNL     1      -5.890  10.707  65.686  1.00  0.00    -0.133 C  
HETATM   15  C   UNL     1      -7.952  12.060  67.161  1.00  0.00    -0.175 C  
HETATM   16  C   UNL     1      -7.015   8.884  67.076  1.00  0.00    -0.074 C  
HETATM   17  H   UNL     1      -6.723   5.106  65.801  1.00  0.00     0.000 HD 
HETATM   18  O   UNL     1      -7.262   5.600  65.194  1.00  0.00    -0.066 OA 
HETATM   19  C   UNL     1      -9.587  10.420  63.858  1.00  0.00    -0.370 C  
HETATM   20  C   UNL     1      -8.424  10.861  66.143  1.00  0.00    -0.171 C  
HETATM   21  C   UNL     1      -9.427  11.404  65.013  1.00  0.00    -0.209 C  
ENDROOT
BRANCH   3  22
HETATM   22  N   UNL     1     -11.173  11.875  69.134  1.00  0.00    -0.248 N  
HETATM   23  C   UNL     1     -12.760  10.281  70.248  1.00  0.00    -0.167 C  
HETATM   24  C   UNL     1     -11.348   9.834  70.503  1.00  0.00    -0.382 C  
HETATM   25  C   UNL     1     -12.694  11.536  69.417  1.00  0.00     0.509 C  
HETATM   26  C   UNL     1     -10.437  10.988  70.153  1.00  0.00     0.525 C  
BRANCH  22  27
HETATM   27  C   UNL     1     -10.916  13.379  69.654  1.00  0.00     0.134 C  
BRANCH  27  28
HETATM   28  C   UNL     1     -11.931  13.945  70.593  1.00  0.00    -0.364 C  
HETATM   29  C   UNL     1     -12.238  15.250  70.627  1.00  0.00    -0.412 C  
ENDBRANCH  27  28
ENDBRANCH  22  27
ENDBRANCH   3  22
BRANCH   4  30
HETATM   30  O   UNL     1      -9.777  14.974  66.818  1.00  0.00    -0.226 OA 
BRANCH  30  31
HETATM   31  C   UNL     1      -9.394  16.045  66.083  1.00  0.00    -0.342 C  
HETATM   32  C   UNL     1      -7.923  16.296  66.342  1.00  0.00    -0.299 C  
HETATM   33  O   UNL     1     -10.058  16.543  65.188  1.00  0.00    -0.536 OA 
ENDBRANCH  30  31
ENDBRANCH   4  30
BRANCH   5  34
HETATM   34  N   UNL     1      -7.233   6.413  68.000  1.00  0.00    -0.085 NA 
HETATM   35  C   UNL     1      -6.473   6.804  69.194  1.00  0.00    -0.036 C  
HETATM   36  C   UNL     1      -7.374   7.451  70.241  1.00  0.00    -0.078 C  
HETATM   37  O   UNL     1      -8.368   6.518  70.684  1.00  0.00    -0.129 OA 
HETATM   38  C   UNL     1      -9.152   6.026  69.591  1.00  0.00    -0.135 C  
HETATM   39  C   UNL     1      -8.302   5.503  68.417  1.00  0.00    -0.098 C  
ENDBRANCH   5  34
TORSDOF 6
ENDMDL
MODEL       56
REMARK 921   NORMALIZED FREE ENERGY PREDICTED BY IDOCK:   -3.61 KCAL/MOL
REMARK 922        TOTAL FREE ENERGY PREDICTED BY IDOCK:   -5.17 KCAL/MOL
REMARK 923 INTER-LIGAND FREE ENERGY PREDICTED BY IDOCK:   -5.75 KCAL/MOL
REMARK 924 INTRA-LIGAND FREE ENERGY PREDICTED BY IDOCK:    0.58 KCAL/MOL
REMARK 927      BINDING AFFINITY PREDICTED BY RF-SCORE:    0.00 PKD
ROOT
HETATM    1  C   UNL     1     -10.243  16.042  69.788  1.00  0.00    -0.240 C  
HETATM    2  C   UNL     1      -9.049  15.547  70.438  1.00  0.00     1.011 C  
HETATM    3  C   UNL     1      -8.739  15.424  68.958  1.00  0.00    -0.231 C  
HETATM    4  C   UNL     1     -10.137  16.368  67.736  1.00  0.00    -0.262 C  
HETATM    5  C   UNL     1      -9.839  10.124  69.358  1.00  0.00    -0.229 C  
HETATM    6  C   UNL     1     -11.264   9.733  69.818  1.00  0.00    -0.202 C  
HETATM    7  C   UNL     1     -11.915  10.992  70.368  1.00  0.00    -0.459 C  
HETATM    8  C   UNL     1     -12.373  11.861  69.209  1.00  0.00    -0.016 C  
HETATM    9  C   UNL     1      -9.088  16.743  68.491  1.00  0.00    -0.241 C  
HETATM   10  C   UNL     1      -8.882  15.521  66.934  1.00  0.00    -0.284 C  
HETATM   11  C   UNL     1      -8.795  18.235  68.747  1.00  0.00    -0.235 C  
HETATM   12  C   UNL     1     -13.116  13.100  69.733  1.00  0.00     1.123 C  
HETATM   13  C   UNL     1     -11.260  12.157  68.151  1.00  0.00    -0.320 C  
HETATM   14  C   UNL     1     -11.951  12.095  66.763  1.00  0.00    -0.170 C  
HETATM   15  C   UNL     1      -9.963  14.158  66.972  1.00  0.00    -0.260 C  
HETATM   16  C   UNL     1     -10.048  11.046  68.105  1.00  0.00    -0.195 C  
HETATM   17  H   UNL     1     -10.917   7.961  70.494  1.00  0.00     0.000 HD 
HETATM   18  O   UNL     1     -11.324   8.747  70.838  1.00  0.00    -0.262 OA 
HETATM   19  C   UNL     1     -12.196  14.170  70.331  1.00  0.00    -0.427 C  
HETATM   20  C   UNL     1     -10.587  13.576  68.375  1.00  0.00    -0.258 C  
HETATM   21  C   UNL     1     -11.304  14.732  69.227  1.00  0.00    -0.317 C  
ENDROOT
BRANCH   3  22
HETATM   22  N   UNL     1      -6.907  15.544  68.717  1.00  0.00    -0.111 N  
HETATM   23  C   UNL     1      -5.134  15.635  70.492  1.00  0.00    -0.144 C  
HETATM   24  C   UNL     1      -5.314  14.212  70.044  1.00  0.00    -0.098 C  
HETATM   25  C   UNL     1      -6.090  16.485  69.695  1.00  0.00    -0.213 C  
HETATM   26  C   UNL     1      -6.092  14.240  68.748  1.00  0.00    -0.085 C  
BRANCH  22  27
HETATM   27  C   UNL     1      -6.697  16.112  67.223  1.00  0.00    -0.198 C  
BRANCH  27  28
HETATM   28  C   UNL     1      -5.456  16.907  66.979  1.00  0.00    -0.190 C  
HETATM   29  C   UNL     1      -5.460  18.067  66.308  1.00  0.00    -0.213 C  
ENDBRANCH  27  28
ENDBRANCH  22  27
ENDBRANCH   3  22
BRANCH   4  30
HETATM   30  O   UNL     1      -9.904  17.609  66.801  1.00  0.00    -0.277 OA 
BRANCH  30  31
HETATM   31  C   UNL     1     -10.598  17.947  65.688  1.00  0.00    -0.109 C  
HETATM   32  C   UNL     1     -10.833  19.442  65.713  1.00  0.00    -0.375 C  
HETATM   33  O   UNL     1     -10.768  17.211  64.729  1.00  0.00    -0.727 OA 
ENDBRANCH  30  31
ENDBRANCH   4  30
BRANCH   5  34
HETATM   34  N   UNL     1      -8.846   9.023  69.315  1.00  0.00    -0.137 NA 
HETATM   35  C   UNL     1      -7.840   8.969  68.247  1.00  0.00    -0.100 C  
HETATM   36  C   UNL     1      -6.625   9.829  68.582  1.00  0.00    -0.051 C  
HETATM   37  O   UNL     1      -5.983   9.340  69.765  1.00  0.00    -0.035 OA 
HETATM   38  C   UNL     1      -6.885   9.302  70.877  1.00  0.00    -0.103 C  
HETATM   39  C   UNL     1      -8.212   8.586  70.562  1.00  0.00    -0.115 C  
ENDBRANCH   5  34
TORSDOF 6
ENDMDL
MODEL       57
REMARK 921   NORMALIZED FREE ENERGY PREDICTED BY IDOCK:   -3.57 KCAL/MOL
REMARK 922        TOTAL FREE ENERGY PREDICTED BY IDOCK:   -5.13 KCAL/MOL
REMARK 923 INTER-LIGAND FREE ENERGY PREDICTED BY IDOCK:   -5.73 KCAL/MOL
REMARK 924 INTRA-LIGAND FREE ENERGY PREDICTED BY IDOCK:    0.60 KCAL/MOL
REMARK 927      BINDING AFFINITY PREDICTED BY RF-SCORE:    0.00 PKD
ROOT
HETATM    1  C   UNL     1     -10.684  10.986  66.658  1.00  0.00    -0.305 C  
HETATM    2  C   UNL     1     -11.027   9.709  67.243  1.00  0.00    -0.107 C  
HETATM    3  C   UNL     1      -9.827  10.173  68.049  1.00  0.00    -0.148 C  
HETATM    4  C   UNL     1      -9.287  12.149  67.671  1.00  0.00    -0.187 C  
HETATM    5  C   UNL     1      -6.777   6.778  65.112  1.00  0.00    -0.050 C  
HETATM    6  C   UNL     1      -6.736   7.011  63.583  1.00  0.00    -0.044 C  
HETATM    7  C   UNL     1      -7.863   7.976  63.249  1.00  0.00    -0.147 C  
HETATM    8  C   UNL     1      -7.433   9.386  63.620  1.00  0.00    -0.111 C  
HETATM    9  C   UNL     1     -10.228  11.514  68.396  1.00  0.00    -0.211 C  
HETATM   10  C   UNL     1      -8.284  11.288  68.760  1.00  0.00    -0.122 C  
HETATM   11  C   UNL     1     -11.373  12.302  69.063  1.00  0.00    -0.333 C  
HETATM   12  C   UNL     1      -8.517  10.397  63.213  1.00  0.00    -0.177 C  
HETATM   13  C   UNL     1      -6.912   9.533  65.087  1.00  0.00    -0.100 C  
HETATM   14  C   UNL     1      -5.708  10.510  65.026  1.00  0.00    -0.131 C  
HETATM   15  C   UNL     1      -7.358  10.855  67.352  1.00  0.00    -0.099 C  
HETATM   16  C   UNL     1      -6.335   8.142  65.750  1.00  0.00    -0.048 C  
HETATM   17  H   UNL     1      -6.223   5.248  62.994  1.00  0.00     0.000 HD 
HETATM   18  O   UNL     1      -6.927   5.851  62.786  1.00  0.00    -0.038 OA 
HETATM   19  C   UNL     1      -9.743  10.399  64.131  1.00  0.00    -0.387 C  
HETATM   20  C   UNL     1      -8.031  10.088  66.065  1.00  0.00    -0.118 C  
HETATM   21  C   UNL     1      -9.324  10.869  65.521  1.00  0.00    -0.237 C  
ENDROOT
BRANCH   3  22
HETATM   22  N   UNL     1      -9.920   9.433  69.743  1.00  0.00    -0.187 N  
HETATM   23  C   UNL     1     -11.975   9.048  71.135  1.00  0.00    -0.356 C  
HETATM   24  C   UNL     1     -11.650   7.794  70.373  1.00  0.00    -0.112 C  
HETATM   25  C   UNL     1     -10.931  10.076  70.781  1.00  0.00    -0.305 C  
HETATM   26  C   UNL     1     -10.236   7.932  69.855  1.00  0.00    -0.210 C  
BRANCH  22  27
HETATM   27  C   UNL     1      -8.440   9.578  70.367  1.00  0.00    -0.201 C  
BRANCH  27  28
HETATM   28  C   UNL     1      -8.006   8.506  71.313  1.00  0.00    -0.158 C  
HETATM   29  C   UNL     1      -6.718   8.283  71.612  1.00  0.00    -0.067 C  
ENDBRANCH  27  28
ENDBRANCH  22  27
ENDBRANCH   3  22
BRANCH   4  30
HETATM   30  O   UNL     1      -9.340  13.360  68.669  1.00  0.00    -0.133 OA 
BRANCH  30  31
HETATM   31  C   UNL     1      -8.829  14.602  68.491  1.00  0.00    -0.182 C  
HETATM   32  C   UNL     1      -8.061  14.615  67.187  1.00  0.00    -0.213 C  
HETATM   33  O   UNL     1      -9.153  15.583  69.141  1.00  0.00    -0.212 OA 
ENDBRANCH  30  31
ENDBRANCH   4  30
BRANCH   5  34
HETATM   34  N   UNL     1      -6.183   5.505  65.590  1.00  0.00    -0.033 NA 
HETATM   35  C   UNL     1      -5.418   5.465  66.842  1.00  0.00    -0.012 C  
HETATM   36  C   UNL     1      -6.334   5.299  68.051  1.00  0.00    -0.039 C  
HETATM   37  O   UNL     1      -7.040   4.055  67.970  1.00  0.00    -0.057 OA 
HETATM   38  C   UNL     1      -7.796   3.955  66.758  1.00  0.00    -0.089 C  
HETATM   39  C   UNL     1      -6.970   4.273  65.497  1.00  0.00    -0.059 C  
ENDBRANCH   5  34
TORSDOF 6
ENDMDL
MODEL       58
REMARK 921   NORMALIZED FREE ENERGY PREDICTED BY IDOCK:   -3.53 KCAL/MOL
REMARK 922        TOTAL FREE ENERGY PREDICTED BY IDOCK:   -5.07 KCAL/MOL
REMARK 923 INTER-LIGAND FREE ENERGY PREDICTED BY IDOCK:   -5.25 KCAL/MOL
REMARK 924 INTRA-LIGAND FREE ENERGY PREDICTED BY IDOCK:    0.18 KCAL/MOL
REMARK 927      BINDING AFFINITY PREDICTED BY RF-SCORE:    0.00 PKD
ROOT
HETATM    1  C   UNL     1      -7.261   9.278  70.876  1.00  0.00    -0.113 C  
HETATM    2  C   UNL     1      -8.614   9.698  71.168  1.00  0.00     0.514 C  
HETATM    3  C   UNL     1      -8.746   8.894  69.888  1.00  0.00    -0.139 C  
HETATM    4  C   UNL     1      -7.012   7.863  69.371  1.00  0.00    -0.059 C  
HETATM    5  C   UNL     1      -9.034  13.594  67.189  1.00  0.00    -0.231 C  
HETATM    6  C   UNL     1      -7.821  14.549  67.305  1.00  0.00    -0.173 C  
HETATM    7  C   UNL     1      -6.961  14.039  68.450  1.00  0.00    -0.100 C  
HETATM    8  C   UNL     1      -6.157  12.842  67.971  1.00  0.00    -0.107 C  
HETATM    9  C   UNL     1      -8.029   7.694  70.237  1.00  0.00    -0.101 C  
HETATM   10  C   UNL     1      -8.318   7.743  68.269  1.00  0.00    -0.125 C  
HETATM   11  C   UNL     1      -7.979   6.578  71.300  1.00  0.00    -0.108 C  
HETATM   12  C   UNL     1      -5.210  12.359  69.081  1.00  0.00    -0.067 C  
HETATM   13  C   UNL     1      -7.014  11.720  67.300  1.00  0.00    -0.138 C  
HETATM   14  C   UNL     1      -6.182  11.195  66.100  1.00  0.00    -0.071 C  
HETATM   15  C   UNL     1      -7.617   9.136  67.497  1.00  0.00    -0.088 C  
HETATM   16  C   UNL     1      -8.443  12.236  66.671  1.00  0.00    -0.056 C  
HETATM   17  H   UNL     1      -8.676  16.222  66.872  1.00  0.00     0.000 HD 
HETATM   18  O   UNL     1      -8.138  15.904  67.587  1.00  0.00    -0.135 OA 
HETATM   19  C   UNL     1      -5.911  11.590  70.206  1.00  0.00    -0.160 C  
HETATM   20  C   UNL     1      -7.344  10.539  68.306  1.00  0.00    -0.088 C  
HETATM   21  C   UNL     1      -6.486  10.295  69.641  1.00  0.00    -0.069 C  
ENDROOT
BRANCH   3  22
HETATM   22  N   UNL     1     -10.445   8.163  69.812  1.00  0.00    -0.224 N  
HETATM   23  C   UNL     1     -11.171   5.893  70.604  1.00  0.00    -0.284 C  
HETATM   24  C   UNL     1     -11.422   6.901  71.690  1.00  0.00    -0.312 C  
HETATM   25  C   UNL     1     -10.578   6.630  69.431  1.00  0.00    -0.240 C  
HETATM   26  C   UNL     1     -11.332   8.274  71.064  1.00  0.00    -0.269 C  
BRANCH  22  27
HETATM   27  C   UNL     1     -11.236   9.003  68.686  1.00  0.00     0.349 C  
BRANCH  27  28
HETATM   28  C   UNL     1     -11.652  10.390  69.056  1.00  0.00    -0.220 C  
HETATM   29  C   UNL     1     -10.770  11.370  69.297  1.00  0.00    -0.195 C  
ENDBRANCH  27  28
ENDBRANCH  22  27
ENDBRANCH   3  22
BRANCH   4  30
HETATM   30  O   UNL     1      -6.810   6.307  69.308  1.00  0.00    -0.057 OA 
BRANCH  30  31
HETATM   31  C   UNL     1      -6.269   5.583  68.299  1.00  0.00    -0.030 C  
HETATM   32  C   UNL     1      -7.161   4.387  68.043  1.00  0.00    -0.060 C  
HETATM   33  O   UNL     1      -5.370   5.975  67.572  1.00  0.00    -0.004 OA 
ENDBRANCH  30  31
ENDBRANCH   4  30
BRANCH   5  34
HETATM   34  N   UNL     1     -10.251  14.166  66.562  1.00  0.00    -0.272 NA 
HETATM   35  C   UNL     1     -10.266  14.492  65.130  1.00  0.00    -0.389 C  
HETATM   36  C   UNL     1     -10.605  13.269  64.283  1.00  0.00    -0.384 C  
HETATM   37  O   UNL     1     -11.918  12.793  64.602  1.00  0.00    -0.353 OA 
HETATM   38  C   UNL     1     -12.042  12.482  65.995  1.00  0.00    -0.321 C  
HETATM   39  C   UNL     1     -11.562  13.617  66.919  1.00  0.00    -0.367 C  
ENDBRANCH   5  34
TORSDOF 6
ENDMDL
MODEL       59
REMARK 921   NORMALIZED FREE ENERGY PREDICTED BY IDOCK:   -3.47 KCAL/MOL
REMARK 922        TOTAL FREE ENERGY PREDICTED BY IDOCK:   -4.99 KCAL/MOL
REMARK 923 INTER-LIGAND FREE ENERGY PREDICTED BY IDOCK:   -5.30 KCAL/MOL
REMARK 924 INTRA-LIGAND FREE ENERGY PREDICTED BY IDOCK:    0.31 KCAL/MOL
REMARK 927      BINDING AFFINITY PREDICTED BY RF-SCORE:    0.00 PKD
ROOT
HETATM    1  C   UNL     1      -6.762   4.705  69.547  1.00  0.00    -0.044 C  
HETATM    2  C   UNL     1      -6.076   5.908  69.966  1.00  0.00    -0.026 C  
HETATM    3  C   UNL     1      -7.452   6.029  70.596  1.00  0.00    -0.087 C  
HETATM    4  C   UNL     1      -8.586   4.288  70.457  1.00  0.00    -0.077 C  
HETATM    5  C   UNL     1      -8.767   9.473  66.612  1.00  0.00    -0.134 C  
HETATM    6  C   UNL     1      -8.697   8.934  65.163  1.00  0.00    -0.178 C  
HETATM    7  C   UNL     1      -7.938   7.617  65.214  1.00  0.00    -0.129 C  
HETATM    8  C   UNL     1      -8.867   6.529  65.726  1.00  0.00    -0.097 C  
HETATM    9  C   UNL     1      -7.581   4.742  71.230  1.00  0.00    -0.081 C  
HETATM   10  C   UNL     1      -9.358   5.636  71.178  1.00  0.00    -0.180 C  
HETATM   11  C   UNL     1      -6.866   3.803  72.223  1.00  0.00    -0.037 C  
HETATM   12  C   UNL     1      -8.155   5.168  65.705  1.00  0.00    -0.115 C  
HETATM   13  C   UNL     1      -9.583   6.879  67.072  1.00  0.00    -0.197 C  
HETATM   14  C   UNL     1     -11.032   6.336  66.948  1.00  0.00    -0.404 C  
HETATM   15  C   UNL     1      -9.899   6.015  69.568  1.00  0.00    -0.202 C  
HETATM   16  C   UNL     1      -9.725   8.489  67.372  1.00  0.00    -0.222 C  
HETATM   17  H   UNL     1      -8.498  10.594  64.203  1.00  0.00     0.000 HD 
HETATM   18  O   UNL     1      -8.024   9.771  64.234  1.00  0.00    -0.128 OA 
HETATM   19  C   UNL     1      -7.126   4.986  66.826  1.00  0.00    -0.069 C  
HETATM   20  C   UNL     1      -8.852   6.231  68.322  1.00  0.00    -0.114 C  
HETATM   21  C   UNL     1      -7.849   4.987  68.170  1.00  0.00    -0.087 C  
ENDROOT
BRANCH   3  22
HETATM   22  N   UNL     1      -7.319   7.058  72.130  1.00  0.00    -0.081 N  
HETATM   23  C   UNL     1      -7.362   6.265  74.512  1.00  0.00    -0.096 C  
HETATM   24  C   UNL     1      -5.936   6.383  74.054  1.00  0.00    -0.063 C  
HETATM   25  C   UNL     1      -8.242   6.678  73.361  1.00  0.00    -0.117 C  
HETATM   26  C   UNL     1      -5.934   7.200  72.783  1.00  0.00    -0.041 C  
BRANCH  22  27
HETATM   27  C   UNL     1      -7.709   8.558  71.688  1.00  0.00    -0.117 C  
BRANCH  27  28
HETATM   28  C   UNL     1      -6.657   9.338  70.969  1.00  0.00    -0.091 C  
HETATM   29  C   UNL     1      -6.948  10.318  70.101  1.00  0.00    -0.159 C  
ENDBRANCH  27  28
ENDBRANCH  22  27
ENDBRANCH   3  22
BRANCH   4  30
HETATM   30  O   UNL     1      -9.075   3.371  71.635  1.00  0.00    -0.098 OA 
BRANCH  30  31
HETATM   31  C   UNL     1      -9.748   2.199  71.546  1.00  0.00    -0.150 C  
HETATM   32  C   UNL     1     -10.605   2.050  72.785  1.00  0.00    -0.231 C  
HETATM   33  O   UNL     1      -9.833   1.526  70.530  1.00  0.00    -0.065 OA 
ENDBRANCH  30  31
ENDBRANCH   4  30
BRANCH   5  34
HETATM   34  N   UNL     1      -8.942  10.940  66.750  1.00  0.00    -0.148 NA 
HETATM   35  C   UNL     1      -9.427  11.741  65.620  1.00  0.00    -0.192 C  
HETATM   36  C   UNL     1     -10.950  11.733  65.544  1.00  0.00    -0.290 C  
HETATM   37  O   UNL     1     -11.509  12.322  66.724  1.00  0.00    -0.323 OA 
HETATM   38  C   UNL     1     -11.068  11.649  67.909  1.00  0.00    -0.247 C  
HETATM   39  C   UNL     1      -9.539  11.473  67.977  1.00  0.00    -0.180 C  
ENDBRANCH   5  34
TORSDOF 6
ENDMDL
MODEL       60
REMARK 921   NORMALIZED FREE ENERGY PREDICTED BY IDOCK:   -3.46 KCAL/MOL
REMARK 922        TOTAL FREE ENERGY PREDICTED BY IDOCK:   -4.97 KCAL/MOL
REMARK 923 INTER-LIGAND FREE ENERGY PREDICTED BY IDOCK:   -4.98 KCAL/MOL
REMARK 924 INTRA-LIGAND FREE ENERGY PREDICTED BY IDOCK:    0.00 KCAL/MOL
REMARK 927      BINDING AFFINITY PREDICTED BY RF-SCORE:    0.00 PKD
ROOT
HETATM    1  C   UNL     1     -10.330   8.774  67.107  1.00  0.00    -0.364 C  
HETATM    2  C   UNL     1     -10.848   7.672  67.886  1.00  0.00    -0.105 C  
HETATM    3  C   UNL     1      -9.823   8.318  68.800  1.00  0.00    -0.173 C  
HETATM    4  C   UNL     1      -9.122  10.149  68.097  1.00  0.00    -0.128 C  
HETATM    5  C   UNL     1      -6.391   4.333  67.458  1.00  0.00    -0.037 C  
HETATM    6  C   UNL     1      -6.020   4.196  65.962  1.00  0.00    -0.023 C  
HETATM    7  C   UNL     1      -7.005   5.051  65.179  1.00  0.00    -0.061 C  
HETATM    8  C   UNL     1      -6.596   6.510  65.295  1.00  0.00    -0.042 C  
HETATM    9  C   UNL     1     -10.223   9.701  68.731  1.00  0.00    -0.213 C  
HETATM   10  C   UNL     1      -8.412   9.574  69.546  1.00  0.00    -0.156 C  
HETATM   11  C   UNL     1     -11.443  10.621  68.934  1.00  0.00    -0.334 C  
HETATM   12  C   UNL     1      -7.520   7.391  64.441  1.00  0.00    -0.100 C  
HETATM   13  C   UNL     1      -6.386   7.002  66.765  1.00  0.00    -0.049 C  
HETATM   14  C   UNL     1      -5.151   7.941  66.737  1.00  0.00    -0.027 C  
HETATM   15  C   UNL     1      -7.233   8.823  68.510  1.00  0.00    -0.074 C  
HETATM   16  C   UNL     1      -6.028   5.811  67.840  1.00  0.00    -0.017 C  
HETATM   17  H   UNL     1      -5.480   2.346  65.923  1.00  0.00     0.000 HD 
HETATM   18  O   UNL     1      -6.095   2.880  65.434  1.00  0.00    -0.019 OA 
HETATM   19  C   UNL     1      -8.910   7.607  65.048  1.00  0.00     0.242 C  
HETATM   20  C   UNL     1      -7.657   7.770  67.323  1.00  0.00    -0.104 C  
HETATM   21  C   UNL     1      -8.769   8.396  66.348  1.00  0.00    -0.159 C  
ENDROOT
BRANCH   3  22
HETATM   22  N   UNL     1     -10.303   8.000  70.559  1.00  0.00    -0.200 N  
HETATM   23  C   UNL     1      -8.965   6.812  72.320  1.00  0.00    -0.136 C  
HETATM   24  C   UNL     1      -8.725   8.291  72.430  1.00  0.00    -0.279 C  
HETATM   25  C   UNL     1      -9.935   6.593  71.188  1.00  0.00    -0.182 C  
HETATM   26  C   UNL     1      -9.803   8.985  71.630  1.00  0.00    -0.296 C  
BRANCH  22  27
HETATM   27  C   UNL     1     -11.909   8.138  70.608  1.00  0.00    -0.088 C  
BRANCH  27  28
HETATM   28  C   UNL     1     -12.511   8.482  71.931  1.00  0.00    -0.402 C  
HETATM   29  C   UNL     1     -13.484   9.394  72.068  1.00  0.00    -0.522 C  
ENDBRANCH  27  28
ENDBRANCH  22  27
ENDBRANCH   3  22
BRANCH   4  30
HETATM   30  O   UNL     1      -9.325  11.563  68.752  1.00  0.00    -0.169 OA 
BRANCH  30  31
HETATM   31  C   UNL     1      -9.060  12.773  68.204  1.00  0.00    -0.203 C  
HETATM   32  C   UNL     1      -7.701  12.707  67.542  1.00  0.00    -0.161 C  
HETATM   33  O   UNL     1      -9.886  13.661  68.058  1.00  0.00    -0.228 OA 
ENDBRANCH  30  31
ENDBRANCH   4  30
BRANCH   5  34
HETATM   34  N   UNL     1      -5.972   3.212  68.335  1.00  0.00    -0.023 NA 
HETATM   35  C   UNL     1      -5.167   3.468  69.536  1.00  0.00    -0.011 C  
HETATM   36  C   UNL     1      -6.045   3.850  70.723  1.00  0.00    -0.018 C  
HETATM   37  O   UNL     1      -6.930   2.773  71.053  1.00  0.00    -0.032 OA 
HETATM   38  C   UNL     1      -7.744   2.398  69.936  1.00  0.00    -0.043 C  
HETATM   39  C   UNL     1      -6.936   2.153  68.647  1.00  0.00    -0.040 C  
ENDBRANCH   5  34
TORSDOF 6
ENDMDL
MODEL       61
REMARK 921   NORMALIZED FREE ENERGY PREDICTED BY IDOCK:   -3.45 KCAL/MOL
REMARK 922        TOTAL FREE ENERGY PREDICTED BY IDOCK:   -4.96 KCAL/MOL
REMARK 923 INTER-LIGAND FREE ENERGY PREDICTED BY IDOCK:   -4.55 KCAL/MOL
REMARK 924 INTRA-LIGAND FREE ENERGY PREDICTED BY IDOCK:   -0.41 KCAL/MOL
REMARK 927      BINDING AFFINITY PREDICTED BY RF-SCORE:    0.00 PKD
ROOT
HETATM    1  C   UNL     1      -6.220   9.662  69.031  1.00  0.00    -0.041 C  
HETATM    2  C   UNL     1      -5.888   8.438  68.336  1.00  0.00    -0.041 C  
HETATM    3  C   UNL     1      -7.388   8.571  68.151  1.00  0.00    -0.092 C  
HETATM    4  C   UNL     1      -8.140  10.416  68.757  1.00  0.00    -0.125 C  
HETATM    5  C   UNL     1      -8.010   4.885  72.086  1.00  0.00    -0.110 C  
HETATM    6  C   UNL     1      -7.433   5.237  73.479  1.00  0.00    -0.095 C  
HETATM    7  C   UNL     1      -6.523   6.440  73.293  1.00  0.00    -0.065 C  
HETATM    8  C   UNL     1      -7.376   7.692  73.170  1.00  0.00    -0.111 C  
HETATM    9  C   UNL     1      -7.491   9.930  67.682  1.00  0.00    -0.090 C  
HETATM   10  C   UNL     1      -9.294   9.273  68.212  1.00  0.00    -0.141 C  
HETATM   11  C   UNL     1      -6.959  10.877  66.588  1.00  0.00    -0.135 C  
HETATM   12  C   UNL     1      -6.481   8.938  73.071  1.00  0.00     0.078 C  
HETATM   13  C   UNL     1      -8.501   7.599  72.088  1.00  0.00    -0.141 C  
HETATM   14  C   UNL     1      -9.744   8.306  72.690  1.00  0.00    -0.357 C  
HETATM   15  C   UNL     1      -9.393   8.782  69.878  1.00  0.00    -0.165 C  
HETATM   16  C   UNL     1      -8.979   6.066  71.730  1.00  0.00    -0.138 C  
HETATM   17  H   UNL     1      -7.229   3.464  74.209  1.00  0.00     0.000 HD 
HETATM   18  O   UNL     1      -6.660   4.216  74.093  1.00  0.00    -0.048 OA 
HETATM   19  C   UNL     1      -5.811   9.114  71.704  1.00  0.00    -0.073 C  
HETATM   20  C   UNL     1      -8.075   8.287  70.724  1.00  0.00    -0.109 C  
HETATM   21  C   UNL     1      -6.886   9.364  70.650  1.00  0.00    -0.104 C  
ENDROOT
BRANCH   3  22
HETATM   22  N   UNL     1      -7.877   7.721  66.581  1.00  0.00    -0.100 N  
HETATM   23  C   UNL     1      -8.194   8.756  64.315  1.00  0.00    -0.164 C  
HETATM   24  C   UNL     1      -6.796   8.216  64.422  1.00  0.00    -0.068 C  
HETATM   25  C   UNL     1      -8.892   8.464  65.618  1.00  0.00    -0.156 C  
HETATM   26  C   UNL     1      -6.757   7.292  65.617  1.00  0.00    -0.052 C  
BRANCH  22  27
HETATM   27  C   UNL     1      -8.572   6.336  67.028  1.00  0.00    -0.104 C  
BRANCH  27  28
HETATM   28  C   UNL     1     -10.007   6.157  66.654  1.00  0.00    -0.207 C  
HETATM   29  C   UNL     1     -11.003   6.232  67.550  1.00  0.00    -0.444 C  
ENDBRANCH  27  28
ENDBRANCH  22  27
ENDBRANCH   3  22
BRANCH   4  30
HETATM   30  O   UNL     1      -8.800  11.520  67.856  1.00  0.00    -0.141 OA 
BRANCH  30  31
HETATM   31  C   UNL     1      -9.402  12.665  68.258  1.00  0.00    -0.195 C  
HETATM   32  C   UNL     1      -8.354  13.755  68.320  1.00  0.00    -0.161 C  
HETATM   33  O   UNL     1     -10.611  12.830  68.307  1.00  0.00    -0.224 OA 
ENDBRANCH  30  31
ENDBRANCH   4  30
BRANCH   5  34
HETATM   34  N   UNL     1      -8.449   3.479  71.903  1.00  0.00    -0.080 NA 
HETATM   35  C   UNL     1      -9.748   3.180  71.288  1.00  0.00    -0.145 C  
HETATM   36  C   UNL     1      -9.656   3.177  69.765  1.00  0.00    -0.058 C  
HETATM   37  O   UNL     1      -8.756   2.152  69.325  1.00  0.00    -0.063 OA 
HETATM   38  C   UNL     1      -7.454   2.311  69.900  1.00  0.00    -0.043 C  
HETATM   39  C   UNL     1      -7.480   2.486  71.430  1.00  0.00    -0.040 C  
ENDBRANCH   5  34
TORSDOF 6
ENDMDL
MODEL       62
REMARK 921   NORMALIZED FREE ENERGY PREDICTED BY IDOCK:   -3.44 KCAL/MOL
REMARK 922        TOTAL FREE ENERGY PREDICTED BY IDOCK:   -4.94 KCAL/MOL
REMARK 923 INTER-LIGAND FREE ENERGY PREDICTED BY IDOCK:   -7.22 KCAL/MOL
REMARK 924 INTRA-LIGAND FREE ENERGY PREDICTED BY IDOCK:    2.28 KCAL/MOL
REMARK 927      BINDING AFFINITY PREDICTED BY RF-SCORE:    0.00 PKD
ROOT
HETATM    1  C   UNL     1      -7.235   7.697  71.140  1.00  0.00    -0.062 C  
HETATM    2  C   UNL     1      -8.232   8.456  71.863  1.00  0.00    -0.210 C  
HETATM    3  C   UNL     1      -9.035   7.400  71.126  1.00  0.00    -0.143 C  
HETATM    4  C   UNL     1      -7.857   5.927  70.243  1.00  0.00    -0.101 C  
HETATM    5  C   UNL     1     -10.349  11.210  67.490  1.00  0.00    -0.196 C  
HETATM    6  C   UNL     1      -9.186  11.881  66.721  1.00  0.00    -0.194 C  
HETATM    7  C   UNL     1      -7.901  11.508  67.443  1.00  0.00    -0.143 C  
HETATM    8  C   UNL     1      -7.518  10.086  67.070  1.00  0.00    -0.092 C  
HETATM    9  C   UNL     1      -8.313   6.204  71.479  1.00  0.00    -0.127 C  
HETATM   10  C   UNL     1      -9.544   5.812  69.966  1.00  0.00    -0.206 C  
HETATM   11  C   UNL     1      -7.806   5.411  72.701  1.00  0.00    -0.102 C  
HETATM   12  C   UNL     1      -6.174   9.710  67.714  1.00  0.00    -0.053 C  
HETATM   13  C   UNL     1      -8.662   9.039  67.271  1.00  0.00    -0.122 C  
HETATM   14  C   UNL     1      -8.575   8.062  66.069  1.00  0.00    -0.162 C  
HETATM   15  C   UNL     1      -9.240   6.780  68.553  1.00  0.00    -0.128 C  
HETATM   16  C   UNL     1     -10.180   9.671  67.234  1.00  0.00    -0.292 C  
HETATM   17  H   UNL     1     -10.040  13.532  66.207  1.00  0.00     0.000 HD 
HETATM   18  O   UNL     1      -9.236  13.299  66.658  1.00  0.00    -0.250 OA 
HETATM   19  C   UNL     1      -6.264   9.421  69.217  1.00  0.00    -0.041 C  
HETATM   20  C   UNL     1      -8.515   8.252  68.640  1.00  0.00    -0.125 C  
HETATM   21  C   UNL     1      -7.121   8.177  69.434  1.00  0.00    -0.055 C  
ENDROOT
BRANCH   3  22
HETATM   22  N   UNL     1     -10.585   7.053  72.077  1.00  0.00    -0.209 N  
HETATM   23  C   UNL     1     -12.669   8.452  72.171  1.00  0.00    -0.399 C  
HETATM   24  C   UNL     1     -12.828   7.395  71.114  1.00  0.00    -0.305 C  
HETATM   25  C   UNL     1     -11.307   8.270  72.791  1.00  0.00    -0.262 C  
HETATM   26  C   UNL     1     -11.744   6.365  71.336  1.00  0.00    -0.306 C  
BRANCH  22  27
HETATM   27  C   UNL     1     -10.168   6.005  73.229  1.00  0.00    -0.206 C  
BRANCH  27  28
HETATM   28  C   UNL     1     -11.176   4.958  73.577  1.00  0.00    -0.375 C  
HETATM   29  C   UNL     1     -10.855   3.665  73.725  1.00  0.00    -0.318 C  
ENDBRANCH  27  28
ENDBRANCH  22  27
ENDBRANCH   3  22
BRANCH   4  30
HETATM   30  O   UNL     1      -7.808   4.399  70.607  1.00  0.00    -0.055 OA 
BRANCH  30  31
HETATM   31  C   UNL     1      -7.119   3.420  69.973  1.00  0.00    -0.041 C  
HETATM   32  C   UNL     1      -5.765   3.288  70.638  1.00  0.00    -0.013 C  
HETATM   33  O   UNL     1      -7.610   2.628  69.185  1.00  0.00    -0.044 OA 
ENDBRANCH  30  31
ENDBRANCH   4  30
BRANCH   5  34
HETATM   34  N   UNL     1     -11.680  11.849  67.340  1.00  0.00    -0.566 NA 
HETATM   35  C   UNL     1     -12.247  12.653  68.429  1.00  0.00     0.103 C  
HETATM   36  C   UNL     1     -11.736  14.089  68.386  1.00  0.00    -0.354 C  
HETATM   37  O   UNL     1     -12.140  14.722  67.166  1.00  0.00    -0.308 OA 
HETATM   38  C   UNL     1     -11.681  13.998  66.019  1.00  0.00    -0.369 C  
HETATM   39  C   UNL     1     -12.019  12.496  66.070  1.00  0.00    -0.392 C  
ENDBRANCH   5  34
TORSDOF 6
ENDMDL
MODEL       63
REMARK 921   NORMALIZED FREE ENERGY PREDICTED BY IDOCK:   -3.40 KCAL/MOL
REMARK 922        TOTAL FREE ENERGY PREDICTED BY IDOCK:   -4.89 KCAL/MOL
REMARK 923 INTER-LIGAND FREE ENERGY PREDICTED BY IDOCK:   -8.45 KCAL/MOL
REMARK 924 INTRA-LIGAND FREE ENERGY PREDICTED BY IDOCK:    3.55 KCAL/MOL
REMARK 927      BINDING AFFINITY PREDICTED BY RF-SCORE:    0.00 PKD
ROOT
HETATM    1  C   UNL     1     -10.785  14.287  65.730  1.00  0.00    -0.308 C  
HETATM    2  C   UNL     1     -11.849  14.330  66.710  1.00  0.00    -0.449 C  
HETATM    3  C   UNL     1     -10.640  14.865  67.455  1.00  0.00    -0.266 C  
HETATM    4  C   UNL     1      -9.005  15.245  66.223  1.00  0.00    -0.279 C  
HETATM    5  C   UNL     1     -10.162   9.991  69.795  1.00  0.00    -0.250 C  
HETATM    6  C   UNL     1      -9.937   8.780  68.858  1.00  0.00    -0.192 C  
HETATM    7  C   UNL     1     -10.240   9.247  67.444  1.00  0.00    -0.304 C  
HETATM    8  C   UNL     1      -9.060  10.050  66.924  1.00  0.00    -0.157 C  
HETATM    9  C   UNL     1     -10.162  15.862  66.530  1.00  0.00    -0.297 C  
HETATM   10  C   UNL     1      -8.763  15.502  67.899  1.00  0.00    -0.163 C  
HETATM   11  C   UNL     1     -10.621  17.109  65.749  1.00  0.00    -0.201 C  
HETATM   12  C   UNL     1      -9.299  10.462  65.463  1.00  0.00    -0.244 C  
HETATM   13  C   UNL     1      -8.605  11.209  67.870  1.00  0.00    -0.135 C  
HETATM   14  C   UNL     1      -7.054  11.228  67.821  1.00  0.00    -0.087 C  
HETATM   15  C   UNL     1      -8.239  13.843  67.939  1.00  0.00    -0.164 C  
HETATM   16  C   UNL     1      -9.007  10.998  69.451  1.00  0.00     0.199 C  
HETATM   17  H   UNL     1     -10.573   7.360  69.999  1.00  0.00     0.000 HD 
HETATM   18  O   UNL     1     -10.762   7.652  69.114  1.00  0.00    -0.214 OA 
HETATM   19  C   UNL     1     -10.306  11.605  65.295  1.00  0.00    -0.316 C  
HETATM   20  C   UNL     1      -9.194  12.612  67.421  1.00  0.00    -0.191 C  
HETATM   21  C   UNL     1      -9.734  12.869  65.931  1.00  0.00    -0.190 C  
ENDROOT
BRANCH   3  22
HETATM   22  N   UNL     1     -11.218  16.012  68.789  1.00  0.00    -0.340 N  
HETATM   23  C   UNL     1     -12.632  15.447  70.786  1.00  0.00    -0.497 C  
HETATM   24  C   UNL     1     -11.181  15.386  71.173  1.00  0.00    -0.410 C  
HETATM   25  C   UNL     1     -12.696  15.835  69.332  1.00  0.00     0.491 C  
HETATM   26  C   UNL     1     -10.393  16.080  70.086  1.00  0.00    -0.115 C  
BRANCH  22  27
HETATM   27  C   UNL     1     -11.112  17.496  68.169  1.00  0.00     0.030 C  
BRANCH  27  28
HETATM   28  C   UNL     1     -10.445  18.529  69.017  1.00  0.00     0.117 C  
HETATM   29  C   UNL     1     -10.109  19.741  68.552  1.00  0.00    -0.555 C  
ENDBRANCH  27  28
ENDBRANCH  22  27
ENDBRANCH   3  22
BRANCH   4  30
HETATM   30  O   UNL     1      -8.349  16.638  65.910  1.00  0.00    -0.430 OA 
BRANCH  30  31
HETATM   31  C   UNL     1      -7.193  17.137  66.407  1.00  0.00    -0.290 C  
HETATM   32  C   UNL     1      -7.486  18.488  67.024  1.00  0.00    -0.228 C  
HETATM   33  O   UNL     1      -6.166  16.492  66.552  1.00  0.00    -0.290 OA 
ENDBRANCH  30  31
ENDBRANCH   4  30
BRANCH   5  34
HETATM   34  N   UNL     1     -10.473   9.669  71.209  1.00  0.00    -0.248 NA 
HETATM   35  C   UNL     1     -11.867   9.562  71.658  1.00  0.00    -0.397 C  
HETATM   36  C   UNL     1     -12.433   8.171  71.389  1.00  0.00    -0.292 C  
HETATM   37  O   UNL     1     -11.697   7.186  72.123  1.00  0.00    -0.277 OA 
HETATM   38  C   UNL     1     -10.301   7.223  71.801  1.00  0.00    -0.196 C  
HETATM   39  C   UNL     1      -9.692   8.635  71.892  1.00  0.00    -0.313 C  
ENDBRANCH   5  34
TORSDOF 6
ENDMDL
MODEL       64
REMARK 921   NORMALIZED FREE ENERGY PREDICTED BY IDOCK:   -3.35 KCAL/MOL
REMARK 922        TOTAL FREE ENERGY PREDICTED BY IDOCK:   -4.82 KCAL/MOL
REMARK 923 INTER-LIGAND FREE ENERGY PREDICTED BY IDOCK:   -5.20 KCAL/MOL
REMARK 924 INTRA-LIGAND FREE ENERGY PREDICTED BY IDOCK:    0.38 KCAL/MOL
REMARK 927      BINDING AFFINITY PREDICTED BY RF-SCORE:    0.00 PKD
ROOT
HETATM    1  C   UNL     1     -11.886  11.744  67.858  1.00  0.00    -0.289 C  
HETATM    2  C   UNL     1     -11.278  12.379  69.007  1.00  0.00    -0.320 C  
HETATM    3  C   UNL     1     -10.355  12.737  67.856  1.00  0.00    -0.226 C  
HETATM    4  C   UNL     1     -11.129  12.246  65.986  1.00  0.00    -0.309 C  
HETATM    5  C   UNL     1      -6.990   8.850  69.596  1.00  0.00    -0.054 C  
HETATM    6  C   UNL     1      -7.544   7.405  69.638  1.00  0.00    -0.095 C  
HETATM    7  C   UNL     1      -9.053   7.502  69.475  1.00  0.00    -0.143 C  
HETATM    8  C   UNL     1      -9.379   7.738  68.010  1.00  0.00    -0.146 C  
HETATM    9  C   UNL     1     -11.298  13.233  66.886  1.00  0.00    -0.351 C  
HETATM   10  C   UNL     1      -9.547  12.904  66.000  1.00  0.00    -0.172 C  
HETATM   11  C   UNL     1     -12.425  14.271  66.714  1.00  0.00    -0.136 C  
HETATM   12  C   UNL     1     -10.901   7.751  67.799  1.00  0.00    -0.111 C  
HETATM   13  C   UNL     1      -8.613   8.941  67.368  1.00  0.00    -0.119 C  
HETATM   14  C   UNL     1      -8.227   8.495  65.932  1.00  0.00    -0.125 C  
HETATM   15  C   UNL     1      -9.008  11.254  66.114  1.00  0.00    -0.210 C  
HETATM   16  C   UNL     1      -7.202   9.331  68.118  1.00  0.00    -0.078 C  
HETATM   17  H   UNL     1      -6.353   6.632  70.942  1.00  0.00     0.000 HD 
HETATM   18  O   UNL     1      -7.296   6.692  70.841  1.00  0.00    -0.079 OA 
HETATM   19  C   UNL     1     -11.585   9.034  68.283  1.00  0.00     1.209 C  
HETATM   20  C   UNL     1      -9.498  10.256  67.323  1.00  0.00    -0.174 C  
HETATM   21  C   UNL     1     -11.099  10.207  67.437  1.00  0.00    -0.219 C  
ENDROOT
BRANCH   3  22
HETATM   22  N   UNL     1      -9.514  14.341  68.239  1.00  0.00    -0.204 N  
HETATM   23  C   UNL     1     -10.005  16.599  67.255  1.00  0.00    -0.270 C  
HETATM   24  C   UNL     1     -10.763  16.444  68.544  1.00  0.00    -0.320 C  
HETATM   25  C   UNL     1      -9.220  15.331  67.037  1.00  0.00    -0.218 C  
HETATM   26  C   UNL     1     -10.168  15.265  69.280  1.00  0.00    -0.250 C  
BRANCH  22  27
HETATM   27  C   UNL     1      -8.092  13.948  68.890  1.00  0.00     0.033 C  
BRANCH  27  28
HETATM   28  C   UNL     1      -6.876  14.272  68.086  1.00  0.00    -0.126 C  
HETATM   29  C   UNL     1      -5.820  13.450  68.007  1.00  0.00    -0.124 C  
ENDBRANCH  27  28
ENDBRANCH  22  27
ENDBRANCH   3  22
BRANCH   4  30
HETATM   30  O   UNL     1     -11.535  13.232  64.833  1.00  0.00    -0.304 OA 
BRANCH  30  31
HETATM   31  C   UNL     1     -11.863  12.921  63.556  1.00  0.00    -0.536 C  
HETATM   32  C   UNL     1     -11.011  11.749  63.120  1.00  0.00    -0.275 C  
HETATM   33  O   UNL     1     -12.846  13.349  62.972  1.00  0.00    -0.481 OA 
ENDBRANCH  30  31
ENDBRANCH   4  30
BRANCH   5  34
HETATM   34  N   UNL     1      -5.686   9.063  70.270  1.00  0.00    -0.033 NA 
HETATM   35  C   UNL     1      -5.140  10.418  70.422  1.00  0.00    -0.044 C  
HETATM   36  C   UNL     1      -5.705  11.110  71.659  1.00  0.00     0.509 C  
HETATM   37  O   UNL     1      -5.335  10.392  72.842  1.00  0.00    -0.317 OA 
HETATM   38  C   UNL     1      -5.777   9.030  72.791  1.00  0.00    -0.058 C  
HETATM   39  C   UNL     1      -5.381   8.309  71.489  1.00  0.00    -0.034 C  
ENDBRANCH   5  34
TORSDOF 6
ENDMDL
MODEL       65
REMARK 921   NORMALIZED FREE ENERGY PREDICTED BY IDOCK:   -3.35 KCAL/MOL
REMARK 922        TOTAL FREE ENERGY PREDICTED BY IDOCK:   -4.82 KCAL/MOL
REMARK 923 INTER-LIGAND FREE ENERGY PREDICTED BY IDOCK:   -4.79 KCAL/MOL
REMARK 924 INTRA-LIGAND FREE ENERGY PREDICTED BY IDOCK:   -0.03 KCAL/MOL
REMARK 927      BINDING AFFINITY PREDICTED BY RF-SCORE:    0.00 PKD
ROOT
HETATM    1  C   UNL     1     -10.686  11.405  65.699  1.00  0.00    -0.301 C  
HETATM    2  C   UNL     1     -11.150  10.323  66.539  1.00  0.00     0.155 C  
HETATM    3  C   UNL     1     -10.102  11.023  67.385  1.00  0.00    -0.186 C  
HETATM    4  C   UNL     1      -9.466  12.838  66.586  1.00  0.00    -0.249 C  
HETATM    5  C   UNL     1      -6.649   7.053  66.053  1.00  0.00    -0.052 C  
HETATM    6  C   UNL     1      -6.336   6.866  64.549  1.00  0.00    -0.036 C  
HETATM    7  C   UNL     1      -7.368   7.672  63.776  1.00  0.00    -0.093 C  
HETATM    8  C   UNL     1      -6.984   9.141  63.821  1.00  0.00    -0.089 C  
HETATM    9  C   UNL     1     -10.531  12.395  67.281  1.00  0.00    -0.237 C  
HETATM   10  C   UNL     1      -8.687  12.332  68.025  1.00  0.00    -0.181 C  
HETATM   11  C   UNL     1     -11.761  13.299  67.500  1.00  0.00    -0.410 C  
HETATM   12  C   UNL     1      -7.959   9.973  62.973  1.00  0.00    -0.142 C  
HETATM   13  C   UNL     1      -6.725   9.694  65.261  1.00  0.00    -0.088 C  
HETATM   14  C   UNL     1      -5.511  10.653  65.147  1.00  0.00    -0.142 C  
HETATM   15  C   UNL     1      -7.536  11.564  66.970  1.00  0.00    -0.154 C  
HETATM   16  C   UNL     1      -6.299   8.551  66.364  1.00  0.00    -0.058 C  
HETATM   17  H   UNL     1      -5.761   5.025  64.558  1.00  0.00     0.000 HD 
HETATM   18  O   UNL     1      -6.406   5.529  64.074  1.00  0.00    -0.022 OA 
HETATM   19  C   UNL     1      -9.328  10.186  63.629  1.00  0.00    -0.336 C  
HETATM   20  C   UNL     1      -7.987  10.459  65.841  1.00  0.00    -0.151 C  
HETATM   21  C   UNL     1      -9.149  11.026  64.890  1.00  0.00    -0.164 C  
ENDROOT
BRANCH   3  22
HETATM   22  N   UNL     1     -10.504  10.764  69.173  1.00  0.00    -0.209 N  
HETATM   23  C   UNL     1     -12.349  11.836  70.497  1.00  0.00    -0.387 C  
HETATM   24  C   UNL     1     -12.819  10.506  69.980  1.00  0.00    -0.040 C  
HETATM   25  C   UNL     1     -10.929  12.027  70.030  1.00  0.00     0.523 C  
HETATM   26  C   UNL     1     -11.598   9.740  69.523  1.00  0.00     0.070 C  
BRANCH  22  27
HETATM   27  C   UNL     1      -9.166  10.163  69.842  1.00  0.00    -0.080 C  
BRANCH  27  28
HETATM   28  C   UNL     1      -9.292   8.836  70.515  1.00  0.00    -0.219 C  
HETATM   29  C   UNL     1      -8.757   8.580  71.718  1.00  0.00    -0.266 C  
ENDBRANCH  27  28
ENDBRANCH  22  27
ENDBRANCH   3  22
BRANCH   4  30
HETATM   30  O   UNL     1      -9.670  14.272  67.195  1.00  0.00    -0.241 OA 
BRANCH  30  31
HETATM   31  C   UNL     1      -8.938  15.385  66.952  1.00  0.00    -0.247 C  
HETATM   32  C   UNL     1      -9.808  16.369  66.199  1.00  0.00    -0.362 C  
HETATM   33  O   UNL     1      -7.863  15.634  67.475  1.00  0.00    -0.136 OA 
ENDBRANCH  30  31
ENDBRANCH   4  30
BRANCH   5  34
HETATM   34  N   UNL     1      -6.172   5.974  66.953  1.00  0.00    -0.025 NA 
HETATM   35  C   UNL     1      -5.255   6.278  68.058  1.00  0.00    -0.004 C  
HETATM   36  C   UNL     1      -6.011   6.750  69.296  1.00  0.00    -0.022 C  
HETATM   37  O   UNL     1      -6.882   5.716  69.769  1.00  0.00    -0.056 OA 
HETATM   38  C   UNL     1      -7.804   5.299  68.755  1.00  0.00    -0.083 C  
HETATM   39  C   UNL     1      -7.124   4.960  67.415  1.00  0.00    -0.066 C  
ENDBRANCH   5  34
TORSDOF 6
ENDMDL
MODEL       66
REMARK 921   NORMALIZED FREE ENERGY PREDICTED BY IDOCK:   -3.34 KCAL/MOL
REMARK 922        TOTAL FREE ENERGY PREDICTED BY IDOCK:   -4.81 KCAL/MOL
REMARK 923 INTER-LIGAND FREE ENERGY PREDICTED BY IDOCK:   -5.58 KCAL/MOL
REMARK 924 INTRA-LIGAND FREE ENERGY PREDICTED BY IDOCK:    0.77 KCAL/MOL
REMARK 927      BINDING AFFINITY PREDICTED BY RF-SCORE:    0.00 PKD
ROOT
HETATM    1  C   UNL     1      -8.033  11.146  67.754  1.00  0.00    -0.116 C  
HETATM    2  C   UNL     1      -7.644  11.118  66.361  1.00  0.00    -0.109 C  
HETATM    3  C   UNL     1      -9.139  10.859  66.331  1.00  0.00    -0.172 C  
HETATM    4  C   UNL     1     -10.072  11.163  68.168  1.00  0.00    -0.179 C  
HETATM    5  C   UNL     1      -8.022   5.595  65.619  1.00  0.00    -0.111 C  
HETATM    6  C   UNL     1      -7.204   4.892  66.729  1.00  0.00    -0.080 C  
HETATM    7  C   UNL     1      -6.628   5.984  67.617  1.00  0.00    -0.056 C  
HETATM    8  C   UNL     1      -7.717   6.495  68.544  1.00  0.00    -0.105 C  
HETATM    9  C   UNL     1      -9.624  11.935  67.159  1.00  0.00    -0.192 C  
HETATM   10  C   UNL     1     -11.072  10.594  66.898  1.00  0.00    -0.162 C  
HETATM   11  C   UNL     1      -9.578  13.469  67.301  1.00  0.00    -0.235 C  
HETATM   12  C   UNL     1      -7.143   7.538  69.516  1.00  0.00    -0.069 C  
HETATM   13  C   UNL     1      -9.032   6.926  67.814  1.00  0.00    -0.117 C  
HETATM   14  C   UNL     1     -10.204   6.454  68.715  1.00  0.00    -0.206 C  
HETATM   15  C   UNL     1     -10.657   9.003  67.469  1.00  0.00    -0.306 C  
HETATM   16  C   UNL     1      -9.266   6.212  66.351  1.00  0.00    -0.166 C  
HETATM   17  H   UNL     1      -6.476   3.420  65.719  1.00  0.00     0.000 HD 
HETATM   18  O   UNL     1      -6.116   4.102  66.274  1.00  0.00    -0.029 OA 
HETATM   19  C   UNL     1      -6.878   8.905  68.876  1.00  0.00    -0.061 C  
HETATM   20  C   UNL     1      -9.100   8.494  67.587  1.00  0.00    -0.144 C  
HETATM   21  C   UNL     1      -8.207   9.518  68.443  1.00  0.00    -0.113 C  
ENDROOT
BRANCH   3  22
HETATM   22  N   UNL     1      -9.818  11.455  64.714  1.00  0.00    -0.250 N  
HETATM   23  C   UNL     1     -12.166  12.192  64.220  1.00  0.00    -0.469 C  
HETATM   24  C   UNL     1     -11.329  13.395  64.554  1.00  0.00    -0.391 C  
HETATM   25  C   UNL     1     -11.272  10.982  64.300  1.00  0.00     0.200 C  
HETATM   26  C   UNL     1      -9.880  12.973  64.477  1.00  0.00     0.009 C  
BRANCH  22  27
HETATM   27  C   UNL     1      -8.802  10.914  63.585  1.00  0.00    -0.079 C  
BRANCH  27  28
HETATM   28  C   UNL     1      -8.894   9.463  63.242  1.00  0.00    -0.202 C  
HETATM   29  C   UNL     1      -7.953   8.575  63.593  1.00  0.00    -0.161 C  
ENDBRANCH  27  28
ENDBRANCH  22  27
ENDBRANCH   3  22
BRANCH   4  30
HETATM   30  O   UNL     1     -11.141  12.258  68.525  1.00  0.00    -0.218 OA 
BRANCH  30  31
HETATM   31  C   UNL     1     -11.807  12.412  69.694  1.00  0.00    -0.311 C  
HETATM   32  C   UNL     1     -12.257  13.853  69.797  1.00  0.00    -0.388 C  
HETATM   33  O   UNL     1     -12.189  11.490  70.399  1.00  0.00    -0.343 OA 
ENDBRANCH  30  31
ENDBRANCH   4  30
BRANCH   5  34
HETATM   34  N   UNL     1      -8.203   4.828  64.362  1.00  0.00    -0.110 NA 
HETATM   35  C   UNL     1      -7.897   3.393  64.316  1.00  0.00    -0.081 C  
HETATM   36  C   UNL     1      -9.077   2.557  64.801  1.00  0.00    -0.132 C  
HETATM   37  O   UNL     1     -10.210   2.755  63.946  1.00  0.00    -0.160 OA 
HETATM   38  C   UNL     1     -10.579   4.137  63.873  1.00  0.00    -0.051 C  
HETATM   39  C   UNL     1      -9.396   5.068  63.546  1.00  0.00     0.292 C  
ENDBRANCH   5  34
TORSDOF 6
ENDMDL
MODEL       67
REMARK 921   NORMALIZED FREE ENERGY PREDICTED BY IDOCK:   -3.31 KCAL/MOL
REMARK 922        TOTAL FREE ENERGY PREDICTED BY IDOCK:   -4.77 KCAL/MOL
REMARK 923 INTER-LIGAND FREE ENERGY PREDICTED BY IDOCK:   -5.87 KCAL/MOL
REMARK 924 INTRA-LIGAND FREE ENERGY PREDICTED BY IDOCK:    1.10 KCAL/MOL
REMARK 927      BINDING AFFINITY PREDICTED BY RF-SCORE:    0.00 PKD
ROOT
HETATM    1  C   UNL     1     -11.648  13.649  66.879  1.00  0.00    -0.397 C  
HETATM    2  C   UNL     1     -12.657  13.305  67.858  1.00  0.00     0.676 C  
HETATM    3  C   UNL     1     -11.439  13.658  68.692  1.00  0.00    -0.307 C  
HETATM    4  C   UNL     1      -9.898  14.521  67.589  1.00  0.00    -0.223 C  
HETATM    5  C   UNL     1     -10.567   8.339  69.329  1.00  0.00    -0.181 C  
HETATM    6  C   UNL     1     -10.330   7.506  68.047  1.00  0.00    -0.204 C  
HETATM    7  C   UNL     1     -10.736   8.376  66.868  1.00  0.00    -0.163 C  
HETATM    8  C   UNL     1      -9.632   9.382  66.591  1.00  0.00    -0.250 C  
HETATM    9  C   UNL     1     -11.068  14.927  68.119  1.00  0.00    -0.290 C  
HETATM   10  C   UNL     1      -9.577  14.249  69.250  1.00  0.00     0.175 C  
HETATM   11  C   UNL     1     -11.637  16.323  67.795  1.00  0.00     0.136 C  
HETATM   12  C   UNL     1      -9.973  10.219  65.348  1.00  0.00    -0.371 C  
HETATM   13  C   UNL     1      -9.189  10.209  67.843  1.00  0.00    -0.144 C  
HETATM   14  C   UNL     1      -7.646  10.350  67.747  1.00  0.00    -0.089 C  
HETATM   15  C   UNL     1      -8.963  12.704  68.738  1.00  0.00     0.170 C  
HETATM   16  C   UNL     1      -9.490   9.480  69.285  1.00  0.00    -0.171 C  
HETATM   17  H   UNL     1     -10.823   5.757  68.694  1.00  0.00     0.000 HD 
HETATM   18  O   UNL     1     -11.076   6.301  67.957  1.00  0.00    -0.333 OA 
HETATM   19  C   UNL     1     -11.049  11.283  65.591  1.00  0.00    -0.141 C  
HETATM   20  C   UNL     1      -9.877  11.638  67.887  1.00  0.00    -0.189 C  
HETATM   21  C   UNL     1     -10.512  12.317  66.578  1.00  0.00    -0.254 C  
ENDROOT
BRANCH   3  22
HETATM   22  N   UNL     1     -12.004  14.279  70.343  1.00  0.00    -0.313 N  
HETATM   23  C   UNL     1     -14.359  14.411  71.204  1.00  0.00    -0.053 C  
HETATM   24  C   UNL     1     -13.734  13.124  71.664  1.00  0.00    -0.085 C  
HETATM   25  C   UNL     1     -13.325  15.152  70.396  1.00  0.00    -0.042 C  
HETATM   26  C   UNL     1     -12.242  13.245  71.457  1.00  0.00     0.197 C  
BRANCH  22  27
HETATM   27  C   UNL     1     -10.802  15.198  70.900  1.00  0.00    -0.114 C  
BRANCH  27  28
HETATM   28  C   UNL     1     -11.195  16.436  71.639  1.00  0.00     0.108 C  
HETATM   29  C   UNL     1     -11.737  16.407  72.865  1.00  0.00    -0.339 C  
ENDBRANCH  27  28
ENDBRANCH  22  27
ENDBRANCH   3  22
BRANCH   4  30
HETATM   30  O   UNL     1      -9.337  15.983  67.716  1.00  0.00    -0.209 OA 
BRANCH  30  31
HETATM   31  C   UNL     1      -8.363  16.562  66.974  1.00  0.00    -0.190 C  
HETATM   32  C   UNL     1      -7.051  15.881  67.300  1.00  0.00    -0.242 C  
HETATM   33  O   UNL     1      -8.565  17.316  66.034  1.00  0.00    -0.492 OA 
ENDBRANCH  30  31
ENDBRANCH   4  30
BRANCH   5  34
HETATM   34  N   UNL     1     -10.782   7.564  70.576  1.00  0.00    -0.230 NA 
HETATM   35  C   UNL     1     -10.607   8.201  71.887  1.00  0.00    -0.260 C  
HETATM   36  C   UNL     1     -11.871   8.935  72.322  1.00  0.00    -0.295 C  
HETATM   37  O   UNL     1     -12.957   8.012  72.465  1.00  0.00    -0.129 OA 
HETATM   38  C   UNL     1     -13.197   7.290  71.251  1.00  0.00    -0.289 C  
HETATM   39  C   UNL     1     -11.926   6.652  70.660  1.00  0.00    -0.343 C  
ENDBRANCH   5  34
TORSDOF 6
ENDMDL
MODEL       68
REMARK 921   NORMALIZED FREE ENERGY PREDICTED BY IDOCK:   -3.28 KCAL/MOL
REMARK 922        TOTAL FREE ENERGY PREDICTED BY IDOCK:   -4.73 KCAL/MOL
REMARK 923 INTER-LIGAND FREE ENERGY PREDICTED BY IDOCK:   -4.91 KCAL/MOL
REMARK 924 INTRA-LIGAND FREE ENERGY PREDICTED BY IDOCK:    0.18 KCAL/MOL
REMARK 927      BINDING AFFINITY PREDICTED BY RF-SCORE:    0.00 PKD
ROOT
HETATM    1  C   UNL     1      -7.333   8.879  69.376  1.00  0.00    -0.075 C  
HETATM    2  C   UNL     1      -6.647   8.922  68.104  1.00  0.00    -0.061 C  
HETATM    3  C   UNL     1      -8.107   8.752  67.729  1.00  0.00    -0.107 C  
HETATM    4  C   UNL     1      -9.410   8.987  69.337  1.00  0.00    -0.158 C  
HETATM    5  C   UNL     1      -7.082   3.492  66.869  1.00  0.00    -0.059 C  
HETATM    6  C   UNL     1      -6.560   2.671  68.072  1.00  0.00    -0.036 C  
HETATM    7  C   UNL     1      -6.149   3.665  69.146  1.00  0.00    -0.028 C  
HETATM    8  C   UNL     1      -7.394   4.175  69.851  1.00  0.00    -0.049 C  
HETATM    9  C   UNL     1      -8.718   9.796  68.513  1.00  0.00    -0.120 C  
HETATM   10  C   UNL     1     -10.127   8.562  67.840  1.00  0.00    -0.258 C  
HETATM   11  C   UNL     1      -8.641  11.313  68.781  1.00  0.00    -0.109 C  
HETATM   12  C   UNL     1      -7.006   5.116  71.003  1.00  0.00    -0.051 C  
HETATM   13  C   UNL     1      -8.496   4.729  68.889  1.00  0.00    -0.087 C  
HETATM   14  C   UNL     1      -9.857   4.267  69.473  1.00  0.00    -0.224 C  
HETATM   15  C   UNL     1      -9.916   6.916  68.361  1.00  0.00    -0.150 C  
HETATM   16  C   UNL     1      -8.430   4.130  67.359  1.00  0.00    -0.100 C  
HETATM   17  H   UNL     1      -5.688   1.230  67.132  1.00  0.00     0.000 HD 
HETATM   18  O   UNL     1      -5.431   1.851  67.804  1.00  0.00    -0.016 OA 
HETATM   19  C   UNL     1      -6.549   6.505  70.545  1.00  0.00    -0.049 C  
HETATM   20  C   UNL     1      -8.447   6.311  68.775  1.00  0.00    -0.119 C  
HETATM   21  C   UNL     1      -7.723   7.221  69.882  1.00  0.00    -0.103 C  
ENDROOT
BRANCH   3  22
HETATM   22  N   UNL     1      -8.387   9.493  66.055  1.00  0.00    -0.118 N  
HETATM   23  C   UNL     1     -10.321  10.912  65.314  1.00  0.00    -0.334 C  
HETATM   24  C   UNL     1      -9.194  11.802  65.754  1.00  0.00    -0.148 C  
HETATM   25  C   UNL     1      -9.862   9.486  65.476  1.00  0.00    -0.234 C  
HETATM   26  C   UNL     1      -7.947  10.950  65.832  1.00  0.00    -0.105 C  
BRANCH  22  27
HETATM   27  C   UNL     1      -7.472   8.639  65.039  1.00  0.00    -0.088 C  
BRANCH  27  28
HETATM   28  C   UNL     1      -8.156   8.077  63.835  1.00  0.00    -0.097 C  
HETATM   29  C   UNL     1      -7.780   8.374  62.584  1.00  0.00    -0.127 C  
ENDBRANCH  27  28
ENDBRANCH  22  27
ENDBRANCH   3  22
BRANCH   4  30
HETATM   30  O   UNL     1     -10.485  10.115  69.538  1.00  0.00    -0.209 OA 
BRANCH  30  31
HETATM   31  C   UNL     1     -11.408  10.211  70.524  1.00  0.00    -0.338 C  
HETATM   32  C   UNL     1     -11.350   8.945  71.353  1.00  0.00    -0.380 C  
HETATM   33  O   UNL     1     -11.988  11.241  70.830  1.00  0.00    -0.339 OA 
ENDBRANCH  30  31
ENDBRANCH   4  30
BRANCH   5  34
HETATM   34  N   UNL     1      -7.012   2.823  65.546  1.00  0.00    -0.051 NA 
HETATM   35  C   UNL     1      -8.139   2.018  65.060  1.00  0.00    -0.079 C  
HETATM   36  C   UNL     1      -9.192   2.887  64.379  1.00  0.00    -0.128 C  
HETATM   37  O   UNL     1      -8.633   3.534  63.229  1.00  0.00    -0.089 OA 
HETATM   38  C   UNL     1      -7.487   4.322  63.573  1.00  0.00    -0.055 C  
HETATM   39  C   UNL     1      -6.446   3.552  64.408  1.00  0.00    -0.034 C  
ENDBRANCH   5  34
TORSDOF 6
ENDMDL
MODEL       69
REMARK 921   NORMALIZED FREE ENERGY PREDICTED BY IDOCK:   -2.96 KCAL/MOL
REMARK 922        TOTAL FREE ENERGY PREDICTED BY IDOCK:   -4.30 KCAL/MOL
REMARK 923 INTER-LIGAND FREE ENERGY PREDICTED BY IDOCK:   -4.56 KCAL/MOL
REMARK 924 INTRA-LIGAND FREE ENERGY PREDICTED BY IDOCK:    0.27 KCAL/MOL
REMARK 927      BINDING AFFINITY PREDICTED BY RF-SCORE:    0.00 PKD
ROOT
HETATM    1  C   UNL     1      -7.385   4.669  70.220  1.00  0.00    -0.050 C  
HETATM    2  C   UNL     1      -6.342   5.665  70.106  1.00  0.00    -0.031 C  
HETATM    3  C   UNL     1      -7.574   6.464  70.486  1.00  0.00    -0.096 C  
HETATM    4  C   UNL     1      -9.191   5.280  71.053  1.00  0.00    -0.147 C  
HETATM    5  C   UNL     1      -8.017   7.907  65.273  1.00  0.00    -0.126 C  
HETATM    6  C   UNL     1      -8.202   6.770  64.240  1.00  0.00     0.036 C  
HETATM    7  C   UNL     1      -7.878   5.465  64.951  1.00  0.00    -0.102 C  
HETATM    8  C   UNL     1      -9.061   5.067  65.817  1.00  0.00    -0.154 C  
HETATM    9  C   UNL     1      -8.051   5.716  71.622  1.00  0.00    -0.118 C  
HETATM   10  C   UNL     1      -9.471   6.970  71.010  1.00  0.00    -0.159 C  
HETATM   11  C   UNL     1      -7.598   5.175  72.993  1.00  0.00    -0.097 C  
HETATM   12  C   UNL     1      -8.800   3.705  66.481  1.00  0.00    -0.131 C  
HETATM   13  C   UNL     1      -9.555   6.190  66.787  1.00  0.00    -0.174 C  
HETATM   14  C   UNL     1     -11.104   6.109  66.794  1.00  0.00    -0.230 C  
HETATM   15  C   UNL     1      -9.967   6.708  69.363  1.00  0.00    -0.169 C  
HETATM   16  C   UNL     1      -9.181   7.718  66.308  1.00  0.00    -0.217 C  
HETATM   17  H   UNL     1      -7.565   7.659  62.652  1.00  0.00     0.000 HD 
HETATM   18  O   UNL     1      -7.363   6.844  63.096  1.00  0.00    -0.063 OA 
HETATM   19  C   UNL     1      -7.810   3.762  67.649  1.00  0.00    -0.081 C  
HETATM   20  C   UNL     1      -8.981   6.005  68.254  1.00  0.00    -0.113 C  
HETATM   21  C   UNL     1      -8.415   4.595  68.775  1.00  0.00    -0.092 C  
ENDROOT
BRANCH   3  22
HETATM   22  N   UNL     1      -7.043   7.991  71.390  1.00  0.00    -0.059 N  
HETATM   23  C   UNL     1      -6.559   8.226  73.842  1.00  0.00    -0.145 C  
HETATM   24  C   UNL     1      -5.276   7.958  73.107  1.00  0.00    -0.040 C  
HETATM   25  C   UNL     1      -7.666   8.261  72.821  1.00  0.00    -0.117 C  
HETATM   26  C   UNL     1      -5.539   8.192  71.637  1.00  0.00    -0.035 C  
BRANCH  22  27
HETATM   27  C   UNL     1      -7.463   9.228  70.446  1.00  0.00    -0.121 C  
BRANCH  27  28
HETATM   28  C   UNL     1      -6.906   9.231  69.060  1.00  0.00    -0.055 C  
HETATM   29  C   UNL     1      -5.734   8.658  68.749  1.00  0.00    -0.041 C  
ENDBRANCH  27  28
ENDBRANCH  22  27
ENDBRANCH   3  22
BRANCH   4  30
HETATM   30  O   UNL     1      -9.864   5.199  72.470  1.00  0.00    -0.155 OA 
BRANCH  30  31
HETATM   31  C   UNL     1     -11.043   4.616  72.794  1.00  0.00    -0.132 C  
HETATM   32  C   UNL     1     -10.854   3.114  72.760  1.00  0.00    -0.050 C  
HETATM   33  O   UNL     1     -11.998   5.207  73.272  1.00  0.00    -0.128 OA 
ENDBRANCH  30  31
ENDBRANCH   4  30
BRANCH   5  34
HETATM   34  N   UNL     1      -7.728   9.251  64.713  1.00  0.00    -0.107 NA 
HETATM   35  C   UNL     1      -8.572   9.810  63.649  1.00  0.00    -0.201 C  
HETATM   36  C   UNL     1      -9.808  10.496  64.222  1.00  0.00    -0.338 C  
HETATM   37  O   UNL     1      -9.424  11.598  65.052  1.00  0.00    -0.205 OA 
HETATM   38  C   UNL     1      -8.554  11.182  66.111  1.00  0.00    -0.172 C  
HETATM   39  C   UNL     1      -7.361  10.338  65.623  1.00  0.00    -0.149 C  
ENDBRANCH   5  34
TORSDOF 6
ENDMDL
MODEL       70
REMARK 921   NORMALIZED FREE ENERGY PREDICTED BY IDOCK:   -2.86 KCAL/MOL
REMARK 922        TOTAL FREE ENERGY PREDICTED BY IDOCK:   -4.16 KCAL/MOL
REMARK 923 INTER-LIGAND FREE ENERGY PREDICTED BY IDOCK:   -5.22 KCAL/MOL
REMARK 924 INTRA-LIGAND FREE ENERGY PREDICTED BY IDOCK:    1.06 KCAL/MOL
REMARK 927      BINDING AFFINITY PREDICTED BY RF-SCORE:    0.00 PKD
ROOT
HETATM    1  C   UNL     1     -10.370  11.842  68.429  1.00  0.00    -0.223 C  
HETATM    2  C   UNL     1      -9.052  11.959  69.014  1.00  0.00     0.285 C  
HETATM    3  C   UNL     1      -8.890  10.885  67.954  1.00  0.00    -0.134 C  
HETATM    4  C   UNL     1     -10.539  10.707  66.694  1.00  0.00    -0.214 C  
HETATM    5  C   UNL     1      -9.133   7.194  71.926  1.00  0.00    -0.134 C  
HETATM    6  C   UNL     1     -10.424   7.159  72.778  1.00  0.00    -0.244 C  
HETATM    7  C   UNL     1     -11.193   8.435  72.473  1.00  0.00    -0.406 C  
HETATM    8  C   UNL     1     -11.899   8.280  71.136  1.00  0.00    -0.302 C  
HETATM    9  C   UNL     1      -9.481  11.532  66.810  1.00  0.00    -0.202 C  
HETATM   10  C   UNL     1      -9.266   9.590  66.434  1.00  0.00    -0.210 C  
HETATM   11  C   UNL     1      -9.390  12.819  65.965  1.00  0.00    -0.056 C  
HETATM   12  C   UNL     1     -12.758   9.520  70.841  1.00  0.00    -0.231 C  
HETATM   13  C   UNL     1     -10.965   7.830  69.966  1.00  0.00    -0.218 C  
HETATM   14  C   UNL     1     -11.786   6.824  69.115  1.00  0.00     0.365 C  
HETATM   15  C   UNL     1     -10.119   8.566  67.553  1.00  0.00    -0.282 C  
HETATM   16  C   UNL     1      -9.613   7.024  70.442  1.00  0.00    -0.169 C  
HETATM   17  H   UNL     1      -9.744   6.317  74.374  1.00  0.00     0.000 HD 
HETATM   18  O   UNL     1     -10.225   7.114  74.183  1.00  0.00    -0.309 OA 
HETATM   19  C   UNL     1     -11.950  10.748  70.410  1.00  0.00    -0.448 C  
HETATM   20  C   UNL     1     -10.492   9.055  69.076  1.00  0.00    -0.235 C  
HETATM   21  C   UNL     1     -11.277  10.456  69.071  1.00  0.00    -0.289 C  
ENDROOT
BRANCH   3  22
HETATM   22  N   UNL     1      -7.134  10.882  67.368  1.00  0.00    -0.089 N  
HETATM   23  C   UNL     1      -5.294  12.453  68.038  1.00  0.00    -0.073 C  
HETATM   24  C   UNL     1      -5.233  11.223  68.898  1.00  0.00    -0.040 C  
HETATM   25  C   UNL     1      -6.445  12.279  67.080  1.00  0.00    -0.117 C  
HETATM   26  C   UNL     1      -6.087  10.165  68.237  1.00  0.00    -0.045 C  
BRANCH  22  27
HETATM   27  C   UNL     1      -7.136  10.057  65.982  1.00  0.00    -0.111 C  
BRANCH  27  28
HETATM   28  C   UNL     1      -6.249  10.573  64.896  1.00  0.00    -0.050 C  
HETATM   29  C   UNL     1      -6.644  10.657  63.618  1.00  0.00     0.162 C  
ENDBRANCH  27  28
ENDBRANCH  22  27
ENDBRANCH   3  22
BRANCH   4  30
HETATM   30  O   UNL     1     -10.597  11.005  65.152  1.00  0.00    -0.277 OA 
BRANCH  30  31
HETATM   31  C   UNL     1     -11.552  11.690  64.479  1.00  0.00    -0.154 C  
HETATM   32  C   UNL     1     -11.325  11.486  62.996  1.00  0.00     0.113 C  
HETATM   33  O   UNL     1     -12.553  12.166  64.991  1.00  0.00    -0.514 OA 
ENDBRANCH  30  31
ENDBRANCH   4  30
BRANCH   5  34
HETATM   34  N   UNL     1      -7.996   6.389  72.438  1.00  0.00    -0.102 NA 
HETATM   35  C   UNL     1      -7.767   5.026  71.942  1.00  0.00    -0.107 C  
HETATM   36  C   UNL     1      -6.962   5.034  70.645  1.00  0.00    -0.045 C  
HETATM   37  O   UNL     1      -5.667   5.605  70.869  1.00  0.00    -0.015 OA 
HETATM   38  C   UNL     1      -5.761   6.931  71.402  1.00  0.00    -0.036 C  
HETATM   39  C   UNL     1      -6.693   7.033  72.624  1.00  0.00    -0.068 C  
ENDBRANCH   5  34
TORSDOF 6
ENDMDL
MODEL       71
REMARK 921   NORMALIZED FREE ENERGY PREDICTED BY IDOCK:   -2.64 KCAL/MOL
REMARK 922        TOTAL FREE ENERGY PREDICTED BY IDOCK:   -3.87 KCAL/MOL
REMARK 923 INTER-LIGAND FREE ENERGY PREDICTED BY IDOCK:   -4.67 KCAL/MOL
REMARK 924 INTRA-LIGAND FREE ENERGY PREDICTED BY IDOCK:    0.80 KCAL/MOL
REMARK 927      BINDING AFFINITY PREDICTED BY RF-SCORE:    0.00 PKD
ROOT
HETATM    1  C   UNL     1      -9.868   9.815  67.833  1.00  0.00    -0.176 C  
HETATM    2  C   UNL     1      -8.889   9.797  68.897  1.00  0.00    -0.140 C  
HETATM    3  C   UNL     1      -8.057   9.923  67.635  1.00  0.00    -0.110 C  
HETATM    4  C   UNL     1      -9.189  10.310  65.929  1.00  0.00    -0.167 C  
HETATM    5  C   UNL     1      -6.986   4.617  68.035  1.00  0.00    -0.057 C  
HETATM    6  C   UNL     1      -8.193   3.650  67.994  1.00  0.00    -0.083 C  
HETATM    7  C   UNL     1      -9.445   4.492  68.181  1.00  0.00    -0.201 C  
HETATM    8  C   UNL     1      -9.775   5.187  66.870  1.00  0.00    -0.175 C  
HETATM    9  C   UNL     1      -8.720  11.020  66.974  1.00  0.00    -0.141 C  
HETATM   10  C   UNL     1      -7.505  10.107  65.688  1.00  0.00    -0.144 C  
HETATM   11  C   UNL     1      -9.165  12.478  67.199  1.00  0.00    -0.205 C  
HETATM   12  C   UNL     1     -11.087   5.976  67.002  1.00  0.00    -0.263 C  
HETATM   13  C   UNL     1      -8.582   5.987  66.251  1.00  0.00    -0.137 C  
HETATM   14  C   UNL     1      -8.653   5.757  64.718  1.00  0.00    -0.040 C  
HETATM   15  C   UNL     1      -7.880   8.425  65.450  1.00  0.00    -0.108 C  
HETATM   16  C   UNL     1      -7.094   5.468  66.721  1.00  0.00    -0.070 C  
HETATM   17  H   UNL     1      -7.422   2.123  68.885  1.00  0.00     0.000 HD 
HETATM   18  O   UNL     1      -8.205   2.649  69.002  1.00  0.00    -0.054 OA 
HETATM   19  C   UNL     1     -10.953   7.278  67.799  1.00  0.00    -0.141 C  
HETATM   20  C   UNL     1      -8.666   7.535  66.585  1.00  0.00    -0.146 C  
HETATM   21  C   UNL     1     -10.038   8.235  67.039  1.00  0.00    -0.353 C  
ENDROOT
BRANCH   3  22
HETATM   22  N   UNL     1      -6.474  10.791  68.044  1.00  0.00    -0.061 N  
HETATM   23  C   UNL     1      -5.977  13.244  67.844  1.00  0.00    -0.138 C  
HETATM   24  C   UNL     1      -6.422  12.941  69.247  1.00  0.00    -0.104 C  
HETATM   25  C   UNL     1      -5.989  11.948  67.076  1.00  0.00    -0.153 C  
HETATM   26  C   UNL     1      -6.349  11.443  69.432  1.00  0.00    -0.100 C  
BRANCH  22  27
HETATM   27  C   UNL     1      -5.333   9.652  68.033  1.00  0.00    -0.040 C  
BRANCH  27  28
HETATM   28  C   UNL     1      -5.746   8.288  68.483  1.00  0.00    -0.037 C  
HETATM   29  C   UNL     1      -5.723   7.913  69.770  1.00  0.00    -0.023 C  
ENDBRANCH  27  28
ENDBRANCH  22  27
ENDBRANCH   3  22
BRANCH   4  30
HETATM   30  O   UNL     1      -9.165  11.607  65.043  1.00  0.00    -0.108 OA 
BRANCH  30  31
HETATM   31  C   UNL     1     -10.064  11.982  64.102  1.00  0.00    -0.313 C  
HETATM   32  C   UNL     1      -9.704  11.296  62.801  1.00  0.00    -0.289 C  
HETATM   33  O   UNL     1     -11.113  12.560  64.340  1.00  0.00    -0.304 OA 
ENDBRANCH  30  31
ENDBRANCH   4  30
BRANCH   5  34
HETATM   34  N   UNL     1      -5.687   4.018  68.430  1.00  0.00    -0.024 NA 
HETATM   35  C   UNL     1      -5.231   4.084  69.824  1.00  0.00    -0.007 C  
HETATM   36  C   UNL     1      -5.820   2.950  70.657  1.00  0.00    -0.017 C  
HETATM   37  O   UNL     1      -5.383   1.684  70.150  1.00  0.00    -0.007 OA 
HETATM   38  C   UNL     1      -5.734   1.519  68.771  1.00  0.00    -0.018 C  
HETATM   39  C   UNL     1      -5.313   2.709  67.888  1.00  0.00    -0.013 C  
ENDBRANCH   5  34
TORSDOF 6
ENDMDL
MODEL       72
REMARK 921   NORMALIZED FREE ENERGY PREDICTED BY IDOCK:   -2.62 KCAL/MOL
REMARK 922        TOTAL FREE ENERGY PREDICTED BY IDOCK:   -3.84 KCAL/MOL
REMARK 923 INTER-LIGAND FREE ENERGY PREDICTED BY IDOCK:   -5.72 KCAL/MOL
REMARK 924 INTRA-LIGAND FREE ENERGY PREDICTED BY IDOCK:    1.89 KCAL/MOL
REMARK 927      BINDING AFFINITY PREDICTED BY RF-SCORE:    0.00 PKD
ROOT
HETATM    1  C   UNL     1     -11.401  11.671  68.307  1.00  0.00    -0.348 C  
HETATM    2  C   UNL     1     -11.767  12.132  66.986  1.00  0.00    -0.373 C  
HETATM    3  C   UNL     1     -10.279  11.856  66.880  1.00  0.00    -0.208 C  
HETATM    4  C   UNL     1      -9.499  10.858  68.533  1.00  0.00    -0.185 C  
HETATM    5  C   UNL     1      -9.446  17.201  67.324  1.00  0.00    -0.245 C  
HETATM    6  C   UNL     1      -9.949  17.887  68.617  1.00  0.00    -0.387 C  
HETATM    7  C   UNL     1     -10.869  16.899  69.316  1.00  0.00    -0.214 C  
HETATM    8  C   UNL     1     -10.026  15.855  70.028  1.00  0.00    -0.042 C  
HETATM    9  C   UNL     1     -10.202  10.527  67.434  1.00  0.00    -0.253 C  
HETATM   10  C   UNL     1      -8.374  11.304  67.321  1.00  0.00    -0.145 C  
HETATM   11  C   UNL     1     -10.793   9.112  67.273  1.00  0.00    -0.121 C  
HETATM   12  C   UNL     1     -10.926  14.893  70.819  1.00  0.00    -0.088 C  
HETATM   13  C   UNL     1      -8.959  15.163  69.117  1.00  0.00    -0.219 C  
HETATM   14  C   UNL     1      -7.687  14.992  69.990  1.00  0.00     0.205 C  
HETATM   15  C   UNL     1      -8.187  12.777  68.229  1.00  0.00    -0.159 C  
HETATM   16  C   UNL     1      -8.499  16.048  67.810  1.00  0.00    -0.168 C  
HETATM   17  H   UNL     1     -10.112  19.701  67.985  1.00  0.00     0.000 HD 
HETATM   18  O   UNL     1     -10.687  19.084  68.422  1.00  0.00    -0.174 OA 
HETATM   19  C   UNL     1     -11.668  13.875  69.946  1.00  0.00    -0.358 C  
HETATM   20  C   UNL     1      -9.458  13.757  68.579  1.00  0.00    -0.162 C  
HETATM   21  C   UNL     1     -10.650  12.948  69.288  1.00  0.00     0.117 C  
ENDROOT
BRANCH   3  22
HETATM   22  N   UNL     1      -9.872  11.425  65.126  1.00  0.00    -0.250 N  
HETATM   23  C   UNL     1     -11.440  11.352  63.166  1.00  0.00     0.083 C  
HETATM   24  C   UNL     1     -10.770  12.696  63.214  1.00  0.00    -0.036 C  
HETATM   25  C   UNL     1     -10.910  10.540  64.319  1.00  0.00     0.611 C  
HETATM   26  C   UNL     1      -9.588  12.579  64.149  1.00  0.00     0.217 C  
BRANCH  22  27
HETATM   27  C   UNL     1      -8.488  10.601  65.185  1.00  0.00    -0.144 C  
BRANCH  27  28
HETATM   28  C   UNL     1      -8.357   9.445  64.247  1.00  0.00    -0.176 C  
HETATM   29  C   UNL     1      -7.967   8.227  64.650  1.00  0.00    -0.145 C  
ENDBRANCH  27  28
ENDBRANCH  22  27
ENDBRANCH   3  22
BRANCH   4  30
HETATM   30  O   UNL     1      -8.889   9.411  68.574  1.00  0.00    -0.127 OA 
BRANCH  30  31
HETATM   31  C   UNL     1      -8.662   8.640  69.664  1.00  0.00    -0.132 C  
HETATM   32  C   UNL     1      -9.593   9.094  70.768  1.00  0.00    -0.338 C  
HETATM   33  O   UNL     1      -8.009   7.608  69.657  1.00  0.00    -0.118 OA 
ENDBRANCH  30  31
ENDBRANCH   4  30
BRANCH   5  34
HETATM   34  N   UNL     1      -9.016  18.109  66.233  1.00  0.00    -0.458 NA 
HETATM   35  C   UNL     1      -9.375  19.532  66.265  1.00  0.00    -0.372 C  
HETATM   36  C   UNL     1      -8.386  20.338  67.102  1.00  0.00    -0.336 C  
HETATM   37  O   UNL     1      -7.076  20.266  66.527  1.00  0.00    -0.243 OA 
HETATM   38  C   UNL     1      -6.629  18.911  66.401  1.00  0.00    -0.196 C  
HETATM   39  C   UNL     1      -7.653  17.994  65.706  1.00  0.00    -0.035 C  
ENDBRANCH   5  34
TORSDOF 6
ENDMDL
MODEL       73
REMARK 921   NORMALIZED FREE ENERGY PREDICTED BY IDOCK:   -2.59 KCAL/MOL
REMARK 922        TOTAL FREE ENERGY PREDICTED BY IDOCK:   -3.79 KCAL/MOL
REMARK 923 INTER-LIGAND FREE ENERGY PREDICTED BY IDOCK:   -5.19 KCAL/MOL
REMARK 924 INTRA-LIGAND FREE ENERGY PREDICTED BY IDOCK:    1.40 KCAL/MOL
REMARK 927      BINDING AFFINITY PREDICTED BY RF-SCORE:    0.00 PKD
ROOT
HETATM    1  C   UNL     1      -9.527   6.304  67.451  1.00  0.00    -0.120 C  
HETATM    2  C   UNL     1      -9.900   6.676  66.104  1.00  0.00     0.081 C  
HETATM    3  C   UNL     1      -8.431   7.043  66.193  1.00  0.00    -0.135 C  
HETATM    4  C   UNL     1      -7.498   6.327  67.912  1.00  0.00    -0.093 C  
HETATM    5  C   UNL     1      -9.957  12.207  66.873  1.00  0.00    -0.204 C  
HETATM    6  C   UNL     1     -10.842  12.524  68.102  1.00  0.00    -0.222 C  
HETATM    7  C   UNL     1     -11.339  11.195  68.648  1.00  0.00    -0.342 C  
HETATM    8  C   UNL     1     -10.223  10.536  69.441  1.00  0.00    -0.245 C  
HETATM    9  C   UNL     1      -7.871   5.824  66.720  1.00  0.00    -0.101 C  
HETATM   10  C   UNL     1      -6.532   7.289  66.874  1.00  0.00    -0.055 C  
HETATM   11  C   UNL     1      -7.795   4.308  66.447  1.00  0.00    -0.094 C  
HETATM   12  C   UNL     1     -10.724   9.231  70.080  1.00  0.00    -0.269 C  
HETATM   13  C   UNL     1      -8.870  10.415  68.666  1.00  0.00    -0.142 C  
HETATM   14  C   UNL     1      -7.750  10.714  69.698  1.00  0.00    -0.080 C  
HETATM   15  C   UNL     1      -7.079   8.633  67.834  1.00  0.00    -0.083 C  
HETATM   16  C   UNL     1      -8.676  11.511  67.455  1.00  0.00    -0.147 C  
HETATM   17  H   UNL     1     -11.674  14.155  67.497  1.00  0.00     0.000 HD 
HETATM   18  O   UNL     1     -11.985  13.325  67.838  1.00  0.00    -0.345 OA 
HETATM   19  C   UNL     1     -10.871   8.070  69.091  1.00  0.00    -0.038 C  
HETATM   20  C   UNL     1      -8.673   8.975  68.032  1.00  0.00    -0.129 C  
HETATM   21  C   UNL     1      -9.492   7.696  68.555  1.00  0.00    -0.147 C  
ENDROOT
BRANCH   3  22
HETATM   22  N   UNL     1      -7.687   6.954  64.500  1.00  0.00    -0.111 N  
HETATM   23  C   UNL     1      -5.435   6.045  63.864  1.00  0.00    -0.018 C  
HETATM   24  C   UNL     1      -6.469   4.968  63.697  1.00  0.00    -0.026 C  
HETATM   25  C   UNL     1      -6.145   7.283  64.348  1.00  0.00    -0.037 C  
HETATM   26  C   UNL     1      -7.825   5.634  63.722  1.00  0.00    -0.108 C  
BRANCH  22  27
HETATM   27  C   UNL     1      -8.493   8.030  63.609  1.00  0.00     0.159 C  
BRANCH  27  28
HETATM   28  C   UNL     1      -8.662   9.393  64.196  1.00  0.00    -0.224 C  
HETATM   29  C   UNL     1      -9.862   9.970  64.354  1.00  0.00    -0.203 C  
ENDBRANCH  27  28
ENDBRANCH  22  27
ENDBRANCH   3  22
BRANCH   4  30
HETATM   30  O   UNL     1      -6.349   5.260  68.000  1.00  0.00    -0.036 OA 
BRANCH  30  31
HETATM   31  C   UNL     1      -5.877   4.643  69.110  1.00  0.00    -0.017 C  
HETATM   32  C   UNL     1      -6.260   5.476  70.314  1.00  0.00    -0.026 C  
HETATM   33  O   UNL     1      -5.450   3.499  69.136  1.00  0.00    -0.012 OA 
ENDBRANCH  30  31
ENDBRANCH   4  30
BRANCH   5  34
HETATM   34  N   UNL     1      -9.824  13.294  65.872  1.00  0.00    -0.262 NA 
HETATM   35  C   UNL     1     -10.877  13.519  64.874  1.00  0.00    -0.362 C  
HETATM   36  C   UNL     1     -11.995  14.394  65.431  1.00  0.00    -0.369 C  
HETATM   37  O   UNL     1     -11.486  15.687  65.778  1.00  0.00    -0.064 OA 
HETATM   38  C   UNL     1     -10.412  15.596  66.722  1.00  0.00    -0.297 C  
HETATM   39  C   UNL     1      -9.315  14.599  66.301  1.00  0.00    -0.262 C  
ENDBRANCH   5  34
TORSDOF 6
ENDMDL
MODEL       74
REMARK 921   NORMALIZED FREE ENERGY PREDICTED BY IDOCK:   -2.54 KCAL/MOL
REMARK 922        TOTAL FREE ENERGY PREDICTED BY IDOCK:   -3.72 KCAL/MOL
REMARK 923 INTER-LIGAND FREE ENERGY PREDICTED BY IDOCK:   -4.98 KCAL/MOL
REMARK 924 INTRA-LIGAND FREE ENERGY PREDICTED BY IDOCK:    1.26 KCAL/MOL
REMARK 927      BINDING AFFINITY PREDICTED BY RF-SCORE:    0.00 PKD
ROOT
HETATM    1  C   UNL     1      -7.077   4.819  70.411  1.00  0.00    -0.049 C  
HETATM    2  C   UNL     1      -6.642   6.191  70.544  1.00  0.00    -0.048 C  
HETATM    3  C   UNL     1      -8.152   6.271  70.665  1.00  0.00    -0.113 C  
HETATM    4  C   UNL     1      -9.070   4.410  70.846  1.00  0.00    -0.129 C  
HETATM    5  C   UNL     1      -8.287   7.958  65.508  1.00  0.00    -0.147 C  
HETATM    6  C   UNL     1      -7.711   6.999  64.438  1.00  0.00    -0.113 C  
HETATM    7  C   UNL     1      -6.934   5.922  65.177  1.00  0.00    -0.059 C  
HETATM    8  C   UNL     1      -7.912   4.916  65.759  1.00  0.00    -0.106 C  
HETATM    9  C   UNL     1      -8.406   5.256  71.656  1.00  0.00    -0.118 C  
HETATM   10  C   UNL     1     -10.117   5.765  70.777  1.00  0.00    -0.260 C  
HETATM   11  C   UNL     1      -8.003   4.827  73.082  1.00  0.00    -0.100 C  
HETATM   12  C   UNL     1      -7.152   3.765  66.437  1.00  0.00    -0.063 C  
HETATM   13  C   UNL     1      -9.051   5.552  66.620  1.00  0.00    -0.126 C  
HETATM   14  C   UNL     1     -10.343   4.758  66.291  1.00  0.00    -0.329 C  
HETATM   15  C   UNL     1     -10.119   5.503  69.057  1.00  0.00    -0.275 C  
HETATM   16  C   UNL     1      -9.381   7.124  66.263  1.00  0.00    -0.154 C  
HETATM   17  H   UNL     1      -7.308   8.268  63.042  1.00  0.00     0.000 HD 
HETATM   18  O   UNL     1      -6.822   7.594  63.504  1.00  0.00    -0.057 OA 
HETATM   19  C   UNL     1      -6.541   4.136  67.792  1.00  0.00    -0.042 C  
HETATM   20  C   UNL     1      -8.735   5.481  68.173  1.00  0.00    -0.102 C  
HETATM   21  C   UNL     1      -7.665   4.448  68.776  1.00  0.00    -0.066 C  
ENDROOT
BRANCH   3  22
HETATM   22  N   UNL     1      -8.595   7.747  71.691  1.00  0.00    -0.114 N  
HETATM   23  C   UNL     1      -9.576   7.764  74.003  1.00  0.00     0.082 C  
HETATM   24  C   UNL     1      -8.081   7.881  74.098  1.00  0.00    -0.290 C  
HETATM   25  C   UNL     1      -9.931   7.687  72.540  1.00  0.00    -0.208 C  
HETATM   26  C   UNL     1      -7.566   8.240  72.723  1.00  0.00    -0.113 C  
BRANCH  22  27
HETATM   27  C   UNL     1      -8.743   8.974  70.656  1.00  0.00    -0.213 C  
BRANCH  27  28
HETATM   28  C   UNL     1     -10.097   9.186  70.060  1.00  0.00    -0.230 C  
HETATM   29  C   UNL     1     -10.885  10.215  70.402  1.00  0.00    -0.365 C  
ENDBRANCH  27  28
ENDBRANCH  22  27
ENDBRANCH   3  22
BRANCH   4  30
HETATM   30  O   UNL     1      -9.864   3.854  72.083  1.00  0.00    -0.151 OA 
BRANCH  30  31
HETATM   31  C   UNL     1     -10.352   2.603  72.257  1.00  0.00    -0.065 C  
HETATM   32  C   UNL     1      -9.379   1.624  71.637  1.00  0.00    -0.165 C  
HETATM   33  O   UNL     1     -11.276   2.319  73.003  1.00  0.00    -0.109 OA 
ENDBRANCH  30  31
ENDBRANCH   4  30
BRANCH   5  34
HETATM   34  N   UNL     1      -8.586   9.337  65.050  1.00  0.00    -0.166 NA 
HETATM   35  C   UNL     1      -7.546  10.373  65.081  1.00  0.00    -0.103 C  
HETATM   36  C   UNL     1      -6.673  10.324  63.831  1.00  0.00    -0.065 C  
HETATM   37  O   UNL     1      -7.463  10.581  62.664  1.00  0.00    -0.142 OA 
HETATM   38  C   UNL     1      -8.549   9.654  62.547  1.00  0.00    -0.200 C  
HETATM   39  C   UNL     1      -9.384   9.527  63.835  1.00  0.00     0.091 C  
ENDBRANCH   5  34
TORSDOF 6
ENDMDL
MODEL       75
REMARK 921   NORMALIZED FREE ENERGY PREDICTED BY IDOCK:   -2.48 KCAL/MOL
REMARK 922        TOTAL FREE ENERGY PREDICTED BY IDOCK:   -3.65 KCAL/MOL
REMARK 923 INTER-LIGAND FREE ENERGY PREDICTED BY IDOCK:   -5.54 KCAL/MOL
REMARK 924 INTRA-LIGAND FREE ENERGY PREDICTED BY IDOCK:    1.89 KCAL/MOL
REMARK 927      BINDING AFFINITY PREDICTED BY RF-SCORE:    0.00 PKD
ROOT
HETATM    1  C   UNL     1      -9.910  15.828  69.526  1.00  0.00    -0.283 C  
HETATM    2  C   UNL     1      -8.717  15.472  70.262  1.00  0.00     0.896 C  
HETATM    3  C   UNL     1      -8.252  15.540  68.819  1.00  0.00    -0.177 C  
HETATM    4  C   UNL     1      -9.667  16.358  67.528  1.00  0.00    -0.231 C  
HETATM    5  C   UNL     1      -8.475  10.119  68.688  1.00  0.00    -0.122 C  
HETATM    6  C   UNL     1      -9.850   9.463  68.959  1.00  0.00    -0.169 C  
HETATM    7  C   UNL     1     -10.754  10.544  69.530  1.00  0.00    -0.291 C  
HETATM    8  C   UNL     1     -11.240  11.434  68.398  1.00  0.00    -0.324 C  
HETATM    9  C   UNL     1      -8.772  16.824  68.420  1.00  0.00    -0.236 C  
HETATM   10  C   UNL     1      -8.217  15.802  66.805  1.00  0.00    -0.302 C  
HETATM   11  C   UNL     1      -8.761  18.313  68.820  1.00  0.00    -0.238 C  
HETATM   12  C   UNL     1     -12.227  12.483  68.932  1.00  0.00    -0.002 C  
HETATM   13  C   UNL     1     -10.098  12.002  67.493  1.00  0.00    -0.205 C  
HETATM   14  C   UNL     1     -10.634  11.961  66.038  1.00  0.00    -0.304 C  
HETATM   15  C   UNL     1      -9.050  14.286  66.620  1.00  0.00    -0.249 C  
HETATM   16  C   UNL     1      -8.717  11.108  67.495  1.00  0.00    -0.129 C  
HETATM   17  H   UNL     1      -9.275   7.714  69.531  1.00  0.00     0.000 HD 
HETATM   18  O   UNL     1      -9.840   8.389  69.888  1.00  0.00    -0.182 OA 
HETATM   19  C   UNL     1     -11.563  13.626  69.707  1.00  0.00    -0.322 C  
HETATM   20  C   UNL     1      -9.698  13.483  67.898  1.00  0.00    -0.225 C  
HETATM   21  C   UNL     1     -10.677  14.424  68.754  1.00  0.00    -0.258 C  
ENDROOT
BRANCH   3  22
HETATM   22  N   UNL     1      -6.453  15.973  68.790  1.00  0.00    -0.115 N  
HETATM   23  C   UNL     1      -5.138  16.919  66.870  1.00  0.00    -0.149 C  
HETATM   24  C   UNL     1      -5.612  18.042  67.748  1.00  0.00    -0.149 C  
HETATM   25  C   UNL     1      -5.628  15.631  67.481  1.00  0.00    -0.041 C  
HETATM   26  C   UNL     1      -6.061  17.436  69.058  1.00  0.00    -0.202 C  
BRANCH  22  27
HETATM   27  C   UNL     1      -5.783  15.151  70.004  1.00  0.00    -0.129 C  
BRANCH  27  28
HETATM   28  C   UNL     1      -5.870  13.661  69.930  1.00  0.00    -0.124 C  
HETATM   29  C   UNL     1      -5.425  12.861  70.910  1.00  0.00    -0.185 C  
ENDBRANCH  27  28
ENDBRANCH  22  27
ENDBRANCH   3  22
BRANCH   4  30
HETATM   30  O   UNL     1      -9.559  17.702  66.723  1.00  0.00    -0.273 OA 
BRANCH  30  31
HETATM   31  C   UNL     1     -10.473  18.234  65.876  1.00  0.00    -0.307 C  
HETATM   32  C   UNL     1     -10.968  17.134  64.961  1.00  0.00     0.097 C  
HETATM   33  O   UNL     1     -10.979  19.337  66.009  1.00  0.00    -0.299 OA 
ENDBRANCH  30  31
ENDBRANCH   4  30
BRANCH   5  34
HETATM   34  N   UNL     1      -7.311   9.199  68.670  1.00  0.00    -0.075 NA 
HETATM   35  C   UNL     1      -5.942   9.731  68.694  1.00  0.00    -0.042 C  
HETATM   36  C   UNL     1      -5.482  10.018  70.120  1.00  0.00    -0.044 C  
HETATM   37  O   UNL     1      -5.458   8.809  70.887  1.00  0.00    -0.028 OA 
HETATM   38  C   UNL     1      -6.739   8.167  70.900  1.00  0.00    -0.038 C  
HETATM   39  C   UNL     1      -7.345   7.989  69.495  1.00  0.00    -0.086 C  
ENDBRANCH   5  34
TORSDOF 6
ENDMDL
MODEL       76
REMARK 921   NORMALIZED FREE ENERGY PREDICTED BY IDOCK:   -2.37 KCAL/MOL
REMARK 922        TOTAL FREE ENERGY PREDICTED BY IDOCK:   -3.50 KCAL/MOL
REMARK 923 INTER-LIGAND FREE ENERGY PREDICTED BY IDOCK:   -3.58 KCAL/MOL
REMARK 924 INTRA-LIGAND FREE ENERGY PREDICTED BY IDOCK:    0.08 KCAL/MOL
REMARK 927      BINDING AFFINITY PREDICTED BY RF-SCORE:    0.00 PKD
ROOT
HETATM    1  C   UNL     1      -8.319  12.691  69.131  1.00  0.00     0.595 C  
HETATM    2  C   UNL     1      -9.544  13.343  69.541  1.00  0.00     1.141 C  
HETATM    3  C   UNL     1      -9.542  13.482  68.030  1.00  0.00    -0.221 C  
HETATM    4  C   UNL     1      -8.064  12.352  67.094  1.00  0.00    -0.167 C  
HETATM    5  C   UNL     1      -7.878  18.605  68.692  1.00  0.00    -0.321 C  
HETATM    6  C   UNL     1      -6.532  18.820  69.425  1.00  0.00    -0.262 C  
HETATM    7  C   UNL     1      -6.165  17.497  70.079  1.00  0.00    -0.022 C  
HETATM    8  C   UNL     1      -5.605  16.561  69.022  1.00  0.00    -0.130 C  
HETATM    9  C   UNL     1      -9.279  12.123  67.627  1.00  0.00    -0.181 C  
HETATM   10  C   UNL     1      -9.021  13.338  66.072  1.00  0.00     0.343 C  
HETATM   11  C   UNL     1      -9.803  10.684  67.805  1.00  0.00    -0.187 C  
HETATM   12  C   UNL     1      -5.141  15.246  69.668  1.00  0.00    -0.090 C  
HETATM   13  C   UNL     1      -6.518  16.392  67.764  1.00  0.00    -0.158 C  
HETATM   14  C   UNL     1      -5.568  16.346  66.538  1.00  0.00     0.556 C  
HETATM   15  C   UNL     1      -7.805  14.554  66.334  1.00  0.00     1.187 C  
HETATM   16  C   UNL     1      -7.548  17.647  67.495  1.00  0.00    -0.210 C  
HETATM   17  H   UNL     1      -6.776  20.631  70.040  1.00  0.00     0.000 HD 
HETATM   18  O   UNL     1      -6.547  19.805  70.448  1.00  0.00    -0.231 OA 
HETATM   19  C   UNL     1      -6.287  14.309  70.063  1.00  0.00    -0.150 C  
HETATM   20  C   UNL     1      -7.397  15.073  67.838  1.00  0.00    -0.156 C  
HETATM   21  C   UNL     1      -7.012  13.848  68.801  1.00  0.00    -0.108 C  
ENDROOT
BRANCH   3  22
HETATM   22  N   UNL     1     -11.292  13.591  67.436  1.00  0.00    -0.298 N  
HETATM   23  C   UNL     1     -12.093  14.252  65.150  1.00  0.00    -0.410 C  
HETATM   24  C   UNL     1     -11.988  12.755  65.225  1.00  0.00    -0.473 C  
HETATM   25  C   UNL     1     -11.681  14.802  66.491  1.00  0.00    -0.271 C  
HETATM   26  C   UNL     1     -11.873  12.381  66.685  1.00  0.00    -0.325 C  
BRANCH  22  27
HETATM   27  C   UNL     1     -12.200  13.712  68.763  1.00  0.00    -0.169 C  
BRANCH  27  28
HETATM   28  C   UNL     1     -12.523  15.094  69.229  1.00  0.00    -0.014 C  
HETATM   29  C   UNL     1     -12.521  15.440  70.524  1.00  0.00    -0.468 C  
ENDBRANCH  27  28
ENDBRANCH  22  27
ENDBRANCH   3  22
BRANCH   4  30
HETATM   30  O   UNL     1      -8.266  11.137  66.119  1.00  0.00    -0.169 OA 
BRANCH  30  31
HETATM   31  C   UNL     1      -7.309  10.373  65.541  1.00  0.00    -0.139 C  
HETATM   32  C   UNL     1      -5.957  10.902  65.970  1.00  0.00    -0.133 C  
HETATM   33  O   UNL     1      -7.517   9.304  64.988  1.00  0.00    -0.102 OA 
ENDBRANCH  30  31
ENDBRANCH   4  30
BRANCH   5  34
HETATM   34  N   UNL     1      -8.696  19.823  68.468  1.00  0.00    -0.281 NA 
HETATM   35  C   UNL     1      -8.416  20.708  67.331  1.00  0.00    -0.213 C  
HETATM   36  C   UNL     1      -9.102  20.215  66.060  1.00  0.00    -0.155 C  
HETATM   37  O   UNL     1     -10.524  20.216  66.232  1.00  0.00    -0.423 OA 
HETATM   38  C   UNL     1     -10.921  19.415  67.351  1.00  0.00    -0.334 C  
HETATM   39  C   UNL     1     -10.149  19.747  68.642  1.00  0.00    -0.440 C  
ENDBRANCH   5  34
TORSDOF 6
ENDMDL
MODEL       77
REMARK 921   NORMALIZED FREE ENERGY PREDICTED BY IDOCK:   -2.35 KCAL/MOL
REMARK 922        TOTAL FREE ENERGY PREDICTED BY IDOCK:   -3.47 KCAL/MOL
REMARK 923 INTER-LIGAND FREE ENERGY PREDICTED BY IDOCK:   -4.20 KCAL/MOL
REMARK 924 INTRA-LIGAND FREE ENERGY PREDICTED BY IDOCK:    0.73 KCAL/MOL
REMARK 927      BINDING AFFINITY PREDICTED BY RF-SCORE:    0.00 PKD
ROOT
HETATM    1  C   UNL     1      -9.607   7.858  66.400  1.00  0.00    -0.251 C  
HETATM    2  C   UNL     1      -8.646   8.828  66.878  1.00  0.00    -0.120 C  
HETATM    3  C   UNL     1      -7.808   7.601  66.569  1.00  0.00    -0.105 C  
HETATM    4  C   UNL     1      -8.852   6.120  65.541  1.00  0.00    -0.051 C  
HETATM    5  C   UNL     1      -7.746   6.533  71.890  1.00  0.00    -0.098 C  
HETATM    6  C   UNL     1      -9.113   6.302  72.578  1.00  0.00    -0.141 C  
HETATM    7  C   UNL     1     -10.185   6.770  71.607  1.00  0.00    -0.208 C  
HETATM    8  C   UNL     1     -10.382   5.708  70.538  1.00  0.00    -0.327 C  
HETATM    9  C   UNL     1      -8.256   7.288  65.235  1.00  0.00    -0.126 C  
HETATM   10  C   UNL     1      -7.236   5.745  65.971  1.00  0.00    -0.072 C  
HETATM   11  C   UNL     1      -8.420   7.912  63.835  1.00  0.00     0.186 C  
HETATM   12  C   UNL     1     -11.524   6.111  69.591  1.00  0.00    -0.332 C  
HETATM   13  C   UNL     1      -9.063   5.259  69.828  1.00  0.00    -0.150 C  
HETATM   14  C   UNL     1      -9.179   3.725  69.622  1.00  0.00    -0.222 C  
HETATM   15  C   UNL     1      -7.920   5.093  67.432  1.00  0.00    -0.100 C  
HETATM   16  C   UNL     1      -7.697   5.496  70.713  1.00  0.00    -0.091 C  
HETATM   17  H   UNL     1      -8.638   6.718  74.400  1.00  0.00     0.000 HD 
HETATM   18  O   UNL     1      -9.309   7.010  73.794  1.00  0.00    -0.171 OA 
HETATM   19  C   UNL     1     -11.147   7.215  68.597  1.00  0.00    -0.005 C  
HETATM   20  C   UNL     1      -8.855   5.993  68.438  1.00  0.00    -0.112 C  
HETATM   21  C   UNL     1     -10.071   6.687  67.652  1.00  0.00    -0.192 C  
ENDROOT
BRANCH   3  22
HETATM   22  N   UNL     1      -6.089   8.140  66.141  1.00  0.00    -0.044 N  
HETATM   23  C   UNL     1      -5.161   8.625  63.859  1.00  0.00    -0.052 C  
HETATM   24  C   UNL     1      -5.636   9.907  64.484  1.00  0.00    -0.090 C  
HETATM   25  C   UNL     1      -5.415   7.518  64.849  1.00  0.00    -0.033 C  
HETATM   26  C   UNL     1      -5.833   9.646  65.960  1.00  0.00    -0.061 C  
BRANCH  22  27
HETATM   27  C   UNL     1      -5.173   7.728  67.402  1.00  0.00    -0.031 C  
BRANCH  27  28
HETATM   28  C   UNL     1      -5.750   7.976  68.758  1.00  0.00    -0.031 C  
HETATM   29  C   UNL     1      -5.901   9.207  69.266  1.00  0.00    -0.035 C  
ENDBRANCH  27  28
ENDBRANCH  22  27
ENDBRANCH   3  22
BRANCH   4  30
HETATM   30  O   UNL     1      -8.588   5.605  64.081  1.00  0.00    -0.075 OA 
BRANCH  30  31
HETATM   31  C   UNL     1      -9.035   4.459  63.515  1.00  0.00    -0.139 C  
HETATM   32  C   UNL     1     -10.164   3.919  64.366  1.00  0.00    -0.239 C  
HETATM   33  O   UNL     1      -8.743   4.084  62.390  1.00  0.00    -0.084 OA 
ENDBRANCH  30  31
ENDBRANCH   4  30
BRANCH   5  34
HETATM   34  N   UNL     1      -6.581   6.687  72.796  1.00  0.00    -0.063 NA 
HETATM   35  C   UNL     1      -5.391   7.426  72.358  1.00  0.00    -0.037 C  
HETATM   36  C   UNL     1      -5.553   8.926  72.581  1.00  0.00    -0.082 C  
HETATM   37  O   UNL     1      -5.709   9.206  73.977  1.00  0.00    -0.170 OA 
HETATM   38  C   UNL     1      -6.824   8.499  74.535  1.00  0.00    -0.163 C  
HETATM   39  C   UNL     1      -6.815   6.994  74.210  1.00  0.00    -0.085 C  
ENDBRANCH   5  34
TORSDOF 6
ENDMDL
MODEL       78
REMARK 921   NORMALIZED FREE ENERGY PREDICTED BY IDOCK:   -2.35 KCAL/MOL
REMARK 922        TOTAL FREE ENERGY PREDICTED BY IDOCK:   -3.47 KCAL/MOL
REMARK 923 INTER-LIGAND FREE ENERGY PREDICTED BY IDOCK:   -4.41 KCAL/MOL
REMARK 924 INTRA-LIGAND FREE ENERGY PREDICTED BY IDOCK:    0.94 KCAL/MOL
REMARK 927      BINDING AFFINITY PREDICTED BY RF-SCORE:    0.00 PKD
ROOT
HETATM    1  C   UNL     1      -9.800  15.743  69.548  1.00  0.00    -0.283 C  
HETATM    2  C   UNL     1      -8.645  15.039  70.061  1.00  0.00     0.436 C  
HETATM    3  C   UNL     1      -8.130  15.727  68.810  1.00  0.00    -0.179 C  
HETATM    4  C   UNL     1      -9.472  17.103  68.007  1.00  0.00    -0.262 C  
HETATM    5  C   UNL     1      -8.539  10.961  66.245  1.00  0.00    -0.164 C  
HETATM    6  C   UNL     1      -9.945  10.319  66.172  1.00  0.00    -0.238 C  
HETATM    7  C   UNL     1     -10.829  11.068  67.157  1.00  0.00    -0.336 C  
HETATM    8  C   UNL     1     -11.245  12.393  66.541  1.00  0.00    -0.368 C  
HETATM    9  C   UNL     1      -8.591  17.076  69.026  1.00  0.00    -0.126 C  
HETATM   10  C   UNL     1      -8.018  16.866  67.131  1.00  0.00    -0.210 C  
HETATM   11  C   UNL     1      -8.541  18.223  70.054  1.00  0.00     1.952 C  
HETATM   12  C   UNL     1     -12.212  13.135  67.477  1.00  0.00    -0.169 C  
HETATM   13  C   UNL     1     -10.054  13.254  66.005  1.00  0.00    -0.301 C  
HETATM   14  C   UNL     1     -10.542  13.897  64.680  1.00  0.00    -0.432 C  
HETATM   15  C   UNL     1      -8.898  15.636  66.271  1.00  0.00    -0.364 C  
HETATM   16  C   UNL     1      -8.706  12.392  65.623  1.00  0.00     0.676 C  
HETATM   17  H   UNL     1      -9.451   8.475  65.901  1.00  0.00     0.000 HD 
HETATM   18  O   UNL     1     -10.004   8.942  66.517  1.00  0.00    -0.250 OA 
HETATM   19  C   UNL     1     -11.534  13.774  68.693  1.00  0.00    -0.336 C  
HETATM   20  C   UNL     1      -9.616  14.374  67.040  1.00  0.00    -0.251 C  
HETATM   21  C   UNL     1     -10.589  14.874  68.214  1.00  0.00    -0.240 C  
ENDROOT
BRANCH   3  22
HETATM   22  N   UNL     1      -6.316  16.043  69.004  1.00  0.00    -0.133 N  
HETATM   23  C   UNL     1      -5.188  18.233  69.488  1.00  0.00    -0.192 C  
HETATM   24  C   UNL     1      -5.413  17.497  70.778  1.00  0.00    -0.139 C  
HETATM   25  C   UNL     1      -5.722  17.370  68.374  1.00  0.00    -0.154 C  
HETATM   26  C   UNL     1      -5.738  16.062  70.429  1.00  0.00    -0.104 C  
BRANCH  22  27
HETATM   27  C   UNL     1      -5.575  14.803  68.288  1.00  0.00    -0.117 C  
BRANCH  27  28
HETATM   28  C   UNL     1      -6.156  13.447  68.529  1.00  0.00    -0.085 C  
HETATM   29  C   UNL     1      -5.821  12.694  69.586  1.00  0.00    -0.114 C  
ENDBRANCH  27  28
ENDBRANCH  22  27
ENDBRANCH   3  22
BRANCH   4  30
HETATM   30  O   UNL     1      -9.290  18.659  67.896  1.00  0.00    -0.287 OA 
BRANCH  30  31
HETATM   31  C   UNL     1      -9.886  19.501  67.018  1.00  0.00    -0.360 C  
HETATM   32  C   UNL     1     -10.586  18.669  65.965  1.00  0.00    -0.410 C  
HETATM   33  O   UNL     1     -10.038  20.698  67.203  1.00  0.00    -0.396 OA 
ENDBRANCH  30  31
ENDBRANCH   4  30
BRANCH   5  34
HETATM   34  N   UNL     1      -7.408  10.095  65.830  1.00  0.00    -0.121 NA 
HETATM   35  C   UNL     1      -6.032  10.607  65.853  1.00  0.00    -0.133 C  
HETATM   36  C   UNL     1      -5.411  10.471  67.240  1.00  0.00    -0.040 C  
HETATM   37  O   UNL     1      -5.334   9.091  67.616  1.00  0.00    -0.034 OA 
HETATM   38  C   UNL     1      -6.621   8.464  67.586  1.00  0.00    -0.058 C  
HETATM   39  C   UNL     1      -7.383   8.697  66.268  1.00  0.00    -0.086 C  
ENDBRANCH   5  34
TORSDOF 6
ENDMDL
MODEL       79
REMARK 921   NORMALIZED FREE ENERGY PREDICTED BY IDOCK:   -2.35 KCAL/MOL
REMARK 922        TOTAL FREE ENERGY PREDICTED BY IDOCK:   -3.47 KCAL/MOL
REMARK 923 INTER-LIGAND FREE ENERGY PREDICTED BY IDOCK:   -3.59 KCAL/MOL
REMARK 924 INTRA-LIGAND FREE ENERGY PREDICTED BY IDOCK:    0.12 KCAL/MOL
REMARK 927      BINDING AFFINITY PREDICTED BY RF-SCORE:    0.00 PKD
ROOT
HETATM    1  C   UNL     1      -9.676  10.111  68.617  1.00  0.00    -0.167 C  
HETATM    2  C   UNL     1      -9.029  10.667  69.785  1.00  0.00     0.275 C  
HETATM    3  C   UNL     1      -7.925   9.898  69.084  1.00  0.00    -0.112 C  
HETATM    4  C   UNL     1      -8.449   9.244  67.178  1.00  0.00    -0.124 C  
HETATM    5  C   UNL     1      -8.639   5.929  72.716  1.00  0.00    -0.122 C  
HETATM    6  C   UNL     1     -10.037   5.268  72.771  1.00  0.00    -0.168 C  
HETATM    7  C   UNL     1     -10.982   6.157  71.978  1.00  0.00    -0.305 C  
HETATM    8  C   UNL     1     -10.765   5.910  70.495  1.00  0.00    -0.363 C  
HETATM    9  C   UNL     1      -8.047  10.400  67.739  1.00  0.00    -0.103 C  
HETATM   10  C   UNL     1      -6.898   8.775  67.738  1.00  0.00    -0.070 C  
HETATM   11  C   UNL     1      -8.070  11.715  66.933  1.00  0.00    -0.164 C  
HETATM   12  C   UNL     1     -11.768   6.729  69.667  1.00  0.00    -0.164 C  
HETATM   13  C   UNL     1      -9.276   6.031  70.035  1.00  0.00    -0.160 C  
HETATM   14  C   UNL     1      -9.048   4.903  68.994  1.00  0.00    -0.150 C  
HETATM   15  C   UNL     1      -7.699   7.357  68.351  1.00  0.00    -0.120 C  
HETATM   16  C   UNL     1      -8.170   5.780  71.226  1.00  0.00    -0.122 C  
HETATM   17  H   UNL     1      -9.999   4.566  74.567  1.00  0.00     0.000 HD 
HETATM   18  O   UNL     1     -10.590   5.121  74.071  1.00  0.00    -0.264 OA 
HETATM   19  C   UNL     1     -11.438   8.224  69.591  1.00  0.00     0.341 C  
HETATM   20  C   UNL     1      -8.962   7.449  69.397  1.00  0.00    -0.139 C  
HETATM   21  C   UNL     1     -10.124   8.405  68.836  1.00  0.00    -0.209 C  
ENDROOT
BRANCH   3  22
HETATM   22  N   UNL     1      -6.297  10.677  69.499  1.00  0.00    -0.059 N  
HETATM   23  C   UNL     1      -5.129  12.530  68.271  1.00  0.00    -0.062 C  
HETATM   24  C   UNL     1      -5.935  13.112  69.397  1.00  0.00    -0.102 C  
HETATM   25  C   UNL     1      -5.319  11.035  68.305  1.00  0.00    -0.039 C  
HETATM   26  C   UNL     1      -6.310  11.976  70.322  1.00  0.00     0.111 C  
BRANCH  22  27
HETATM   27  C   UNL     1      -5.530   9.616  70.441  1.00  0.00    -0.039 C  
BRANCH  27  28
HETATM   28  C   UNL     1      -6.276   9.122  71.637  1.00  0.00    -0.056 C  
HETATM   29  C   UNL     1      -5.714   9.025  72.851  1.00  0.00    -0.055 C  
ENDBRANCH  27  28
ENDBRANCH  22  27
ENDBRANCH   3  22
BRANCH   4  30
HETATM   30  O   UNL     1      -7.823   9.694  65.809  1.00  0.00    -0.102 OA 
BRANCH  30  31
HETATM   31  C   UNL     1      -8.278   9.420  64.563  1.00  0.00    -0.147 C  
HETATM   32  C   UNL     1      -9.728   9.846  64.483  1.00  0.00    -0.223 C  
HETATM   33  O   UNL     1      -7.565   9.125  63.616  1.00  0.00    -0.107 OA 
ENDBRANCH  30  31
ENDBRANCH   4  30
BRANCH   5  34
HETATM   34  N   UNL     1      -7.715   5.587  73.826  1.00  0.00    -0.101 NA 
HETATM   35  C   UNL     1      -7.529   4.189  74.233  1.00  0.00    -0.075 C  
HETATM   36  C   UNL     1      -6.483   3.491  73.368  1.00  0.00    -0.029 C  
HETATM   37  O   UNL     1      -5.209   4.129  73.520  1.00  0.00    -0.003 OA 
HETATM   38  C   UNL     1      -5.274   5.522  73.192  1.00  0.00    -0.018 C  
HETATM   39  C   UNL     1      -6.419   6.264  73.908  1.00  0.00    -0.070 C  
ENDBRANCH   5  34
TORSDOF 6
ENDMDL
MODEL       80
REMARK 921   NORMALIZED FREE ENERGY PREDICTED BY IDOCK:   -2.33 KCAL/MOL
REMARK 922        TOTAL FREE ENERGY PREDICTED BY IDOCK:   -3.44 KCAL/MOL
REMARK 923 INTER-LIGAND FREE ENERGY PREDICTED BY IDOCK:   -3.16 KCAL/MOL
REMARK 924 INTRA-LIGAND FREE ENERGY PREDICTED BY IDOCK:   -0.28 KCAL/MOL
REMARK 927      BINDING AFFINITY PREDICTED BY RF-SCORE:    0.00 PKD
ROOT
HETATM    1  C   UNL     1      -9.704  11.257  66.480  1.00  0.00    -0.230 C  
HETATM    2  C   UNL     1     -10.810  10.357  66.726  1.00  0.00    -0.186 C  
HETATM    3  C   UNL     1      -9.803  10.008  67.806  1.00  0.00    -0.157 C  
HETATM    4  C   UNL     1      -8.222  11.357  67.937  1.00  0.00    -0.132 C  
HETATM    5  C   UNL     1      -8.381   5.701  64.825  1.00  0.00    -0.128 C  
HETATM    6  C   UNL     1      -7.829   5.977  63.406  1.00  0.00    -0.107 C  
HETATM    7  C   UNL     1      -8.141   7.430  63.083  1.00  0.00    -0.032 C  
HETATM    8  C   UNL     1      -7.143   8.322  63.801  1.00  0.00    -0.081 C  
HETATM    9  C   UNL     1      -9.505  11.313  68.341  1.00  0.00    -0.192 C  
HETATM   10  C   UNL     1      -8.151  10.006  68.988  1.00  0.00    -0.118 C  
HETATM   11  C   UNL     1     -10.185  12.560  68.942  1.00  0.00    -0.012 C  
HETATM   12  C   UNL     1      -7.376   9.794  63.422  1.00  0.00    -0.125 C  
HETATM   13  C   UNL     1      -7.023   8.047  65.335  1.00  0.00    -0.063 C  
HETATM   14  C   UNL     1      -5.517   8.178  65.685  1.00  0.00    -0.032 C  
HETATM   15  C   UNL     1      -7.268   9.228  67.707  1.00  0.00    -0.083 C  
HETATM   16  C   UNL     1      -7.466   6.530  65.793  1.00  0.00    -0.082 C  
HETATM   17  H   UNL     1      -8.197   4.278  62.573  1.00  0.00     0.000 HD 
HETATM   18  O   UNL     1      -8.392   5.186  62.370  1.00  0.00    -0.093 OA 
HETATM   19  C   UNL     1      -8.603  10.421  64.092  1.00  0.00    -0.186 C  
HETATM   20  C   UNL     1      -7.885   9.065  66.193  1.00  0.00    -0.102 C  
HETATM   21  C   UNL     1      -8.374  10.475  65.600  1.00  0.00    -0.167 C  
ENDROOT
BRANCH   3  22
HETATM   22  N   UNL     1     -10.709   9.331  69.272  1.00  0.00    -0.219 N  
HETATM   23  C   UNL     1     -11.331  10.545  71.381  1.00  0.00     0.399 C  
HETATM   24  C   UNL     1     -12.487  10.593  70.422  1.00  0.00    -0.421 C  
HETATM   25  C   UNL     1     -10.222   9.772  70.715  1.00  0.00    -0.181 C  
HETATM   26  C   UNL     1     -12.228   9.561  69.348  1.00  0.00     1.096 C  
BRANCH  22  27
HETATM   27  C   UNL     1     -10.551   7.729  69.186  1.00  0.00    -0.183 C  
BRANCH  27  28
HETATM   28  C   UNL     1     -11.401   6.922  70.112  1.00  0.00    -0.364 C  
HETATM   29  C   UNL     1     -11.092   5.667  70.469  1.00  0.00    -0.199 C  
ENDBRANCH  27  28
ENDBRANCH  22  27
ENDBRANCH   3  22
BRANCH   4  30
HETATM   30  O   UNL     1      -7.880  12.314  69.135  1.00  0.00     0.118 OA 
BRANCH  30  31
HETATM   31  C   UNL     1      -6.816  13.143  69.253  1.00  0.00    -0.024 C  
HETATM   32  C   UNL     1      -5.607  12.449  68.665  1.00  0.00    -0.054 C  
HETATM   33  O   UNL     1      -6.891  14.326  69.547  1.00  0.00    -0.131 OA 
ENDBRANCH  30  31
ENDBRANCH   4  30
BRANCH   5  34
HETATM   34  N   UNL     1      -8.700   4.285  65.132  1.00  0.00    -0.122 NA 
HETATM   35  C   UNL     1      -7.628   3.331  65.443  1.00  0.00    -0.077 C  
HETATM   36  C   UNL     1      -7.240   3.391  66.918  1.00  0.00    -0.063 C  
HETATM   37  O   UNL     1      -8.355   3.025  67.739  1.00  0.00    -0.078 OA 
HETATM   38  C   UNL     1      -9.490   3.863  67.491  1.00  0.00    -0.190 C  
HETATM   39  C   UNL     1      -9.844   3.984  65.997  1.00  0.00    -0.166 C  
ENDBRANCH   5  34
TORSDOF 6
ENDMDL
MODEL       81
REMARK 921   NORMALIZED FREE ENERGY PREDICTED BY IDOCK:   -2.18 KCAL/MOL
REMARK 922        TOTAL FREE ENERGY PREDICTED BY IDOCK:   -3.25 KCAL/MOL
REMARK 923 INTER-LIGAND FREE ENERGY PREDICTED BY IDOCK:   -3.03 KCAL/MOL
REMARK 924 INTRA-LIGAND FREE ENERGY PREDICTED BY IDOCK:   -0.22 KCAL/MOL
REMARK 927      BINDING AFFINITY PREDICTED BY RF-SCORE:    0.00 PKD
ROOT
HETATM    1  C   UNL     1     -11.494  10.230  67.481  1.00  0.00     0.210 C  
HETATM    2  C   UNL     1     -11.534   8.815  67.776  1.00  0.00     1.307 C  
HETATM    3  C   UNL     1     -10.635   9.390  68.855  1.00  0.00    -0.208 C  
HETATM    4  C   UNL     1     -10.634  11.472  68.912  1.00  0.00    -0.204 C  
HETATM    5  C   UNL     1      -6.381   7.568  66.019  1.00  0.00    -0.042 C  
HETATM    6  C   UNL     1      -6.204   8.117  64.583  1.00  0.00    -0.056 C  
HETATM    7  C   UNL     1      -7.504   8.812  64.209  1.00  0.00    -0.108 C  
HETATM    8  C   UNL     1      -7.546  10.175  64.879  1.00  0.00    -0.138 C  
HETATM    9  C   UNL     1     -11.443  10.483  69.336  1.00  0.00    -0.329 C  
HETATM   10  C   UNL     1      -9.582  10.686  70.013  1.00  0.00     0.465 C  
HETATM   11  C   UNL     1     -12.844  10.797  69.899  1.00  0.00     0.016 C  
HETATM   12  C   UNL     1      -8.808  10.940  64.448  1.00  0.00    -0.070 C  
HETATM   13  C   UNL     1      -7.289  10.141  66.421  1.00  0.00    -0.108 C  
HETATM   14  C   UNL     1      -6.416  11.383  66.745  1.00  0.00    -0.140 C  
HETATM   15  C   UNL     1      -8.392  10.805  68.749  1.00  0.00    -0.147 C  
HETATM   16  C   UNL     1      -6.434   8.836  66.942  1.00  0.00    -0.061 C  
HETATM   17  H   UNL     1      -5.137   6.704  63.820  1.00  0.00     0.000 HD 
HETATM   18  O   UNL     1      -5.948   7.139  63.586  1.00  0.00    -0.042 OA 
HETATM   19  C   UNL     1     -10.096  10.440  65.111  1.00  0.00    -0.379 C  
HETATM   20  C   UNL     1      -8.640  10.179  67.252  1.00  0.00    -0.125 C  
HETATM   21  C   UNL     1     -10.017  10.701  66.613  1.00  0.00    -0.259 C  
ENDROOT
BRANCH   3  22
HETATM   22  N   UNL     1     -10.739   8.314  70.358  1.00  0.00    -0.229 N  
HETATM   23  C   UNL     1     -11.995   8.773  72.484  1.00  0.00    -0.301 C  
HETATM   24  C   UNL     1     -12.852   7.943  71.570  1.00  0.00    -0.340 C  
HETATM   25  C   UNL     1     -10.685   9.015  71.778  1.00  0.00    -0.367 C  
HETATM   26  C   UNL     1     -11.954   7.381  70.492  1.00  0.00    -0.108 C  
BRANCH  22  27
HETATM   27  C   UNL     1      -9.476   7.316  70.272  1.00  0.00    -0.165 C  
BRANCH  27  28
HETATM   28  C   UNL     1      -8.374   7.545  71.255  1.00  0.00    -0.111 C  
HETATM   29  C   UNL     1      -7.177   8.033  70.899  1.00  0.00    -0.053 C  
ENDBRANCH  27  28
ENDBRANCH  22  27
ENDBRANCH   3  22
BRANCH   4  30
HETATM   30  O   UNL     1     -11.162  12.395  70.068  1.00  0.00    -0.000 OA 
BRANCH  30  31
HETATM   31  C   UNL     1     -11.598  13.674  69.971  1.00  0.00    -0.180 C  
HETATM   32  C   UNL     1     -10.748  14.388  68.942  1.00  0.00    -0.260 C  
HETATM   33  O   UNL     1     -12.646  14.085  70.444  1.00  0.00    -0.336 OA 
ENDBRANCH  30  31
ENDBRANCH   4  30
BRANCH   5  34
HETATM   34  N   UNL     1      -5.519   6.417  66.384  1.00  0.00    -0.013 NA 
HETATM   35  C   UNL     1      -5.207   6.138  67.791  1.00  0.00    -0.004 C  
HETATM   36  C   UNL     1      -6.306   5.312  68.453  1.00  0.00    -0.035 C  
HETATM   37  O   UNL     1      -6.426   4.039  67.807  1.00  0.00    -0.036 OA 
HETATM   38  C   UNL     1      -6.689   4.182  66.406  1.00  0.00    -0.050 C  
HETATM   39  C   UNL     1      -5.711   5.137  65.697  1.00  0.00    -0.018 C  
ENDBRANCH   5  34
TORSDOF 6
ENDMDL
MODEL       82
REMARK 921   NORMALIZED FREE ENERGY PREDICTED BY IDOCK:   -2.05 KCAL/MOL
REMARK 922        TOTAL FREE ENERGY PREDICTED BY IDOCK:   -3.07 KCAL/MOL
REMARK 923 INTER-LIGAND FREE ENERGY PREDICTED BY IDOCK:   -5.40 KCAL/MOL
REMARK 924 INTRA-LIGAND FREE ENERGY PREDICTED BY IDOCK:    2.33 KCAL/MOL
REMARK 927      BINDING AFFINITY PREDICTED BY RF-SCORE:    0.00 PKD
ROOT
HETATM    1  C   UNL     1      -6.569   8.029  71.729  1.00  0.00    -0.052 C  
HETATM    2  C   UNL     1      -7.902   8.315  72.213  1.00  0.00    -0.176 C  
HETATM    3  C   UNL     1      -8.134   7.473  70.972  1.00  0.00    -0.100 C  
HETATM    4  C   UNL     1      -6.395   6.613  70.215  1.00  0.00    -0.039 C  
HETATM    5  C   UNL     1      -9.297  12.057  68.309  1.00  0.00    -0.197 C  
HETATM    6  C   UNL     1      -8.186  13.132  68.238  1.00  0.00    -0.154 C  
HETATM    7  C   UNL     1      -7.121  12.739  69.250  1.00  0.00     0.103 C  
HETATM    8  C   UNL     1      -6.274  11.620  68.667  1.00  0.00    -0.053 C  
HETATM    9  C   UNL     1      -7.252   6.360  71.222  1.00  0.00    -0.079 C  
HETATM   10  C   UNL     1      -7.827   6.335  69.317  1.00  0.00    -0.105 C  
HETATM   11  C   UNL     1      -6.934   5.280  72.275  1.00  0.00    -0.080 C  
HETATM   12  C   UNL     1      -5.132  11.260  69.631  1.00  0.00    -0.041 C  
HETATM   13  C   UNL     1      -7.098  10.401  68.137  1.00  0.00    -0.082 C  
HETATM   14  C   UNL     1      -6.398   9.937  66.832  1.00  0.00    -0.065 C  
HETATM   15  C   UNL     1      -7.394   7.774  68.441  1.00  0.00    -0.095 C  
HETATM   16  C   UNL     1      -8.649  10.754  67.720  1.00  0.00    -0.127 C  
HETATM   17  H   UNL     1      -9.264  14.699  67.922  1.00  0.00     0.000 HD 
HETATM   18  O   UNL     1      -8.598  14.454  68.554  1.00  0.00    -0.168 OA 
HETATM   19  C   UNL     1      -5.579  10.451  70.852  1.00  0.00    -0.092 C  
HETATM   20  C   UNL     1      -7.155   9.216  69.190  1.00  0.00    -0.062 C  
HETATM   21  C   UNL     1      -6.092   9.090  70.387  1.00  0.00    -0.037 C  
ENDROOT
BRANCH   3  22
HETATM   22  N   UNL     1      -9.741   6.571  71.151  1.00  0.00    -0.174 N  
HETATM   23  C   UNL     1     -10.145   4.104  70.915  1.00  0.00    -0.119 C  
HETATM   24  C   UNL     1      -9.924   4.433  72.364  1.00  0.00    -0.232 C  
HETATM   25  C   UNL     1     -10.047   5.391  70.138  1.00  0.00    -0.252 C  
HETATM   26  C   UNL     1     -10.058   5.932  72.514  1.00  0.00    -0.179 C  
BRANCH  22  27
HETATM   27  C   UNL     1     -10.893   7.681  70.952  1.00  0.00    -0.241 C  
BRANCH  27  28
HETATM   28  C   UNL     1     -12.074   7.590  71.862  1.00  0.00    -0.338 C  
HETATM   29  C   UNL     1     -13.309   7.312  71.420  1.00  0.00    -0.399 C  
ENDBRANCH  27  28
ENDBRANCH  22  27
ENDBRANCH   3  22
BRANCH   4  30
HETATM   30  O   UNL     1      -6.043   5.084  70.136  1.00  0.00    -0.020 OA 
BRANCH  30  31
HETATM   31  C   UNL     1      -6.048   4.290  69.038  1.00  0.00    -0.027 C  
HETATM   32  C   UNL     1      -7.108   3.226  69.227  1.00  0.00    -0.045 C  
HETATM   33  O   UNL     1      -5.476   4.554  67.992  1.00  0.00    -0.014 OA 
ENDBRANCH  30  31
ENDBRANCH   4  30
BRANCH   5  34
HETATM   34  N   UNL     1     -10.645  12.487  67.861  1.00  0.00    -0.213 NA 
HETATM   35  C   UNL     1     -10.882  13.874  67.445  1.00  0.00    -0.285 C  
HETATM   36  C   UNL     1     -10.510  14.089  65.981  1.00  0.00    -0.304 C  
HETATM   37  O   UNL     1     -11.326  13.269  65.137  1.00  0.00    -0.292 OA 
HETATM   38  C   UNL     1     -11.213  11.883  65.479  1.00  0.00    -0.299 C  
HETATM   39  C   UNL     1     -11.417  11.607  66.980  1.00  0.00    -0.262 C  
ENDBRANCH   5  34
TORSDOF 6
ENDMDL
MODEL       83
REMARK 921   NORMALIZED FREE ENERGY PREDICTED BY IDOCK:   -1.97 KCAL/MOL
REMARK 922        TOTAL FREE ENERGY PREDICTED BY IDOCK:   -2.97 KCAL/MOL
REMARK 923 INTER-LIGAND FREE ENERGY PREDICTED BY IDOCK:   -3.49 KCAL/MOL
REMARK 924 INTRA-LIGAND FREE ENERGY PREDICTED BY IDOCK:    0.53 KCAL/MOL
REMARK 927      BINDING AFFINITY PREDICTED BY RF-SCORE:    0.00 PKD
ROOT
HETATM    1  C   UNL     1      -9.546   6.246  65.803  1.00  0.00     0.206 C  
HETATM    2  C   UNL     1      -8.402   7.117  65.964  1.00  0.00    -0.134 C  
HETATM    3  C   UNL     1      -7.821   5.720  66.082  1.00  0.00    -0.101 C  
HETATM    4  C   UNL     1      -9.163   4.214  65.564  1.00  0.00    -0.149 C  
HETATM    5  C   UNL     1      -7.734   6.414  71.464  1.00  0.00    -0.100 C  
HETATM    6  C   UNL     1      -9.090   6.678  72.163  1.00  0.00    -0.138 C  
HETATM    7  C   UNL     1     -10.097   7.005  71.071  1.00  0.00    -0.206 C  
HETATM    8  C   UNL     1     -10.532   5.715  70.396  1.00  0.00    -0.355 C  
HETATM    9  C   UNL     1      -8.374   5.089  64.910  1.00  0.00    -0.142 C  
HETATM   10  C   UNL     1      -7.628   3.698  66.123  1.00  0.00    -0.081 C  
HETATM   11  C   UNL     1      -8.479   5.253  63.381  1.00  0.00    -0.092 C  
HETATM   12  C   UNL     1     -11.617   6.003  69.347  1.00  0.00     0.178 C  
HETATM   13  C   UNL     1      -9.350   4.822  69.895  1.00  0.00    -0.207 C  
HETATM   14  C   UNL     1      -9.757   3.354  70.190  1.00  0.00    -0.125 C  
HETATM   15  C   UNL     1      -8.359   3.688  67.702  1.00  0.00    -0.099 C  
HETATM   16  C   UNL     1      -7.927   5.067  70.683  1.00  0.00    -0.083 C  
HETATM   17  H   UNL     1      -8.470   7.556  73.764  1.00  0.00     0.000 HD 
HETATM   18  O   UNL     1      -9.100   7.760  73.082  1.00  0.00    -0.172 OA 
HETATM   19  C   UNL     1     -11.085   6.640  68.059  1.00  0.00    -0.296 C  
HETATM   20  C   UNL     1      -9.068   5.021  68.347  1.00  0.00    -0.137 C  
HETATM   21  C   UNL     1     -10.166   5.644  67.355  1.00  0.00    -0.249 C  
ENDROOT
BRANCH   3  22
HETATM   22  N   UNL     1      -6.051   5.760  65.539  1.00  0.00    -0.028 N  
HETATM   23  C   UNL     1      -5.146   5.309  63.240  1.00  0.00    -0.009 C  
HETATM   24  C   UNL     1      -5.348   6.788  63.412  1.00  0.00    -0.027 C  
HETATM   25  C   UNL     1      -5.559   4.644  64.528  1.00  0.00    -0.014 C  
HETATM   26  C   UNL     1      -5.528   7.053  64.889  1.00  0.00    -0.032 C  
BRANCH  22  27
HETATM   27  C   UNL     1      -5.175   5.605  66.883  1.00  0.00    -0.005 C  
BRANCH  27  28
HETATM   28  C   UNL     1      -5.664   6.340  68.089  1.00  0.00    -0.012 C  
HETATM   29  C   UNL     1      -5.423   7.643  68.289  1.00  0.00    -0.027 C  
ENDBRANCH  27  28
ENDBRANCH  22  27
ENDBRANCH   3  22
BRANCH   4  30
HETATM   30  O   UNL     1      -9.060   3.221  64.351  1.00  0.00    -0.119 OA 
BRANCH  30  31
HETATM   31  C   UNL     1     -10.074   2.715  63.609  1.00  0.00    -0.153 C  
HETATM   32  C   UNL     1      -9.524   1.591  62.758  1.00  0.00    -0.089 C  
HETATM   33  O   UNL     1     -11.256   2.960  63.795  1.00  0.00    -0.241 OA 
ENDBRANCH  30  31
ENDBRANCH   4  30
BRANCH   5  34
HETATM   34  N   UNL     1      -6.524   6.626  72.296  1.00  0.00    -0.057 NA 
HETATM   35  C   UNL     1      -6.650   6.943  73.724  1.00  0.00    -0.067 C  
HETATM   36  C   UNL     1      -6.803   5.678  74.564  1.00  0.00    -0.080 C  
HETATM   37  O   UNL     1      -5.639   4.853  74.435  1.00  0.00    -0.020 OA 
HETATM   38  C   UNL     1      -5.384   4.512  73.067  1.00  0.00    -0.008 C  
HETATM   39  C   UNL     1      -5.376   5.731  72.126  1.00  0.00    -0.021 C  
ENDBRANCH   5  34
TORSDOF 6
ENDMDL
MODEL       84
REMARK 921   NORMALIZED FREE ENERGY PREDICTED BY IDOCK:   -1.97 KCAL/MOL
REMARK 922        TOTAL FREE ENERGY PREDICTED BY IDOCK:   -2.96 KCAL/MOL
REMARK 923 INTER-LIGAND FREE ENERGY PREDICTED BY IDOCK:   -4.16 KCAL/MOL
REMARK 924 INTRA-LIGAND FREE ENERGY PREDICTED BY IDOCK:    1.20 KCAL/MOL
REMARK 927      BINDING AFFINITY PREDICTED BY RF-SCORE:    0.00 PKD
ROOT
HETATM    1  C   UNL     1      -7.633   7.978  71.990  1.00  0.00    -0.108 C  
HETATM    2  C   UNL     1      -8.984   8.479  72.125  1.00  0.00    -0.300 C  
HETATM    3  C   UNL     1      -8.975   7.806  70.765  1.00  0.00    -0.148 C  
HETATM    4  C   UNL     1      -7.256   6.687  70.402  1.00  0.00    -0.080 C  
HETATM    5  C   UNL     1      -8.533  12.736  68.538  1.00  0.00    -0.044 C  
HETATM    6  C   UNL     1      -7.290  13.574  68.922  1.00  0.00    -0.045 C  
HETATM    7  C   UNL     1      -6.649  12.895  70.123  1.00  0.00     0.311 C  
HETATM    8  C   UNL     1      -5.864  11.684  69.647  1.00  0.00    -0.091 C  
HETATM    9  C   UNL     1      -8.401   6.525  71.092  1.00  0.00    -0.122 C  
HETATM   10  C   UNL     1      -8.386   6.773  69.117  1.00  0.00    -0.125 C  
HETATM   11  C   UNL     1      -8.589   5.318  72.034  1.00  0.00    -0.130 C  
HETATM   12  C   UNL     1      -5.131  11.028  70.828  1.00  0.00    -0.098 C  
HETATM   13  C   UNL     1      -6.684  10.700  68.750  1.00  0.00    -0.055 C  
HETATM   14  C   UNL     1      -5.717  10.218  67.636  1.00  0.00    -0.045 C  
HETATM   15  C   UNL     1      -7.484   8.167  68.598  1.00  0.00    -0.098 C  
HETATM   16  C   UNL     1      -7.964  11.386  67.976  1.00  0.00    -0.127 C  
HETATM   17  H   UNL     1      -7.954  15.343  68.540  1.00  0.00     0.000 HD 
HETATM   18  O   UNL     1      -7.553  14.920  69.290  1.00  0.00    -0.157 OA 
HETATM   19  C   UNL     1      -6.045  10.223  71.757  1.00  0.00     0.555 C  
HETATM   20  C   UNL     1      -7.242   9.466  69.575  1.00  0.00    -0.067 C  
HETATM   21  C   UNL     1      -6.614   9.034  70.988  1.00  0.00    -0.080 C  
ENDROOT
BRANCH   3  22
HETATM   22  N   UNL     1     -10.689   7.225  70.372  1.00  0.00    -0.230 N  
HETATM   23  C   UNL     1     -12.646   7.063  71.937  1.00  0.00    -0.331 C  
HETATM   24  C   UNL     1     -12.697   8.379  71.214  1.00  0.00    -0.208 C  
HETATM   25  C   UNL     1     -11.430   6.322  71.441  1.00  0.00    -0.293 C  
HETATM   26  C   UNL     1     -11.749   8.289  70.040  1.00  0.00     0.316 C  
BRANCH  22  27
HETATM   27  C   UNL     1     -10.559   6.355  69.021  1.00  0.00    -0.257 C  
BRANCH  27  28
HETATM   28  C   UNL     1     -10.926   7.040  67.745  1.00  0.00    -0.234 C  
HETATM   29  C   UNL     1     -11.230   6.369  66.625  1.00  0.00     0.058 C  
ENDBRANCH  27  28
ENDBRANCH  22  27
ENDBRANCH   3  22
BRANCH   4  30
HETATM   30  O   UNL     1      -7.153   5.131  70.214  1.00  0.00    -0.051 OA 
BRANCH  30  31
HETATM   31  C   UNL     1      -6.081   4.419  69.790  1.00  0.00    -0.022 C  
HETATM   32  C   UNL     1      -5.160   5.353  69.035  1.00  0.00     0.000 C  
HETATM   33  O   UNL     1      -5.802   3.294  70.175  1.00  0.00    -0.017 OA 
ENDBRANCH  30  31
ENDBRANCH   4  30
BRANCH   5  34
HETATM   34  N   UNL     1      -9.600  13.458  67.802  1.00  0.00    -0.207 NA 
HETATM   35  C   UNL     1      -9.901  13.118  66.406  1.00  0.00    -0.279 C  
HETATM   36  C   UNL     1     -10.867  11.940  66.316  1.00  0.00    -0.282 C  
HETATM   37  O   UNL     1     -12.117  12.276  66.928  1.00  0.00    -0.583 OA 
HETATM   38  C   UNL     1     -11.946  12.673  68.294  1.00  0.00    -0.222 C  
HETATM   39  C   UNL     1     -10.863  13.752  68.484  1.00  0.00    -0.263 C  
ENDBRANCH   5  34
TORSDOF 6
ENDMDL
MODEL       85
REMARK 921   NORMALIZED FREE ENERGY PREDICTED BY IDOCK:   -1.95 KCAL/MOL
REMARK 922        TOTAL FREE ENERGY PREDICTED BY IDOCK:   -2.93 KCAL/MOL
REMARK 923 INTER-LIGAND FREE ENERGY PREDICTED BY IDOCK:   -3.96 KCAL/MOL
REMARK 924 INTRA-LIGAND FREE ENERGY PREDICTED BY IDOCK:    1.03 KCAL/MOL
REMARK 927      BINDING AFFINITY PREDICTED BY RF-SCORE:    0.00 PKD
ROOT
HETATM    1  C   UNL     1      -5.472  10.233  69.177  1.00  0.00    -0.038 C  
HETATM    2  C   UNL     1      -5.244   9.147  68.250  1.00  0.00    -0.037 C  
HETATM    3  C   UNL     1      -6.678   9.564  67.981  1.00  0.00    -0.063 C  
HETATM    4  C   UNL     1      -7.218  11.338  68.930  1.00  0.00    -0.112 C  
HETATM    5  C   UNL     1      -8.275   5.283  70.910  1.00  0.00    -0.112 C  
HETATM    6  C   UNL     1      -7.818   5.230  72.388  1.00  0.00    -0.102 C  
HETATM    7  C   UNL     1      -6.728   6.277  72.555  1.00  0.00    -0.069 C  
HETATM    8  C   UNL     1      -7.370   7.650  72.653  1.00  0.00    -0.091 C  
HETATM    9  C   UNL     1      -6.528  10.989  67.827  1.00  0.00    -0.063 C  
HETATM   10  C   UNL     1      -8.455  10.545  68.048  1.00  0.00    -0.120 C  
HETATM   11  C   UNL     1      -5.742  12.045  67.024  1.00  0.00    -0.123 C  
HETATM   12  C   UNL     1      -6.300   8.722  72.911  1.00  0.00    -0.021 C  
HETATM   13  C   UNL     1      -8.365   7.978  71.491  1.00  0.00    -0.139 C  
HETATM   14  C   UNL     1      -9.553   8.739  72.137  1.00  0.00    -0.325 C  
HETATM   15  C   UNL     1      -8.815   9.735  69.545  1.00  0.00    -0.202 C  
HETATM   16  C   UNL     1      -9.015   6.658  70.756  1.00  0.00    -0.151 C  
HETATM   17  H   UNL     1      -7.958   3.334  72.709  1.00  0.00     0.000 HD 
HETATM   18  O   UNL     1      -7.276   3.988  72.813  1.00  0.00    -0.061 OA 
HETATM   19  C   UNL     1      -5.458   9.070  71.679  1.00  0.00    -0.053 C  
HETATM   20  C   UNL     1      -7.689   8.859  70.359  1.00  0.00    -0.098 C  
HETATM   21  C   UNL     1      -6.357   9.714  70.628  1.00  0.00    -0.097 C  
ENDROOT
BRANCH   3  22
HETATM   22  N   UNL     1      -7.100   9.161  66.224  1.00  0.00    -0.086 N  
HETATM   23  C   UNL     1      -9.365   9.221  65.142  1.00  0.00    -0.239 C  
HETATM   24  C   UNL     1      -8.663  10.527  64.897  1.00  0.00    -0.192 C  
HETATM   25  C   UNL     1      -8.434   8.352  65.948  1.00  0.00    -0.148 C  
HETATM   26  C   UNL     1      -7.202  10.325  65.224  1.00  0.00    -0.134 C  
BRANCH  22  27
HETATM   27  C   UNL     1      -5.877   8.265  65.673  1.00  0.00    -0.044 C  
BRANCH  27  28
HETATM   28  C   UNL     1      -6.108   7.536  64.390  1.00  0.00    -0.038 C  
HETATM   29  C   UNL     1      -5.224   6.664  63.884  1.00  0.00    -0.026 C  
ENDBRANCH  27  28
ENDBRANCH  22  27
ENDBRANCH   3  22
BRANCH   4  30
HETATM   30  O   UNL     1      -7.604  12.702  68.253  1.00  0.00    -0.116 OA 
BRANCH  30  31
HETATM   31  C   UNL     1      -7.448  13.949  68.760  1.00  0.00    -0.114 C  
HETATM   32  C   UNL     1      -8.344  14.891  67.984  1.00  0.00    -0.147 C  
HETATM   33  O   UNL     1      -6.882  14.202  69.812  1.00  0.00    -0.106 OA 
ENDBRANCH  30  31
ENDBRANCH   4  30
BRANCH   5  34
HETATM   34  N   UNL     1      -8.889   4.042  70.377  1.00  0.00    -0.078 NA 
HETATM   35  C   UNL     1      -9.454   4.015  69.022  1.00  0.00    -0.173 C  
HETATM   36  C   UNL     1      -8.380   3.737  67.975  1.00  0.00    -0.092 C  
HETATM   37  O   UNL     1      -7.797   2.447  68.194  1.00  0.00    -0.058 OA 
HETATM   38  C   UNL     1      -7.246   2.334  69.512  1.00  0.00    -0.043 C  
HETATM   39  C   UNL     1      -8.227   2.758  70.621  1.00  0.00    -0.049 C  
ENDBRANCH   5  34
TORSDOF 6
ENDMDL
MODEL       86
REMARK 921   NORMALIZED FREE ENERGY PREDICTED BY IDOCK:   -1.89 KCAL/MOL
REMARK 922        TOTAL FREE ENERGY PREDICTED BY IDOCK:   -2.84 KCAL/MOL
REMARK 923 INTER-LIGAND FREE ENERGY PREDICTED BY IDOCK:   -3.02 KCAL/MOL
REMARK 924 INTRA-LIGAND FREE ENERGY PREDICTED BY IDOCK:    0.17 KCAL/MOL
REMARK 927      BINDING AFFINITY PREDICTED BY RF-SCORE:    0.00 PKD
ROOT
HETATM    1  C   UNL     1      -8.110  12.494  65.665  1.00  0.00     1.843 C  
HETATM    2  C   UNL     1      -9.262  11.669  65.373  1.00  0.00    -0.077 C  
HETATM    3  C   UNL     1      -9.622  12.357  66.677  1.00  0.00    -0.229 C  
HETATM    4  C   UNL     1      -8.302  13.878  67.207  1.00  0.00    -0.185 C  
HETATM    5  C   UNL     1      -8.336   7.750  69.243  1.00  0.00    -0.136 C  
HETATM    6  C   UNL     1      -6.883   7.240  69.090  1.00  0.00    -0.061 C  
HETATM    7  C   UNL     1      -6.253   8.027  67.951  1.00  0.00    -0.051 C  
HETATM    8  C   UNL     1      -5.868   9.407  68.456  1.00  0.00    -0.041 C  
HETATM    9  C   UNL     1      -9.335  13.732  66.355  1.00  0.00    -0.215 C  
HETATM   10  C   UNL     1      -9.558  13.545  68.324  1.00  0.00    -0.218 C  
HETATM   11  C   UNL     1      -9.666  14.829  65.324  1.00  0.00    -0.117 C  
HETATM   12  C   UNL     1      -5.147  10.195  67.352  1.00  0.00    -0.037 C  
HETATM   13  C   UNL     1      -7.028  10.177  69.168  1.00  0.00    -0.062 C  
HETATM   14  C   UNL     1      -6.387  10.913  70.374  1.00  0.00    -0.090 C  
HETATM   15  C   UNL     1      -8.433  12.433  69.049  1.00  0.00     0.420 C  
HETATM   16  C   UNL     1      -8.204   9.214  69.795  1.00  0.00    -0.128 C  
HETATM   17  H   UNL     1      -7.147   5.371  69.483  1.00  0.00     0.000 HD 
HETATM   18  O   UNL     1      -6.753   5.862  68.772  1.00  0.00    -0.058 OA 
HETATM   19  C   UNL     1      -6.078  10.724  66.255  1.00  0.00    -0.126 C  
HETATM   20  C   UNL     1      -7.738  11.212  68.198  1.00  0.00    -0.107 C  
HETATM   21  C   UNL     1      -7.028  11.752  66.863  1.00  0.00    -0.101 C  
ENDROOT
BRANCH   3  22
HETATM   22  N   UNL     1     -11.465  12.500  66.790  1.00  0.00    -0.340 N  
HETATM   23  C   UNL     1     -12.919  14.313  65.838  1.00  0.00    -0.059 C  
HETATM   24  C   UNL     1     -12.855  13.168  64.867  1.00  0.00    -0.349 C  
HETATM   25  C   UNL     1     -12.084  13.938  67.035  1.00  0.00    -0.415 C  
HETATM   26  C   UNL     1     -12.300  11.974  65.610  1.00  0.00     0.453 C  
BRANCH  22  27
HETATM   27  C   UNL     1     -11.903  11.574  68.035  1.00  0.00    -0.217 C  
BRANCH  27  28
HETATM   28  C   UNL     1     -11.227  10.247  68.151  1.00  0.00    -0.294 C  
HETATM   29  C   UNL     1     -10.860   9.526  67.082  1.00  0.00    -0.156 C  
ENDBRANCH  27  28
ENDBRANCH  22  27
ENDBRANCH   3  22
BRANCH   4  30
HETATM   30  O   UNL     1      -8.610  15.415  67.312  1.00  0.00    -0.171 OA 
BRANCH  30  31
HETATM   31  C   UNL     1      -7.939  16.345  68.031  1.00  0.00    -0.156 C  
HETATM   32  C   UNL     1      -6.638  15.731  68.503  1.00  0.00    -0.115 C  
HETATM   33  O   UNL     1      -8.224  17.532  68.064  1.00  0.00    -0.225 OA 
ENDBRANCH  30  31
ENDBRANCH   4  30
BRANCH   5  34
HETATM   34  N   UNL     1      -9.294   6.803  69.866  1.00  0.00    -0.157 NA 
HETATM   35  C   UNL     1      -9.073   6.313  71.232  1.00  0.00    -0.146 C  
HETATM   36  C   UNL     1      -9.619   7.289  72.270  1.00  0.00    -0.146 C  
HETATM   37  O   UNL     1     -11.037   7.432  72.117  1.00  0.00    -0.233 OA 
HETATM   38  C   UNL     1     -11.384   7.866  70.797  1.00  0.00    -0.274 C  
HETATM   39  C   UNL     1     -10.731   7.022  69.686  1.00  0.00    -0.241 C  
ENDBRANCH   5  34
TORSDOF 6
ENDMDL
MODEL       87
REMARK 921   NORMALIZED FREE ENERGY PREDICTED BY IDOCK:   -1.82 KCAL/MOL
REMARK 922        TOTAL FREE ENERGY PREDICTED BY IDOCK:   -2.75 KCAL/MOL
REMARK 923 INTER-LIGAND FREE ENERGY PREDICTED BY IDOCK:   -5.56 KCAL/MOL
REMARK 924 INTRA-LIGAND FREE ENERGY PREDICTED BY IDOCK:    2.80 KCAL/MOL
REMARK 927      BINDING AFFINITY PREDICTED BY RF-SCORE:    0.00 PKD
ROOT
HETATM    1  C   UNL     1      -9.833  17.845  68.577  1.00  0.00    -0.367 C  
HETATM    2  C   UNL     1      -9.012  17.427  69.692  1.00  0.00     0.875 C  
HETATM    3  C   UNL     1      -8.064  17.401  68.507  1.00  0.00    -0.270 C  
HETATM    4  C   UNL     1      -8.857  18.273  66.790  1.00  0.00    -0.276 C  
HETATM    5  C   UNL     1      -8.693  12.012  68.361  1.00  0.00    -0.147 C  
HETATM    6  C   UNL     1     -10.127  11.476  68.133  1.00  0.00    -0.193 C  
HETATM    7  C   UNL     1     -11.077  12.646  68.336  1.00  0.00    -0.297 C  
HETATM    8  C   UNL     1     -11.054  13.524  67.096  1.00  0.00    -0.308 C  
HETATM    9  C   UNL     1      -8.297  18.704  67.936  1.00  0.00    -0.293 C  
HETATM   10  C   UNL     1      -7.298  17.579  66.634  1.00  0.00    -0.273 C  
HETATM   11  C   UNL     1      -8.299  20.203  68.299  1.00  0.00    -0.087 C  
HETATM   12  C   UNL     1     -12.072  14.667  67.234  1.00  0.00    -0.216 C  
HETATM   13  C   UNL     1      -9.622  13.965  66.649  1.00  0.00    -0.297 C  
HETATM   14  C   UNL     1      -9.612  13.907  65.099  1.00  0.00     0.207 C  
HETATM   15  C   UNL     1      -8.141  16.125  66.181  1.00  0.00    -0.047 C  
HETATM   16  C   UNL     1      -8.412  12.969  67.150  1.00  0.00    -0.176 C  
HETATM   17  H   UNL     1      -9.944   9.712  68.890  1.00  0.00     0.000 HD 
HETATM   18  O   UNL     1     -10.538  10.443  69.017  1.00  0.00    -0.194 OA 
HETATM   19  C   UNL     1     -11.627  15.785  68.182  1.00  0.00    -0.259 C  
HETATM   20  C   UNL     1      -9.264  15.426  67.154  1.00  0.00    -0.226 C  
HETATM   21  C   UNL     1     -10.397  16.474  67.597  1.00  0.00    -0.291 C  
ENDROOT
BRANCH   3  22
HETATM   22  N   UNL     1      -6.339  17.693  69.113  1.00  0.00    -0.222 N  
HETATM   23  C   UNL     1      -5.130  19.886  69.291  1.00  0.00    -0.205 C  
HETATM   24  C   UNL     1      -5.767  19.563  70.613  1.00  0.00    -0.259 C  
HETATM   25  C   UNL     1      -5.452  18.758  68.346  1.00  0.00    -0.191 C  
HETATM   26  C   UNL     1      -6.153  18.101  70.584  1.00  0.00     0.424 C  
BRANCH  22  27
HETATM   27  C   UNL     1      -5.586  16.272  68.995  1.00  0.00    -0.116 C  
BRANCH  27  28
HETATM   28  C   UNL     1      -6.355  15.069  69.433  1.00  0.00    -0.124 C  
HETATM   29  C   UNL     1      -6.262  14.561  70.671  1.00  0.00    -0.141 C  
ENDBRANCH  27  28
ENDBRANCH  22  27
ENDBRANCH   3  22
BRANCH   4  30
HETATM   30  O   UNL     1      -8.356  19.572  66.061  1.00  0.00    -0.359 OA 
BRANCH  30  31
HETATM   31  C   UNL     1      -7.204  19.739  65.368  1.00  0.00    -0.174 C  
HETATM   32  C   UNL     1      -6.602  21.070  65.763  1.00  0.00    -0.110 C  
HETATM   33  O   UNL     1      -6.641  18.855  64.741  1.00  0.00    -0.501 OA 
ENDBRANCH  30  31
ENDBRANCH   4  30
BRANCH   5  34
HETATM   34  N   UNL     1      -7.682  11.005  68.766  1.00  0.00    -0.127 NA 
HETATM   35  C   UNL     1      -7.842   9.596  68.387  1.00  0.00    -0.085 C  
HETATM   36  C   UNL     1      -7.302   9.332  66.984  1.00  0.00    -0.091 C  
HETATM   37  O   UNL     1      -5.897   9.605  66.934  1.00  0.00    -0.050 OA 
HETATM   38  C   UNL     1      -5.607  10.951  67.331  1.00  0.00    -0.045 C  
HETATM   39  C   UNL     1      -6.260  11.346  68.670  1.00  0.00    -0.048 C  
ENDBRANCH   5  34
TORSDOF 6
ENDMDL
MODEL       88
REMARK 921   NORMALIZED FREE ENERGY PREDICTED BY IDOCK:   -1.69 KCAL/MOL
REMARK 922        TOTAL FREE ENERGY PREDICTED BY IDOCK:   -2.59 KCAL/MOL
REMARK 923 INTER-LIGAND FREE ENERGY PREDICTED BY IDOCK:   -5.84 KCAL/MOL
REMARK 924 INTRA-LIGAND FREE ENERGY PREDICTED BY IDOCK:    3.26 KCAL/MOL
REMARK 927      BINDING AFFINITY PREDICTED BY RF-SCORE:    0.00 PKD
ROOT
HETATM    1  C   UNL     1     -11.384  11.973  67.124  1.00  0.00    -0.396 C  
HETATM    2  C   UNL     1     -10.661  12.045  65.873  1.00  0.00    -0.314 C  
HETATM    3  C   UNL     1      -9.601  11.663  66.889  1.00  0.00    -0.186 C  
HETATM    4  C   UNL     1     -10.381  11.152  68.752  1.00  0.00    -0.205 C  
HETATM    5  C   UNL     1      -7.979  16.842  66.867  1.00  0.00    -0.213 C  
HETATM    6  C   UNL     1      -9.018  17.907  67.294  1.00  0.00    -0.250 C  
HETATM    7  C   UNL     1     -10.377  17.226  67.303  1.00  0.00    -0.331 C  
HETATM    8  C   UNL     1     -10.503  16.389  68.565  1.00  0.00    -0.291 C  
HETATM    9  C   UNL     1     -10.239  10.554  67.553  1.00  0.00    -0.245 C  
HETATM   10  C   UNL     1      -8.672  11.154  68.623  1.00  0.00    -0.153 C  
HETATM   11  C   UNL     1     -10.903   9.191  67.270  1.00  0.00    -0.121 C  
HETATM   12  C   UNL     1     -11.902  15.758  68.647  1.00  0.00    -0.287 C  
HETATM   13  C   UNL     1      -9.316  15.398  68.799  1.00  0.00    -0.209 C  
HETATM   14  C   UNL     1      -9.028  15.417  70.324  1.00  0.00     0.758 C  
HETATM   15  C   UNL     1      -8.772  12.815  69.132  1.00  0.00     0.698 C  
HETATM   16  C   UNL     1      -7.910  15.830  68.064  1.00  0.00    -0.138 C  
HETATM   17  H   UNL     1      -8.270  19.461  66.431  1.00  0.00     0.000 HD 
HETATM   18  O   UNL     1      -9.119  19.036  66.437  1.00  0.00    -0.325 OA 
HETATM   19  C   UNL     1     -12.107  14.574  67.697  1.00  0.00    -0.266 C  
HETATM   20  C   UNL     1      -9.664  13.928  68.317  1.00  0.00    -0.223 C  
HETATM   21  C   UNL     1     -11.179  13.436  68.112  1.00  0.00    -0.304 C  
ENDROOT
BRANCH   3  22
HETATM   22  N   UNL     1      -8.264  10.711  66.031  1.00  0.00    -0.154 N  
HETATM   23  C   UNL     1      -8.355   8.335  65.222  1.00  0.00    -0.175 C  
HETATM   24  C   UNL     1      -8.717   9.258  64.093  1.00  0.00    -0.201 C  
HETATM   25  C   UNL     1      -8.063   9.190  66.428  1.00  0.00    -0.107 C  
HETATM   26  C   UNL     1      -8.296  10.653  64.495  1.00  0.00    -0.043 C  
BRANCH  22  27
HETATM   27  C   UNL     1      -6.889  11.479  66.374  1.00  0.00     0.061 C  
BRANCH  27  28
HETATM   28  C   UNL     1      -5.781  10.648  66.936  1.00  0.00    -0.057 C  
HETATM   29  C   UNL     1      -5.365   9.511  66.359  1.00  0.00    -0.044 C  
ENDBRANCH  27  28
ENDBRANCH  22  27
ENDBRANCH   3  22
BRANCH   4  30
HETATM   30  O   UNL     1     -10.331   9.748  69.454  1.00  0.00    -0.191 OA 
BRANCH  30  31
HETATM   31  C   UNL     1     -10.419   9.484  70.780  1.00  0.00    -0.314 C  
HETATM   32  C   UNL     1     -11.764   8.844  71.047  1.00  0.00    -0.340 C  
HETATM   33  O   UNL     1      -9.477   9.523  71.557  1.00  0.00    -0.206 OA 
ENDBRANCH  30  31
ENDBRANCH   4  30
BRANCH   5  34
HETATM   34  N   UNL     1      -6.731  17.362  66.257  1.00  0.00    -0.256 NA 
HETATM   35  C   UNL     1      -6.777  18.478  65.304  1.00  0.00    -0.084 C  
HETATM   36  C   UNL     1      -6.790  19.824  66.023  1.00  0.00    -0.253 C  
HETATM   37  O   UNL     1      -5.587  19.992  66.783  1.00  0.00    -0.171 OA 
HETATM   38  C   UNL     1      -5.406  18.929  67.725  1.00  0.00    -0.170 C  
HETATM   39  C   UNL     1      -5.543  17.528  67.098  1.00  0.00    -0.136 C  
ENDBRANCH   5  34
TORSDOF 6
ENDMDL
MODEL       89
REMARK 921   NORMALIZED FREE ENERGY PREDICTED BY IDOCK:   -1.62 KCAL/MOL
REMARK 922        TOTAL FREE ENERGY PREDICTED BY IDOCK:   -2.48 KCAL/MOL
REMARK 923 INTER-LIGAND FREE ENERGY PREDICTED BY IDOCK:   -3.92 KCAL/MOL
REMARK 924 INTRA-LIGAND FREE ENERGY PREDICTED BY IDOCK:    1.44 KCAL/MOL
REMARK 927      BINDING AFFINITY PREDICTED BY RF-SCORE:    0.00 PKD
ROOT
HETATM    1  C   UNL     1     -11.937  12.512  67.695  1.00  0.00    -0.287 C  
HETATM    2  C   UNL     1     -11.582  12.628  69.092  1.00  0.00    -0.374 C  
HETATM    3  C   UNL     1     -10.555  13.487  68.378  1.00  0.00    -0.248 C  
HETATM    4  C   UNL     1     -10.988  13.801  66.365  1.00  0.00    -0.298 C  
HETATM    5  C   UNL     1      -7.024   9.405  68.944  1.00  0.00    -0.063 C  
HETATM    6  C   UNL     1      -7.397   8.054  68.288  1.00  0.00    -0.095 C  
HETATM    7  C   UNL     1      -8.867   8.134  67.909  1.00  0.00    -0.131 C  
HETATM    8  C   UNL     1      -9.007   8.955  66.638  1.00  0.00    -0.165 C  
HETATM    9  C   UNL     1     -11.404  14.301  67.544  1.00  0.00    -0.346 C  
HETATM   10  C   UNL     1      -9.517  14.470  66.933  1.00  0.00    -0.263 C  
HETATM   11  C   UNL     1     -12.613  15.256  67.612  1.00  0.00     1.255 C  
HETATM   12  C   UNL     1     -10.474   8.980  66.180  1.00  0.00     0.193 C  
HETATM   13  C   UNL     1      -8.310  10.354  66.697  1.00  0.00    -0.127 C  
HETATM   14  C   UNL     1      -7.672  10.581  65.301  1.00  0.00    -0.085 C  
HETATM   15  C   UNL     1      -8.803  12.957  66.456  1.00  0.00    -0.026 C  
HETATM   16  C   UNL     1      -7.079  10.458  67.782  1.00  0.00    -0.084 C  
HETATM   17  H   UNL     1      -6.319   6.861  69.352  1.00  0.00     0.000 HD 
HETATM   18  O   UNL     1      -7.238   6.911  69.115  1.00  0.00    -0.085 OA 
HETATM   19  C   UNL     1     -11.372   9.898  67.016  1.00  0.00     0.588 C  
HETATM   20  C   UNL     1      -9.335  11.516  67.037  1.00  0.00    -0.185 C  
HETATM   21  C   UNL     1     -10.917  11.343  66.829  1.00  0.00    -0.347 C  
ENDROOT
BRANCH   3  22
HETATM   22  N   UNL     1      -9.979  14.817  69.531  1.00  0.00    -0.087 N  
HETATM   23  C   UNL     1      -7.833  16.115  69.420  1.00  0.00    -0.126 C  
HETATM   24  C   UNL     1      -8.918  16.891  68.727  1.00  0.00    -0.256 C  
HETATM   25  C   UNL     1      -8.447  14.839  69.934  1.00  0.00     0.446 C  
HETATM   26  C   UNL     1     -10.240  16.279  69.129  1.00  0.00    -0.266 C  
BRANCH  22  27
HETATM   27  C   UNL     1     -10.826  14.618  70.888  1.00  0.00     0.356 C  
BRANCH  27  28
HETATM   28  C   UNL     1     -11.819  15.684  71.220  1.00  0.00    -0.473 C  
HETATM   29  C   UNL     1     -12.153  15.995  72.480  1.00  0.00    -0.635 C  
ENDBRANCH  27  28
ENDBRANCH  22  27
ENDBRANCH   3  22
BRANCH   4  30
HETATM   30  O   UNL     1     -11.343  15.162  65.666  1.00  0.00    -0.332 OA 
BRANCH  30  31
HETATM   31  C   UNL     1     -11.659  15.365  64.365  1.00  0.00    -0.264 C  
HETATM   32  C   UNL     1     -12.049  14.035  63.758  1.00  0.00    -0.265 C  
HETATM   33  O   UNL     1     -11.840  16.463  63.861  1.00  0.00    -1.034 OA 
ENDBRANCH  30  31
ENDBRANCH   4  30
BRANCH   5  34
HETATM   34  N   UNL     1      -5.864   9.377  69.870  1.00  0.00    -0.035 NA 
HETATM   35  C   UNL     1      -5.923  10.083  71.156  1.00  0.00    -0.013 C  
HETATM   36  C   UNL     1      -6.590   9.229  72.230  1.00  0.00     0.332 C  
HETATM   37  O   UNL     1      -5.830   8.037  72.459  1.00  0.00    -0.040 OA 
HETATM   38  C   UNL     1      -5.664   7.278  71.255  1.00  0.00    -0.035 C  
HETATM   39  C   UNL     1      -5.144   8.117  70.073  1.00  0.00    -0.023 C  
ENDBRANCH   5  34
TORSDOF 6
ENDMDL
MODEL       90
REMARK 921   NORMALIZED FREE ENERGY PREDICTED BY IDOCK:   -1.38 KCAL/MOL
REMARK 922        TOTAL FREE ENERGY PREDICTED BY IDOCK:   -2.17 KCAL/MOL
REMARK 923 INTER-LIGAND FREE ENERGY PREDICTED BY IDOCK:   -5.95 KCAL/MOL
REMARK 924 INTRA-LIGAND FREE ENERGY PREDICTED BY IDOCK:    3.78 KCAL/MOL
REMARK 927      BINDING AFFINITY PREDICTED BY RF-SCORE:    0.00 PKD
ROOT
HETATM    1  C   UNL     1      -7.246   8.958  70.804  1.00  0.00    -0.083 C  
HETATM    2  C   UNL     1      -8.631   9.303  71.038  1.00  0.00    -0.166 C  
HETATM    3  C   UNL     1      -8.625   8.739  69.629  1.00  0.00    -0.130 C  
HETATM    4  C   UNL     1      -6.823   7.837  69.102  1.00  0.00    -0.049 C  
HETATM    5  C   UNL     1      -8.799  13.842  67.788  1.00  0.00    -0.189 C  
HETATM    6  C   UNL     1      -7.629  14.774  68.183  1.00  0.00    -0.119 C  
HETATM    7  C   UNL     1      -6.861  14.078  69.296  1.00  0.00    -0.105 C  
HETATM    8  C   UNL     1      -5.984  12.995  68.691  1.00  0.00    -0.071 C  
HETATM    9  C   UNL     1      -7.908   7.504  69.826  1.00  0.00    -0.108 C  
HETATM   10  C   UNL     1      -8.021   7.900  67.879  1.00  0.00    -0.128 C  
HETATM   11  C   UNL     1      -7.924   6.217  70.675  1.00  0.00    -0.111 C  
HETATM   12  C   UNL     1      -5.128  12.332  69.782  1.00  0.00    -0.074 C  
HETATM   13  C   UNL     1      -6.746  12.001  67.754  1.00  0.00    -0.096 C  
HETATM   14  C   UNL     1      -5.795  11.709  66.564  1.00  0.00    -0.045 C  
HETATM   15  C   UNL     1      -7.293   9.417  67.435  1.00  0.00    -0.087 C  
HETATM   16  C   UNL     1      -8.127  12.605  67.096  1.00  0.00    -0.141 C  
HETATM   17  H   UNL     1      -8.487  16.488  67.975  1.00  0.00     0.000 HD 
HETATM   18  O   UNL     1      -8.007  16.053  68.670  1.00  0.00    -0.153 OA 
HETATM   19  C   UNL     1      -5.906  11.367  70.683  1.00  0.00    -0.092 C  
HETATM   20  C   UNL     1      -7.133  10.656  68.501  1.00  0.00    -0.069 C  
HETATM   21  C   UNL     1      -6.392  10.187  69.846  1.00  0.00    -0.074 C  
ENDROOT
BRANCH   3  22
HETATM   22  N   UNL     1     -10.289   8.014  69.266  1.00  0.00    -0.218 N  
HETATM   23  C   UNL     1     -11.043   6.897  67.147  1.00  0.00    -0.362 C  
HETATM   24  C   UNL     1     -10.563   5.852  68.114  1.00  0.00    -0.312 C  
HETATM   25  C   UNL     1     -10.898   8.238  67.821  1.00  0.00     0.009 C  
HETATM   26  C   UNL     1     -10.475   6.501  69.476  1.00  0.00    -0.222 C  
BRANCH  22  27
HETATM   27  C   UNL     1     -11.303   8.692  70.321  1.00  0.00    -0.136 C  
BRANCH  27  28
HETATM   28  C   UNL     1     -12.036   7.765  71.234  1.00  0.00    -0.328 C  
HETATM   29  C   UNL     1     -13.133   8.133  71.911  1.00  0.00    -0.349 C  
ENDBRANCH  27  28
ENDBRANCH  22  27
ENDBRANCH   3  22
BRANCH   4  30
HETATM   30  O   UNL     1      -6.573   6.319  68.785  1.00  0.00    -0.050 OA 
BRANCH  30  31
HETATM   31  C   UNL     1      -6.532   5.724  67.569  1.00  0.00    -0.047 C  
HETATM   32  C   UNL     1      -6.071   4.295  67.755  1.00  0.00    -0.032 C  
HETATM   33  O   UNL     1      -7.026   6.191  66.554  1.00  0.00    -0.064 OA 
ENDBRANCH  30  31
ENDBRANCH   4  30
BRANCH   5  34
HETATM   34  N   UNL     1      -9.970  14.502  67.160  1.00  0.00    -0.249 NA 
HETATM   35  C   UNL     1     -11.313  13.926  67.302  1.00  0.00    -0.323 C  
HETATM   36  C   UNL     1     -11.974  14.366  68.605  1.00  0.00    -0.297 C  
HETATM   37  O   UNL     1     -12.142  15.788  68.621  1.00  0.00    -0.269 OA 
HETATM   38  C   UNL     1     -10.893  16.468  68.444  1.00  0.00    -0.348 C  
HETATM   39  C   UNL     1     -10.089  15.961  67.232  1.00  0.00    -0.260 C  
ENDBRANCH   5  34
TORSDOF 6
ENDMDL
MODEL       91
REMARK 921   NORMALIZED FREE ENERGY PREDICTED BY IDOCK:   -1.34 KCAL/MOL
REMARK 922        TOTAL FREE ENERGY PREDICTED BY IDOCK:   -2.10 KCAL/MOL
REMARK 923 INTER-LIGAND FREE ENERGY PREDICTED BY IDOCK:   -3.54 KCAL/MOL
REMARK 924 INTRA-LIGAND FREE ENERGY PREDICTED BY IDOCK:    1.44 KCAL/MOL
REMARK 927      BINDING AFFINITY PREDICTED BY RF-SCORE:    0.00 PKD
ROOT
HETATM    1  C   UNL     1     -10.282  13.668  68.899  1.00  0.00    -0.088 C  
HETATM    2  C   UNL     1     -10.863  14.794  68.202  1.00  0.00    -0.256 C  
HETATM    3  C   UNL     1     -10.184  13.994  67.106  1.00  0.00    -0.258 C  
HETATM    4  C   UNL     1      -9.525  12.120  67.733  1.00  0.00    -0.192 C  
HETATM    5  C   UNL     1      -6.117  17.584  67.264  1.00  0.00    -0.138 C  
HETATM    6  C   UNL     1      -5.360  17.733  68.605  1.00  0.00    -0.149 C  
HETATM    7  C   UNL     1      -6.194  17.034  69.667  1.00  0.00    -0.232 C  
HETATM    8  C   UNL     1      -5.987  15.533  69.552  1.00  0.00    -0.126 C  
HETATM    9  C   UNL     1     -10.698  12.673  67.368  1.00  0.00    -0.251 C  
HETATM   10  C   UNL     1      -9.156  12.548  66.116  1.00  0.00    -0.012 C  
HETATM   11  C   UNL     1     -12.021  11.900  67.542  1.00  0.00    -0.102 C  
HETATM   12  C   UNL     1      -6.748  14.804  70.670  1.00  0.00     0.231 C  
HETATM   13  C   UNL     1      -6.218  14.962  68.114  1.00  0.00    -0.144 C  
HETATM   14  C   UNL     1      -5.125  13.883  67.894  1.00  0.00    -0.060 C  
HETATM   15  C   UNL     1      -7.677  13.191  66.768  1.00  0.00     0.431 C  
HETATM   16  C   UNL     1      -6.024  16.059  66.904  1.00  0.00     0.282 C  
HETATM   17  H   UNL     1      -4.633  19.505  68.379  1.00  0.00     0.000 HD 
HETATM   18  O   UNL     1      -5.154  19.068  69.043  1.00  0.00    -0.187 OA 
HETATM   19  C   UNL     1      -8.263  14.734  70.449  1.00  0.00     1.214 C  
HETATM   20  C   UNL     1      -7.664  14.332  67.949  1.00  0.00    -0.157 C  
HETATM   21  C   UNL     1      -8.547  13.884  69.213  1.00  0.00     0.490 C  
ENDROOT
BRANCH   3  22
HETATM   22  N   UNL     1     -11.066  14.298  65.507  1.00  0.00    -0.313 N  
HETATM   23  C   UNL     1     -12.093  12.593  63.977  1.00  0.00    -0.542 C  
HETATM   24  C   UNL     1     -13.148  13.125  64.905  1.00  0.00    -0.031 C  
HETATM   25  C   UNL     1     -10.801  13.295  64.310  1.00  0.00    -0.392 C  
HETATM   26  C   UNL     1     -12.601  14.384  65.538  1.00  0.00    -0.333 C  
BRANCH  22  27
HETATM   27  C   UNL     1     -10.593  15.760  65.017  1.00  0.00    -0.371 C  
BRANCH  27  28
HETATM   28  C   UNL     1     -10.022  16.663  66.060  1.00  0.00    -0.346 C  
HETATM   29  C   UNL     1     -10.531  17.875  66.326  1.00  0.00    -0.320 C  
ENDBRANCH  27  28
ENDBRANCH  22  27
ENDBRANCH   3  22
BRANCH   4  30
HETATM   30  O   UNL     1     -10.040  10.717  67.249  1.00  0.00    -0.185 OA 
BRANCH  30  31
HETATM   31  C   UNL     1      -9.398   9.527  67.334  1.00  0.00    -0.130 C  
HETATM   32  C   UNL     1      -8.329   9.640  68.399  1.00  0.00    -0.117 C  
HETATM   33  O   UNL     1      -9.793   8.491  66.822  1.00  0.00    -0.209 OA 
ENDBRANCH  30  31
ENDBRANCH   4  30
BRANCH   5  34
HETATM   34  N   UNL     1      -5.821  18.612  66.235  1.00  0.00    -0.151 NA 
HETATM   35  C   UNL     1      -6.788  18.895  65.168  1.00  0.00     0.038 C  
HETATM   36  C   UNL     1      -7.845  19.896  65.626  1.00  0.00    -0.114 C  
HETATM   37  O   UNL     1      -7.232  21.148  65.957  1.00  0.00     0.146 OA 
HETATM   38  C   UNL     1      -6.228  20.992  66.966  1.00  0.00    -0.308 C  
HETATM   39  C   UNL     1      -5.212  19.878  66.648  1.00  0.00    -0.162 C  
ENDBRANCH   5  34
TORSDOF 6
ENDMDL
MODEL       92
REMARK 921   NORMALIZED FREE ENERGY PREDICTED BY IDOCK:   -0.98 KCAL/MOL
REMARK 922        TOTAL FREE ENERGY PREDICTED BY IDOCK:   -1.62 KCAL/MOL
REMARK 923 INTER-LIGAND FREE ENERGY PREDICTED BY IDOCK:   -3.81 KCAL/MOL
REMARK 924 INTRA-LIGAND FREE ENERGY PREDICTED BY IDOCK:    2.19 KCAL/MOL
REMARK 927      BINDING AFFINITY PREDICTED BY RF-SCORE:    0.00 PKD
ROOT
HETATM    1  C   UNL     1     -11.542  12.735  68.190  1.00  0.00    -0.380 C  
HETATM    2  C   UNL     1     -10.953  13.478  69.282  1.00  0.00    -0.169 C  
HETATM    3  C   UNL     1      -9.869  13.464  68.219  1.00  0.00    -0.235 C  
HETATM    4  C   UNL     1     -10.523  12.750  66.375  1.00  0.00    -0.250 C  
HETATM    5  C   UNL     1      -7.427   9.514  71.027  1.00  0.00     0.072 C  
HETATM    6  C   UNL     1      -8.225   8.205  71.242  1.00  0.00    -0.116 C  
HETATM    7  C   UNL     1      -9.670   8.498  70.868  1.00  0.00    -0.231 C  
HETATM    8  C   UNL     1      -9.799   8.497  69.354  1.00  0.00    -0.185 C  
HETATM    9  C   UNL     1     -10.609  13.905  67.063  1.00  0.00    -0.279 C  
HETATM   10  C   UNL     1      -8.861  13.150  66.484  1.00  0.00     0.005 C  
HETATM   11  C   UNL     1     -11.514  15.050  66.568  1.00  0.00    -0.239 C  
HETATM   12  C   UNL     1     -11.266   8.702  68.945  1.00  0.00     0.372 C  
HETATM   13  C   UNL     1      -8.774   9.424  68.622  1.00  0.00    -0.131 C  
HETATM   14  C   UNL     1      -8.328   8.660  67.348  1.00  0.00    -0.116 C  
HETATM   15  C   UNL     1      -8.632  11.489  66.950  1.00  0.00    -0.163 C  
HETATM   16  C   UNL     1      -7.401   9.730  69.473  1.00  0.00    -0.092 C  
HETATM   17  H   UNL     1      -7.325   7.523  72.805  1.00  0.00     0.000 HD 
HETATM   18  O   UNL     1      -8.228   7.706  72.571  1.00  0.00    -0.105 OA 
HETATM   19  C   UNL     1     -11.763  10.143  69.109  1.00  0.00    -0.027 C  
HETATM   20  C   UNL     1      -9.409  10.826  68.236  1.00  0.00    -0.161 C  
HETATM   21  C   UNL     1     -10.997  11.045  68.145  1.00  0.00    -0.301 C  
ENDROOT
BRANCH   3  22
HETATM   22  N   UNL     1      -8.805  14.965  68.428  1.00  0.00    -0.171 N  
HETATM   23  C   UNL     1      -6.595  15.121  69.609  1.00  0.00    -0.173 C  
HETATM   24  C   UNL     1      -6.359  14.897  68.142  1.00  0.00    -0.142 C  
HETATM   25  C   UNL     1      -8.085  15.177  69.824  1.00  0.00     0.009 C  
HETATM   26  C   UNL     1      -7.659  15.179  67.425  1.00  0.00    -0.203 C  
BRANCH  22  27
HETATM   27  C   UNL     1      -9.779  16.230  68.199  1.00  0.00    -0.227 C  
BRANCH  27  28
HETATM   28  C   UNL     1      -9.598  17.390  69.122  1.00  0.00    -0.069 C  
HETATM   29  C   UNL     1      -9.810  18.658  68.741  1.00  0.00    -0.422 C  
ENDBRANCH  27  28
ENDBRANCH  22  27
ENDBRANCH   3  22
BRANCH   4  30
HETATM   30  O   UNL     1     -10.632  13.548  65.027  1.00  0.00    -0.329 OA 
BRANCH  30  31
HETATM   31  C   UNL     1     -11.369  13.231  63.935  1.00  0.00    -0.318 C  
HETATM   32  C   UNL     1     -10.540  12.325  63.050  1.00  0.00     0.126 C  
HETATM   33  O   UNL     1     -12.568  13.435  63.828  1.00  0.00    -0.692 OA 
ENDBRANCH  30  31
ENDBRANCH   4  30
BRANCH   5  34
HETATM   34  N   UNL     1      -6.181   9.650  71.820  1.00  0.00    -0.301 NA 
HETATM   35  C   UNL     1      -6.217  10.232  73.167  1.00  0.00     1.773 C  
HETATM   36  C   UNL     1      -6.573   9.184  74.217  1.00  0.00     0.209 C  
HETATM   37  O   UNL     1      -5.577   8.155  74.249  1.00  0.00    -0.071 OA 
HETATM   38  C   UNL     1      -5.416   7.537  72.967  1.00  0.00    -0.040 C  
HETATM   39  C   UNL     1      -5.214   8.549  71.823  1.00  0.00    -0.036 C  
ENDBRANCH   5  34
TORSDOF 6
ENDMDL
MODEL       93
REMARK 921   NORMALIZED FREE ENERGY PREDICTED BY IDOCK:   -0.84 KCAL/MOL
REMARK 922        TOTAL FREE ENERGY PREDICTED BY IDOCK:   -1.44 KCAL/MOL
REMARK 923 INTER-LIGAND FREE ENERGY PREDICTED BY IDOCK:   -1.83 KCAL/MOL
REMARK 924 INTRA-LIGAND FREE ENERGY PREDICTED BY IDOCK:    0.39 KCAL/MOL
REMARK 927      BINDING AFFINITY PREDICTED BY RF-SCORE:    0.00 PKD
ROOT
HETATM    1  C   UNL     1      -5.892   9.906  68.255  1.00  0.00    -0.042 C  
HETATM    2  C   UNL     1      -5.483   8.936  67.263  1.00  0.00    -0.038 C  
HETATM    3  C   UNL     1      -6.791   9.484  66.724  1.00  0.00    -0.080 C  
HETATM    4  C   UNL     1      -7.483  11.152  67.761  1.00  0.00    -0.095 C  
HETATM    5  C   UNL     1      -9.211   4.980  68.544  1.00  0.00    -0.120 C  
HETATM    6  C   UNL     1      -9.132   4.703  70.064  1.00  0.00    -0.106 C  
HETATM    7  C   UNL     1      -8.079   5.640  70.634  1.00  0.00    -0.116 C  
HETATM    8  C   UNL     1      -8.676   7.031  70.772  1.00  0.00    -0.148 C  
HETATM    9  C   UNL     1      -6.557  10.903  66.816  1.00  0.00    -0.116 C  
HETATM   10  C   UNL     1      -8.494  10.570  66.506  1.00  0.00    -0.139 C  
HETATM   11  C   UNL     1      -5.560  11.997  66.383  1.00  0.00     0.474 C  
HETATM   12  C   UNL     1      -7.664   7.982  71.429  1.00  0.00    -0.092 C  
HETATM   13  C   UNL     1      -9.343   7.575  69.467  1.00  0.00    -0.153 C  
HETATM   14  C   UNL     1     -10.626   8.326  69.913  1.00  0.00    -0.232 C  
HETATM   15  C   UNL     1      -9.239   9.599  67.742  1.00  0.00    -0.135 C  
HETATM   16  C   UNL     1      -9.841   6.411  68.417  1.00  0.00    -0.141 C  
HETATM   17  H   UNL     1      -9.415   2.795  70.067  1.00  0.00     0.000 HD 
HETATM   18  O   UNL     1      -8.757   3.381  70.424  1.00  0.00    -0.066 OA 
HETATM   19  C   UNL     1      -6.533   8.428  70.496  1.00  0.00    -0.036 C  
HETATM   20  C   UNL     1      -8.379   8.548  68.666  1.00  0.00    -0.123 C  
HETATM   21  C   UNL     1      -7.124   9.265  69.364  1.00  0.00    -0.053 C  
ENDROOT
BRANCH   3  22
HETATM   22  N   UNL     1      -6.784   9.343  64.878  1.00  0.00    -0.082 N  
HETATM   23  C   UNL     1      -8.724   9.643  63.312  1.00  0.00    -0.239 C  
HETATM   24  C   UNL     1      -7.977  10.941  63.429  1.00  0.00     0.234 C  
HETATM   25  C   UNL     1      -8.018   8.634  64.182  1.00  0.00    -0.149 C  
HETATM   26  C   UNL     1      -6.636  10.637  64.059  1.00  0.00     0.205 C  
BRANCH  22  27
HETATM   27  C   UNL     1      -5.471   8.484  64.508  1.00  0.00    -0.047 C  
BRANCH  27  28
HETATM   28  C   UNL     1      -5.376   7.977  63.105  1.00  0.00    -0.051 C  
HETATM   29  C   UNL     1      -5.673   6.713  62.772  1.00  0.00    -0.034 C  
ENDBRANCH  27  28
ENDBRANCH  22  27
ENDBRANCH   3  22
BRANCH   4  30
HETATM   30  O   UNL     1      -7.642  12.617  67.215  1.00  0.00    -0.153 OA 
BRANCH  30  31
HETATM   31  C   UNL     1      -8.136  13.694  67.870  1.00  0.00    -0.164 C  
HETATM   32  C   UNL     1      -7.131  14.820  67.756  1.00  0.00    -0.191 C  
HETATM   33  O   UNL     1      -9.291  13.800  68.253  1.00  0.00    -0.203 OA 
ENDBRANCH  30  31
ENDBRANCH   4  30
BRANCH   5  34
HETATM   34  N   UNL     1      -9.719   3.865  67.707  1.00  0.00    -0.137 NA 
HETATM   35  C   UNL     1     -10.780   4.100  66.720  1.00  0.00     1.239 C  
HETATM   36  C   UNL     1     -10.210   4.610  65.400  1.00  0.00    -0.148 C  
HETATM   37  O   UNL     1      -9.336   3.632  64.826  1.00  0.00    -0.136 OA 
HETATM   38  C   UNL     1      -8.274   3.283  65.723  1.00  0.00    -0.094 C  
HETATM   39  C   UNL     1      -8.766   2.911  67.135  1.00  0.00    -0.123 C  
ENDBRANCH   5  34
TORSDOF 6
ENDMDL
MODEL       94
REMARK 921   NORMALIZED FREE ENERGY PREDICTED BY IDOCK:   -0.76 KCAL/MOL
REMARK 922        TOTAL FREE ENERGY PREDICTED BY IDOCK:   -1.32 KCAL/MOL
REMARK 923 INTER-LIGAND FREE ENERGY PREDICTED BY IDOCK:   -3.26 KCAL/MOL
REMARK 924 INTRA-LIGAND FREE ENERGY PREDICTED BY IDOCK:    1.93 KCAL/MOL
REMARK 927      BINDING AFFINITY PREDICTED BY RF-SCORE:    0.00 PKD
ROOT
HETATM    1  C   UNL     1      -7.752   7.964  69.979  1.00  0.00    -0.089 C  
HETATM    2  C   UNL     1      -8.448   8.855  70.882  1.00  0.00    -0.226 C  
HETATM    3  C   UNL     1      -9.438   8.627  69.755  1.00  0.00    -0.166 C  
HETATM    4  C   UNL     1      -8.866   7.116  68.440  1.00  0.00    -0.127 C  
HETATM    5  C   UNL     1      -8.029  13.486  67.789  1.00  0.00    -0.168 C  
HETATM    6  C   UNL     1      -6.545  13.685  67.399  1.00  0.00     0.030 C  
HETATM    7  C   UNL     1      -5.769  12.519  67.991  1.00  0.00    -0.082 C  
HETATM    8  C   UNL     1      -5.981  11.291  67.123  1.00  0.00    -0.083 C  
HETATM    9  C   UNL     1      -9.427   7.189  69.662  1.00  0.00    -0.152 C  
HETATM   10  C   UNL     1     -10.311   7.951  68.050  1.00  0.00    -0.264 C  
HETATM   11  C   UNL     1      -9.628   5.918  70.512  1.00  0.00    -0.208 C  
HETATM   12  C   UNL     1      -5.138  10.117  67.646  1.00  0.00    -0.034 C  
HETATM   13  C   UNL     1      -7.483  10.952  66.847  1.00  0.00    -0.128 C  
HETATM   14  C   UNL     1      -7.559  10.486  65.369  1.00  0.00    -0.097 C  
HETATM   15  C   UNL     1      -9.287   9.018  67.134  1.00  0.00    -0.184 C  
HETATM   16  C   UNL     1      -8.507  12.233  66.973  1.00  0.00    -0.181 C  
HETATM   17  H   UNL     1      -6.430  15.607  67.510  1.00  0.00     0.000 HD 
HETATM   18  O   UNL     1      -5.944  14.878  67.880  1.00  0.00    -0.139 OA 
HETATM   19  C   UNL     1      -5.696   9.467  68.916  1.00  0.00    -0.039 C  
HETATM   20  C   UNL     1      -8.027   9.821  67.816  1.00  0.00    -0.101 C  
HETATM   21  C   UNL     1      -7.041   8.821  68.594  1.00  0.00    -0.072 C  
ENDROOT
BRANCH   3  22
HETATM   22  N   UNL     1     -11.155   8.828  70.416  1.00  0.00    -0.242 N  
HETATM   23  C   UNL     1     -12.259  10.946  71.191  1.00  0.00    -0.441 C  
HETATM   24  C   UNL     1     -12.614  10.700  69.751  1.00  0.00    -0.091 C  
HETATM   25  C   UNL     1     -11.371   9.814  71.637  1.00  0.00    -0.160 C  
HETATM   26  C   UNL     1     -12.257   9.266  69.435  1.00  0.00     1.432 C  
BRANCH  22  27
HETATM   27  C   UNL     1     -11.613   7.360  70.902  1.00  0.00    -0.291 C  
BRANCH  27  28
HETATM   28  C   UNL     1     -12.949   7.262  71.564  1.00  0.00    -0.434 C  
HETATM   29  C   UNL     1     -13.142   7.572  72.854  1.00  0.00     1.019 C  
ENDBRANCH  27  28
ENDBRANCH  22  27
ENDBRANCH   3  22
BRANCH   4  30
HETATM   30  O   UNL     1      -9.588   5.743  68.194  1.00  0.00    -0.112 OA 
BRANCH  30  31
HETATM   31  C   UNL     1      -9.416   4.894  67.152  1.00  0.00    -0.142 C  
HETATM   32  C   UNL     1      -8.876   3.586  67.691  1.00  0.00    -0.148 C  
HETATM   33  O   UNL     1      -9.862   5.077  66.030  1.00  0.00    -0.168 OA 
ENDBRANCH  30  31
ENDBRANCH   4  30
BRANCH   5  34
HETATM   34  N   UNL     1      -8.861  14.714  67.823  1.00  0.00    -0.171 NA 
HETATM   35  C   UNL     1      -8.344  15.977  67.281  1.00  0.00    -0.181 C  
HETATM   36  C   UNL     1      -8.564  16.069  65.774  1.00  0.00     0.322 C  
HETATM   37  O   UNL     1      -9.965  16.046  65.475  1.00  0.00    -0.400 OA 
HETATM   38  C   UNL     1     -10.596  14.870  65.998  1.00  0.00    -0.315 C  
HETATM   39  C   UNL     1     -10.284  14.621  67.485  1.00  0.00    -0.225 C  
ENDBRANCH   5  34
TORSDOF 6
ENDMDL
MODEL       95
REMARK 921   NORMALIZED FREE ENERGY PREDICTED BY IDOCK:   -0.70 KCAL/MOL
REMARK 922        TOTAL FREE ENERGY PREDICTED BY IDOCK:   -1.25 KCAL/MOL
REMARK 923 INTER-LIGAND FREE ENERGY PREDICTED BY IDOCK:   -2.06 KCAL/MOL
REMARK 924 INTRA-LIGAND FREE ENERGY PREDICTED BY IDOCK:    0.82 KCAL/MOL
REMARK 927      BINDING AFFINITY PREDICTED BY RF-SCORE:    0.00 PKD
ROOT
HETATM    1  C   UNL     1     -10.706   7.668  69.007  1.00  0.00    -0.134 C  
HETATM    2  C   UNL     1      -9.356   7.251  69.313  1.00  0.00    -0.154 C  
HETATM    3  C   UNL     1      -9.774   8.063  70.525  1.00  0.00    -0.178 C  
HETATM    4  C   UNL     1     -11.801   8.537  70.549  1.00  0.00    -0.014 C  
HETATM    5  C   UNL     1      -6.881  12.195  68.522  1.00  0.00    -0.086 C  
HETATM    6  C   UNL     1      -7.294  12.735  67.131  1.00  0.00    -0.015 C  
HETATM    7  C   UNL     1      -8.242  11.715  66.521  1.00  0.00    -0.101 C  
HETATM    8  C   UNL     1      -9.615  11.877  67.150  1.00  0.00    -0.192 C  
HETATM    9  C   UNL     1     -11.046   7.461  70.838  1.00  0.00    -0.283 C  
HETATM   10  C   UNL     1     -10.862   9.176  71.831  1.00  0.00    -0.353 C  
HETATM   11  C   UNL     1     -11.700   6.097  71.137  1.00  0.00    -0.201 C  
HETATM   12  C   UNL     1     -10.620  10.919  66.490  1.00  0.00    -0.295 C  
HETATM   13  C   UNL     1      -9.611  11.854  68.714  1.00  0.00    -0.024 C  
HETATM   14  C   UNL     1     -10.640  12.923  69.168  1.00  0.00     0.009 C  
HETATM   15  C   UNL     1     -10.638  10.557  70.798  1.00  0.00     0.523 C  
HETATM   16  C   UNL     1      -8.179  12.282  69.400  1.00  0.00     0.915 C  
HETATM   17  H   UNL     1      -5.636  13.559  66.592  1.00  0.00     0.000 HD 
HETATM   18  O   UNL     1      -6.228  12.922  66.211  1.00  0.00     1.334 OA 
HETATM   19  C   UNL     1     -10.461   9.457  66.921  1.00  0.00    -0.281 C  
HETATM   20  C   UNL     1      -9.999  10.428  69.290  1.00  0.00    -0.246 C  
HETATM   21  C   UNL     1     -10.782   9.339  68.408  1.00  0.00    -0.192 C  
ENDROOT
BRANCH   3  22
HETATM   22  N   UNL     1      -8.836   7.459  72.003  1.00  0.00    -0.123 N  
HETATM   23  C   UNL     1      -9.752   6.903  74.274  1.00  0.00    -0.309 C  
HETATM   24  C   UNL     1      -9.677   5.649  73.450  1.00  0.00    -0.153 C  
HETATM   25  C   UNL     1      -9.237   8.035  73.424  1.00  0.00    -0.263 C  
HETATM   26  C   UNL     1      -8.794   5.943  72.258  1.00  0.00    -0.138 C  
BRANCH  22  27
HETATM   27  C   UNL     1      -7.297   7.863  71.742  1.00  0.00    -0.073 C  
BRANCH  27  28
HETATM   28  C   UNL     1      -6.536   8.391  72.915  1.00  0.00    -0.104 C  
HETATM   29  C   UNL     1      -5.355   7.884  73.299  1.00  0.00    -0.044 C  
ENDBRANCH  27  28
ENDBRANCH  22  27
ENDBRANCH   3  22
BRANCH   4  30
HETATM   30  O   UNL     1     -12.884   8.050  71.578  1.00  0.00    -0.319 OA 
BRANCH  30  31
HETATM   31  C   UNL     1     -13.825   8.796  72.203  1.00  0.00    -0.457 C  
HETATM   32  C   UNL     1     -14.240   9.914  71.271  1.00  0.00     0.456 C  
HETATM   33  O   UNL     1     -14.406   8.463  73.224  1.00  0.00     0.002 OA 
ENDBRANCH  30  31
ENDBRANCH   4  30
BRANCH   5  34
HETATM   34  N   UNL     1      -5.588  12.692  69.052  1.00  0.00    -0.067 NA 
HETATM   35  C   UNL     1      -5.183  14.086  68.839  1.00  0.00    -0.076 C  
HETATM   36  C   UNL     1      -5.782  15.009  69.897  1.00  0.00    -0.121 C  
HETATM   37  O   UNL     1      -5.305  14.645  71.198  1.00  0.00    -0.133 OA 
HETATM   38  C   UNL     1      -5.604  13.278  71.506  1.00  0.00    -0.058 C  
HETATM   39  C   UNL     1      -5.172  12.296  70.401  1.00  0.00    -0.116 C  
ENDBRANCH   5  34
TORSDOF 6
ENDMDL
MODEL       96
REMARK 921   NORMALIZED FREE ENERGY PREDICTED BY IDOCK:   -0.61 KCAL/MOL
REMARK 922        TOTAL FREE ENERGY PREDICTED BY IDOCK:   -1.12 KCAL/MOL
REMARK 923 INTER-LIGAND FREE ENERGY PREDICTED BY IDOCK:   -3.70 KCAL/MOL
REMARK 924 INTRA-LIGAND FREE ENERGY PREDICTED BY IDOCK:    2.58 KCAL/MOL
REMARK 927      BINDING AFFINITY PREDICTED BY RF-SCORE:    0.00 PKD
ROOT
HETATM    1  C   UNL     1      -5.419  10.272  69.191  1.00  0.00    -0.038 C  
HETATM    2  C   UNL     1      -5.418   9.284  68.134  1.00  0.00    -0.038 C  
HETATM    3  C   UNL     1      -6.821   9.861  68.096  1.00  0.00    -0.064 C  
HETATM    4  C   UNL     1      -7.054  11.556  69.285  1.00  0.00    -0.077 C  
HETATM    5  C   UNL     1      -8.512   5.437  70.746  1.00  0.00    -0.121 C  
HETATM    6  C   UNL     1      -7.893   5.171  72.140  1.00  0.00    -0.108 C  
HETATM    7  C   UNL     1      -6.686   6.085  72.273  1.00  0.00    -0.072 C  
HETATM    8  C   UNL     1      -7.162   7.491  72.594  1.00  0.00    -0.080 C  
HETATM    9  C   UNL     1      -6.539  11.275  68.073  1.00  0.00    -0.058 C  
HETATM   10  C   UNL     1      -8.463  10.990  68.492  1.00  0.00    -0.153 C  
HETATM   11  C   UNL     1      -5.744  12.339  67.290  1.00  0.00    -0.131 C  
HETATM   12  C   UNL     1      -5.960   8.421  72.823  1.00  0.00    -0.072 C  
HETATM   13  C   UNL     1      -8.245   8.043  71.610  1.00  0.00    -0.143 C  
HETATM   14  C   UNL     1      -9.262   8.831  72.478  1.00  0.00    -0.046 C  
HETATM   15  C   UNL     1      -8.730  10.048  69.930  1.00  0.00    -0.169 C  
HETATM   16  C   UNL     1      -9.114   6.884  70.831  1.00  0.00    -0.153 C  
HETATM   17  H   UNL     1      -8.196   3.271  72.277  1.00  0.00     0.000 HD 
HETATM   18  O   UNL     1      -7.442   3.843  72.361  1.00  0.00    -0.059 OA 
HETATM   19  C   UNL     1      -5.236   8.830  71.536  1.00  0.00    -0.036 C  
HETATM   20  C   UNL     1      -7.616   8.983  70.498  1.00  0.00    -0.113 C  
HETATM   21  C   UNL     1      -6.178   9.673  70.681  1.00  0.00    -0.084 C  
ENDROOT
BRANCH   3  22
HETATM   22  N   UNL     1      -7.486   9.705  66.376  1.00  0.00    -0.094 N  
HETATM   23  C   UNL     1      -6.192   9.280  64.267  1.00  0.00    -0.077 C  
HETATM   24  C   UNL     1      -6.699   7.973  64.809  1.00  0.00    -0.059 C  
HETATM   25  C   UNL     1      -6.661  10.368  65.197  1.00  0.00    -0.090 C  
HETATM   26  C   UNL     1      -7.761   8.291  65.837  1.00  0.00    -0.087 C  
BRANCH  22  27
HETATM   27  C   UNL     1      -8.935  10.413  66.399  1.00  0.00    -0.149 C  
BRANCH  27  28
HETATM   28  C   UNL     1      -9.229  11.371  65.292  1.00  0.00    -0.146 C  
HETATM   29  C   UNL     1     -10.356  12.096  65.242  1.00  0.00    -0.310 C  
ENDBRANCH  27  28
ENDBRANCH  22  27
ENDBRANCH   3  22
BRANCH   4  30
HETATM   30  O   UNL     1      -7.368  13.019  68.809  1.00  0.00    -0.105 OA 
BRANCH  30  31
HETATM   31  C   UNL     1      -6.955  14.179  69.373  1.00  0.00    -0.078 C  
HETATM   32  C   UNL     1      -6.096  13.842  70.573  1.00  0.00    -0.122 C  
HETATM   33  O   UNL     1      -7.053  15.277  68.848  1.00  0.00    -0.115 OA 
ENDBRANCH  30  31
ENDBRANCH   4  30
BRANCH   5  34
HETATM   34  N   UNL     1      -9.313   4.329  70.170  1.00  0.00    -0.140 NA 
HETATM   35  C   UNL     1      -8.899   3.685  68.917  1.00  0.00    -0.108 C  
HETATM   36  C   UNL     1      -7.868   2.589  69.169  1.00  0.00    -0.045 C  
HETATM   37  O   UNL     1      -8.433   1.556  69.985  1.00  0.00    -0.044 OA 
HETATM   38  C   UNL     1      -8.919   2.073  71.229  1.00  0.00    -0.075 C  
HETATM   39  C   UNL     1      -9.843   3.294  71.062  1.00  0.00    -0.043 C  
ENDBRANCH   5  34
TORSDOF 6
ENDMDL
MODEL       97
REMARK 921   NORMALIZED FREE ENERGY PREDICTED BY IDOCK:   -0.53 KCAL/MOL
REMARK 922        TOTAL FREE ENERGY PREDICTED BY IDOCK:   -1.01 KCAL/MOL
REMARK 923 INTER-LIGAND FREE ENERGY PREDICTED BY IDOCK:   -4.11 KCAL/MOL
REMARK 924 INTRA-LIGAND FREE ENERGY PREDICTED BY IDOCK:    3.10 KCAL/MOL
REMARK 927      BINDING AFFINITY PREDICTED BY RF-SCORE:    0.00 PKD
ROOT
HETATM    1  C   UNL     1     -10.150   9.911  67.698  1.00  0.00    -0.241 C  
HETATM    2  C   UNL     1      -9.477  10.349  68.901  1.00  0.00    -0.190 C  
HETATM    3  C   UNL     1      -8.348  10.093  67.920  1.00  0.00    -0.117 C  
HETATM    4  C   UNL     1      -9.001   9.762  65.970  1.00  0.00    -0.155 C  
HETATM    5  C   UNL     1      -7.470   5.373  70.452  1.00  0.00    -0.075 C  
HETATM    6  C   UNL     1      -8.637   4.356  70.471  1.00  0.00    -0.081 C  
HETATM    7  C   UNL     1      -9.886   5.103  70.032  1.00  0.00    -0.295 C  
HETATM    8  C   UNL     1      -9.862   5.264  68.522  1.00  0.00    -0.210 C  
HETATM    9  C   UNL     1      -8.808  10.829  66.769  1.00  0.00    -0.147 C  
HETATM   10  C   UNL     1      -7.314   9.627  66.234  1.00  0.00    -0.094 C  
HETATM   11  C   UNL     1      -9.281  12.231  66.337  1.00  0.00    -0.203 C  
HETATM   12  C   UNL     1     -11.156   5.938  68.037  1.00  0.00    -0.109 C  
HETATM   13  C   UNL     1      -8.542   5.892  67.964  1.00  0.00    -0.113 C  
HETATM   14  C   UNL     1      -8.220   5.134  66.649  1.00  0.00    -0.108 C  
HETATM   15  C   UNL     1      -7.633   7.944  66.535  1.00  0.00    -0.092 C  
HETATM   16  C   UNL     1      -7.229   5.696  68.935  1.00  0.00    -0.077 C  
HETATM   17  H   UNL     1      -8.136   3.309  72.011  1.00  0.00     0.000 HD 
HETATM   18  O   UNL     1      -8.917   3.776  71.737  1.00  0.00    -0.100 OA 
HETATM   19  C   UNL     1     -11.217   7.443  68.319  1.00  0.00     0.274 C  
HETATM   20  C   UNL     1      -8.693   7.447  67.688  1.00  0.00    -0.125 C  
HETATM   21  C   UNL     1     -10.128   8.144  67.511  1.00  0.00    -0.286 C  
ENDROOT
BRANCH   3  22
HETATM   22  N   UNL     1      -6.913  11.177  68.360  1.00  0.00    -0.069 N  
HETATM   23  C   UNL     1      -6.595  13.601  67.787  1.00  0.00    -0.178 C  
HETATM   24  C   UNL     1      -7.206  13.491  69.156  1.00  0.00     0.020 C  
HETATM   25  C   UNL     1      -6.394  12.201  67.268  1.00  0.00    -0.152 C  
HETATM   26  C   UNL     1      -7.038  12.060  69.613  1.00  0.00     0.268 C  
BRANCH  22  27
HETATM   27  C   UNL     1      -5.693  10.177  68.694  1.00  0.00    -0.038 C  
BRANCH  27  28
HETATM   28  C   UNL     1      -6.051   8.750  68.956  1.00  0.00    -0.043 C  
HETATM   29  C   UNL     1      -5.130   7.781  69.057  1.00  0.00    -0.019 C  
ENDBRANCH  27  28
ENDBRANCH  22  27
ENDBRANCH   3  22
BRANCH   4  30
HETATM   30  O   UNL     1      -8.737  10.662  64.710  1.00  0.00    -0.184 OA 
BRANCH  30  31
HETATM   31  C   UNL     1      -9.522  10.802  63.614  1.00  0.00    -0.291 C  
HETATM   32  C   UNL     1      -8.897  10.017  62.481  1.00  0.00    -0.254 C  
HETATM   33  O   UNL     1     -10.652  11.264  63.628  1.00  0.00    -0.362 OA 
ENDBRANCH  30  31
ENDBRANCH   4  30
BRANCH   5  34
HETATM   34  N   UNL     1      -6.322   5.060  71.339  1.00  0.00    -0.029 NA 
HETATM   35  C   UNL     1      -5.417   6.125  71.787  1.00  0.00    -0.026 C  
HETATM   36  C   UNL     1      -5.963   6.838  73.021  1.00  0.00    -0.056 C  
HETATM   37  O   UNL     1      -6.077   5.919  74.114  1.00  0.00    -0.061 OA 
HETATM   38  C   UNL     1      -6.908   4.801  73.779  1.00  0.00    -0.070 C  
HETATM   39  C   UNL     1      -6.516   4.126  72.451  1.00  0.00    -0.022 C  
ENDBRANCH   5  34
TORSDOF 6
ENDMDL
MODEL       98
REMARK 921   NORMALIZED FREE ENERGY PREDICTED BY IDOCK:   -0.49 KCAL/MOL
REMARK 922        TOTAL FREE ENERGY PREDICTED BY IDOCK:   -0.96 KCAL/MOL
REMARK 923 INTER-LIGAND FREE ENERGY PREDICTED BY IDOCK:   -2.64 KCAL/MOL
REMARK 924 INTRA-LIGAND FREE ENERGY PREDICTED BY IDOCK:    1.68 KCAL/MOL
REMARK 927      BINDING AFFINITY PREDICTED BY RF-SCORE:    0.00 PKD
ROOT
HETATM    1  C   UNL     1     -11.123   9.144  66.682  1.00  0.00     0.686 C  
HETATM    2  C   UNL     1     -11.375   9.543  68.049  1.00  0.00     0.282 C  
HETATM    3  C   UNL     1     -10.164  10.362  67.644  1.00  0.00    -0.201 C  
HETATM    4  C   UNL     1      -9.739  10.266  65.608  1.00  0.00    -0.247 C  
HETATM    5  C   UNL     1      -7.091   6.831  70.391  1.00  0.00    -0.068 C  
HETATM    6  C   UNL     1      -7.133   5.354  69.931  1.00  0.00    -0.062 C  
HETATM    7  C   UNL     1      -8.320   5.214  68.991  1.00  0.00    -0.087 C  
HETATM    8  C   UNL     1      -7.943   5.776  67.630  1.00  0.00    -0.102 C  
HETATM    9  C   UNL     1     -10.613  10.923  66.395  1.00  0.00    -0.289 C  
HETATM   10  C   UNL     1      -8.646  11.174  66.565  1.00  0.00    -0.169 C  
HETATM   11  C   UNL     1     -11.763  11.745  65.779  1.00  0.00    -0.093 C  
HETATM   12  C   UNL     1      -9.092   5.568  66.631  1.00  0.00    -0.126 C  
HETATM   13  C   UNL     1      -7.361   7.228  67.675  1.00  0.00    -0.093 C  
HETATM   14  C   UNL     1      -6.211   7.268  66.634  1.00  0.00    -0.043 C  
HETATM   15  C   UNL     1      -7.766   9.682  66.731  1.00  0.00    -0.098 C  
HETATM   16  C   UNL     1      -6.687   7.649  69.115  1.00  0.00    -0.048 C  
HETATM   17  H   UNL     1      -6.562   4.486  71.556  1.00  0.00     0.000 HD 
HETATM   18  O   UNL     1      -7.303   4.398  70.968  1.00  0.00    -0.043 OA 
HETATM   19  C   UNL     1     -10.273   6.523  66.834  1.00  0.00    -0.279 C  
HETATM   20  C   UNL     1      -8.459   8.320  67.334  1.00  0.00    -0.125 C  
HETATM   21  C   UNL     1      -9.813   7.951  66.553  1.00  0.00    -0.272 C  
ENDROOT
BRANCH   3  22
HETATM   22  N   UNL     1     -10.142  11.927  68.633  1.00  0.00    -0.206 N  
HETATM   23  C   UNL     1     -12.014  13.574  68.933  1.00  0.00    -0.378 C  
HETATM   24  C   UNL     1     -12.021  12.601  70.078  1.00  0.00    -0.377 C  
HETATM   25  C   UNL     1     -10.869  13.199  68.028  1.00  0.00    -0.242 C  
HETATM   26  C   UNL     1     -10.693  11.879  70.068  1.00  0.00     0.853 C  
BRANCH  22  27
HETATM   27  C   UNL     1      -8.586  12.310  68.815  1.00  0.00     0.130 C  
BRANCH  27  28
HETATM   28  C   UNL     1      -8.252  13.766  68.820  1.00  0.00    -0.002 C  
HETATM   29  C   UNL     1      -7.473  14.327  69.757  1.00  0.00     0.253 C  
ENDBRANCH  27  28
ENDBRANCH  22  27
ENDBRANCH   3  22
BRANCH   4  30
HETATM   30  O   UNL     1      -9.805  11.438  64.563  1.00  0.00    -0.242 OA 
BRANCH  30  31
HETATM   31  C   UNL     1      -9.962  11.341  63.221  1.00  0.00    -0.393 C  
HETATM   32  C   UNL     1      -9.107  10.195  62.725  1.00  0.00    -0.299 C  
HETATM   33  O   UNL     1     -10.832  11.914  62.584  1.00  0.00     0.284 OA 
ENDBRANCH  30  31
ENDBRANCH   4  30
BRANCH   5  34
HETATM   34  N   UNL     1      -6.414   7.088  71.686  1.00  0.00    -0.047 NA 
HETATM   35  C   UNL     1      -6.636   8.349  72.403  1.00  0.00    -0.088 C  
HETATM   36  C   UNL     1      -7.895   8.289  73.262  1.00  0.00    -0.137 C  
HETATM   37  O   UNL     1      -7.763   7.274  74.264  1.00  0.00    -0.117 OA 
HETATM   38  C   UNL     1      -7.497   5.991  73.684  1.00  0.00    -0.092 C  
HETATM   39  C   UNL     1      -6.334   6.009  72.674  1.00  0.00    -0.058 C  
ENDBRANCH   5  34
TORSDOF 6
ENDMDL
MODEL       99
REMARK 921   NORMALIZED FREE ENERGY PREDICTED BY IDOCK:   -0.17 KCAL/MOL
REMARK 922        TOTAL FREE ENERGY PREDICTED BY IDOCK:   -0.53 KCAL/MOL
REMARK 923 INTER-LIGAND FREE ENERGY PREDICTED BY IDOCK:   -0.97 KCAL/MOL
REMARK 924 INTRA-LIGAND FREE ENERGY PREDICTED BY IDOCK:    0.43 KCAL/MOL
REMARK 927      BINDING AFFINITY PREDICTED BY RF-SCORE:    0.00 PKD
ROOT
HETATM    1  C   UNL     1      -9.754  11.024  68.432  1.00  0.00    -0.181 C  
HETATM    2  C   UNL     1     -10.608  12.179  68.600  1.00  0.00    -0.248 C  
HETATM    3  C   UNL     1     -10.199  12.234  67.140  1.00  0.00    -0.211 C  
HETATM    4  C   UNL     1      -9.224  10.514  66.485  1.00  0.00    -0.161 C  
HETATM    5  C   UNL     1      -6.595  16.062  68.486  1.00  0.00    -0.123 C  
HETATM    6  C   UNL     1      -5.504  15.672  69.513  1.00  0.00    -0.108 C  
HETATM    7  C   UNL     1      -5.936  14.359  70.145  1.00  0.00    -0.151 C  
HETATM    8  C   UNL     1      -5.636  13.223  69.180  1.00  0.00    -0.073 C  
HETATM    9  C   UNL     1     -10.497  10.888  66.718  1.00  0.00    -0.302 C  
HETATM   10  C   UNL     1      -9.370  11.781  65.341  1.00  0.00    -0.095 C  
HETATM   11  C   UNL     1     -11.641   9.855  66.681  1.00  0.00     1.908 C  
HETATM   12  C   UNL     1      -5.979  11.872  69.827  1.00  0.00    -0.132 C  
HETATM   13  C   UNL     1      -6.214  13.433  67.743  1.00  0.00    -0.160 C  
HETATM   14  C   UNL     1      -5.137  12.904  66.759  1.00  0.00     0.864 C  
HETATM   15  C   UNL     1      -7.830  12.320  65.946  1.00  0.00     1.261 C  
HETATM   16  C   UNL     1      -6.472  15.005  67.333  1.00  0.00    -0.017 C  
HETATM   17  H   UNL     1      -5.034  17.422  70.173  1.00  0.00     0.000 HD 
HETATM   18  O   UNL     1      -5.303  16.601  70.568  1.00  0.00    -0.198 OA 
HETATM   19  C   UNL     1      -7.482  11.579  69.896  1.00  0.00     0.730 C  
HETATM   20  C   UNL     1      -7.585  12.664  67.533  1.00  0.00    -0.160 C  
HETATM   21  C   UNL     1      -8.028  11.442  68.477  1.00  0.00    -0.143 C  
ENDROOT
BRANCH   3  22
HETATM   22  N   UNL     1     -11.523  13.102  66.179  1.00  0.00    -0.317 N  
HETATM   23  C   UNL     1     -11.659  13.404  63.690  1.00  0.00    -0.292 C  
HETATM   24  C   UNL     1     -12.447  12.187  64.086  1.00  0.00    -0.497 C  
HETATM   25  C   UNL     1     -11.082  13.998  64.949  1.00  0.00    -0.375 C  
HETATM   26  C   UNL     1     -12.654  12.248  65.582  1.00  0.00     0.553 C  
BRANCH  22  27
HETATM   27  C   UNL     1     -12.267  14.070  67.232  1.00  0.00    -0.290 C  
BRANCH  27  28
HETATM   28  C   UNL     1     -11.602  15.377  67.523  1.00  0.00    -0.176 C  
HETATM   29  C   UNL     1     -11.523  15.888  68.760  1.00  0.00    -0.393 C  
ENDBRANCH  27  28
ENDBRANCH  22  27
ENDBRANCH   3  22
BRANCH   4  30
HETATM   30  O   UNL     1      -9.727   9.482  65.413  1.00  0.00    -0.294 OA 
BRANCH  30  31
HETATM   31  C   UNL     1      -9.271   8.225  65.198  1.00  0.00     0.368 C  
HETATM   32  C   UNL     1      -8.156   8.293  64.176  1.00  0.00    -0.136 C  
HETATM   33  O   UNL     1      -9.543   7.261  65.897  1.00  0.00     0.066 OA 
ENDBRANCH  30  31
ENDBRANCH   4  30
BRANCH   5  34
HETATM   34  N   UNL     1      -6.697  17.507  68.165  1.00  0.00    -0.186 NA 
HETATM   35  C   UNL     1      -5.673  18.159  67.340  1.00  0.00    -0.138 C  
HETATM   36  C   UNL     1      -5.959  17.978  65.852  1.00  0.00    -0.221 C  
HETATM   37  O   UNL     1      -7.206  18.593  65.508  1.00  0.00    -0.506 OA 
HETATM   38  C   UNL     1      -8.286  18.066  66.287  1.00  0.00    -0.197 C  
HETATM   39  C   UNL     1      -8.002  18.065  67.801  1.00  0.00    -0.235 C  
ENDBRANCH   5  34
TORSDOF 6
ENDMDL
MODEL      100
REMARK 921   NORMALIZED FREE ENERGY PREDICTED BY IDOCK:    0.50 KCAL/MOL
REMARK 922        TOTAL FREE ENERGY PREDICTED BY IDOCK:    0.38 KCAL/MOL
REMARK 923 INTER-LIGAND FREE ENERGY PREDICTED BY IDOCK:   -3.88 KCAL/MOL
REMARK 924 INTRA-LIGAND FREE ENERGY PREDICTED BY IDOCK:    4.26 KCAL/MOL
REMARK 927      BINDING AFFINITY PREDICTED BY RF-SCORE:    0.00 PKD
ROOT
HETATM    1  C   UNL     1     -10.727  10.765  69.783  1.00  0.00    -0.241 C  
HETATM    2  C   UNL     1      -9.338  11.123  69.966  1.00  0.00     1.449 C  
HETATM    3  C   UNL     1      -9.566  11.285  68.475  1.00  0.00    -0.198 C  
HETATM    4  C   UNL     1     -11.571  11.163  67.924  1.00  0.00    -0.251 C  
HETATM    5  C   UNL     1      -7.109   6.498  67.768  1.00  0.00    -0.088 C  
HETATM    6  C   UNL     1      -7.752   5.268  68.454  1.00  0.00    -0.080 C  
HETATM    7  C   UNL     1      -8.769   5.796  69.453  1.00  0.00    -0.111 C  
HETATM    8  C   UNL     1     -10.024   6.216  68.706  1.00  0.00    -0.175 C  
HETATM    9  C   UNL     1     -10.760  12.093  68.463  1.00  0.00    -0.257 C  
HETATM   10  C   UNL     1     -10.446  11.348  66.645  1.00  0.00    -0.285 C  
HETATM   11  C   UNL     1     -11.333  13.416  69.010  1.00  0.00    -0.335 C  
HETATM   12  C   UNL     1     -11.107   6.671  69.698  1.00  0.00    -0.390 C  
HETATM   13  C   UNL     1      -9.765   7.196  67.515  1.00  0.00    -0.176 C  
HETATM   14  C   UNL     1     -10.724   6.761  66.376  1.00  0.00     0.223 C  
HETATM   15  C   UNL     1     -10.417   9.608  66.602  1.00  0.00    -0.233 C  
HETATM   16  C   UNL     1      -8.248   7.121  66.886  1.00  0.00    -0.117 C  
HETATM   17  H   UNL     1      -6.218   4.103  68.546  1.00  0.00     0.000 HD 
HETATM   18  O   UNL     1      -6.854   4.433  69.170  1.00  0.00    -0.044 OA 
HETATM   19  C   UNL     1     -10.855   8.058  70.300  1.00  0.00    -0.241 C  
HETATM   20  C   UNL     1     -10.030   8.707  67.919  1.00  0.00    -0.232 C  
HETATM   21  C   UNL     1     -10.928   9.103  69.190  1.00  0.00    -0.057 C  
ENDROOT
BRANCH   3  22
HETATM   22  N   UNL     1      -8.390  12.558  67.823  1.00  0.00    -0.158 N  
HETATM   23  C   UNL     1      -6.111  13.131  68.707  1.00  0.00    -0.079 C  
HETATM   24  C   UNL     1      -5.974  12.128  67.597  1.00  0.00    -0.106 C  
HETATM   25  C   UNL     1      -7.579  13.426  68.872  1.00  0.00     0.018 C  
HETATM   26  C   UNL     1      -7.290  12.092  66.854  1.00  0.00    -0.042 C  
BRANCH  22  27
HETATM   27  C   UNL     1      -9.285  13.578  66.952  1.00  0.00    -0.249 C  
BRANCH  27  28
HETATM   28  C   UNL     1      -8.598  14.802  66.441  1.00  0.00     0.042 C  
HETATM   29  C   UNL     1      -9.207  15.994  66.364  1.00  0.00    -0.339 C  
ENDBRANCH  27  28
ENDBRANCH  22  27
ENDBRANCH   3  22
BRANCH   4  30
HETATM   30  O   UNL     1     -12.463  12.301  67.310  1.00  0.00    -0.152 OA 
BRANCH  30  31
HETATM   31  C   UNL     1     -12.238  13.005  66.174  1.00  0.00    -0.360 C  
HETATM   32  C   UNL     1     -12.501  12.096  64.993  1.00  0.00    -0.099 C  
HETATM   33  O   UNL     1     -12.103  14.218  66.128  1.00  0.00    -0.407 OA 
ENDBRANCH  30  31
ENDBRANCH   4  30
BRANCH   5  34
HETATM   34  N   UNL     1      -5.755   6.289  67.199  1.00  0.00    -0.013 NA 
HETATM   35  C   UNL     1      -5.408   5.016  66.555  1.00  0.00    -0.009 C  
HETATM   36  C   UNL     1      -5.845   4.994  65.093  1.00  0.00    -0.017 C  
HETATM   37  O   UNL     1      -5.165   6.017  64.357  1.00  0.00    -0.016 OA 
HETATM   38  C   UNL     1      -5.393   7.314  64.922  1.00  0.00    -0.029 C  
HETATM   39  C   UNL     1      -5.127   7.372  66.439  1.00  0.00    -0.023 C  
ENDBRANCH   5  34
TORSDOF 6
ENDMDL
MODEL      101
REMARK 921   NORMALIZED FREE ENERGY PREDICTED BY IDOCK:    0.85 KCAL/MOL
REMARK 922        TOTAL FREE ENERGY PREDICTED BY IDOCK:    0.85 KCAL/MOL
REMARK 923 INTER-LIGAND FREE ENERGY PREDICTED BY IDOCK:   -1.86 KCAL/MOL
REMARK 924 INTRA-LIGAND FREE ENERGY PREDICTED BY IDOCK:    2.72 KCAL/MOL
REMARK 927      BINDING AFFINITY PREDICTED BY RF-SCORE:    0.00 PKD
ROOT
HETATM    1  C   UNL     1      -9.531  12.038  69.007  1.00  0.00     0.264 C  
HETATM    2  C   UNL     1     -10.625  12.837  68.501  1.00  0.00    -0.270 C  
HETATM    3  C   UNL     1      -9.837  12.462  67.259  1.00  0.00    -0.207 C  
HETATM    4  C   UNL     1      -8.370  11.026  67.609  1.00  0.00    -0.117 C  
HETATM    5  C   UNL     1      -7.677  17.441  67.354  1.00  0.00    -0.192 C  
HETATM    6  C   UNL     1      -6.869  17.834  68.614  1.00  0.00    -0.242 C  
HETATM    7  C   UNL     1      -7.171  16.793  69.680  1.00  0.00     0.183 C  
HETATM    8  C   UNL     1      -6.372  15.535  69.384  1.00  0.00    -0.138 C  
HETATM    9  C   UNL     1      -9.705  11.037  67.433  1.00  0.00    -0.189 C  
HETATM   10  C   UNL     1      -8.451  11.650  66.015  1.00  0.00     0.059 C  
HETATM   11  C   UNL     1     -10.541   9.763  67.667  1.00  0.00    -0.333 C  
HETATM   12  C   UNL     1      -6.587  14.495  70.495  1.00  0.00     0.028 C  
HETATM   13  C   UNL     1      -6.545  14.992  67.928  1.00  0.00    -0.174 C  
HETATM   14  C   UNL     1      -5.144  14.500  67.477  1.00  0.00     0.231 C  
HETATM   15  C   UNL     1      -7.301  12.834  66.567  1.00  0.00     0.970 C  
HETATM   16  C   UNL     1      -7.006  16.124  66.827  1.00  0.00    -0.107 C  
HETATM   17  H   UNL     1      -6.994  19.755  68.499  1.00  0.00     0.000 HD 
HETATM   18  O   UNL     1      -7.183  19.104  69.166  1.00  0.00    -0.332 OA 
HETATM   19  C   UNL     1      -7.947  13.791  70.433  1.00  0.00     2.592 C  
HETATM   20  C   UNL     1      -7.600  13.810  67.854  1.00  0.00    -0.157 C  
HETATM   21  C   UNL     1      -8.022  12.964  69.152  1.00  0.00     0.452 C  
ENDROOT
BRANCH   3  22
HETATM   22  N   UNL     1     -10.984  12.436  65.806  1.00  0.00    -0.288 N  
HETATM   23  C   UNL     1     -12.988  13.898  65.413  1.00  0.00    -0.368 C  
HETATM   24  C   UNL     1     -11.793  14.500  64.729  1.00  0.00    -0.446 C  
HETATM   25  C   UNL     1     -12.534  12.625  66.080  1.00  0.00     0.105 C  
HETATM   26  C   UNL     1     -10.722  13.435  64.666  1.00  0.00    -0.411 C  
BRANCH  22  27
HETATM   27  C   UNL     1     -10.794  10.989  65.122  1.00  0.00    -0.112 C  
BRANCH  27  28
HETATM   28  C   UNL     1     -10.503  10.975  63.657  1.00  0.00    -0.388 C  
HETATM   29  C   UNL     1      -9.444  10.338  63.136  1.00  0.00    -0.337 C  
ENDBRANCH  27  28
ENDBRANCH  22  27
ENDBRANCH   3  22
BRANCH   4  30
HETATM   30  O   UNL     1      -8.311   9.564  67.037  1.00  0.00    -0.122 OA 
BRANCH  30  31
HETATM   31  C   UNL     1      -7.297   8.672  67.149  1.00  0.00    -0.088 C  
HETATM   32  C   UNL     1      -7.828   7.302  66.787  1.00  0.00    -0.113 C  
HETATM   33  O   UNL     1      -6.120   8.976  67.269  1.00  0.00    -0.056 OA 
ENDBRANCH  30  31
ENDBRANCH   4  30
BRANCH   5  34
HETATM   34  N   UNL     1      -7.991  18.545  66.414  1.00  0.00    -0.269 NA 
HETATM   35  C   UNL     1      -8.899  19.627  66.814  1.00  0.00    -0.343 C  
HETATM   36  C   UNL     1      -8.160  20.716  67.587  1.00  0.00    -0.148 C  
HETATM   37  O   UNL     1      -7.157  21.317  66.760  1.00  0.00    -0.323 OA 
HETATM   38  C   UNL     1      -6.229  20.344  66.266  1.00  0.00    -0.206 C  
HETATM   39  C   UNL     1      -6.911  19.127  65.613  1.00  0.00    -0.274 C  
ENDBRANCH   5  34
TORSDOF 6
ENDMDL
MODEL      102
REMARK 921   NORMALIZED FREE ENERGY PREDICTED BY IDOCK:    0.96 KCAL/MOL
REMARK 922        TOTAL FREE ENERGY PREDICTED BY IDOCK:    1.00 KCAL/MOL
REMARK 923 INTER-LIGAND FREE ENERGY PREDICTED BY IDOCK:    0.12 KCAL/MOL
REMARK 924 INTRA-LIGAND FREE ENERGY PREDICTED BY IDOCK:    0.88 KCAL/MOL
REMARK 927      BINDING AFFINITY PREDICTED BY RF-SCORE:    0.00 PKD
ROOT
HETATM    1  C   UNL     1     -11.860  10.018  68.179  1.00  0.00     0.929 C  
HETATM    2  C   UNL     1     -11.852   8.573  68.237  1.00  0.00     2.491 C  
HETATM    3  C   UNL     1     -10.851   8.989  69.299  1.00  0.00    -0.113 C  
HETATM    4  C   UNL     1     -10.868  11.033  69.700  1.00  0.00    -0.183 C  
HETATM    5  C   UNL     1      -6.900   7.780  65.780  1.00  0.00    -0.053 C  
HETATM    6  C   UNL     1      -6.883   8.562  64.444  1.00  0.00    -0.070 C  
HETATM    7  C   UNL     1      -8.223   9.271  64.326  1.00  0.00    -0.153 C  
HETATM    8  C   UNL     1      -8.210  10.504  65.213  1.00  0.00    -0.146 C  
HETATM    9  C   UNL     1     -11.616   9.964  70.035  1.00  0.00    -0.235 C  
HETATM   10  C   UNL     1      -9.697  10.108  70.542  1.00  0.00     0.259 C  
HETATM   11  C   UNL     1     -12.953  10.142  70.783  1.00  0.00    -0.380 C  
HETATM   12  C   UNL     1      -9.519  11.293  65.047  1.00  0.00    -0.237 C  
HETATM   13  C   UNL     1      -7.791  10.226  66.694  1.00  0.00    -0.116 C  
HETATM   14  C   UNL     1      -6.903  11.422  67.128  1.00  0.00    -0.124 C  
HETATM   15  C   UNL     1      -8.649  10.467  69.200  1.00  0.00    -0.157 C  
HETATM   16  C   UNL     1      -6.871   8.878  66.901  1.00  0.00    -0.077 C  
HETATM   17  H   UNL     1      -5.886   7.325  63.351  1.00  0.00     0.000 HD 
HETATM   18  O   UNL     1      -6.723   7.769  63.277  1.00  0.00    -0.068 OA 
HETATM   19  C   UNL     1     -10.724  10.653  65.746  1.00  0.00    -0.097 C  
HETATM   20  C   UNL     1      -9.046  10.087  67.653  1.00  0.00    -0.142 C  
HETATM   21  C   UNL     1     -10.489  10.668  67.254  1.00  0.00    -0.293 C  
ENDROOT
BRANCH   3  22
HETATM   22  N   UNL     1     -10.783   7.679  70.606  1.00  0.00    -0.227 N  
HETATM   23  C   UNL     1      -8.740   6.725  71.709  1.00  0.00    -0.128 C  
HETATM   24  C   UNL     1      -9.285   7.840  72.556  1.00  0.00    -0.227 C  
HETATM   25  C   UNL     1      -9.637   6.590  70.506  1.00  0.00    -0.169 C  
HETATM   26  C   UNL     1     -10.687   8.132  72.073  1.00  0.00    -0.278 C  
BRANCH  22  27
HETATM   27  C   UNL     1     -12.191   6.899  70.519  1.00  0.00    -0.199 C  
BRANCH  27  28
HETATM   28  C   UNL     1     -12.981   6.803  71.783  1.00  0.00    -0.274 C  
HETATM   29  C   UNL     1     -14.311   6.630  71.794  1.00  0.00    -0.192 C  
ENDBRANCH  27  28
ENDBRANCH  22  27
ENDBRANCH   3  22
BRANCH   4  30
HETATM   30  O   UNL     1     -11.282  11.738  71.042  1.00  0.00     1.215 OA 
BRANCH  30  31
HETATM   31  C   UNL     1     -11.987  12.885  71.189  1.00  0.00     0.427 C  
HETATM   32  C   UNL     1     -11.612  13.821  70.060  1.00  0.00    -0.265 C  
HETATM   33  O   UNL     1     -12.934  13.021  71.948  1.00  0.00    -0.353 OA 
ENDBRANCH  30  31
ENDBRANCH   4  30
BRANCH   5  34
HETATM   34  N   UNL     1      -5.991   6.610  65.858  1.00  0.00    -0.029 NA 
HETATM   35  C   UNL     1      -5.710   5.972  67.150  1.00  0.00    -0.016 C  
HETATM   36  C   UNL     1      -6.785   4.952  67.514  1.00  0.00    -0.055 C  
HETATM   37  O   UNL     1      -6.818   3.899  66.543  1.00  0.00    -0.055 OA 
HETATM   38  C   UNL     1      -7.042   4.407  65.222  1.00  0.00    -0.066 C  
HETATM   39  C   UNL     1      -6.093   5.560  64.842  1.00  0.00    -0.022 C  
ENDBRANCH   5  34
TORSDOF 6
ENDMDL
MODEL      103
REMARK 921   NORMALIZED FREE ENERGY PREDICTED BY IDOCK:    0.99 KCAL/MOL
REMARK 922        TOTAL FREE ENERGY PREDICTED BY IDOCK:    1.05 KCAL/MOL
REMARK 923 INTER-LIGAND FREE ENERGY PREDICTED BY IDOCK:    0.85 KCAL/MOL
REMARK 924 INTRA-LIGAND FREE ENERGY PREDICTED BY IDOCK:    0.20 KCAL/MOL
REMARK 927      BINDING AFFINITY PREDICTED BY RF-SCORE:    0.00 PKD
ROOT
HETATM    1  C   UNL     1     -10.326  14.074  68.979  1.00  0.00    -0.136 C  
HETATM    2  C   UNL     1      -9.524  12.873  68.900  1.00  0.00     0.252 C  
HETATM    3  C   UNL     1      -8.680  13.925  68.205  1.00  0.00    -0.183 C  
HETATM    4  C   UNL     1      -9.410  15.862  68.437  1.00  0.00    -0.201 C  
HETATM    5  C   UNL     1     -10.314  11.837  63.470  1.00  0.00    -0.448 C  
HETATM    6  C   UNL     1     -11.834  11.846  63.183  1.00  0.00    -0.168 C  
HETATM    7  C   UNL     1     -12.533  12.161  64.496  1.00  0.00    -0.374 C  
HETATM    8  C   UNL     1     -12.430  13.652  64.766  1.00  0.00    -0.391 C  
HETATM    9  C   UNL     1      -8.703  14.988  69.179  1.00  0.00    -0.188 C  
HETATM   10  C   UNL     1      -8.023  15.691  67.446  1.00  0.00    -0.204 C  
HETATM   11  C   UNL     1      -8.401  15.279  70.663  1.00  0.00     1.713 C  
HETATM   12  C   UNL     1     -13.205  14.017  66.042  1.00  0.00     0.475 C  
HETATM   13  C   UNL     1     -10.974  14.219  64.693  1.00  0.00    -0.379 C  
HETATM   14  C   UNL     1     -11.080  15.605  64.005  1.00  0.00     0.535 C  
HETATM   15  C   UNL     1      -9.151  15.515  66.133  1.00  0.00    -0.359 C  
HETATM   16  C   UNL     1      -9.941  13.331  63.771  1.00  0.00     1.049 C  
HETATM   17  H   UNL     1     -11.933  10.423  61.884  1.00  0.00     0.000 HD 
HETATM   18  O   UNL     1     -12.370  10.621  62.705  1.00  0.00     1.783 OA 
HETATM   19  C   UNL     1     -12.495  13.610  67.338  1.00  0.00     0.052 C  
HETATM   20  C   UNL     1     -10.316  14.358  66.130  1.00  0.00    -0.305 C  
HETATM   21  C   UNL     1     -11.201  14.407  67.469  1.00  0.00    -0.329 C  
ENDROOT
BRANCH   3  22
HETATM   22  N   UNL     1      -6.894  13.466  68.371  1.00  0.00    -0.091 N  
HETATM   23  C   UNL     1      -5.183  14.500  69.891  1.00  0.00    -0.093 C  
HETATM   24  C   UNL     1      -5.775  13.292  70.560  1.00  0.00    -0.176 C  
HETATM   25  C   UNL     1      -5.839  14.636  68.541  1.00  0.00    -0.098 C  
HETATM   26  C   UNL     1      -6.503  12.497  69.500  1.00  0.00    -0.083 C  
BRANCH  22  27
HETATM   27  C   UNL     1      -6.516  12.676  67.017  1.00  0.00     0.174 C  
BRANCH  27  28
HETATM   28  C   UNL     1      -5.769  11.393  67.178  1.00  0.00    -0.092 C  
HETATM   29  C   UNL     1      -6.284  10.206  66.826  1.00  0.00    -0.068 C  
ENDBRANCH  27  28
ENDBRANCH  22  27
ENDBRANCH   3  22
BRANCH   4  30
HETATM   30  O   UNL     1      -8.726  17.055  69.197  1.00  0.00    -0.179 OA 
BRANCH  30  31
HETATM   31  C   UNL     1      -8.684  18.357  68.825  1.00  0.00    -0.221 C  
HETATM   32  C   UNL     1     -10.102  18.882  68.777  1.00  0.00    -0.415 C  
HETATM   33  O   UNL     1      -7.668  19.033  68.790  1.00  0.00    -0.337 OA 
ENDBRANCH  30  31
ENDBRANCH   4  30
BRANCH   5  34
HETATM   34  N   UNL     1      -9.483  11.035  62.538  1.00  0.00    -0.272 NA 
HETATM   35  C   UNL     1      -8.064  11.358  62.340  1.00  0.00     0.142 C  
HETATM   36  C   UNL     1      -7.191  10.712  63.412  1.00  0.00     0.163 C  
HETATM   37  O   UNL     1      -7.293   9.285  63.340  1.00  0.00    -0.095 OA 
HETATM   38  C   UNL     1      -8.650   8.846  63.475  1.00  0.00    -0.090 C  
HETATM   39  C   UNL     1      -9.624   9.577  62.532  1.00  0.00     0.483 C  
ENDBRANCH   5  34
TORSDOF 6
ENDMDL
MODEL      104
REMARK 921   NORMALIZED FREE ENERGY PREDICTED BY IDOCK:    1.47 KCAL/MOL
REMARK 922        TOTAL FREE ENERGY PREDICTED BY IDOCK:    1.69 KCAL/MOL
REMARK 923 INTER-LIGAND FREE ENERGY PREDICTED BY IDOCK:    1.39 KCAL/MOL
REMARK 924 INTRA-LIGAND FREE ENERGY PREDICTED BY IDOCK:    0.30 KCAL/MOL
REMARK 927      BINDING AFFINITY PREDICTED BY RF-SCORE:    0.00 PKD
ROOT
HETATM    1  C   UNL     1     -12.276   9.898  68.567  1.00  0.00     1.837 C  
HETATM    2  C   UNL     1     -11.614   8.616  68.466  1.00  0.00     1.316 C  
HETATM    3  C   UNL     1     -10.720   9.419  69.392  1.00  0.00    -0.217 C  
HETATM    4  C   UNL     1     -11.567  11.218  70.011  1.00  0.00    -0.321 C  
HETATM    5  C   UNL     1      -7.404  10.236  65.173  1.00  0.00    -0.127 C  
HETATM    6  C   UNL     1      -7.994  10.971  63.946  1.00  0.00     0.498 C  
HETATM    7  C   UNL     1      -9.504  10.991  64.122  1.00  0.00    -0.274 C  
HETATM    8  C   UNL     1      -9.871  12.072  65.125  1.00  0.00    -0.223 C  
HETATM    9  C   UNL     1     -11.681   9.918  70.343  1.00  0.00    -0.333 C  
HETATM   10  C   UNL     1      -9.969  10.911  70.548  1.00  0.00     1.679 C  
HETATM   11  C   UNL     1     -12.786   9.446  71.310  1.00  0.00    -0.391 C  
HETATM   12  C   UNL     1     -11.398  12.177  65.258  1.00  0.00    -0.386 C  
HETATM   13  C   UNL     1      -9.095  11.980  66.480  1.00  0.00    -0.202 C  
HETATM   14  C   UNL     1      -8.767  13.439  66.893  1.00  0.00    -0.154 C  
HETATM   15  C   UNL     1      -9.470  11.742  69.103  1.00  0.00     0.314 C  
HETATM   16  C   UNL     1      -7.651  11.198  66.388  1.00  0.00    -0.109 C  
HETATM   17  H   UNL     1      -6.782  10.353  62.579  1.00  0.00     0.000 HD 
HETATM   18  O   UNL     1      -7.726  10.366  62.689  1.00  0.00    -0.143 OA 
HETATM   19  C   UNL     1     -12.033  11.041  66.067  1.00  0.00     1.639 C  
HETATM   20  C   UNL     1      -9.947  11.260  67.607  1.00  0.00    -0.197 C  
HETATM   21  C   UNL     1     -11.544  11.125  67.511  1.00  0.00    -0.220 C  
ENDROOT
BRANCH   3  22
HETATM   22  N   UNL     1      -9.826   8.254  70.520  1.00  0.00    -0.182 N  
HETATM   23  C   UNL     1     -10.364   7.728  72.915  1.00  0.00    -0.396 C  
HETATM   24  C   UNL     1     -11.012   6.705  72.025  1.00  0.00    -0.274 C  
HETATM   25  C   UNL     1      -9.620   8.692  72.028  1.00  0.00    -0.314 C  
HETATM   26  C   UNL     1     -10.375   6.824  70.659  1.00  0.00    -0.201 C  
BRANCH  22  27
HETATM   27  C   UNL     1      -8.360   8.058  69.876  1.00  0.00    -0.121 C  
BRANCH  27  28
HETATM   28  C   UNL     1      -8.175   6.875  68.984  1.00  0.00    -0.125 C  
HETATM   29  C   UNL     1      -8.689   6.814  67.747  1.00  0.00    -0.120 C  
ENDBRANCH  27  28
ENDBRANCH  22  27
ENDBRANCH   3  22
BRANCH   4  30
HETATM   30  O   UNL     1     -11.984  11.623  71.470  1.00  0.00     0.243 OA 
BRANCH  30  31
HETATM   31  C   UNL     1     -12.938  12.511  71.841  1.00  0.00    -0.301 C  
HETATM   32  C   UNL     1     -12.703  13.802  71.086  1.00  0.00    -0.438 C  
HETATM   33  O   UNL     1     -13.943  12.222  72.471  1.00  0.00    -0.093 OA 
ENDBRANCH  30  31
ENDBRANCH   4  30
BRANCH   5  34
HETATM   34  N   UNL     1      -6.073   9.610  64.977  1.00  0.00    -0.079 NA 
HETATM   35  C   UNL     1      -5.196   9.351  66.125  1.00  0.00    -0.036 C  
HETATM   36  C   UNL     1      -5.537   8.026  66.799  1.00  0.00    -0.033 C  
HETATM   37  O   UNL     1      -5.336   6.940  65.886  1.00  0.00    -0.021 OA 
HETATM   38  C   UNL     1      -6.112   7.103  64.694  1.00  0.00    -0.037 C  
HETATM   39  C   UNL     1      -5.944   8.489  64.042  1.00  0.00    -0.067 C  
ENDBRANCH   5  34
TORSDOF 6
ENDMDL
MODEL      105
REMARK 921   NORMALIZED FREE ENERGY PREDICTED BY IDOCK:    1.53 KCAL/MOL
REMARK 922        TOTAL FREE ENERGY PREDICTED BY IDOCK:    1.77 KCAL/MOL
REMARK 923 INTER-LIGAND FREE ENERGY PREDICTED BY IDOCK:   -1.39 KCAL/MOL
REMARK 924 INTRA-LIGAND FREE ENERGY PREDICTED BY IDOCK:    3.16 KCAL/MOL
REMARK 927      BINDING AFFINITY PREDICTED BY RF-SCORE:    0.00 PKD
ROOT
HETATM    1  C   UNL     1      -8.575  11.773  69.595  1.00  0.00     1.395 C  
HETATM    2  C   UNL     1      -9.883  12.294  69.263  1.00  0.00     0.562 C  
HETATM    3  C   UNL     1      -9.275  11.939  67.918  1.00  0.00    -0.187 C  
HETATM    4  C   UNL     1      -7.507  10.849  68.066  1.00  0.00    -0.090 C  
HETATM    5  C   UNL     1      -8.198  17.213  67.225  1.00  0.00    -0.187 C  
HETATM    6  C   UNL     1      -7.271  17.886  68.266  1.00  0.00    -0.236 C  
HETATM    7  C   UNL     1      -7.154  16.929  69.442  1.00  0.00    -0.126 C  
HETATM    8  C   UNL     1      -6.182  15.818  69.081  1.00  0.00    -0.126 C  
HETATM    9  C   UNL     1      -8.826  10.592  68.163  1.00  0.00    -0.134 C  
HETATM   10  C   UNL     1      -8.004  11.270  66.482  1.00  0.00    -0.145 C  
HETATM   11  C   UNL     1      -9.327   9.217  68.649  1.00  0.00    -0.135 C  
HETATM   12  C   UNL     1      -5.974  14.883  70.283  1.00  0.00    -0.157 C  
HETATM   13  C   UNL     1      -6.504  15.097  67.732  1.00  0.00    -0.182 C  
HETATM   14  C   UNL     1      -5.139  14.829  67.045  1.00  0.00     1.136 C  
HETATM   15  C   UNL     1      -7.039  12.700  66.707  1.00  0.00     0.437 C  
HETATM   16  C   UNL     1      -7.380  15.996  66.668  1.00  0.00    -0.099 C  
HETATM   17  H   UNL     1      -7.805  19.725  68.043  1.00  0.00     0.000 HD 
HETATM   18  O   UNL     1      -7.731  19.128  68.778  1.00  0.00    -0.339 OA 
HETATM   19  C   UNL     1      -7.149  13.935  70.546  1.00  0.00     0.944 C  
HETATM   20  C   UNL     1      -7.291  13.738  67.955  1.00  0.00    -0.134 C  
HETATM   21  C   UNL     1      -7.287  12.974  69.368  1.00  0.00     0.348 C  
ENDROOT
BRANCH   3  22
HETATM   22  N   UNL     1     -10.639  11.542  66.730  1.00  0.00    -0.239 N  
HETATM   23  C   UNL     1     -11.113  12.638  64.522  1.00  0.00    -0.365 C  
HETATM   24  C   UNL     1     -10.272  11.413  64.297  1.00  0.00    -0.367 C  
HETATM   25  C   UNL     1     -11.366  12.747  66.003  1.00  0.00    -0.321 C  
HETATM   26  C   UNL     1     -10.322  10.590  65.564  1.00  0.00    -0.217 C  
BRANCH  22  27
HETATM   27  C   UNL     1     -11.757  10.760  67.591  1.00  0.00     0.200 C  
BRANCH  27  28
HETATM   28  C   UNL     1     -12.188  11.404  68.868  1.00  0.00    -0.153 C  
HETATM   29  C   UNL     1     -12.596  10.698  69.933  1.00  0.00    -0.168 C  
ENDBRANCH  27  28
ENDBRANCH  22  27
ENDBRANCH   3  22
BRANCH   4  30
HETATM   30  O   UNL     1      -7.257   9.370  67.600  1.00  0.00    -0.082 OA 
BRANCH  30  31
HETATM   31  C   UNL     1      -6.073   8.713  67.533  1.00  0.00    -0.052 C  
HETATM   32  C   UNL     1      -5.177   9.238  68.634  1.00  0.00    -0.034 C  
HETATM   33  O   UNL     1      -5.877   7.709  66.867  1.00  0.00    -0.037 OA 
ENDBRANCH  30  31
ENDBRANCH   4  30
BRANCH   5  34
HETATM   34  N   UNL     1      -8.897  18.130  66.291  1.00  0.00    -0.456 NA 
HETATM   35  C   UNL     1     -10.361  18.238  66.311  1.00  0.00    -0.405 C  
HETATM   36  C   UNL     1     -10.833  19.226  67.373  1.00  0.00    -0.446 C  
HETATM   37  O   UNL     1     -10.337  20.539  67.085  1.00  0.00    -0.299 OA 
HETATM   38  C   UNL     1      -8.907  20.553  66.994  1.00  0.00    -0.242 C  
HETATM   39  C   UNL     1      -8.344  19.467  66.058  1.00  0.00    -0.249 C  
ENDBRANCH   5  34
TORSDOF 6
ENDMDL
MODEL      106
REMARK 921   NORMALIZED FREE ENERGY PREDICTED BY IDOCK:    1.68 KCAL/MOL
REMARK 922        TOTAL FREE ENERGY PREDICTED BY IDOCK:    1.97 KCAL/MOL
REMARK 923 INTER-LIGAND FREE ENERGY PREDICTED BY IDOCK:    0.26 KCAL/MOL
REMARK 924 INTRA-LIGAND FREE ENERGY PREDICTED BY IDOCK:    1.71 KCAL/MOL
REMARK 927      BINDING AFFINITY PREDICTED BY RF-SCORE:    0.00 PKD
ROOT
HETATM    1  C   UNL     1      -8.453  16.242  65.860  1.00  0.00     0.023 C  
HETATM    2  C   UNL     1      -9.130  15.124  65.242  1.00  0.00     1.033 C  
HETATM    3  C   UNL     1      -9.953  15.411  66.484  1.00  0.00    -0.268 C  
HETATM    4  C   UNL     1      -9.431  17.190  67.432  1.00  0.00    -0.247 C  
HETATM    5  C   UNL     1      -7.487  11.201  68.862  1.00  0.00    -0.125 C  
HETATM    6  C   UNL     1      -5.947  11.273  69.000  1.00  0.00    -0.042 C  
HETATM    7  C   UNL     1      -5.473  12.409  68.109  1.00  0.00    -0.064 C  
HETATM    8  C   UNL     1      -5.740  13.732  68.808  1.00  0.00    -0.084 C  
HETATM    9  C   UNL     1     -10.159  16.832  66.358  1.00  0.00    -0.327 C  
HETATM   10  C   UNL     1     -10.643  16.253  68.199  1.00  0.00    -0.307 C  
HETATM   11  C   UNL     1     -10.694  17.896  65.378  1.00  0.00     0.121 C  
HETATM   12  C   UNL     1      -5.190  14.897  67.971  1.00  0.00    -0.115 C  
HETATM   13  C   UNL     1      -7.214  13.910  69.300  1.00  0.00     0.016 C  
HETATM   14  C   UNL     1      -7.130  14.613  70.681  1.00  0.00     0.603 C  
HETATM   15  C   UNL     1      -9.328  15.508  69.062  1.00  0.00    -0.235 C  
HETATM   16  C   UNL     1      -8.025  12.502  69.555  1.00  0.00     1.076 C  
HETATM   17  H   UNL     1      -5.543   9.394  69.158  1.00  0.00     0.000 HD 
HETATM   18  O   UNL     1      -5.246  10.104  68.601  1.00  0.00    -0.039 OA 
HETATM   19  C   UNL     1      -6.040  15.236  66.741  1.00  0.00     1.344 C  
HETATM   20  C   UNL     1      -8.080  14.773  68.288  1.00  0.00    -0.139 C  
HETATM   21  C   UNL     1      -7.403  15.743  67.203  1.00  0.00    -0.257 C  
ENDROOT
BRANCH   3  22
HETATM   22  N   UNL     1     -11.698  14.871  66.184  1.00  0.00    -0.247 N  
HETATM   23  C   UNL     1     -12.981  14.967  64.028  1.00  0.00     1.011 C  
HETATM   24  C   UNL     1     -12.361  13.606  64.176  1.00  0.00    -0.385 C  
HETATM   25  C   UNL     1     -12.603  15.771  65.245  1.00  0.00     1.379 C  
HETATM   26  C   UNL     1     -11.927  13.460  65.617  1.00  0.00    -0.401 C  
BRANCH  22  27
HETATM   27  C   UNL     1     -12.403  14.838  67.634  1.00  0.00     0.231 C  
BRANCH  27  28
HETATM   28  C   UNL     1     -12.012  13.718  68.542  1.00  0.00    -0.402 C  
HETATM   29  C   UNL     1     -12.413  13.648  69.820  1.00  0.00    -0.193 C  
ENDBRANCH  27  28
ENDBRANCH  22  27
ENDBRANCH   3  22
BRANCH   4  30
HETATM   30  O   UNL     1     -10.316  18.478  67.598  1.00  0.00    -0.369 OA 
BRANCH  30  31
HETATM   31  C   UNL     1      -9.996  19.623  68.247  1.00  0.00    -0.436 C  
HETATM   32  C   UNL     1      -9.628  20.666  67.213  1.00  0.00    -0.558 C  
HETATM   33  O   UNL     1     -10.218  19.833  69.429  1.00  0.00    -0.347 OA 
ENDBRANCH  30  31
ENDBRANCH   4  30
BRANCH   5  34
HETATM   34  N   UNL     1      -8.105   9.886  69.164  1.00  0.00    -0.108 NA 
HETATM   35  C   UNL     1      -9.483   9.810  69.664  1.00  0.00    -0.219 C  
HETATM   36  C   UNL     1     -10.493   9.835  68.521  1.00  0.00    -0.210 C  
HETATM   37  O   UNL     1     -10.309   8.697  67.671  1.00  0.00    -0.226 OA 
HETATM   38  C   UNL     1      -8.975   8.637  67.153  1.00  0.00    -0.132 C  
HETATM   39  C   UNL     1      -7.892   8.770  68.240  1.00  0.00    -0.101 C  
ENDBRANCH   5  34
TORSDOF 6
ENDMDL
MODEL      107
REMARK 921   NORMALIZED FREE ENERGY PREDICTED BY IDOCK:    1.91 KCAL/MOL
REMARK 922        TOTAL FREE ENERGY PREDICTED BY IDOCK:    2.28 KCAL/MOL
REMARK 923 INTER-LIGAND FREE ENERGY PREDICTED BY IDOCK:   -4.26 KCAL/MOL
REMARK 924 INTRA-LIGAND FREE ENERGY PREDICTED BY IDOCK:    6.54 KCAL/MOL
REMARK 927      BINDING AFFINITY PREDICTED BY RF-SCORE:    0.00 PKD
ROOT
HETATM    1  C   UNL     1      -9.887  17.394  68.619  1.00  0.00    -0.322 C  
HETATM    2  C   UNL     1      -9.060  16.770  69.628  1.00  0.00     0.530 C  
HETATM    3  C   UNL     1      -8.255  16.623  68.350  1.00  0.00    -0.206 C  
HETATM    4  C   UNL     1      -9.024  17.718  66.754  1.00  0.00    -0.259 C  
HETATM    5  C   UNL     1      -9.940  11.470  68.103  1.00  0.00    -0.192 C  
HETATM    6  C   UNL     1     -11.466  11.231  68.010  1.00  0.00    -0.298 C  
HETATM    7  C   UNL     1     -12.145  12.550  68.348  1.00  0.00    -0.123 C  
HETATM    8  C   UNL     1     -12.070  13.469  67.141  1.00  0.00    -0.386 C  
HETATM    9  C   UNL     1      -8.282  17.974  67.848  1.00  0.00    -0.248 C  
HETATM   10  C   UNL     1      -7.655  16.746  66.413  1.00  0.00    -0.325 C  
HETATM   11  C   UNL     1      -7.955  19.425  68.255  1.00  0.00    -0.366 C  
HETATM   12  C   UNL     1     -12.825  14.778  67.421  1.00  0.00     1.549 C  
HETATM   13  C   UNL     1     -10.629  13.650  66.560  1.00  0.00    -0.282 C  
HETATM   14  C   UNL     1     -10.781  13.670  65.016  1.00  0.00    -0.374 C  
HETATM   15  C   UNL     1      -8.806  15.506  66.006  1.00  0.00    -0.160 C  
HETATM   16  C   UNL     1      -9.596  12.415  66.899  1.00  0.00    -0.219 C  
HETATM   17  H   UNL     1     -11.560   9.428  68.688  1.00  0.00     0.000 HD 
HETATM   18  O   UNL     1     -11.984  10.252  68.899  1.00  0.00    -0.099 OA 
HETATM   19  C   UNL     1     -12.080  15.740  68.352  1.00  0.00     0.132 C  
HETATM   20  C   UNL     1      -9.945  14.987  67.070  1.00  0.00    -0.242 C  
HETATM   21  C   UNL     1     -10.801  16.208  67.662  1.00  0.00    -0.297 C  
ENDROOT
BRANCH   3  22
HETATM   22  N   UNL     1      -6.456  16.547  68.780  1.00  0.00    -0.145 N  
HETATM   23  C   UNL     1      -5.262  14.740  70.052  1.00  0.00    -0.096 C  
HETATM   24  C   UNL     1      -5.139  14.473  68.579  1.00  0.00    -0.104 C  
HETATM   25  C   UNL     1      -6.058  16.010  70.217  1.00  0.00    -0.026 C  
HETATM   26  C   UNL     1      -5.529  15.741  67.854  1.00  0.00    -0.135 C  
BRANCH  22  27
HETATM   27  C   UNL     1      -5.913  18.061  68.670  1.00  0.00    -0.189 C  
BRANCH  27  28
HETATM   28  C   UNL     1      -5.787  18.820  69.951  1.00  0.00    -0.255 C  
HETATM   29  C   UNL     1      -5.661  20.155  69.991  1.00  0.00    -0.320 C  
ENDBRANCH  27  28
ENDBRANCH  22  27
ENDBRANCH   3  22
BRANCH   4  30
HETATM   30  O   UNL     1      -8.352  18.932  66.018  1.00  0.00    -0.460 OA 
BRANCH  30  31
HETATM   31  C   UNL     1      -8.827  20.195  65.902  1.00  0.00    -0.039 C  
HETATM   32  C   UNL     1      -7.826  21.138  66.534  1.00  0.00     0.526 C  
HETATM   33  O   UNL     1      -9.765  20.518  65.189  1.00  0.00     0.265 OA 
ENDBRANCH  30  31
ENDBRANCH   4  30
BRANCH   5  34
HETATM   34  N   UNL     1      -9.111  10.268  68.367  1.00  0.00    -0.132 NA 
HETATM   35  C   UNL     1      -9.116   9.638  69.694  1.00  0.00    -0.210 C  
HETATM   36  C   UNL     1     -10.280   8.664  69.844  1.00  0.00    -0.203 C  
HETATM   37  O   UNL     1     -10.162   7.600  68.893  1.00  0.00    -0.199 OA 
HETATM   38  C   UNL     1     -10.101   8.096  67.551  1.00  0.00    -0.224 C  
HETATM   39  C   UNL     1      -9.052   9.207  67.358  1.00  0.00    -0.127 C  
ENDBRANCH   5  34
TORSDOF 6
ENDMDL
MODEL      108
REMARK 921   NORMALIZED FREE ENERGY PREDICTED BY IDOCK:    2.02 KCAL/MOL
REMARK 922        TOTAL FREE ENERGY PREDICTED BY IDOCK:    2.43 KCAL/MOL
REMARK 923 INTER-LIGAND FREE ENERGY PREDICTED BY IDOCK:    2.13 KCAL/MOL
REMARK 924 INTRA-LIGAND FREE ENERGY PREDICTED BY IDOCK:    0.31 KCAL/MOL
REMARK 927      BINDING AFFINITY PREDICTED BY RF-SCORE:    0.00 PKD
ROOT
HETATM    1  C   UNL     1     -12.006  15.232  67.693  1.00  0.00     0.063 C  
HETATM    2  C   UNL     1     -12.887  14.226  68.244  1.00  0.00     1.319 C  
HETATM    3  C   UNL     1     -11.743  14.298  69.238  1.00  0.00    -0.321 C  
HETATM    4  C   UNL     1     -10.453  15.899  68.906  1.00  0.00    -0.233 C  
HETATM    5  C   UNL     1      -9.760   9.770  66.996  1.00  0.00    -0.183 C  
HETATM    6  C   UNL     1      -9.397   9.829  65.493  1.00  0.00    -0.240 C  
HETATM    7  C   UNL     1     -10.015  11.101  64.935  1.00  0.00    -0.331 C  
HETATM    8  C   UNL     1      -9.155  12.287  65.336  1.00  0.00     0.348 C  
HETATM    9  C   UNL     1     -11.663  15.719  69.469  1.00  0.00    -0.369 C  
HETATM   10  C   UNL     1     -10.027  14.839  70.183  1.00  0.00     0.363 C  
HETATM   11  C   UNL     1     -12.521  16.927  69.896  1.00  0.00     3.302 C  
HETATM   12  C   UNL     1      -9.705  13.579  64.712  1.00  0.00     0.185 C  
HETATM   13  C   UNL     1      -8.852  12.371  66.868  1.00  0.00    -0.205 C  
HETATM   14  C   UNL     1      -7.377  12.836  66.996  1.00  0.00     0.087 C  
HETATM   15  C   UNL     1      -9.122  13.971  68.977  1.00  0.00     0.155 C  
HETATM   16  C   UNL     1      -8.947  10.935  67.663  1.00  0.00    -0.140 C  
HETATM   17  H   UNL     1      -9.493   7.953  65.057  1.00  0.00     0.000 HD 
HETATM   18  O   UNL     1      -9.879   8.748  64.708  1.00  0.00     0.804 OA 
HETATM   19  C   UNL     1     -10.970  14.111  65.394  1.00  0.00    -0.328 C  
HETATM   20  C   UNL     1      -9.821  13.383  67.612  1.00  0.00    -0.226 C  
HETATM   21  C   UNL     1     -10.628  14.525  66.823  1.00  0.00    -0.276 C  
ENDROOT
BRANCH   3  22
HETATM   22  N   UNL     1     -12.369  13.803  70.909  1.00  0.00    -0.367 N  
HETATM   23  C   UNL     1     -12.825  15.296  72.876  1.00  0.00    -0.541 C  
HETATM   24  C   UNL     1     -14.098  15.090  72.104  1.00  0.00    -0.629 C  
HETATM   25  C   UNL     1     -11.742  14.515  72.178  1.00  0.00     0.162 C  
HETATM   26  C   UNL     1     -13.879  13.918  71.174  1.00  0.00     0.056 C  
BRANCH  22  27
HETATM   27  C   UNL     1     -12.058  12.227  71.045  1.00  0.00     0.068 C  
BRANCH  27  28
HETATM   28  C   UNL     1     -13.185  11.294  70.743  1.00  0.00     0.169 C  
HETATM   29  C   UNL     1     -13.662  10.420  71.641  1.00  0.00    -0.060 C  
ENDBRANCH  27  28
ENDBRANCH  22  27
ENDBRANCH   3  22
BRANCH   4  30
HETATM   30  O   UNL     1     -10.206  17.135  69.844  1.00  0.00     0.037 OA 
BRANCH  30  31
HETATM   31  C   UNL     1      -9.886  18.400  69.479  1.00  0.00     0.256 C  
HETATM   32  C   UNL     1      -9.605  18.406  67.991  1.00  0.00    -0.316 C  
HETATM   33  O   UNL     1     -10.051  19.385  70.181  1.00  0.00     0.298 OA 
ENDBRANCH  30  31
ENDBRANCH   4  30
BRANCH   5  34
HETATM   34  N   UNL     1      -9.767   8.419  67.610  1.00  0.00    -0.153 NA 
HETATM   35  C   UNL     1      -8.837   7.385  67.139  1.00  0.00    -0.125 C  
HETATM   36  C   UNL     1      -7.477   7.506  67.821  1.00  0.00    -0.101 C  
HETATM   37  O   UNL     1      -7.612   7.315  69.234  1.00  0.00    -0.097 OA 
HETATM   38  C   UNL     1      -8.538   8.246  69.806  1.00  0.00    -0.129 C  
HETATM   39  C   UNL     1      -9.887   8.298  69.065  1.00  0.00    -0.176 C  
ENDBRANCH   5  34
TORSDOF 6
ENDMDL
MODEL      109
REMARK 921   NORMALIZED FREE ENERGY PREDICTED BY IDOCK:    2.03 KCAL/MOL
REMARK 922        TOTAL FREE ENERGY PREDICTED BY IDOCK:    2.45 KCAL/MOL
REMARK 923 INTER-LIGAND FREE ENERGY PREDICTED BY IDOCK:    2.03 KCAL/MOL
REMARK 924 INTRA-LIGAND FREE ENERGY PREDICTED BY IDOCK:    0.41 KCAL/MOL
REMARK 927      BINDING AFFINITY PREDICTED BY RF-SCORE:    0.00 PKD
ROOT
HETATM    1  C   UNL     1     -11.126   7.466  68.540  1.00  0.00     0.129 C  
HETATM    2  C   UNL     1      -9.724   7.174  68.336  1.00  0.00    -0.143 C  
HETATM    3  C   UNL     1      -9.806   7.582  69.795  1.00  0.00    -0.180 C  
HETATM    4  C   UNL     1     -11.758   7.752  70.502  1.00  0.00    -0.102 C  
HETATM    5  C   UNL     1      -7.881  12.446  68.349  1.00  0.00    -0.142 C  
HETATM    6  C   UNL     1      -8.720  13.263  67.337  1.00  0.00    -0.206 C  
HETATM    7  C   UNL     1      -9.748  12.314  66.742  1.00  0.00    -0.219 C  
HETATM    8  C   UNL     1     -10.878  12.119  67.739  1.00  0.00    -0.263 C  
HETATM    9  C   UNL     1     -10.891   6.752  70.255  1.00  0.00    -0.314 C  
HETATM   10  C   UNL     1     -10.515   8.162  71.608  1.00  0.00    -0.288 C  
HETATM   11  C   UNL     1     -11.348   5.280  70.319  1.00  0.00     0.982 C  
HETATM   12  C   UNL     1     -11.978  11.235  67.131  1.00  0.00     0.507 C  
HETATM   13  C   UNL     1     -10.405  11.697  69.169  1.00  0.00    -0.045 C  
HETATM   14  C   UNL     1     -11.310  12.462  70.170  1.00  0.00     0.154 C  
HETATM   15  C   UNL     1     -10.688   9.780  70.993  1.00  0.00    -0.342 C  
HETATM   16  C   UNL     1      -8.860  12.126  69.533  1.00  0.00     1.445 C  
HETATM   17  H   UNL     1      -7.347  14.417  66.627  1.00  0.00     0.000 HD 
HETATM   18  O   UNL     1      -7.990  13.824  66.255  1.00  0.00     0.966 OA 
HETATM   19  C   UNL     1     -11.615   9.747  67.067  1.00  0.00     1.683 C  
HETATM   20  C   UNL     1     -10.523  10.131  69.397  1.00  0.00    -0.254 C  
HETATM   21  C   UNL     1     -11.471   9.208  68.487  1.00  0.00     0.661 C  
ENDROOT
BRANCH   3  22
HETATM   22  N   UNL     1      -8.437   6.753  70.727  1.00  0.00    -0.132 N  
HETATM   23  C   UNL     1      -6.751   5.119  69.837  1.00  0.00    -0.040 C  
HETATM   24  C   UNL     1      -6.170   6.504  69.794  1.00  0.00    -0.037 C  
HETATM   25  C   UNL     1      -8.140   5.229  70.411  1.00  0.00    -0.096 C  
HETATM   26  C   UNL     1      -7.037   7.387  70.662  1.00  0.00    -0.060 C  
BRANCH  22  27
HETATM   27  C   UNL     1      -8.847   6.846  72.284  1.00  0.00    -0.134 C  
BRANCH  27  28
HETATM   28  C   UNL     1      -8.466   5.687  73.145  1.00  0.00    -0.117 C  
HETATM   29  C   UNL     1      -7.869   5.836  74.337  1.00  0.00    -0.097 C  
ENDBRANCH  27  28
ENDBRANCH  22  27
ENDBRANCH   3  22
BRANCH   4  30
HETATM   30  O   UNL     1     -12.454   6.873  71.602  1.00  0.00    -0.350 OA 
BRANCH  30  31
HETATM   31  C   UNL     1     -13.727   6.970  72.054  1.00  0.00    -0.052 C  
HETATM   32  C   UNL     1     -14.273   8.322  71.646  1.00  0.00    -0.530 C  
HETATM   33  O   UNL     1     -14.382   6.033  72.483  1.00  0.00    -0.084 OA 
ENDBRANCH  30  31
ENDBRANCH   4  30
BRANCH   5  34
HETATM   34  N   UNL     1      -6.518  12.962  68.627  1.00  0.00    -0.080 NA 
HETATM   35  C   UNL     1      -6.324  14.095  69.541  1.00  0.00    -0.120 C  
HETATM   36  C   UNL     1      -6.268  13.635  70.994  1.00  0.00     0.209 C  
HETATM   37  O   UNL     1      -5.152  12.760  71.195  1.00  0.00    -0.133 OA 
HETATM   38  C   UNL     1      -5.205  11.628  70.319  1.00  0.00    -0.095 C  
HETATM   39  C   UNL     1      -5.426  12.009  68.843  1.00  0.00    -0.050 C  
ENDBRANCH   5  34
TORSDOF 6
ENDMDL
MODEL      110
REMARK 921   NORMALIZED FREE ENERGY PREDICTED BY IDOCK:    2.09 KCAL/MOL
REMARK 922        TOTAL FREE ENERGY PREDICTED BY IDOCK:    2.53 KCAL/MOL
REMARK 923 INTER-LIGAND FREE ENERGY PREDICTED BY IDOCK:    1.86 KCAL/MOL
REMARK 924 INTRA-LIGAND FREE ENERGY PREDICTED BY IDOCK:    0.67 KCAL/MOL
REMARK 927      BINDING AFFINITY PREDICTED BY RF-SCORE:    0.00 PKD
ROOT
HETATM    1  C   UNL     1      -9.556  13.202  66.857  1.00  0.00    -0.248 C  
HETATM    2  C   UNL     1      -8.111  13.164  66.894  1.00  0.00     0.065 C  
HETATM    3  C   UNL     1      -8.508  13.467  68.327  1.00  0.00    -0.168 C  
HETATM    4  C   UNL     1     -10.550  13.262  68.684  1.00  0.00    -0.246 C  
HETATM    5  C   UNL     1      -7.260  18.663  67.377  1.00  0.00    -0.206 C  
HETATM    6  C   UNL     1      -8.047  19.383  66.257  1.00  0.00    -0.325 C  
HETATM    7  C   UNL     1      -8.776  18.310  65.464  1.00  0.00     1.043 C  
HETATM    8  C   UNL     1     -10.005  17.869  66.241  1.00  0.00    -0.333 C  
HETATM    9  C   UNL     1      -9.490  12.440  68.566  1.00  0.00    -0.101 C  
HETATM   10  C   UNL     1      -9.604  13.812  70.002  1.00  0.00     2.052 C  
HETATM   11  C   UNL     1      -9.683  10.911  68.507  1.00  0.00    -0.183 C  
HETATM   12  C   UNL     1     -10.813  16.847  65.425  1.00  0.00    -0.113 C  
HETATM   13  C   UNL     1      -9.713  17.450  67.719  1.00  0.00    -0.268 C  
HETATM   14  C   UNL     1     -10.895  17.991  68.567  1.00  0.00     0.115 C  
HETATM   15  C   UNL     1      -9.955  15.411  69.411  1.00  0.00    -0.272 C  
HETATM   16  C   UNL     1      -8.352  18.113  68.361  1.00  0.00    -0.311 C  
HETATM   17  H   UNL     1      -6.802  20.793  65.832  1.00  0.00     0.000 HD 
HETATM   18  O   UNL     1      -7.257  20.122  65.336  1.00  0.00    -0.321 OA 
HETATM   19  C   UNL     1     -10.187  15.449  65.384  1.00  0.00    -0.408 C  
HETATM   20  C   UNL     1      -9.588  15.877  67.879  1.00  0.00    -0.215 C  
HETATM   21  C   UNL     1     -10.191  14.861  66.792  1.00  0.00    -0.259 C  
ENDROOT
BRANCH   3  22
HETATM   22  N   UNL     1      -7.191  12.830  69.461  1.00  0.00     0.265 N  
HETATM   23  C   UNL     1      -6.272  10.496  69.581  1.00  0.00    -0.063 C  
HETATM   24  C   UNL     1      -5.397  11.328  68.687  1.00  0.00    -0.043 C  
HETATM   25  C   UNL     1      -7.381  11.385  70.083  1.00  0.00     1.019 C  
HETATM   26  C   UNL     1      -5.748  12.778  68.930  1.00  0.00    -0.072 C  
BRANCH  22  27
HETATM   27  C   UNL     1      -7.128  13.872  70.690  1.00  0.00     1.173 C  
BRANCH  27  28
HETATM   28  C   UNL     1      -6.416  15.161  70.438  1.00  0.00     0.000 C  
HETATM   29  C   UNL     1      -5.948  15.935  71.427  1.00  0.00     0.867 C  
ENDBRANCH  27  28
ENDBRANCH  22  27
ENDBRANCH   3  22
BRANCH   4  30
HETATM   30  O   UNL     1     -11.254  12.216  69.619  1.00  0.00    -0.183 OA 
BRANCH  30  31
HETATM   31  C   UNL     1     -12.447  12.341  70.250  1.00  0.00    -0.084 C  
HETATM   32  C   UNL     1     -13.026  10.957  70.449  1.00  0.00    -0.172 C  
HETATM   33  O   UNL     1     -12.843  13.367  70.781  1.00  0.00    -0.247 OA 
ENDBRANCH  30  31
ENDBRANCH   4  30
BRANCH   5  34
HETATM   34  N   UNL     1      -6.077  19.386  67.906  1.00  0.00    -0.208 NA 
HETATM   35  C   UNL     1      -6.153  20.822  68.202  1.00  0.00    -0.328 C  
HETATM   36  C   UNL     1      -6.723  21.074  69.595  1.00  0.00     1.537 C  
HETATM   37  O   UNL     1      -5.867  20.502  70.591  1.00  0.00    -0.487 OA 
HETATM   38  C   UNL     1      -5.676  19.098  70.380  1.00  0.00    -0.221 C  
HETATM   39  C   UNL     1      -5.256  18.749  68.939  1.00  0.00    -0.192 C  
ENDBRANCH   5  34
TORSDOF 6
ENDMDL
MODEL      111
REMARK 921   NORMALIZED FREE ENERGY PREDICTED BY IDOCK:    2.10 KCAL/MOL
REMARK 922        TOTAL FREE ENERGY PREDICTED BY IDOCK:    2.54 KCAL/MOL
REMARK 923 INTER-LIGAND FREE ENERGY PREDICTED BY IDOCK:    1.48 KCAL/MOL
REMARK 924 INTRA-LIGAND FREE ENERGY PREDICTED BY IDOCK:    1.07 KCAL/MOL
REMARK 927      BINDING AFFINITY PREDICTED BY RF-SCORE:    0.00 PKD
ROOT
HETATM    1  C   UNL     1      -8.870  10.408  69.500  1.00  0.00    -0.111 C  
HETATM    2  C   UNL     1      -9.878  11.303  70.025  1.00  0.00     1.280 C  
HETATM    3  C   UNL     1      -9.848  11.613  68.539  1.00  0.00    -0.193 C  
HETATM    4  C   UNL     1      -8.726  10.254  67.430  1.00  0.00    -0.128 C  
HETATM    5  C   UNL     1      -6.891  16.012  69.705  1.00  0.00    -0.080 C  
HETATM    6  C   UNL     1      -5.532  15.781  70.408  1.00  0.00    -0.157 C  
HETATM    7  C   UNL     1      -5.522  14.341  70.897  1.00  0.00    -0.165 C  
HETATM    8  C   UNL     1      -5.234  13.421  69.722  1.00  0.00    -0.088 C  
HETATM    9  C   UNL     1      -9.955  10.289  67.978  1.00  0.00    -0.177 C  
HETATM   10  C   UNL     1      -9.396  11.568  66.559  1.00  0.00    -0.210 C  
HETATM   11  C   UNL     1     -10.838   9.025  68.014  1.00  0.00    -0.102 C  
HETATM   12  C   UNL     1      -5.129  11.964  70.200  1.00  0.00    -0.082 C  
HETATM   13  C   UNL     1      -6.168  13.645  68.488  1.00  0.00    -0.091 C  
HETATM   14  C   UNL     1      -5.270  13.496  67.230  1.00  0.00     0.406 C  
HETATM   15  C   UNL     1      -7.901  12.386  66.910  1.00  0.00    -0.014 C  
HETATM   16  C   UNL     1      -6.832  15.147  68.397  1.00  0.00    -0.109 C  
HETATM   17  H   UNL     1      -5.287  17.509  71.228  1.00  0.00     0.000 HD 
HETATM   18  O   UNL     1      -5.280  16.609  71.534  1.00  0.00    -0.202 OA 
HETATM   19  C   UNL     1      -6.479  11.319  70.531  1.00  0.00     0.266 C  
HETATM   20  C   UNL     1      -7.361  12.601  68.446  1.00  0.00    -0.118 C  
HETATM   21  C   UNL     1      -7.307  11.214  69.253  1.00  0.00    -0.097 C  
ENDROOT
BRANCH   3  22
HETATM   22  N   UNL     1     -11.512  12.243  68.025  1.00  0.00    -0.298 N  
HETATM   23  C   UNL     1     -13.398  12.974  69.513  1.00  0.00     2.424 C  
HETATM   24  C   UNL     1     -12.585  14.174  69.118  1.00  0.00     0.219 C  
HETATM   25  C   UNL     1     -12.775  11.769  68.856  1.00  0.00     1.171 C  
HETATM   26  C   UNL     1     -11.712  13.766  67.953  1.00  0.00    -0.360 C  
BRANCH  22  27
HETATM   27  C   UNL     1     -11.723  11.739  66.509  1.00  0.00    -0.069 C  
BRANCH  27  28
HETATM   28  C   UNL     1     -12.468  12.658  65.596  1.00  0.00    -0.255 C  
HETATM   29  C   UNL     1     -11.912  13.202  64.504  1.00  0.00    -0.442 C  
ENDBRANCH  27  28
ENDBRANCH  22  27
ENDBRANCH   3  22
BRANCH   4  30
HETATM   30  O   UNL     1      -9.247   9.256  66.334  1.00  0.00    -0.158 OA 
BRANCH  30  31
HETATM   31  C   UNL     1      -8.604   8.851  65.212  1.00  0.00    -0.184 C  
HETATM   32  C   UNL     1      -9.127   9.663  64.047  1.00  0.00    -0.246 C  
HETATM   33  O   UNL     1      -7.608   8.144  65.203  1.00  0.00    -0.086 OA 
ENDBRANCH  30  31
ENDBRANCH   4  30
BRANCH   5  34
HETATM   34  N   UNL     1      -7.361  17.418  69.648  1.00  0.00     0.234 NA 
HETATM   35  C   UNL     1      -6.614  18.421  68.879  1.00  0.00    -0.251 C  
HETATM   36  C   UNL     1      -7.012  18.402  67.406  1.00  0.00    -0.203 C  
HETATM   37  O   UNL     1      -8.398  18.734  67.262  1.00  0.00    -0.263 OA 
HETATM   38  C   UNL     1      -9.234  17.844  68.013  1.00  0.00    -0.267 C  
HETATM   39  C   UNL     1      -8.792  17.685  69.480  1.00  0.00     0.683 C  
ENDBRANCH   5  34
TORSDOF 6
ENDMDL
MODEL      112
REMARK 921   NORMALIZED FREE ENERGY PREDICTED BY IDOCK:    2.11 KCAL/MOL
REMARK 922        TOTAL FREE ENERGY PREDICTED BY IDOCK:    2.55 KCAL/MOL
REMARK 923 INTER-LIGAND FREE ENERGY PREDICTED BY IDOCK:    1.53 KCAL/MOL
REMARK 924 INTRA-LIGAND FREE ENERGY PREDICTED BY IDOCK:    1.02 KCAL/MOL
REMARK 927      BINDING AFFINITY PREDICTED BY RF-SCORE:    0.00 PKD
ROOT
HETATM    1  C   UNL     1     -12.851  12.289  68.702  1.00  0.00     1.923 C  
HETATM    2  C   UNL     1     -12.720  10.849  68.658  1.00  0.00     1.520 C  
HETATM    3  C   UNL     1     -11.476  11.308  69.394  1.00  0.00    -0.301 C  
HETATM    4  C   UNL     1     -11.518  13.323  69.920  1.00  0.00    -0.100 C  
HETATM    5  C   UNL     1      -8.713  10.610  64.775  1.00  0.00    -0.160 C  
HETATM    6  C   UNL     1      -9.162  11.446  63.552  1.00  0.00    -0.093 C  
HETATM    7  C   UNL     1     -10.521  12.036  63.891  1.00  0.00    -0.440 C  
HETATM    8  C   UNL     1     -10.328  13.227  64.815  1.00  0.00    -0.381 C  
HETATM    9  C   UNL     1     -12.048  12.179  70.391  1.00  0.00    -0.395 C  
HETATM   10  C   UNL     1     -10.081  12.472  70.305  1.00  0.00     3.330 C  
HETATM   11  C   UNL     1     -13.101  12.204  71.517  1.00  0.00    -0.357 C  
HETATM   12  C   UNL     1     -11.678  13.901  65.105  1.00  0.00    -0.357 C  
HETATM   13  C   UNL     1      -9.457  12.924  66.078  1.00  0.00    -0.112 C  
HETATM   14  C   UNL     1      -8.568  14.176  66.305  1.00  0.00     0.467 C  
HETATM   15  C   UNL     1      -9.522  12.981  68.737  1.00  0.00     0.107 C  
HETATM   16  C   UNL     1      -8.422  11.657  65.907  1.00  0.00     0.137 C  
HETATM   17  H   UNL     1      -8.459  10.351  62.129  1.00  0.00     0.000 HD 
HETATM   18  O   UNL     1      -9.309  10.720  62.340  1.00  0.00    -0.269 OA 
HETATM   19  C   UNL     1     -12.562  13.126  66.089  1.00  0.00    -0.116 C  
HETATM   20  C   UNL     1     -10.345  12.633  67.360  1.00  0.00    -0.224 C  
HETATM   21  C   UNL     1     -11.879  13.098  67.454  1.00  0.00    -0.412 C  
ENDROOT
BRANCH   3  22
HETATM   22  N   UNL     1     -10.916   9.955  70.528  1.00  0.00    -0.305 N  
HETATM   23  C   UNL     1      -9.563   7.925  69.935  1.00  0.00    -0.168 C  
HETATM   24  C   UNL     1      -8.644   9.007  70.427  1.00  0.00    -0.215 C  
HETATM   25  C   UNL     1     -10.968   8.466  69.989  1.00  0.00    -0.194 C  
HETATM   26  C   UNL     1      -9.497  10.049  71.113  1.00  0.00     1.295 C  
BRANCH  22  27
HETATM   27  C   UNL     1     -11.885  10.031  71.814  1.00  0.00    -0.091 C  
BRANCH  27  28
HETATM   28  C   UNL     1     -12.841   8.897  71.999  1.00  0.00    -0.456 C  
HETATM   29  C   UNL     1     -14.155   9.082  72.189  1.00  0.00    -0.461 C  
ENDBRANCH  27  28
ENDBRANCH  22  27
ENDBRANCH   3  22
BRANCH   4  30
HETATM   30  O   UNL     1     -11.551  13.931  71.368  1.00  0.00     0.211 OA 
BRANCH  30  31
HETATM   31  C   UNL     1     -11.800  15.215  71.720  1.00  0.00    -0.405 C  
HETATM   32  C   UNL     1     -11.889  15.284  73.230  1.00  0.00    -0.476 C  
HETATM   33  O   UNL     1     -11.710  16.169  70.963  1.00  0.00    -0.410 OA 
ENDBRANCH  30  31
ENDBRANCH   4  30
BRANCH   5  34
HETATM   34  N   UNL     1      -7.741   9.524  64.497  1.00  0.00    -0.113 NA 
HETATM   35  C   UNL     1      -6.441   9.497  65.177  1.00  0.00    -0.079 C  
HETATM   36  C   UNL     1      -6.542   8.830  66.546  1.00  0.00    -0.063 C  
HETATM   37  O   UNL     1      -6.950   7.464  66.403  1.00  0.00    -0.066 OA 
HETATM   38  C   UNL     1      -8.197   7.357  65.706  1.00  0.00    -0.135 C  
HETATM   39  C   UNL     1      -8.226   8.146  64.383  1.00  0.00    -0.101 C  
ENDBRANCH   5  34
TORSDOF 6
ENDMDL
MODEL      113
REMARK 921   NORMALIZED FREE ENERGY PREDICTED BY IDOCK:    2.20 KCAL/MOL
REMARK 922        TOTAL FREE ENERGY PREDICTED BY IDOCK:    2.67 KCAL/MOL
REMARK 923 INTER-LIGAND FREE ENERGY PREDICTED BY IDOCK:   -0.52 KCAL/MOL
REMARK 924 INTRA-LIGAND FREE ENERGY PREDICTED BY IDOCK:    3.19 KCAL/MOL
REMARK 927      BINDING AFFINITY PREDICTED BY RF-SCORE:    0.00 PKD
ROOT
HETATM    1  C   UNL     1      -9.663  12.181  69.826  1.00  0.00     1.823 C  
HETATM    2  C   UNL     1      -8.664  12.697  68.916  1.00  0.00     0.323 C  
HETATM    3  C   UNL     1      -9.903  12.541  68.053  1.00  0.00    -0.214 C  
HETATM    4  C   UNL     1     -11.628  12.125  69.144  1.00  0.00    -0.319 C  
HETATM    5  C   UNL     1      -7.738   7.962  66.104  1.00  0.00    -0.091 C  
HETATM    6  C   UNL     1      -7.438   6.835  67.122  1.00  0.00    -0.091 C  
HETATM    7  C   UNL     1      -7.536   7.451  68.509  1.00  0.00    -0.105 C  
HETATM    8  C   UNL     1      -9.001   7.595  68.884  1.00  0.00    -0.137 C  
HETATM    9  C   UNL     1     -10.890  13.215  68.859  1.00  0.00    -0.240 C  
HETATM   10  C   UNL     1     -11.802  12.160  67.439  1.00  0.00    -0.297 C  
HETATM   11  C   UNL     1     -11.169  14.559  69.562  1.00  0.00    -0.300 C  
HETATM   12  C   UNL     1      -9.133   8.133  70.318  1.00  0.00    -0.151 C  
HETATM   13  C   UNL     1      -9.866   8.343  67.817  1.00  0.00    -0.218 C  
HETATM   14  C   UNL     1     -11.230   7.604  67.766  1.00  0.00     0.360 C  
HETATM   15  C   UNL     1     -11.452  10.457  67.505  1.00  0.00     0.098 C  
HETATM   16  C   UNL     1      -9.262   8.289  66.288  1.00  0.00    -0.258 C  
HETATM   17  H   UNL     1      -6.089   5.861  66.147  1.00  0.00     0.000 HD 
HETATM   18  O   UNL     1      -6.150   6.246  67.014  1.00  0.00    -0.023 OA 
HETATM   19  C   UNL     1      -8.825   9.628  70.453  1.00  0.00    -0.227 C  
HETATM   20  C   UNL     1     -10.075   9.872  68.184  1.00  0.00    -0.193 C  
HETATM   21  C   UNL     1      -9.873  10.423  69.678  1.00  0.00    -0.179 C  
ENDROOT
BRANCH   3  22
HETATM   22  N   UNL     1      -9.826  13.767  66.667  1.00  0.00    -0.276 N  
HETATM   23  C   UNL     1     -10.541  16.173  66.711  1.00  0.00    -0.277 C  
HETATM   24  C   UNL     1      -9.069  16.088  67.000  1.00  0.00    -0.234 C  
HETATM   25  C   UNL     1     -11.041  14.769  66.494  1.00  0.00    -0.334 C  
HETATM   26  C   UNL     1      -8.608  14.704  66.603  1.00  0.00    -0.094 C  
BRANCH  22  27
HETATM   27  C   UNL     1      -9.731  12.894  65.315  1.00  0.00     0.012 C  
BRANCH  27  28
HETATM   28  C   UNL     1     -10.946  12.111  64.937  1.00  0.00    -0.355 C  
HETATM   29  C   UNL     1     -11.296  11.887  63.663  1.00  0.00    -0.536 C  
ENDBRANCH  27  28
ENDBRANCH  22  27
ENDBRANCH   3  22
BRANCH   4  30
HETATM   30  O   UNL     1     -12.902  13.031  69.297  1.00  0.00     0.565 OA 
BRANCH  30  31
HETATM   31  C   UNL     1     -13.430  13.528  70.441  1.00  0.00     0.836 C  
HETATM   32  C   UNL     1     -12.534  13.122  71.592  1.00  0.00    -0.119 C  
HETATM   33  O   UNL     1     -14.320  14.362  70.486  1.00  0.00     0.648 OA 
ENDBRANCH  30  31
ENDBRANCH   4  30
BRANCH   5  34
HETATM   34  N   UNL     1      -7.176   7.774  64.744  1.00  0.00    -0.064 NA 
HETATM   35  C   UNL     1      -7.983   7.159  63.683  1.00  0.00    -0.070 C  
HETATM   36  C   UNL     1      -8.873   8.189  62.993  1.00  0.00     0.530 C  
HETATM   37  O   UNL     1      -8.070   9.192  62.359  1.00  0.00    -0.125 OA 
HETATM   38  C   UNL     1      -7.197   9.837  63.293  1.00  0.00    -0.121 C  
HETATM   39  C   UNL     1      -6.380   8.850  64.147  1.00  0.00    -0.072 C  
ENDBRANCH   5  34
TORSDOF 6
ENDMDL
MODEL      114
REMARK 921   NORMALIZED FREE ENERGY PREDICTED BY IDOCK:    2.39 KCAL/MOL
REMARK 922        TOTAL FREE ENERGY PREDICTED BY IDOCK:    2.94 KCAL/MOL
REMARK 923 INTER-LIGAND FREE ENERGY PREDICTED BY IDOCK:   -0.58 KCAL/MOL
REMARK 924 INTRA-LIGAND FREE ENERGY PREDICTED BY IDOCK:    3.51 KCAL/MOL
REMARK 927      BINDING AFFINITY PREDICTED BY RF-SCORE:    0.00 PKD
ROOT
HETATM    1  C   UNL     1     -11.850  13.683  69.880  1.00  0.00    -0.389 C  
HETATM    2  C   UNL     1     -10.475  13.815  70.309  1.00  0.00     1.392 C  
HETATM    3  C   UNL     1     -10.376  13.115  68.966  1.00  0.00     0.050 C  
HETATM    4  C   UNL     1     -12.177  13.069  67.919  1.00  0.00    -0.023 C  
HETATM    5  C   UNL     1      -9.626   8.462  71.657  1.00  0.00    -0.221 C  
HETATM    6  C   UNL     1     -10.758   8.009  72.610  1.00  0.00    -0.358 C  
HETATM    7  C   UNL     1     -11.688   9.198  72.795  1.00  0.00     0.717 C  
HETATM    8  C   UNL     1     -12.576   9.327  71.569  1.00  0.00    -0.430 C  
HETATM    9  C   UNL     1     -11.201  13.968  68.147  1.00  0.00    -0.299 C  
HETATM   10  C   UNL     1     -10.856  12.259  67.187  1.00  0.00    -0.282 C  
HETATM   11  C   UNL     1     -11.370  15.440  67.718  1.00  0.00    -0.308 C  
HETATM   12  C   UNL     1     -13.589  10.467  71.763  1.00  0.00    -0.246 C  
HETATM   13  C   UNL     1     -11.798   9.359  70.213  1.00  0.00    -0.063 C  
HETATM   14  C   UNL     1     -12.639   8.528  69.208  1.00  0.00     3.508 C  
HETATM   15  C   UNL     1     -11.418  10.854  68.045  1.00  0.00    -0.356 C  
HETATM   16  C   UNL     1     -10.314   8.651  70.259  1.00  0.00    -0.217 C  
HETATM   17  H   UNL     1      -9.756   6.857  73.788  1.00  0.00     0.000 HD 
HETATM   18  O   UNL     1     -10.337   7.600  73.903  1.00  0.00    -0.184 OA 
HETATM   19  C   UNL     1     -12.984  11.867  71.622  1.00  0.00    -0.447 C  
HETATM   20  C   UNL     1     -11.594  10.839  69.678  1.00  0.00    -0.388 C  
HETATM   21  C   UNL     1     -12.504  12.060  70.186  1.00  0.00    -0.122 C  
ENDROOT
BRANCH   3  22
HETATM   22  N   UNL     1      -8.743  13.523  68.196  1.00  0.00    -0.170 N  
HETATM   23  C   UNL     1      -6.981  11.918  67.405  1.00  0.00    -0.128 C  
HETATM   24  C   UNL     1      -7.861  12.297  66.248  1.00  0.00     0.586 C  
HETATM   25  C   UNL     1      -7.485  12.656  68.618  1.00  0.00    -0.094 C  
HETATM   26  C   UNL     1      -8.651  13.518  66.661  1.00  0.00     0.077 C  
BRANCH  22  27
HETATM   27  C   UNL     1      -8.430  15.049  68.611  1.00  0.00    -0.168 C  
BRANCH  27  28
HETATM   28  C   UNL     1      -7.691  15.256  69.893  1.00  0.00     0.030 C  
HETATM   29  C   UNL     1      -6.406  14.908  70.052  1.00  0.00    -0.162 C  
ENDBRANCH  27  28
ENDBRANCH  22  27
ENDBRANCH   3  22
BRANCH   4  30
HETATM   30  O   UNL     1     -12.506  13.776  66.556  1.00  0.00    -0.404 OA 
BRANCH  30  31
HETATM   31  C   UNL     1     -12.669  13.196  65.342  1.00  0.00    -0.360 C  
HETATM   32  C   UNL     1     -11.727  13.868  64.366  1.00  0.00    -0.427 C  
HETATM   33  O   UNL     1     -13.278  12.156  65.149  1.00  0.00    -0.021 OA 
ENDBRANCH  30  31
ENDBRANCH   4  30
BRANCH   5  34
HETATM   34  N   UNL     1      -8.350   7.713  71.764  1.00  0.00    -0.105 NA 
HETATM   35  C   UNL     1      -7.250   8.232  72.587  1.00  0.00    -0.103 C  
HETATM   36  C   UNL     1      -7.414   7.835  74.051  1.00  0.00    -0.141 C  
HETATM   37  O   UNL     1      -7.380   6.409  74.185  1.00  0.00    -0.086 OA 
HETATM   38  C   UNL     1      -8.388   5.780  73.385  1.00  0.00    -0.115 C  
HETATM   39  C   UNL     1      -8.389   6.257  71.920  1.00  0.00    -0.117 C  
ENDBRANCH   5  34
TORSDOF 6
ENDMDL
MODEL      115
REMARK 921   NORMALIZED FREE ENERGY PREDICTED BY IDOCK:    2.77 KCAL/MOL
REMARK 922        TOTAL FREE ENERGY PREDICTED BY IDOCK:    3.44 KCAL/MOL
REMARK 923 INTER-LIGAND FREE ENERGY PREDICTED BY IDOCK:    2.01 KCAL/MOL
REMARK 924 INTRA-LIGAND FREE ENERGY PREDICTED BY IDOCK:    1.43 KCAL/MOL
REMARK 927      BINDING AFFINITY PREDICTED BY RF-SCORE:    0.00 PKD
ROOT
HETATM    1  C   UNL     1      -8.582  14.774  65.868  1.00  0.00     0.922 C  
HETATM    2  C   UNL     1      -9.302  13.615  65.390  1.00  0.00     0.433 C  
HETATM    3  C   UNL     1     -10.029  13.999  66.666  1.00  0.00    -0.278 C  
HETATM    4  C   UNL     1      -9.439  15.842  67.435  1.00  0.00    -0.219 C  
HETATM    5  C   UNL     1      -7.385   9.969  69.161  1.00  0.00    -0.087 C  
HETATM    6  C   UNL     1      -5.839  10.044  69.177  1.00  0.00    -0.037 C  
HETATM    7  C   UNL     1      -5.435  11.108  68.169  1.00  0.00    -0.042 C  
HETATM    8  C   UNL     1      -5.650  12.480  68.784  1.00  0.00    -0.061 C  
HETATM    9  C   UNL     1     -10.246  15.407  66.448  1.00  0.00    -0.296 C  
HETATM   10  C   UNL     1     -10.588  14.971  68.360  1.00  0.00    -0.239 C  
HETATM   11  C   UNL     1     -10.855  16.397  65.435  1.00  0.00    -0.249 C  
HETATM   12  C   UNL     1      -5.166  13.576  67.822  1.00  0.00    -0.047 C  
HETATM   13  C   UNL     1      -7.083  12.702  69.371  1.00  0.00     0.183 C  
HETATM   14  C   UNL     1      -6.895  13.507  70.685  1.00  0.00     1.078 C  
HETATM   15  C   UNL     1      -9.211  14.287  69.174  1.00  0.00     0.134 C  
HETATM   16  C   UNL     1      -7.870  11.321  69.793  1.00  0.00     0.613 C  
HETATM   17  H   UNL     1      -5.422   8.180  69.445  1.00  0.00     0.000 HD 
HETATM   18  O   UNL     1      -5.169   8.845  68.815  1.00  0.00    -0.033 OA 
HETATM   19  C   UNL     1      -6.107  13.825  66.638  1.00  0.00     2.569 C  
HETATM   20  C   UNL     1      -8.024  13.490  68.366  1.00  0.00    -0.142 C  
HETATM   21  C   UNL     1      -7.432  14.373  67.162  1.00  0.00     0.031 C  
ENDROOT
BRANCH   3  22
HETATM   22  N   UNL     1     -11.792  13.446  66.541  1.00  0.00    -0.376 N  
HETATM   23  C   UNL     1     -13.416  13.919  64.686  1.00  0.00     1.364 C  
HETATM   24  C   UNL     1     -12.760  12.590  64.442  1.00  0.00    -0.447 C  
HETATM   25  C   UNL     1     -12.854  14.473  65.969  1.00  0.00     0.170 C  
HETATM   26  C   UNL     1     -12.090  12.172  65.732  1.00  0.00    -0.077 C  
BRANCH  22  27
HETATM   27  C   UNL     1     -12.244  13.080  68.044  1.00  0.00    -0.010 C  
BRANCH  27  28
HETATM   28  C   UNL     1     -11.953  11.691  68.511  1.00  0.00    -0.284 C  
HETATM   29  C   UNL     1     -11.103  10.876  67.871  1.00  0.00    -0.362 C  
ENDBRANCH  27  28
ENDBRANCH  22  27
ENDBRANCH   3  22
BRANCH   4  30
HETATM   30  O   UNL     1     -10.310  17.142  67.569  1.00  0.00    -0.320 OA 
BRANCH  30  31
HETATM   31  C   UNL     1      -9.876  18.419  67.697  1.00  0.00    -0.313 C  
HETATM   32  C   UNL     1      -8.414  18.464  67.306  1.00  0.00    -0.256 C  
HETATM   33  O   UNL     1     -10.606  19.386  67.851  1.00  0.00    -0.422 OA 
ENDBRANCH  30  31
ENDBRANCH   4  30
BRANCH   5  34
HETATM   34  N   UNL     1      -7.977   8.684  69.608  1.00  0.00    -0.094 NA 
HETATM   35  C   UNL     1      -7.364   7.924  70.705  1.00  0.00    -0.061 C  
HETATM   36  C   UNL     1      -7.842   8.426  72.064  1.00  0.00    -0.127 C  
HETATM   37  O   UNL     1      -9.257   8.245  72.191  1.00  0.00    -0.175 OA 
HETATM   38  C   UNL     1      -9.969   8.909  71.139  1.00  0.00    -0.272 C  
HETATM   39  C   UNL     1      -9.432   8.575  69.734  1.00  0.00    -0.166 C  
ENDBRANCH   5  34
TORSDOF 6
ENDMDL
MODEL      116
REMARK 921   NORMALIZED FREE ENERGY PREDICTED BY IDOCK:    3.41 KCAL/MOL
REMARK 922        TOTAL FREE ENERGY PREDICTED BY IDOCK:    4.30 KCAL/MOL
REMARK 923 INTER-LIGAND FREE ENERGY PREDICTED BY IDOCK:    1.17 KCAL/MOL
REMARK 924 INTRA-LIGAND FREE ENERGY PREDICTED BY IDOCK:    3.13 KCAL/MOL
REMARK 927      BINDING AFFINITY PREDICTED BY RF-SCORE:    0.00 PKD
ROOT
HETATM    1  C   UNL     1      -9.160  18.689  66.455  1.00  0.00    -0.288 C  
HETATM    2  C   UNL     1      -9.268  18.636  67.896  1.00  0.00    -0.316 C  
HETATM    3  C   UNL     1      -7.987  17.880  67.595  1.00  0.00    -0.219 C  
HETATM    4  C   UNL     1      -7.365  18.057  65.615  1.00  0.00     0.005 C  
HETATM    5  C   UNL     1     -10.759  13.269  68.307  1.00  0.00    -0.252 C  
HETATM    6  C   UNL     1     -11.966  13.021  67.370  1.00  0.00    -0.316 C  
HETATM    7  C   UNL     1     -12.267  14.338  66.673  1.00  0.00    -0.411 C  
HETATM    8  C   UNL     1     -11.260  14.549  65.556  1.00  0.00    -0.335 C  
HETATM    9  C   UNL     1      -7.311  18.813  66.728  1.00  0.00    -0.231 C  
HETATM   10  C   UNL     1      -6.418  17.039  66.616  1.00  0.00    -0.262 C  
HETATM   11  C   UNL     1      -6.831  20.277  66.663  1.00  0.00    -0.279 C  
HETATM   12  C   UNL     1     -11.592  15.830  64.774  1.00  0.00    -0.173 C  
HETATM   13  C   UNL     1      -9.767  14.419  66.004  1.00  0.00    -0.320 C  
HETATM   14  C   UNL     1      -9.030  13.682  64.855  1.00  0.00     2.300 C  
HETATM   15  C   UNL     1      -7.472  15.762  66.080  1.00  0.00     1.205 C  
HETATM   16  C   UNL     1      -9.537  13.504  67.352  1.00  0.00    -0.227 C  
HETATM   17  H   UNL     1     -12.972  11.780  68.450  1.00  0.00     0.000 HD 
HETATM   18  O   UNL     1     -13.160  12.603  68.014  1.00  0.00     1.818 OA 
HETATM   19  C   UNL     1     -11.227  17.122  65.513  1.00  0.00     0.433 C  
HETATM   20  C   UNL     1      -9.101  15.832  66.277  1.00  0.00    -0.373 C  
HETATM   21  C   UNL     1      -9.711  17.190  65.676  1.00  0.00     0.078 C  
ENDROOT
BRANCH   3  22
HETATM   22  N   UNL     1      -6.852  18.018  69.051  1.00  0.00    -0.253 N  
HETATM   23  C   UNL     1      -5.128  19.792  69.486  1.00  0.00    -0.199 C  
HETATM   24  C   UNL     1      -6.409  20.165  70.178  1.00  0.00    -0.359 C  
HETATM   25  C   UNL     1      -5.358  18.475  68.789  1.00  0.00    -0.189 C  
HETATM   26  C   UNL     1      -7.281  18.931  70.213  1.00  0.00     1.004 C  
BRANCH  22  27
HETATM   27  C   UNL     1      -6.792  16.544  69.702  1.00  0.00    -0.081 C  
BRANCH  27  28
HETATM   28  C   UNL     1      -5.572  16.214  70.499  1.00  0.00    -0.104 C  
HETATM   29  C   UNL     1      -5.479  15.113  71.258  1.00  0.00    -0.001 C  
ENDBRANCH  27  28
ENDBRANCH  22  27
ENDBRANCH   3  22
BRANCH   4  30
HETATM   30  O   UNL     1      -6.061  18.754  65.083  1.00  0.00    -0.243 OA 
BRANCH  30  31
HETATM   31  C   UNL     1      -5.915  19.480  63.948  1.00  0.00    -0.155 C  
HETATM   32  C   UNL     1      -5.906  20.946  64.322  1.00  0.00    -0.310 C  
HETATM   33  O   UNL     1      -5.594  19.013  62.867  1.00  0.00    -0.315 OA 
ENDBRANCH  30  31
ENDBRANCH   4  30
BRANCH   5  34
HETATM   34  N   UNL     1     -10.636  12.348  69.463  1.00  0.00     0.249 NA 
HETATM   35  C   UNL     1     -11.563  12.449  70.597  1.00  0.00     0.540 C  
HETATM   36  C   UNL     1     -12.853  11.678  70.333  1.00  0.00     0.101 C  
HETATM   37  O   UNL     1     -12.572  10.284  70.165  1.00  0.00    -0.206 OA 
HETATM   38  C   UNL     1     -11.634  10.058  69.105  1.00  0.00     0.045 C  
HETATM   39  C   UNL     1     -10.368  10.928  69.217  1.00  0.00    -0.187 C  
ENDBRANCH   5  34
TORSDOF 6
ENDMDL
MODEL      117
REMARK 921   NORMALIZED FREE ENERGY PREDICTED BY IDOCK:    3.70 KCAL/MOL
REMARK 922        TOTAL FREE ENERGY PREDICTED BY IDOCK:    4.71 KCAL/MOL
REMARK 923 INTER-LIGAND FREE ENERGY PREDICTED BY IDOCK:    3.13 KCAL/MOL
REMARK 924 INTRA-LIGAND FREE ENERGY PREDICTED BY IDOCK:    1.58 KCAL/MOL
REMARK 927      BINDING AFFINITY PREDICTED BY RF-SCORE:    0.00 PKD
ROOT
HETATM    1  C   UNL     1      -9.605  13.957  65.179  1.00  0.00     0.207 C  
HETATM    2  C   UNL     1      -8.358  13.224  65.219  1.00  0.00     3.333 C  
HETATM    3  C   UNL     1      -9.192  12.594  66.320  1.00  0.00    -0.110 C  
HETATM    4  C   UNL     1     -11.183  13.205  66.308  1.00  0.00    -0.301 C  
HETATM    5  C   UNL     1      -6.334  15.511  69.896  1.00  0.00    -0.151 C  
HETATM    6  C   UNL     1      -6.394  17.051  69.756  1.00  0.00    -0.153 C  
HETATM    7  C   UNL     1      -7.009  17.352  68.399  1.00  0.00    -0.201 C  
HETATM    8  C   UNL     1      -8.513  17.158  68.483  1.00  0.00    -0.262 C  
HETATM    9  C   UNL     1     -10.424  12.331  65.620  1.00  0.00    -0.293 C  
HETATM   10  C   UNL     1     -10.724  12.152  67.579  1.00  0.00    -0.265 C  
HETATM   11  C   UNL     1     -10.978  11.623  64.367  1.00  0.00    -0.399 C  
HETATM   12  C   UNL     1      -9.175  17.541  67.149  1.00  0.00    -0.245 C  
HETATM   13  C   UNL     1      -8.950  15.772  69.062  1.00  0.00    -0.246 C  
HETATM   14  C   UNL     1     -10.179  16.048  69.969  1.00  0.00    -0.130 C  
HETATM   15  C   UNL     1     -10.373  13.603  68.472  1.00  0.00    -0.244 C  
HETATM   16  C   UNL     1      -7.829  15.050  70.024  1.00  0.00     0.256 C  
HETATM   17  H   UNL     1      -4.755  17.526  70.654  1.00  0.00     0.000 HD 
HETATM   18  O   UNL     1      -5.139  17.715  69.806  1.00  0.00    -0.167 OA 
HETATM   19  C   UNL     1      -8.981  16.504  66.038  1.00  0.00    -0.276 C  
HETATM   20  C   UNL     1      -9.323  14.738  67.919  1.00  0.00    -0.193 C  
HETATM   21  C   UNL     1      -9.696  15.214  66.431  1.00  0.00    -0.300 C  
ENDROOT
BRANCH   3  22
HETATM   22  N   UNL     1      -8.650  10.839  66.551  1.00  0.00    -0.145 N  
HETATM   23  C   UNL     1      -9.547   8.796  65.399  1.00  0.00     0.109 C  
HETATM   24  C   UNL     1      -8.340   9.294  64.656  1.00  0.00    -0.167 C  
HETATM   25  C   UNL     1      -9.765   9.714  66.574  1.00  0.00    -0.212 C  
HETATM   26  C   UNL     1      -7.620  10.268  65.561  1.00  0.00    -0.149 C  
BRANCH  22  27
HETATM   27  C   UNL     1      -7.900  10.795  67.977  1.00  0.00    -0.106 C  
BRANCH  27  28
HETATM   28  C   UNL     1      -8.134   9.583  68.819  1.00  0.00    -0.096 C  
HETATM   29  C   UNL     1      -9.176   9.474  69.657  1.00  0.00    -0.212 C  
ENDBRANCH  27  28
ENDBRANCH  22  27
ENDBRANCH   3  22
BRANCH   4  30
HETATM   30  O   UNL     1     -12.450  12.320  66.027  1.00  0.00    -0.503 OA 
BRANCH  30  31
HETATM   31  C   UNL     1     -13.377  12.490  65.054  1.00  0.00     1.146 C  
HETATM   32  C   UNL     1     -13.571  13.976  64.837  1.00  0.00     1.406 C  
HETATM   33  O   UNL     1     -13.781  11.601  64.321  1.00  0.00     0.142 OA 
ENDBRANCH  30  31
ENDBRANCH   4  30
BRANCH   5  34
HETATM   34  N   UNL     1      -5.309  14.983  70.829  1.00  0.00    -0.132 NA 
HETATM   35  C   UNL     1      -5.125  15.591  72.153  1.00  0.00     0.067 C  
HETATM   36  C   UNL     1      -6.107  15.019  73.170  1.00  0.00     1.124 C  
HETATM   37  O   UNL     1      -5.885  13.613  73.338  1.00  0.00    -0.416 OA 
HETATM   38  C   UNL     1      -5.993  12.910  72.094  1.00  0.00     1.546 C  
HETATM   39  C   UNL     1      -5.149  13.533  70.966  1.00  0.00    -0.135 C  
ENDBRANCH   5  34
TORSDOF 6
ENDMDL
MODEL      118
REMARK 921   NORMALIZED FREE ENERGY PREDICTED BY IDOCK:    5.22 KCAL/MOL
REMARK 922        TOTAL FREE ENERGY PREDICTED BY IDOCK:    6.76 KCAL/MOL
REMARK 923 INTER-LIGAND FREE ENERGY PREDICTED BY IDOCK:    2.31 KCAL/MOL
REMARK 924 INTRA-LIGAND FREE ENERGY PREDICTED BY IDOCK:    4.44 KCAL/MOL
REMARK 927      BINDING AFFINITY PREDICTED BY RF-SCORE:    0.00 PKD
ROOT
HETATM    1  C   UNL     1      -9.394   4.960  68.951  1.00  0.00    -0.180 C  
HETATM    2  C   UNL     1     -10.379   5.547  68.070  1.00  0.00    -0.237 C  
HETATM    3  C   UNL     1      -9.151   5.386  67.194  1.00  0.00    -0.111 C  
HETATM    4  C   UNL     1      -7.642   4.256  68.078  1.00  0.00    -0.068 C  
HETATM    5  C   UNL     1      -8.200  10.686  67.878  1.00  0.00    -0.112 C  
HETATM    6  C   UNL     1      -7.976  11.180  69.327  1.00  0.00     0.025 C  
HETATM    7  C   UNL     1      -8.416  10.057  70.253  1.00  0.00     0.054 C  
HETATM    8  C   UNL     1      -7.329   8.996  70.295  1.00  0.00    -0.076 C  
HETATM    9  C   UNL     1      -8.806   4.010  67.448  1.00  0.00    -0.132 C  
HETATM   10  C   UNL     1      -7.286   4.916  66.537  1.00  0.00    -0.082 C  
HETATM   11  C   UNL     1      -9.399   2.587  67.416  1.00  0.00    -0.142 C  
HETATM   12  C   UNL     1      -7.705   7.889  71.293  1.00  0.00    -0.086 C  
HETATM   13  C   UNL     1      -6.873   8.489  68.888  1.00  0.00    -0.061 C  
HETATM   14  C   UNL     1      -5.335   8.303  68.969  1.00  0.00    -0.027 C  
HETATM   15  C   UNL     1      -6.662   6.281  67.418  1.00  0.00    -0.061 C  
HETATM   16  C   UNL     1      -7.139   9.551  67.660  1.00  0.00    -0.081 C  
HETATM   17  H   UNL     1      -8.435  13.041  69.115  1.00  0.00     0.000 HD 
HETATM   18  O   UNL     1      -8.709  12.339  69.694  1.00  0.00     1.299 OA 
HETATM   19  C   UNL     1      -8.789   6.933  70.783  1.00  0.00    -0.150 C  
HETATM   20  C   UNL     1      -7.578   7.125  68.488  1.00  0.00    -0.115 C  
HETATM   21  C   UNL     1      -8.247   6.160  69.584  1.00  0.00    -0.116 C  
ENDROOT
BRANCH   3  22
HETATM   22  N   UNL     1      -9.692   5.193  65.433  1.00  0.00    -0.025 N  
HETATM   23  C   UNL     1      -8.854   3.529  63.749  1.00  0.00    -0.094 C  
HETATM   24  C   UNL     1     -10.088   2.985  64.411  1.00  0.00    -0.051 C  
HETATM   25  C   UNL     1      -8.582   4.887  64.345  1.00  0.00    -0.142 C  
HETATM   26  C   UNL     1     -10.764   4.135  65.123  1.00  0.00    -0.062 C  
BRANCH  22  27
HETATM   27  C   UNL     1     -10.382   6.593  65.030  1.00  0.00     3.645 C  
BRANCH  27  28
HETATM   28  C   UNL     1      -9.781   7.828  65.615  1.00  0.00     0.599 C  
HETATM   29  C   UNL     1      -8.808   8.519  65.004  1.00  0.00    -0.074 C  
ENDBRANCH  27  28
ENDBRANCH  22  27
ENDBRANCH   3  22
BRANCH   4  30
HETATM   30  O   UNL     1      -7.097   2.859  67.609  1.00  0.00    -0.049 OA 
BRANCH  30  31
HETATM   31  C   UNL     1      -6.018   2.611  66.829  1.00  0.00    -0.023 C  
HETATM   32  C   UNL     1      -5.128   3.836  66.849  1.00  0.00    -0.008 C  
HETATM   33  O   UNL     1      -5.710   1.508  66.406  1.00  0.00    -0.016 OA 
ENDBRANCH  30  31
ENDBRANCH   4  30
BRANCH   5  34
HETATM   34  N   UNL     1      -8.381  11.743  66.853  1.00  0.00    -0.168 NA 
HETATM   35  C   UNL     1      -9.720  12.064  66.344  1.00  0.00    -0.225 C  
HETATM   36  C   UNL     1     -10.440  13.054  67.254  1.00  0.00    -0.238 C  
HETATM   37  O   UNL     1      -9.721  14.293  67.306  1.00  0.00    -0.226 OA 
HETATM   38  C   UNL     1      -8.373  14.101  67.749  1.00  0.00    -0.174 C  
HETATM   39  C   UNL     1      -7.629  12.994  66.979  1.00  0.00     0.105 C  
ENDBRANCH   5  34
TORSDOF 6
ENDMDL
MODEL      119
REMARK 921   NORMALIZED FREE ENERGY PREDICTED BY IDOCK:    6.11 KCAL/MOL
REMARK 922        TOTAL FREE ENERGY PREDICTED BY IDOCK:    7.95 KCAL/MOL
REMARK 923 INTER-LIGAND FREE ENERGY PREDICTED BY IDOCK:    3.49 KCAL/MOL
REMARK 924 INTRA-LIGAND FREE ENERGY PREDICTED BY IDOCK:    4.46 KCAL/MOL
REMARK 927      BINDING AFFINITY PREDICTED BY RF-SCORE:    0.00 PKD
ROOT
HETATM    1  C   UNL     1      -9.856  11.985  70.043  1.00  0.00     2.383 C  
HETATM    2  C   UNL     1      -8.490  12.437  69.893  1.00  0.00     2.712 C  
HETATM    3  C   UNL     1      -9.145  12.800  68.573  1.00  0.00    -0.049 C  
HETATM    4  C   UNL     1     -11.216  12.579  68.584  1.00  0.00    -0.278 C  
HETATM    5  C   UNL     1      -6.781   8.418  66.412  1.00  0.00    -0.066 C  
HETATM    6  C   UNL     1      -7.144   7.045  67.029  1.00  0.00    -0.079 C  
HETATM    7  C   UNL     1      -7.854   7.322  68.345  1.00  0.00    -0.122 C  
HETATM    8  C   UNL     1      -9.288   7.733  68.056  1.00  0.00    -0.146 C  
HETATM    9  C   UNL     1     -10.327  13.488  69.028  1.00  0.00    -0.025 C  
HETATM   10  C   UNL     1     -10.515  13.055  67.095  1.00  0.00    -0.243 C  
HETATM   11  C   UNL     1     -10.778  14.655  69.929  1.00  0.00    -0.085 C  
HETATM   12  C   UNL     1     -10.059   7.933  69.371  1.00  0.00    -0.196 C  
HETATM   13  C   UNL     1      -9.427   8.900  67.025  1.00  0.00    -0.215 C  
HETATM   14  C   UNL     1     -10.652   8.555  66.138  1.00  0.00     0.825 C  
HETATM   15  C   UNL     1     -10.422  11.352  66.750  1.00  0.00    -0.284 C  
HETATM   16  C   UNL     1      -8.152   9.059  65.998  1.00  0.00    -0.111 C  
HETATM   17  H   UNL     1      -5.597   6.025  66.495  1.00  0.00     0.000 HD 
HETATM   18  O   UNL     1      -6.041   6.198  67.317  1.00  0.00    -0.017 OA 
HETATM   19  C   UNL     1      -9.708   9.231  70.106  1.00  0.00    -0.252 C  
HETATM   20  C   UNL     1      -9.632  10.303  67.737  1.00  0.00    -0.171 C  
HETATM   21  C   UNL     1     -10.144  10.419  69.254  1.00  0.00    -0.248 C  
ENDROOT
BRANCH   3  22
HETATM   22  N   UNL     1      -8.264  14.258  67.847  1.00  0.00    -0.143 N  
HETATM   23  C   UNL     1      -8.925  15.595  65.827  1.00  0.00    -0.028 C  
HETATM   24  C   UNL     1      -9.462  16.264  67.061  1.00  0.00    -0.237 C  
HETATM   25  C   UNL     1      -8.177  14.364  66.269  1.00  0.00     0.971 C  
HETATM   26  C   UNL     1      -8.747  15.662  68.250  1.00  0.00    -0.174 C  
BRANCH  22  27
HETATM   27  C   UNL     1      -6.753  14.180  68.404  1.00  0.00    -0.105 C  
BRANCH  27  28
HETATM   28  C   UNL     1      -6.061  15.483  68.644  1.00  0.00    -0.097 C  
HETATM   29  C   UNL     1      -5.539  15.816  69.833  1.00  0.00    -0.139 C  
ENDBRANCH  27  28
ENDBRANCH  22  27
ENDBRANCH   3  22
BRANCH   4  30
HETATM   30  O   UNL     1     -12.297  13.710  68.443  1.00  0.00    -0.241 OA 
BRANCH  30  31
HETATM   31  C   UNL     1     -12.372  14.667  67.487  1.00  0.00     0.139 C  
HETATM   32  C   UNL     1     -12.710  13.997  66.172  1.00  0.00    -0.309 C  
HETATM   33  O   UNL     1     -12.413  15.866  67.711  1.00  0.00     0.881 OA 
ENDBRANCH  30  31
ENDBRANCH   4  30
BRANCH   5  34
HETATM   34  N   UNL     1      -5.640   8.421  65.464  1.00  0.00    -0.042 NA 
HETATM   35  C   UNL     1      -5.354   7.240  64.640  1.00  0.00    -0.029 C  
HETATM   36  C   UNL     1      -6.197   7.231  63.368  1.00  0.00    -0.049 C  
HETATM   37  O   UNL     1      -5.885   8.372  62.559  1.00  0.00    -0.081 OA 
HETATM   38  C   UNL     1      -6.083   9.596  63.276  1.00  0.00    -0.103 C  
HETATM   39  C   UNL     1      -5.392   9.616  64.652  1.00  0.00    -0.061 C  
ENDBRANCH   5  34
TORSDOF 6
ENDMDL
MODEL      120
REMARK 921   NORMALIZED FREE ENERGY PREDICTED BY IDOCK:    6.28 KCAL/MOL
REMARK 922        TOTAL FREE ENERGY PREDICTED BY IDOCK:    8.19 KCAL/MOL
REMARK 923 INTER-LIGAND FREE ENERGY PREDICTED BY IDOCK:    4.69 KCAL/MOL
REMARK 924 INTRA-LIGAND FREE ENERGY PREDICTED BY IDOCK:    3.50 KCAL/MOL
REMARK 927      BINDING AFFINITY PREDICTED BY RF-SCORE:    0.00 PKD
ROOT
HETATM    1  C   UNL     1     -10.144  14.352  69.025  1.00  0.00    -0.161 C  
HETATM    2  C   UNL     1     -10.930  14.758  67.881  1.00  0.00    -0.282 C  
HETATM    3  C   UNL     1      -9.872  13.841  67.295  1.00  0.00    -0.241 C  
HETATM    4  C   UNL     1      -8.771  12.817  68.736  1.00  0.00     0.182 C  
HETATM    5  C   UNL     1      -7.201  18.273  65.661  1.00  0.00    -0.101 C  
HETATM    6  C   UNL     1      -6.748  19.267  66.757  1.00  0.00    -0.196 C  
HETATM    7  C   UNL     1      -7.480  18.885  68.034  1.00  0.00    -0.277 C  
HETATM    8  C   UNL     1      -6.801  17.674  68.650  1.00  0.00    -0.229 C  
HETATM    9  C   UNL     1      -9.984  12.697  68.165  1.00  0.00    -0.225 C  
HETATM   10  C   UNL     1      -8.304  12.563  67.107  1.00  0.00    -0.179 C  
HETATM   11  C   UNL     1     -11.011  11.681  68.705  1.00  0.00    -0.266 C  
HETATM   12  C   UNL     1      -7.463  17.317  69.991  1.00  0.00     1.374 C  
HETATM   13  C   UNL     1      -6.614  16.473  67.666  1.00  0.00    -0.171 C  
HETATM   14  C   UNL     1      -5.220  15.868  67.977  1.00  0.00    -0.130 C  
HETATM   15  C   UNL     1      -7.219  13.901  67.352  1.00  0.00    -0.113 C  
HETATM   16  C   UNL     1      -6.584  16.892  66.076  1.00  0.00     0.385 C  
HETATM   17  H   UNL     1      -6.582  20.871  65.700  1.00  0.00     0.000 HD 
HETATM   18  O   UNL     1      -7.039  20.633  66.498  1.00  0.00    -0.264 OA 
HETATM   19  C   UNL     1      -8.826  16.633  69.848  1.00  0.00     1.111 C  
HETATM   20  C   UNL     1      -7.748  15.378  67.841  1.00  0.00    -0.144 C  
HETATM   21  C   UNL     1      -8.634  15.276  69.175  1.00  0.00    -0.235 C  
ENDROOT
BRANCH   3  22
HETATM   22  N   UNL     1     -10.543  13.058  65.757  1.00  0.00    -0.273 N  
HETATM   23  C   UNL     1     -12.938  12.962  65.008  1.00  0.00    -0.171 C  
HETATM   24  C   UNL     1     -12.266  14.144  64.369  1.00  0.00    -0.466 C  
HETATM   25  C   UNL     1     -11.910  12.265  65.862  1.00  0.00    -0.354 C  
HETATM   26  C   UNL     1     -10.774  13.962  64.533  1.00  0.00    -0.366 C  
BRANCH  22  27
HETATM   27  C   UNL     1      -9.419  12.009  65.272  1.00  0.00    -0.026 C  
BRANCH  27  28
HETATM   28  C   UNL     1      -9.605  11.409  63.916  1.00  0.00    -0.238 C  
HETATM   29  C   UNL     1      -8.864  10.383  63.472  1.00  0.00    -0.218 C  
ENDBRANCH  27  28
ENDBRANCH  22  27
ENDBRANCH   3  22
BRANCH   4  30
HETATM   30  O   UNL     1      -8.741  11.267  68.991  1.00  0.00    -0.092 OA 
BRANCH  30  31
HETATM   31  C   UNL     1      -7.687  10.427  68.853  1.00  0.00    -0.111 C  
HETATM   32  C   UNL     1      -7.277   9.952  70.231  1.00  0.00    -0.160 C  
HETATM   33  O   UNL     1      -7.317   9.951  67.791  1.00  0.00    -0.088 OA 
ENDBRANCH  30  31
ENDBRANCH   4  30
BRANCH   5  34
HETATM   34  N   UNL     1      -7.082  18.753  64.262  1.00  0.00     1.764 NA 
HETATM   35  C   UNL     1      -7.931  19.847  63.775  1.00  0.00     5.154 C  
HETATM   36  C   UNL     1      -7.335  21.209  64.118  1.00  0.00     0.877 C  
HETATM   37  O   UNL     1      -6.065  21.370  63.477  1.00  0.00    -0.300 OA 
HETATM   38  C   UNL     1      -5.154  20.326  63.841  1.00  0.00    -0.167 C  
HETATM   39  C   UNL     1      -5.749  18.914  63.675  1.00  0.00     0.089 C  
ENDBRANCH   5  34
TORSDOF 6
ENDMDL
MODEL      121
REMARK 921   NORMALIZED FREE ENERGY PREDICTED BY IDOCK:    6.78 KCAL/MOL
REMARK 922        TOTAL FREE ENERGY PREDICTED BY IDOCK:    8.86 KCAL/MOL
REMARK 923 INTER-LIGAND FREE ENERGY PREDICTED BY IDOCK:    6.76 KCAL/MOL
REMARK 924 INTRA-LIGAND FREE ENERGY PREDICTED BY IDOCK:    2.11 KCAL/MOL
REMARK 927      BINDING AFFINITY PREDICTED BY RF-SCORE:    0.00 PKD
ROOT
HETATM    1  C   UNL     1     -13.085  13.195  68.177  1.00  0.00     3.002 C  
HETATM    2  C   UNL     1     -13.003  11.760  68.333  1.00  0.00     2.952 C  
HETATM    3  C   UNL     1     -11.819  12.284  69.124  1.00  0.00    -0.301 C  
HETATM    4  C   UNL     1     -11.840  14.352  69.377  1.00  0.00    -0.325 C  
HETATM    5  C   UNL     1      -8.651  10.917  64.935  1.00  0.00    -0.026 C  
HETATM    6  C   UNL     1      -8.950  11.593  63.575  1.00  0.00     0.257 C  
HETATM    7  C   UNL     1     -10.314  12.254  63.697  1.00  0.00    -0.463 C  
HETATM    8  C   UNL     1     -10.168  13.552  64.474  1.00  0.00    -0.296 C  
HETATM    9  C   UNL     1     -12.453  13.292  69.937  1.00  0.00    -0.117 C  
HETATM   10  C   UNL     1     -10.478  13.527  70.011  1.00  0.00     1.154 C  
HETATM   11  C   UNL     1     -13.609  13.490  70.939  1.00  0.00     0.269 C  
HETATM   12  C   UNL     1     -11.515  14.289  64.537  1.00  0.00    -0.363 C  
HETATM   13  C   UNL     1      -9.434  13.400  65.846  1.00  0.00    -0.044 C  
HETATM   14  C   UNL     1      -8.527  14.650  65.996  1.00  0.00     0.934 C  
HETATM   15  C   UNL     1      -9.753  13.810  68.455  1.00  0.00    -0.193 C  
HETATM   16  C   UNL     1      -8.433  12.098  65.945  1.00  0.00     0.468 C  
HETATM   17  H   UNL     1      -8.154  10.303  62.384  1.00  0.00     0.000 HD 
HETATM   18  O   UNL     1      -9.006  10.717  62.459  1.00  0.00    -0.228 OA 
HETATM   19  C   UNL     1     -12.516  13.672  65.519  1.00  0.00    -0.544 C  
HETATM   20  C   UNL     1     -10.452  13.301  67.059  1.00  0.00    -0.249 C  
HETATM   21  C   UNL     1     -11.970  13.809  66.938  1.00  0.00    -0.460 C  
ENDROOT
BRANCH   3  22
HETATM   22  N   UNL     1     -11.420  11.081  70.474  1.00  0.00    -0.246 N  
HETATM   23  C   UNL     1     -12.935  10.286  72.312  1.00  0.00    -0.276 C  
HETATM   24  C   UNL     1     -12.988   9.312  71.169  1.00  0.00    -0.264 C  
HETATM   25  C   UNL     1     -11.977  11.383  71.926  1.00  0.00     1.436 C  
HETATM   26  C   UNL     1     -11.814   9.609  70.264  1.00  0.00    -0.099 C  
BRANCH  22  27
HETATM   27  C   UNL     1      -9.811  11.054  70.576  1.00  0.00     2.281 C  
BRANCH  27  28
HETATM   28  C   UNL     1      -9.168   9.707  70.640  1.00  0.00    -0.148 C  
HETATM   29  C   UNL     1      -8.392   9.229  69.657  1.00  0.00    -0.140 C  
ENDBRANCH  27  28
ENDBRANCH  22  27
ENDBRANCH   3  22
BRANCH   4  30
HETATM   30  O   UNL     1     -11.991  15.147  70.724  1.00  0.00    -0.279 OA 
BRANCH  30  31
HETATM   31  C   UNL     1     -11.443  16.344  71.043  1.00  0.00    -0.191 C  
HETATM   32  C   UNL     1     -11.504  16.507  72.546  1.00  0.00     0.070 C  
HETATM   33  O   UNL     1     -10.793  17.034  70.273  1.00  0.00    -0.034 OA 
ENDBRANCH  30  31
ENDBRANCH   4  30
BRANCH   5  34
HETATM   34  N   UNL     1      -7.697   9.781  64.898  1.00  0.00    -0.121 NA 
HETATM   35  C   UNL     1      -8.128   8.462  64.419  1.00  0.00    -0.158 C  
HETATM   36  C   UNL     1      -8.043   8.367  62.899  1.00  0.00    -0.170 C  
HETATM   37  O   UNL     1      -6.687   8.529  62.467  1.00  0.00    -0.094 OA 
HETATM   38  C   UNL     1      -6.136   9.773  62.917  1.00  0.00    -0.107 C  
HETATM   39  C   UNL     1      -6.330  10.015  64.425  1.00  0.00    -0.131 C  
ENDBRANCH   5  34
TORSDOF 6
ENDMDL
MODEL      122
REMARK 921   NORMALIZED FREE ENERGY PREDICTED BY IDOCK:    6.81 KCAL/MOL
REMARK 922        TOTAL FREE ENERGY PREDICTED BY IDOCK:    8.89 KCAL/MOL
REMARK 923 INTER-LIGAND FREE ENERGY PREDICTED BY IDOCK:    4.16 KCAL/MOL
REMARK 924 INTRA-LIGAND FREE ENERGY PREDICTED BY IDOCK:    4.74 KCAL/MOL
REMARK 927      BINDING AFFINITY PREDICTED BY RF-SCORE:    0.00 PKD
ROOT
HETATM    1  C   UNL     1     -10.765   7.155  67.759  1.00  0.00    -0.282 C  
HETATM    2  C   UNL     1      -9.705   7.257  66.781  1.00  0.00    -0.260 C  
HETATM    3  C   UNL     1      -8.990   6.858  68.058  1.00  0.00    -0.121 C  
HETATM    4  C   UNL     1     -10.281   6.302  69.595  1.00  0.00    -0.186 C  
HETATM    5  C   UNL     1      -7.492  12.044  68.619  1.00  0.00    -0.113 C  
HETATM    6  C   UNL     1      -8.622  13.095  68.739  1.00  0.00     0.149 C  
HETATM    7  C   UNL     1      -9.915  12.406  68.331  1.00  0.00    -0.210 C  
HETATM    8  C   UNL     1     -10.401  11.542  69.483  1.00  0.00     0.203 C  
HETATM    9  C   UNL     1      -9.784   5.732  68.481  1.00  0.00    -0.161 C  
HETATM   10  C   UNL     1      -8.612   6.316  69.979  1.00  0.00    -0.134 C  
HETATM   11  C   UNL     1     -10.319   4.372  67.987  1.00  0.00     0.255 C  
HETATM   12  C   UNL     1     -11.754  10.902  69.134  1.00  0.00    -0.397 C  
HETATM   13  C   UNL     1      -9.326  10.551  70.039  1.00  0.00     0.382 C  
HETATM   14  C   UNL     1      -9.502  10.538  71.581  1.00  0.00     5.521 C  
HETATM   15  C   UNL     1      -8.877   7.964  70.468  1.00  0.00    -0.141 C  
HETATM   16  C   UNL     1      -7.770  11.006  69.763  1.00  0.00     0.276 C  
HETATM   17  H   UNL     1      -7.669  14.671  68.168  1.00  0.00     0.000 HD 
HETATM   18  O   UNL     1      -8.477  14.241  67.913  1.00  0.00    -0.149 OA 
HETATM   19  C   UNL     1     -11.655   9.738  68.142  1.00  0.00     0.543 C  
HETATM   20  C   UNL     1      -9.499   9.090  69.446  1.00  0.00    -0.159 C  
HETATM   21  C   UNL     1     -10.879   8.596  68.792  1.00  0.00    -0.009 C  
ENDROOT
BRANCH   3  22
HETATM   22  N   UNL     1      -7.449   5.931  67.617  1.00  0.00    -0.077 N  
HETATM   23  C   UNL     1      -5.260   5.927  68.848  1.00  0.00    -0.004 C  
HETATM   24  C   UNL     1      -6.087   4.758  69.303  1.00  0.00    -0.026 C  
HETATM   25  C   UNL     1      -6.059   6.668  67.807  1.00  0.00    -0.028 C  
HETATM   26  C   UNL     1      -7.204   4.575  68.301  1.00  0.00    -0.064 C  
BRANCH  22  27
HETATM   27  C   UNL     1      -7.586   5.570  66.051  1.00  0.00    -0.087 C  
BRANCH  27  28
HETATM   28  C   UNL     1      -7.775   4.127  65.712  1.00  0.00    -0.090 C  
HETATM   29  C   UNL     1      -7.174   3.546  64.664  1.00  0.00    -0.066 C  
ENDBRANCH  27  28
ENDBRANCH  22  27
ENDBRANCH   3  22
BRANCH   4  30
HETATM   30  O   UNL     1     -10.426   4.884  70.253  1.00  0.00    -0.234 OA 
BRANCH  30  31
HETATM   31  C   UNL     1      -9.665   4.347  71.237  1.00  0.00    -0.182 C  
HETATM   32  C   UNL     1     -10.558   3.500  72.118  1.00  0.00     0.120 C  
HETATM   33  O   UNL     1      -8.444   4.348  71.244  1.00  0.00    -0.094 OA 
ENDBRANCH  30  31
ENDBRANCH   4  30
BRANCH   5  34
HETATM   34  N   UNL     1      -6.124  12.583  68.417  1.00  0.00    -0.055 NA 
HETATM   35  C   UNL     1      -5.814  13.401  67.239  1.00  0.00     0.309 C  
HETATM   36  C   UNL     1      -6.178  14.865  67.465  1.00  0.00    -0.008 C  
HETATM   37  O   UNL     1      -5.409  15.406  68.545  1.00  0.00    -0.088 OA 
HETATM   38  C   UNL     1      -5.595  14.657  69.752  1.00  0.00    -0.099 C  
HETATM   39  C   UNL     1      -5.402  13.141  69.564  1.00  0.00    -0.079 C  
ENDBRANCH   5  34
TORSDOF 6
ENDMDL
MODEL      123
REMARK 921   NORMALIZED FREE ENERGY PREDICTED BY IDOCK:    7.12 KCAL/MOL
REMARK 922        TOTAL FREE ENERGY PREDICTED BY IDOCK:    9.31 KCAL/MOL
REMARK 923 INTER-LIGAND FREE ENERGY PREDICTED BY IDOCK:   -0.32 KCAL/MOL
REMARK 924 INTRA-LIGAND FREE ENERGY PREDICTED BY IDOCK:    9.63 KCAL/MOL
REMARK 927      BINDING AFFINITY PREDICTED BY RF-SCORE:    0.00 PKD
ROOT
HETATM    1  C   UNL     1      -7.186  10.223  70.315  1.00  0.00    -0.077 C  
HETATM    2  C   UNL     1      -6.610   9.295  69.368  1.00  0.00    -0.044 C  
HETATM    3  C   UNL     1      -8.100   9.228  69.089  1.00  0.00    -0.106 C  
HETATM    4  C   UNL     1      -9.196  10.702  70.069  1.00  0.00     0.655 C  
HETATM    5  C   UNL     1      -8.224   4.587  71.900  1.00  0.00    -0.104 C  
HETATM    6  C   UNL     1      -7.783   4.649  73.382  1.00  0.00    -0.095 C  
HETATM    7  C   UNL     1      -7.096   5.990  73.587  1.00  0.00    -0.081 C  
HETATM    8  C   UNL     1      -8.153   7.074  73.707  1.00  0.00    -0.138 C  
HETATM    9  C   UNL     1      -8.424  10.627  68.969  1.00  0.00    -0.148 C  
HETATM   10  C   UNL     1     -10.101   9.572  69.153  1.00  0.00    -0.200 C  
HETATM   11  C   UNL     1      -8.022  11.902  68.200  1.00  0.00    -0.151 C  
HETATM   12  C   UNL     1      -7.494   8.430  74.004  1.00  0.00    -0.192 C  
HETATM   13  C   UNL     1      -9.194   7.088  72.540  1.00  0.00    -0.156 C  
HETATM   14  C   UNL     1     -10.569   7.402  73.186  1.00  0.00    -0.424 C  
HETATM   15  C   UNL     1     -10.184   8.651  70.627  1.00  0.00    -0.237 C  
HETATM   16  C   UNL     1      -9.373   5.647  71.767  1.00  0.00    -0.163 C  
HETATM   17  H   UNL     1      -7.296   2.803  73.659  1.00  0.00     0.000 HD 
HETATM   18  O   UNL     1      -6.867   3.641  73.787  1.00  0.00    -0.042 OA 
HETATM   19  C   UNL     1      -6.805   9.066  72.791  1.00  0.00     0.281 C  
HETATM   20  C   UNL     1      -8.838   8.171  71.436  1.00  0.00    -0.185 C  
HETATM   21  C   UNL     1      -7.860   9.407  71.742  1.00  0.00     0.654 C  
ENDROOT
BRANCH   3  22
HETATM   22  N   UNL     1      -8.357   8.753  67.318  1.00  0.00    -0.104 N  
HETATM   23  C   UNL     1      -9.317   6.608  66.432  1.00  0.00    -0.175 C  
HETATM   24  C   UNL     1     -10.410   7.634  66.538  1.00  0.00    -0.122 C  
HETATM   25  C   UNL     1      -8.040   7.259  66.895  1.00  0.00    -0.120 C  
HETATM   26  C   UNL     1      -9.750   8.984  66.707  1.00  0.00    -0.216 C  
BRANCH  22  27
HETATM   27  C   UNL     1      -7.381   9.708  66.461  1.00  0.00    -0.090 C  
BRANCH  27  28
HETATM   28  C   UNL     1      -7.457   9.580  64.974  1.00  0.00    -0.110 C  
HETATM   29  C   UNL     1      -8.284   8.720  64.363  1.00  0.00    -0.169 C  
ENDBRANCH  27  28
ENDBRANCH  22  27
ENDBRANCH   3  22
BRANCH   4  30
HETATM   30  O   UNL     1     -10.003  11.882  69.418  1.00  0.00     0.252 OA 
BRANCH  30  31
HETATM   31  C   UNL     1     -10.578  11.913  68.192  1.00  0.00    -0.208 C  
HETATM   32  C   UNL     1      -9.987  13.074  67.421  1.00  0.00    -0.228 C  
HETATM   33  O   UNL     1     -11.254  11.011  67.722  1.00  0.00    -0.274 OA 
ENDBRANCH  30  31
ENDBRANCH   4  30
BRANCH   5  34
HETATM   34  N   UNL     1      -8.395   3.227  71.331  1.00  0.00    -0.063 NA 
HETATM   35  C   UNL     1      -8.329   2.044  72.198  1.00  0.00    -0.053 C  
HETATM   36  C   UNL     1      -9.676   1.759  72.855  1.00  0.00    -0.085 C  
HETATM   37  O   UNL     1     -10.664   1.473  71.857  1.00  0.00    -0.036 OA 
HETATM   38  C   UNL     1     -10.788   2.545  70.916  1.00  0.00     2.578 C  
HETATM   39  C   UNL     1      -9.439   3.001  70.328  1.00  0.00    -0.140 C  
ENDBRANCH   5  34
TORSDOF 6
ENDMDL
MODEL      124
REMARK 921   NORMALIZED FREE ENERGY PREDICTED BY IDOCK:    7.29 KCAL/MOL
REMARK 922        TOTAL FREE ENERGY PREDICTED BY IDOCK:    9.54 KCAL/MOL
REMARK 923 INTER-LIGAND FREE ENERGY PREDICTED BY IDOCK:    6.84 KCAL/MOL
REMARK 924 INTRA-LIGAND FREE ENERGY PREDICTED BY IDOCK:    2.71 KCAL/MOL
REMARK 927      BINDING AFFINITY PREDICTED BY RF-SCORE:    0.00 PKD
ROOT
HETATM    1  C   UNL     1      -7.292   8.148  67.462  1.00  0.00    -0.093 C  
HETATM    2  C   UNL     1      -6.866   9.234  68.317  1.00  0.00    -0.064 C  
HETATM    3  C   UNL     1      -8.086   8.670  69.020  1.00  0.00    -0.121 C  
HETATM    4  C   UNL     1      -8.753   6.869  68.212  1.00  0.00    -0.123 C  
HETATM    5  C   UNL     1     -10.936  12.824  67.001  1.00  0.00    -0.263 C  
HETATM    6  C   UNL     1     -11.002  12.951  65.460  1.00  0.00    -0.274 C  
HETATM    7  C   UNL     1      -9.941  12.022  64.891  1.00  0.00    -0.253 C  
HETATM    8  C   UNL     1     -10.456  10.593  64.940  1.00  0.00    -0.282 C  
HETATM    9  C   UNL     1      -7.769   7.264  69.043  1.00  0.00    -0.112 C  
HETATM   10  C   UNL     1      -9.692   7.517  69.491  1.00  0.00    -0.164 C  
HETATM   11  C   UNL     1      -6.671   6.277  69.488  1.00  0.00    -0.056 C  
HETATM   12  C   UNL     1      -9.442   9.640  64.289  1.00  0.00    -0.089 C  
HETATM   13  C   UNL     1     -10.976  10.146  66.345  1.00  0.00     0.123 C  
HETATM   14  C   UNL     1     -12.239   9.282  66.087  1.00  0.00     9.137 C  
HETATM   15  C   UNL     1     -10.598   8.315  68.238  1.00  0.00    -0.157 C  
HETATM   16  C   UNL     1     -11.459  11.379  67.319  1.00  0.00    -0.301 C  
HETATM   17  H   UNL     1     -11.407  14.829  65.301  1.00  0.00     0.000 HD 
HETATM   18  O   UNL     1     -10.744  14.249  64.945  1.00  0.00    -0.389 OA 
HETATM   19  C   UNL     1      -8.211   9.354  65.157  1.00  0.00    -0.136 C  
HETATM   20  C   UNL     1      -9.888   9.315  67.146  1.00  0.00    -0.251 C  
HETATM   21  C   UNL     1      -8.650   8.603  66.411  1.00  0.00    -0.130 C  
ENDROOT
BRANCH   3  22
HETATM   22  N   UNL     1      -7.935   8.995  70.836  1.00  0.00    -0.154 N  
HETATM   23  C   UNL     1      -5.834   9.065  72.209  1.00  0.00    -0.063 C  
HETATM   24  C   UNL     1      -6.187  10.458  71.772  1.00  0.00     0.833 C  
HETATM   25  C   UNL     1      -6.888   8.138  71.660  1.00  0.00    -0.063 C  
HETATM   26  C   UNL     1      -7.618  10.432  71.285  1.00  0.00     2.457 C  
BRANCH  22  27
HETATM   27  C   UNL     1      -9.392   8.694  71.459  1.00  0.00    -0.249 C  
BRANCH  27  28
HETATM   28  C   UNL     1     -10.546   9.409  70.835  1.00  0.00    -0.390 C  
HETATM   29  C   UNL     1     -11.562   9.908  71.554  1.00  0.00    -0.375 C  
ENDBRANCH  27  28
ENDBRANCH  22  27
ENDBRANCH   3  22
BRANCH   4  30
HETATM   30  O   UNL     1      -8.770   5.460  68.907  1.00  0.00    -0.098 OA 
BRANCH  30  31
HETATM   31  C   UNL     1      -8.648   4.247  68.317  1.00  0.00    -0.095 C  
HETATM   32  C   UNL     1      -8.728   4.438  66.818  1.00  0.00    -0.112 C  
HETATM   33  O   UNL     1      -8.284   3.233  68.892  1.00  0.00    -0.060 OA 
ENDBRANCH  30  31
ENDBRANCH   4  30
BRANCH   5  34
HETATM   34  N   UNL     1     -11.445  13.987  67.769  1.00  0.00    -0.303 NA 
HETATM   35  C   UNL     1     -12.394  13.792  68.872  1.00  0.00    -0.032 C  
HETATM   36  C   UNL     1     -11.673  13.457  70.175  1.00  0.00    -0.196 C  
HETATM   37  O   UNL     1     -10.821  14.542  70.563  1.00  0.00     0.037 OA 
HETATM   38  C   UNL     1      -9.872  14.859  69.539  1.00  0.00    -0.059 C  
HETATM   39  C   UNL     1     -10.513  15.052  68.151  1.00  0.00    -0.245 C  
ENDBRANCH   5  34
TORSDOF 6
ENDMDL
MODEL      125
REMARK 921   NORMALIZED FREE ENERGY PREDICTED BY IDOCK:    7.52 KCAL/MOL
REMARK 922        TOTAL FREE ENERGY PREDICTED BY IDOCK:    9.86 KCAL/MOL
REMARK 923 INTER-LIGAND FREE ENERGY PREDICTED BY IDOCK:    7.30 KCAL/MOL
REMARK 924 INTRA-LIGAND FREE ENERGY PREDICTED BY IDOCK:    2.56 KCAL/MOL
REMARK 927      BINDING AFFINITY PREDICTED BY RF-SCORE:    0.00 PKD
ROOT
HETATM    1  C   UNL     1      -8.948  16.776  67.455  1.00  0.00    -0.208 C  
HETATM    2  C   UNL     1      -9.108  16.588  68.880  1.00  0.00    -0.245 C  
HETATM    3  C   UNL     1      -7.609  16.493  68.663  1.00  0.00    -0.213 C  
HETATM    4  C   UNL     1      -7.011  17.054  66.748  1.00  0.00    -0.233 C  
HETATM    5  C   UNL     1      -8.089  11.098  68.998  1.00  0.00    -0.076 C  
HETATM    6  C   UNL     1      -9.001  10.406  67.956  1.00  0.00    -0.129 C  
HETATM    7  C   UNL     1      -9.812  11.499  67.278  1.00  0.00    -0.208 C  
HETATM    8  C   UNL     1      -8.937  12.203  66.256  1.00  0.00    -0.094 C  
HETATM    9  C   UNL     1      -7.366  17.682  67.885  1.00  0.00    -0.203 C  
HETATM   10  C   UNL     1      -5.773  16.492  67.792  1.00  0.00    -0.151 C  
HETATM   11  C   UNL     1      -7.581  19.209  67.906  1.00  0.00    -0.301 C  
HETATM   12  C   UNL     1      -9.755  13.255  65.490  1.00  0.00    -0.063 C  
HETATM   13  C   UNL     1      -7.571  12.713  66.822  1.00  0.00     0.261 C  
HETATM   14  C   UNL     1      -6.516  12.451  65.716  1.00  0.00     3.326 C  
HETATM   15  C   UNL     1      -6.118  14.920  67.131  1.00  0.00     0.607 C  
HETATM   16  C   UNL     1      -7.042  11.908  68.155  1.00  0.00    -0.081 C  
HETATM   17  H   UNL     1      -9.417   8.782  68.909  1.00  0.00     0.000 HD 
HETATM   18  O   UNL     1      -9.924   9.464  68.485  1.00  0.00    -0.163 OA 
HETATM   19  C   UNL     1     -10.045  14.525  66.296  1.00  0.00    -0.308 C  
HETATM   20  C   UNL     1      -7.618  14.254  67.194  1.00  0.00     0.002 C  
HETATM   21  C   UNL     1      -8.729  15.242  66.587  1.00  0.00    -0.327 C  
ENDROOT
BRANCH   3  22
HETATM   22  N   UNL     1      -6.744  17.021  70.212  1.00  0.00     0.648 N  
HETATM   23  C   UNL     1      -5.138  18.931  70.494  1.00  0.00    -0.214 C  
HETATM   24  C   UNL     1      -6.522  19.389  70.857  1.00  0.00     0.352 C  
HETATM   25  C   UNL     1      -5.231  17.480  70.099  1.00  0.00    -0.219 C  
HETATM   26  C   UNL     1      -7.376  18.155  71.038  1.00  0.00     4.431 C  
BRANCH  22  27
HETATM   27  C   UNL     1      -6.782  15.743  71.194  1.00  0.00     1.751 C  
BRANCH  27  28
HETATM   28  C   UNL     1      -6.953  14.407  70.546  1.00  0.00     0.390 C  
HETATM   29  C   UNL     1      -6.212  13.341  70.879  1.00  0.00     0.359 C  
ENDBRANCH  27  28
ENDBRANCH  22  27
ENDBRANCH   3  22
BRANCH   4  30
HETATM   30  O   UNL     1      -6.121  18.285  66.349  1.00  0.00    -0.153 OA 
BRANCH  30  31
HETATM   31  C   UNL     1      -6.015  18.867  65.130  1.00  0.00    -0.269 C  
HETATM   32  C   UNL     1      -6.411  20.322  65.264  1.00  0.00    -0.304 C  
HETATM   33  O   UNL     1      -5.455  18.363  64.170  1.00  0.00    -0.043 OA 
ENDBRANCH  30  31
ENDBRANCH   4  30
BRANCH   5  34
HETATM   34  N   UNL     1      -7.641  10.251  70.131  1.00  0.00    -0.174 NA 
HETATM   35  C   UNL     1      -8.405   9.058  70.516  1.00  0.00    -0.183 C  
HETATM   36  C   UNL     1      -8.012   7.849  69.673  1.00  0.00    -0.118 C  
HETATM   37  O   UNL     1      -6.631   7.528  69.880  1.00  0.00    -0.038 OA 
HETATM   38  C   UNL     1      -5.780   8.640  69.578  1.00  0.00    -0.030 C  
HETATM   39  C   UNL     1      -6.215   9.946  70.270  1.00  0.00    -0.082 C  
ENDBRANCH   5  34
TORSDOF 6
ENDMDL
MODEL      126
REMARK 921   NORMALIZED FREE ENERGY PREDICTED BY IDOCK:    8.69 KCAL/MOL
REMARK 922        TOTAL FREE ENERGY PREDICTED BY IDOCK:   11.44 KCAL/MOL
REMARK 923 INTER-LIGAND FREE ENERGY PREDICTED BY IDOCK:    9.21 KCAL/MOL
REMARK 924 INTRA-LIGAND FREE ENERGY PREDICTED BY IDOCK:    2.23 KCAL/MOL
REMARK 927      BINDING AFFINITY PREDICTED BY RF-SCORE:    0.00 PKD
ROOT
HETATM    1  C   UNL     1     -10.045  17.942  67.090  1.00  0.00    -0.340 C  
HETATM    2  C   UNL     1     -10.466  17.354  68.343  1.00  0.00    -0.384 C  
HETATM    3  C   UNL     1      -9.095  16.751  68.095  1.00  0.00    -0.227 C  
HETATM    4  C   UNL     1      -8.065  17.649  66.524  1.00  0.00    -0.270 C  
HETATM    5  C   UNL     1     -11.592  12.242  66.395  1.00  0.00    -0.383 C  
HETATM    6  C   UNL     1     -12.538  12.377  65.177  1.00  0.00    -0.134 C  
HETATM    7  C   UNL     1     -12.778  13.863  64.962  1.00  0.00    -0.372 C  
HETATM    8  C   UNL     1     -11.566  14.465  64.270  1.00  0.00    -0.279 C  
HETATM    9  C   UNL     1      -8.318  17.933  67.816  1.00  0.00    -0.241 C  
HETATM   10  C   UNL     1      -7.288  16.319  67.274  1.00  0.00    -0.216 C  
HETATM   11  C   UNL     1      -7.950  19.309  68.407  1.00  0.00    -0.376 C  
HETATM   12  C   UNL     1     -11.815  15.949  63.958  1.00  0.00     0.175 C  
HETATM   13  C   UNL     1     -10.205  14.158  64.977  1.00  0.00    -0.399 C  
HETATM   14  C   UNL     1      -9.176  13.897  63.845  1.00  0.00     5.106 C  
HETATM   15  C   UNL     1      -8.095  15.348  66.077  1.00  0.00     1.040 C  
HETATM   16  C   UNL     1     -10.210  12.803  65.909  1.00  0.00    -0.300 C  
HETATM   17  H   UNL     1     -13.659  10.834  65.459  1.00  0.00     0.000 HD 
HETATM   18  O   UNL     1     -13.810  11.762  65.324  1.00  0.00     3.438 OA 
HETATM   19  C   UNL     1     -11.724  16.866  65.182  1.00  0.00     1.282 C  
HETATM   20  C   UNL     1      -9.728  15.359  65.897  1.00  0.00    -0.392 C  
HETATM   21  C   UNL     1     -10.292  16.850  65.711  1.00  0.00    -0.298 C  
ENDROOT
BRANCH   3  22
HETATM   22  N   UNL     1      -8.327  16.320  69.724  1.00  0.00     0.341 N  
HETATM   23  C   UNL     1      -5.969  15.570  70.152  1.00  0.00    -0.137 C  
HETATM   24  C   UNL     1      -6.059  17.057  70.348  1.00  0.00     0.242 C  
HETATM   25  C   UNL     1      -7.343  15.079  69.776  1.00  0.00    -0.132 C  
HETATM   26  C   UNL     1      -7.525  17.413  70.452  1.00  0.00     2.627 C  
BRANCH  22  27
HETATM   27  C   UNL     1      -9.555  15.997  70.717  1.00  0.00     1.877 C  
BRANCH  27  28
HETATM   28  C   UNL     1     -10.837  15.571  70.079  1.00  0.00    -0.330 C  
HETATM   29  C   UNL     1     -11.114  14.290  69.796  1.00  0.00    -0.175 C  
ENDBRANCH  27  28
ENDBRANCH  22  27
ENDBRANCH   3  22
BRANCH   4  30
HETATM   30  O   UNL     1      -6.733  18.479  66.607  1.00  0.00    -0.183 OA 
BRANCH  30  31
HETATM   31  C   UNL     1      -6.364  19.528  65.834  1.00  0.00    -0.206 C  
HETATM   32  C   UNL     1      -7.614  20.155  65.256  1.00  0.00     0.117 C  
HETATM   33  O   UNL     1      -5.246  20.020  65.824  1.00  0.00    -0.161 OA 
ENDBRANCH  30  31
ENDBRANCH   4  30
BRANCH   5  34
HETATM   34  N   UNL     1     -11.658  10.953  67.128  1.00  0.00    -0.371 NA 
HETATM   35  C   UNL     1     -10.675   9.896  66.861  1.00  0.00    -0.125 C  
HETATM   36  C   UNL     1      -9.400  10.103  67.673  1.00  0.00    -0.148 C  
HETATM   37  O   UNL     1      -9.689  10.040  69.075  1.00  0.00    -0.179 OA 
HETATM   38  C   UNL     1     -10.680  11.004  69.452  1.00  0.00    -0.205 C  
HETATM   39  C   UNL     1     -11.938  10.965  68.566  1.00  0.00    -0.067 C  
ENDBRANCH   5  34
TORSDOF 6
ENDMDL
MODEL      127
REMARK 921   NORMALIZED FREE ENERGY PREDICTED BY IDOCK:    8.88 KCAL/MOL
REMARK 922        TOTAL FREE ENERGY PREDICTED BY IDOCK:   11.70 KCAL/MOL
REMARK 923 INTER-LIGAND FREE ENERGY PREDICTED BY IDOCK:    8.42 KCAL/MOL
REMARK 924 INTRA-LIGAND FREE ENERGY PREDICTED BY IDOCK:    3.28 KCAL/MOL
REMARK 927      BINDING AFFINITY PREDICTED BY RF-SCORE:    0.00 PKD
ROOT
HETATM    1  C   UNL     1      -6.394   9.911  67.490  1.00  0.00    -0.063 C  
HETATM    2  C   UNL     1      -7.034   9.346  68.657  1.00  0.00    -0.065 C  
HETATM    3  C   UNL     1      -8.139   9.393  67.618  1.00  0.00    -0.106 C  
HETATM    4  C   UNL     1      -7.461   9.854  65.704  1.00  0.00    -0.116 C  
HETATM    5  C   UNL     1     -10.016  13.845  70.090  1.00  0.00     1.768 C  
HETATM    6  C   UNL     1      -9.064  15.063  70.167  1.00  0.00     0.586 C  
HETATM    7  C   UNL     1      -7.676  14.567  69.795  1.00  0.00     0.219 C  
HETATM    8  C   UNL     1      -7.592  14.415  68.285  1.00  0.00    -0.124 C  
HETATM    9  C   UNL     1      -7.491   8.764  66.494  1.00  0.00    -0.085 C  
HETATM   10  C   UNL     1      -9.155   9.668  65.880  1.00  0.00    -0.221 C  
HETATM   11  C   UNL     1      -6.742   7.479  66.092  1.00  0.00    -0.053 C  
HETATM   12  C   UNL     1      -6.172  14.000  67.870  1.00  0.00    -0.164 C  
HETATM   13  C   UNL     1      -8.740  13.555  67.662  1.00  0.00    -0.194 C  
HETATM   14  C   UNL     1      -9.131  14.249  66.331  1.00  0.00    -0.171 C  
HETATM   15  C   UNL     1      -9.173  11.379  66.193  1.00  0.00    -0.223 C  
HETATM   16  C   UNL     1     -10.114  13.494  68.564  1.00  0.00    -0.215 C  
HETATM   17  H   UNL     1      -9.831  15.986  71.676  1.00  0.00     0.000 HD 
HETATM   18  O   UNL     1      -8.963  15.677  71.443  1.00  0.00     3.048 OA 
HETATM   19  C   UNL     1      -5.843  12.531  68.158  1.00  0.00    -0.070 C  
HETATM   20  C   UNL     1      -8.286  12.058  67.397  1.00  0.00    -0.171 C  
HETATM   21  C   UNL     1      -6.738  11.643  67.297  1.00  0.00    -0.124 C  
ENDROOT
BRANCH   3  22
HETATM   22  N   UNL     1      -9.365   8.055  67.986  1.00  0.00    -0.138 N  
HETATM   23  C   UNL     1     -11.456   7.503  66.710  1.00  0.00     1.629 C  
HETATM   24  C   UNL     1     -10.333   6.632  66.222  1.00  0.00     0.155 C  
HETATM   25  C   UNL     1     -10.904   8.386  67.799  1.00  0.00     0.009 C  
HETATM   26  C   UNL     1      -9.218   6.719  67.239  1.00  0.00    -0.133 C  
BRANCH  22  27
HETATM   27  C   UNL     1      -9.146   7.673  69.537  1.00  0.00    -0.146 C  
BRANCH  27  28
HETATM   28  C   UNL     1     -10.285   7.950  70.462  1.00  0.00    -0.198 C  
HETATM   29  C   UNL     1     -11.310   7.100  70.623  1.00  0.00    -0.327 C  
ENDBRANCH  27  28
ENDBRANCH  22  27
ENDBRANCH   3  22
BRANCH   4  30
HETATM   30  O   UNL     1      -7.486   8.930  64.434  1.00  0.00    -0.100 OA 
BRANCH  30  31
HETATM   31  C   UNL     1      -6.495   8.738  63.531  1.00  0.00    -0.089 C  
HETATM   32  C   UNL     1      -6.631   7.339  62.969  1.00  0.00    -0.053 C  
HETATM   33  O   UNL     1      -5.790   9.627  63.079  1.00  0.00    -0.095 OA 
ENDBRANCH  30  31
ENDBRANCH   4  30
BRANCH   5  34
HETATM   34  N   UNL     1     -11.246  13.931  70.915  1.00  0.00     0.579 NA 
HETATM   35  C   UNL     1     -11.164  13.880  72.380  1.00  0.00     3.211 C  
HETATM   36  C   UNL     1     -10.871  15.256  72.970  1.00  0.00     1.608 C  
HETATM   37  O   UNL     1     -11.933  16.166  72.658  1.00  0.00    -0.488 OA 
HETATM   38  C   UNL     1     -12.142  16.267  71.244  1.00  0.00    -0.128 C  
HETATM   39  C   UNL     1     -12.283  14.899  70.549  1.00  0.00    -0.329 C  
ENDBRANCH   5  34
TORSDOF 6
ENDMDL
MODEL      128
REMARK 921   NORMALIZED FREE ENERGY PREDICTED BY IDOCK:    9.21 KCAL/MOL
REMARK 922        TOTAL FREE ENERGY PREDICTED BY IDOCK:   12.14 KCAL/MOL
REMARK 923 INTER-LIGAND FREE ENERGY PREDICTED BY IDOCK:    6.77 KCAL/MOL
REMARK 924 INTRA-LIGAND FREE ENERGY PREDICTED BY IDOCK:    5.37 KCAL/MOL
REMARK 927      BINDING AFFINITY PREDICTED BY RF-SCORE:    0.00 PKD
ROOT
HETATM    1  C   UNL     1      -7.356   8.849  69.328  1.00  0.00    -0.070 C  
HETATM    2  C   UNL     1      -8.767   9.090  69.533  1.00  0.00    -0.144 C  
HETATM    3  C   UNL     1      -8.721   8.194  68.309  1.00  0.00    -0.133 C  
HETATM    4  C   UNL     1      -6.836   7.389  67.939  1.00  0.00    -0.074 C  
HETATM    5  C   UNL     1      -9.522  12.621  65.273  1.00  0.00     0.200 C  
HETATM    6  C   UNL     1      -8.461  13.743  65.370  1.00  0.00     3.021 C  
HETATM    7  C   UNL     1      -7.598  13.436  66.583  1.00  0.00     0.911 C  
HETATM    8  C   UNL     1      -6.612  12.338  66.225  1.00  0.00     1.280 C  
HETATM    9  C   UNL     1      -7.862   7.133  68.773  1.00  0.00    -0.122 C  
HETATM   10  C   UNL     1      -8.055   7.013  66.796  1.00  0.00    -0.109 C  
HETATM   11  C   UNL     1      -7.713   6.107  69.914  1.00  0.00    -0.100 C  
HETATM   12  C   UNL     1      -5.665  12.067  67.405  1.00  0.00    -0.123 C  
HETATM   13  C   UNL     1      -7.269  11.064  65.600  1.00  0.00     0.154 C  
HETATM   14  C   UNL     1      -6.312  10.586  64.476  1.00  0.00     0.015 C  
HETATM   15  C   UNL     1      -7.517   8.439  65.957  1.00  0.00    -0.084 C  
HETATM   16  C   UNL     1      -8.723  11.330  64.877  1.00  0.00     0.173 C  
HETATM   17  H   UNL     1      -9.517  15.246  64.783  1.00  0.00     0.000 HD 
HETATM   18  O   UNL     1      -8.977  15.055  65.542  1.00  0.00     0.264 OA 
HETATM   19  C   UNL     1      -6.309  11.281  68.552  1.00  0.00    -0.047 C  
HETATM   20  C   UNL     1      -7.483   9.916  66.674  1.00  0.00    -0.099 C  
HETATM   21  C   UNL     1      -6.669   9.883  68.057  1.00  0.00    -0.061 C  
ENDROOT
BRANCH   3  22
HETATM   22  N   UNL     1     -10.296   7.225  68.216  1.00  0.00    -0.187 N  
HETATM   23  C   UNL     1     -11.366   6.238  66.170  1.00  0.00     1.301 C  
HETATM   24  C   UNL     1     -10.515   5.195  66.836  1.00  0.00    -0.280 C  
HETATM   25  C   UNL     1     -11.264   7.497  66.991  1.00  0.00     0.470 C  
HETATM   26  C   UNL     1     -10.197   5.690  68.228  1.00  0.00    -0.186 C  
BRANCH  22  27
HETATM   27  C   UNL     1     -11.113   7.584  69.558  1.00  0.00    -0.046 C  
BRANCH  27  28
HETATM   28  C   UNL     1     -11.351   9.034  69.828  1.00  0.00     0.047 C  
HETATM   29  C   UNL     1     -12.463   9.487  70.425  1.00  0.00     0.119 C  
ENDBRANCH  27  28
ENDBRANCH  22  27
ENDBRANCH   3  22
BRANCH   4  30
HETATM   30  O   UNL     1      -6.417   5.876  67.997  1.00  0.00    -0.039 OA 
BRANCH  30  31
HETATM   31  C   UNL     1      -5.820   5.222  69.022  1.00  0.00    -0.019 C  
HETATM   32  C   UNL     1      -5.334   3.883  68.510  1.00  0.00    -0.012 C  
HETATM   33  O   UNL     1      -5.512   5.738  70.085  1.00  0.00    -0.008 OA 
ENDBRANCH  30  31
ENDBRANCH   4  30
BRANCH   5  34
HETATM   34  N   UNL     1     -10.773  12.971  64.556  1.00  0.00    -0.362 NA 
HETATM   35  C   UNL     1     -11.800  11.951  64.309  1.00  0.00    -0.279 C  
HETATM   36  C   UNL     1     -12.728  11.792  65.509  1.00  0.00     2.030 C  
HETATM   37  O   UNL     1     -13.428  13.016  65.760  1.00  0.00     0.171 OA 
HETATM   38  C   UNL     1     -12.525  14.106  65.973  1.00  0.00    -0.425 C  
HETATM   39  C   UNL     1     -11.449  14.231  64.877  1.00  0.00    -0.378 C  
ENDBRANCH   5  34
TORSDOF 6
ENDMDL
MODEL      129
REMARK 921   NORMALIZED FREE ENERGY PREDICTED BY IDOCK:    9.24 KCAL/MOL
REMARK 922        TOTAL FREE ENERGY PREDICTED BY IDOCK:   12.18 KCAL/MOL
REMARK 923 INTER-LIGAND FREE ENERGY PREDICTED BY IDOCK:   11.94 KCAL/MOL
REMARK 924 INTRA-LIGAND FREE ENERGY PREDICTED BY IDOCK:    0.25 KCAL/MOL
REMARK 927      BINDING AFFINITY PREDICTED BY RF-SCORE:    0.00 PKD
ROOT
HETATM    1  C   UNL     1     -11.578  16.765  68.108  1.00  0.00     0.297 C  
HETATM    2  C   UNL     1     -12.550  15.928  68.778  1.00  0.00     0.884 C  
HETATM    3  C   UNL     1     -11.280  15.739  69.588  1.00  0.00    -0.319 C  
HETATM    4  C   UNL     1      -9.763  17.072  69.079  1.00  0.00    -0.216 C  
HETATM    5  C   UNL     1     -10.579  11.003  67.032  1.00  0.00    -0.256 C  
HETATM    6  C   UNL     1     -10.436  11.048  65.492  1.00  0.00    -0.238 C  
HETATM    7  C   UNL     1     -10.867  12.436  65.045  1.00  0.00    -0.331 C  
HETATM    8  C   UNL     1      -9.740  13.417  65.322  1.00  0.00     0.002 C  
HETATM    9  C   UNL     1     -10.890  17.107  69.816  1.00  0.00     0.237 C  
HETATM   10  C   UNL     1      -9.372  15.901  70.267  1.00  0.00     0.837 C  
HETATM   11  C   UNL     1     -11.421  18.441  70.379  1.00  0.00     4.973 C  
HETATM   12  C   UNL     1     -10.110  14.814  64.799  1.00  0.00    -0.065 C  
HETATM   13  C   UNL     1      -9.206  13.382  66.791  1.00  0.00    -0.242 C  
HETATM   14  C   UNL     1      -7.665  13.547  66.698  1.00  0.00     0.829 C  
HETATM   15  C   UNL     1      -8.842  14.921  68.931  1.00  0.00    -0.184 C  
HETATM   16  C   UNL     1      -9.464  11.961  67.578  1.00  0.00    -0.176 C  
HETATM   17  H   UNL     1     -10.963   9.244  65.059  1.00  0.00     0.000 HD 
HETATM   18  O   UNL     1     -11.232  10.111  64.779  1.00  0.00     1.324 OA 
HETATM   19  C   UNL     1     -11.132  15.554  65.670  1.00  0.00    -0.235 C  
HETATM   20  C   UNL     1      -9.836  14.533  67.682  1.00  0.00    -0.223 C  
HETATM   21  C   UNL     1     -10.509  15.839  67.034  1.00  0.00    -0.309 C  
ENDROOT
BRANCH   3  22
HETATM   22  N   UNL     1     -11.740  15.310  71.330  1.00  0.00    -0.338 N  
HETATM   23  C   UNL     1     -12.728  16.828  73.069  1.00  0.00     0.490 C  
HETATM   24  C   UNL     1     -13.834  16.088  72.370  1.00  0.00    -0.186 C  
HETATM   25  C   UNL     1     -11.426  16.372  72.463  1.00  0.00     0.099 C  
HETATM   26  C   UNL     1     -13.205  14.939  71.616  1.00  0.00    -0.359 C  
BRANCH  22  27
HETATM   27  C   UNL     1     -10.911  13.974  71.686  1.00  0.00     2.646 C  
BRANCH  27  28
HETATM   28  C   UNL     1     -11.155  12.784  70.816  1.00  0.00     2.108 C  
HETATM   29  C   UNL     1     -12.334  12.147  70.775  1.00  0.00    -0.391 C  
ENDBRANCH  27  28
ENDBRANCH  22  27
ENDBRANCH   3  22
BRANCH   4  30
HETATM   30  O   UNL     1      -9.143  18.200  69.980  1.00  0.00     1.297 OA 
BRANCH  30  31
HETATM   31  C   UNL     1      -8.048  18.955  69.722  1.00  0.00     0.768 C  
HETATM   32  C   UNL     1      -7.648  18.732  68.279  1.00  0.00    -0.307 C  
HETATM   33  O   UNL     1      -7.632  19.840  70.452  1.00  0.00     0.434 OA 
ENDBRANCH  30  31
ENDBRANCH   4  30
BRANCH   5  34
HETATM   34  N   UNL     1     -10.762   9.656  67.627  1.00  0.00    -0.279 NA 
HETATM   35  C   UNL     1      -9.764   8.603  67.404  1.00  0.00    -0.175 C  
HETATM   36  C   UNL     1      -8.613   8.706  68.400  1.00  0.00    -0.135 C  
HETATM   37  O   UNL     1      -9.096   8.525  69.737  1.00  0.00    -0.149 OA 
HETATM   38  C   UNL     1     -10.118   9.476  70.060  1.00  0.00    -0.242 C  
HETATM   39  C   UNL     1     -11.241   9.546  69.007  1.00  0.00     0.065 C  
ENDBRANCH   5  34
TORSDOF 6
ENDMDL
MODEL      130
REMARK 921   NORMALIZED FREE ENERGY PREDICTED BY IDOCK:   11.45 KCAL/MOL
REMARK 922        TOTAL FREE ENERGY PREDICTED BY IDOCK:   15.17 KCAL/MOL
REMARK 923 INTER-LIGAND FREE ENERGY PREDICTED BY IDOCK:    9.42 KCAL/MOL
REMARK 924 INTRA-LIGAND FREE ENERGY PREDICTED BY IDOCK:    5.74 KCAL/MOL
REMARK 927      BINDING AFFINITY PREDICTED BY RF-SCORE:    0.00 PKD
ROOT
HETATM    1  C   UNL     1     -11.239  11.174  68.097  1.00  0.00    -0.356 C  
HETATM    2  C   UNL     1     -10.062  11.195  67.257  1.00  0.00    -0.218 C  
HETATM    3  C   UNL     1      -9.516  10.939  68.650  1.00  0.00    -0.190 C  
HETATM    4  C   UNL     1     -10.993  10.521  70.057  1.00  0.00    -0.286 C  
HETATM    5  C   UNL     1      -8.121  16.179  68.864  1.00  0.00    -0.228 C  
HETATM    6  C   UNL     1      -9.261  17.218  68.730  1.00  0.00    -0.238 C  
HETATM    7  C   UNL     1     -10.488  16.471  68.232  1.00  0.00    -0.313 C  
HETATM    8  C   UNL     1     -11.115  15.719  69.394  1.00  0.00    -0.314 C  
HETATM    9  C   UNL     1     -10.355   9.848  69.081  1.00  0.00    -0.225 C  
HETATM   10  C   UNL     1      -9.387  10.600  70.649  1.00  0.00     2.055 C  
HETATM   11  C   UNL     1     -10.817   8.437  68.664  1.00  0.00     0.027 C  
HETATM   12  C   UNL     1     -12.410  15.025  68.943  1.00  0.00    -0.023 C  
HETATM   13  C   UNL     1     -10.118  14.808  70.182  1.00  0.00     0.287 C  
HETATM   14  C   UNL     1     -10.492  14.948  71.682  1.00  0.00     1.329 C  
HETATM   15  C   UNL     1      -9.719  12.285  70.928  1.00  0.00     8.191 C  
HETATM   16  C   UNL     1      -8.541  15.258  70.063  1.00  0.00     0.362 C  
HETATM   17  H   UNL     1      -8.247  18.744  68.127  1.00  0.00     0.000 HD 
HETATM   18  O   UNL     1      -9.014  18.277  67.816  1.00  0.00    -0.261 OA 
HETATM   19  C   UNL     1     -12.180  13.768  68.096  1.00  0.00    -0.178 C  
HETATM   20  C   UNL     1     -10.208  13.292  69.726  1.00  0.00     1.177 C  
HETATM   21  C   UNL     1     -11.490  12.711  68.954  1.00  0.00    -0.354 C  
ENDROOT
BRANCH   3  22
HETATM   22  N   UNL     1      -7.928   9.998  68.507  1.00  0.00    -0.099 N  
HETATM   23  C   UNL     1      -5.817  10.725  67.358  1.00  0.00    -0.045 C  
HETATM   24  C   UNL     1      -5.729  11.068  68.818  1.00  0.00    -0.039 C  
HETATM   25  C   UNL     1      -7.149  10.060  67.128  1.00  0.00    -0.089 C  
HETATM   26  C   UNL     1      -6.819  10.300  69.530  1.00  0.00    -0.084 C  
BRANCH  22  27
HETATM   27  C   UNL     1      -8.307   8.453  68.771  1.00  0.00    -0.116 C  
BRANCH  27  28
HETATM   28  C   UNL     1      -7.576   7.437  67.957  1.00  0.00    -0.114 C  
HETATM   29  C   UNL     1      -6.325   7.045  68.240  1.00  0.00    -0.035 C  
ENDBRANCH  27  28
ENDBRANCH  22  27
ENDBRANCH   3  22
BRANCH   4  30
HETATM   30  O   UNL     1     -11.217   9.173  70.834  1.00  0.00    -0.257 OA 
BRANCH  30  31
HETATM   31  C   UNL     1     -12.003   8.131  70.471  1.00  0.00     0.070 C  
HETATM   32  C   UNL     1     -11.148   6.883  70.435  1.00  0.00    -0.341 C  
HETATM   33  O   UNL     1     -13.224   8.166  70.436  1.00  0.00     0.750 OA 
ENDBRANCH  30  31
ENDBRANCH   4  30
BRANCH   5  34
HETATM   34  N   UNL     1      -6.741  16.718  68.785  1.00  0.00    -0.174 NA 
HETATM   35  C   UNL     1      -6.486  18.147  69.003  1.00  0.00    -0.243 C  
HETATM   36  C   UNL     1      -6.349  18.468  70.489  1.00  0.00     0.474 C  
HETATM   37  O   UNL     1      -5.229  17.769  71.045  1.00  0.00    -0.276 OA 
HETATM   38  C   UNL     1      -5.341  16.354  70.852  1.00  0.00    -0.080 C  
HETATM   39  C   UNL     1      -5.645  15.960  69.394  1.00  0.00    -0.118 C  
ENDBRANCH   5  34
TORSDOF 6
ENDMDL
MODEL      131
REMARK 921   NORMALIZED FREE ENERGY PREDICTED BY IDOCK:   11.49 KCAL/MOL
REMARK 922        TOTAL FREE ENERGY PREDICTED BY IDOCK:   15.22 KCAL/MOL
REMARK 923 INTER-LIGAND FREE ENERGY PREDICTED BY IDOCK:    0.94 KCAL/MOL
REMARK 924 INTRA-LIGAND FREE ENERGY PREDICTED BY IDOCK:   14.27 KCAL/MOL
REMARK 927      BINDING AFFINITY PREDICTED BY RF-SCORE:    0.00 PKD
ROOT
HETATM    1  C   UNL     1     -10.266  10.451  65.235  1.00  0.00    -0.332 C  
HETATM    2  C   UNL     1     -10.690   9.833  66.472  1.00  0.00    -0.059 C  
HETATM    3  C   UNL     1      -9.378  10.507  66.829  1.00  0.00    -0.157 C  
HETATM    4  C   UNL     1      -8.663  11.774  65.338  1.00  0.00     0.359 C  
HETATM    5  C   UNL     1      -7.002   5.639  66.483  1.00  0.00    -0.064 C  
HETATM    6  C   UNL     1      -7.078   4.914  65.118  1.00  0.00    -0.063 C  
HETATM    7  C   UNL     1      -8.118   5.643  64.283  1.00  0.00    -0.127 C  
HETATM    8  C   UNL     1      -7.505   6.920  63.732  1.00  0.00    -0.091 C  
HETATM    9  C   UNL     1      -9.596  11.833  66.307  1.00  0.00    -0.242 C  
HETATM   10  C   UNL     1      -7.664  11.591  66.717  1.00  0.00    -0.136 C  
HETATM   11  C   UNL     1     -10.582  13.016  66.380  1.00  0.00    -0.294 C  
HETATM   12  C   UNL     1      -8.505   7.635  62.810  1.00  0.00     0.129 C  
HETATM   13  C   UNL     1      -6.837   7.830  64.814  1.00  0.00    -0.051 C  
HETATM   14  C   UNL     1      -5.545   8.397  64.169  1.00  0.00    -0.063 C  
HETATM   15  C   UNL     1      -6.925  10.283  65.840  1.00  0.00    -0.126 C  
HETATM   16  C   UNL     1      -6.356   7.036  66.172  1.00  0.00    -0.050 C  
HETATM   17  H   UNL     1      -6.817   3.093  65.697  1.00  0.00     0.000 HD 
HETATM   18  O   UNL     1      -7.467   3.549  65.175  1.00  0.00    -0.071 OA 
HETATM   19  C   UNL     1      -9.633   8.356  63.555  1.00  0.00     2.723 C  
HETATM   20  C   UNL     1      -7.793   9.009  65.274  1.00  0.00    -0.102 C  
HETATM   21  C   UNL     1      -9.038   9.491  64.383  1.00  0.00    -0.234 C  
ENDROOT
BRANCH   3  22
HETATM   22  N   UNL     1      -9.394  10.935  68.630  1.00  0.00    -0.181 N  
HETATM   23  C   UNL     1     -11.208  10.460  70.300  1.00  0.00    -0.395 C  
HETATM   24  C   UNL     1     -10.185   9.360  70.352  1.00  0.00    -0.310 C  
HETATM   25  C   UNL     1     -10.753  11.451  69.259  1.00  0.00    -0.151 C  
HETATM   26  C   UNL     1      -8.952   9.852  69.630  1.00  0.00    -0.216 C  
BRANCH  22  27
HETATM   27  C   UNL     1      -8.308  12.113  68.811  1.00  0.00     0.075 C  
BRANCH  27  28
HETATM   28  C   UNL     1      -7.114  11.799  69.652  1.00  0.00     0.176 C  
HETATM   29  C   UNL     1      -5.889  11.627  69.135  1.00  0.00    -0.060 C  
ENDBRANCH  27  28
ENDBRANCH  22  27
ENDBRANCH   3  22
BRANCH   4  30
HETATM   30  O   UNL     1      -8.490  13.333  65.413  1.00  0.00     1.835 OA 
BRANCH  30  31
HETATM   31  C   UNL     1      -9.118  14.195  66.248  1.00  0.00    -0.040 C  
HETATM   32  C   UNL     1      -8.939  13.696  67.666  1.00  0.00    -0.202 C  
HETATM   33  O   UNL     1      -9.526  15.299  65.923  1.00  0.00    -0.319 OA 
ENDBRANCH  30  31
ENDBRANCH   4  30
BRANCH   5  34
HETATM   34  N   UNL     1      -6.509   4.827  67.622  1.00  0.00    -0.044 NA 
HETATM   35  C   UNL     1      -5.213   5.128  68.244  1.00  0.00    -0.003 C  
HETATM   36  C   UNL     1      -5.342   6.225  69.296  1.00  0.00    -0.012 C  
HETATM   37  O   UNL     1      -6.208   5.798  70.355  1.00  0.00    -0.028 OA 
HETATM   38  C   UNL     1      -7.501   5.430  69.862  1.00  0.00    -0.069 C  
HETATM   39  C   UNL     1      -7.446   4.443  68.681  1.00  0.00    -0.060 C  
ENDBRANCH   5  34
TORSDOF 6
ENDMDL
MODEL      132
REMARK 921   NORMALIZED FREE ENERGY PREDICTED BY IDOCK:   14.53 KCAL/MOL
REMARK 922        TOTAL FREE ENERGY PREDICTED BY IDOCK:   19.33 KCAL/MOL
REMARK 923 INTER-LIGAND FREE ENERGY PREDICTED BY IDOCK:   14.44 KCAL/MOL
REMARK 924 INTRA-LIGAND FREE ENERGY PREDICTED BY IDOCK:    4.89 KCAL/MOL
REMARK 927      BINDING AFFINITY PREDICTED BY RF-SCORE:    0.00 PKD
ROOT
HETATM    1  C   UNL     1      -8.364  10.655  68.652  1.00  0.00    -0.137 C  
HETATM    2  C   UNL     1      -9.702  11.149  68.893  1.00  0.00    -0.163 C  
HETATM    3  C   UNL     1      -9.557  11.202  67.383  1.00  0.00    -0.168 C  
HETATM    4  C   UNL     1      -7.849  10.240  66.679  1.00  0.00    -0.116 C  
HETATM    5  C   UNL     1      -8.675  16.538  67.843  1.00  0.00    -0.188 C  
HETATM    6  C   UNL     1      -7.456  16.980  68.688  1.00  0.00    -0.229 C  
HETATM    7  C   UNL     1      -6.987  15.761  69.466  1.00  0.00    -0.191 C  
HETATM    8  C   UNL     1      -6.196  14.855  68.538  1.00  0.00    -0.091 C  
HETATM    9  C   UNL     1      -9.073   9.874  67.104  1.00  0.00    -0.154 C  
HETATM   10  C   UNL     1      -8.815  11.024  65.500  1.00  0.00    -0.179 C  
HETATM   11  C   UNL     1      -9.415   8.387  67.331  1.00  0.00    -0.185 C  
HETATM   12  C   UNL     1      -5.633  13.656  69.317  1.00  0.00    -0.081 C  
HETATM   13  C   UNL     1      -6.940  14.489  67.211  1.00  0.00     0.055 C  
HETATM   14  C   UNL     1      -5.866  14.508  66.091  1.00  0.00     5.815 C  
HETATM   15  C   UNL     1      -7.808  12.411  65.794  1.00  0.00     1.740 C  
HETATM   16  C   UNL     1      -8.093  15.569  66.754  1.00  0.00    -0.247 C  
HETATM   17  H   UNL     1      -8.005  18.771  69.147  1.00  0.00     0.000 HD 
HETATM   18  O   UNL     1      -7.712  18.009  69.633  1.00  0.00     0.308 OA 
HETATM   19  C   UNL     1      -6.679  12.591  69.663  1.00  0.00     0.079 C  
HETATM   20  C   UNL     1      -7.636  13.066  67.291  1.00  0.00    -0.097 C  
HETATM   21  C   UNL     1      -7.196  11.963  68.372  1.00  0.00    -0.091 C  
ENDROOT
BRANCH   3  22
HETATM   22  N   UNL     1     -11.232  11.031  66.614  1.00  0.00    -0.150 N  
HETATM   23  C   UNL     1     -12.358  12.621  65.030  1.00  0.00    -0.561 C  
HETATM   24  C   UNL     1     -11.653  11.553  64.242  1.00  0.00    -0.219 C  
HETATM   25  C   UNL     1     -12.129  12.331  66.491  1.00  0.00    -0.015 C  
HETATM   26  C   UNL     1     -11.315  10.433  65.199  1.00  0.00     1.509 C  
BRANCH  22  27
HETATM   27  C   UNL     1     -12.036   9.984  67.539  1.00  0.00     2.539 C  
BRANCH  27  28
HETATM   28  C   UNL     1     -11.358   8.682  67.819  1.00  0.00     0.923 C  
HETATM   29  C   UNL     1     -11.807   7.815  68.739  1.00  0.00     1.759 C  
ENDBRANCH  27  28
ENDBRANCH  22  27
ENDBRANCH   3  22
BRANCH   4  30
HETATM   30  O   UNL     1      -7.781   8.956  65.776  1.00  0.00    -0.092 OA 
BRANCH  30  31
HETATM   31  C   UNL     1      -6.688   8.216  65.472  1.00  0.00    -0.052 C  
HETATM   32  C   UNL     1      -6.875   7.643  64.084  1.00  0.00    -0.056 C  
HETATM   33  O   UNL     1      -5.644   8.232  66.106  1.00  0.00    -0.034 OA 
ENDBRANCH  30  31
ENDBRANCH   4  30
BRANCH   5  34
HETATM   34  N   UNL     1      -9.620  17.614  67.455  1.00  0.00    -0.263 NA 
HETATM   35  C   UNL     1      -9.644  18.121  66.078  1.00  0.00    -0.059 C  
HETATM   36  C   UNL     1     -10.522  17.254  65.180  1.00  0.00     0.221 C  
HETATM   37  O   UNL     1     -11.878  17.277  65.642  1.00  0.00     1.594 OA 
HETATM   38  C   UNL     1     -11.979  16.842  67.003  1.00  0.00     1.849 C  
HETATM   39  C   UNL     1     -10.999  17.563  67.948  1.00  0.00    -0.129 C  
ENDBRANCH   5  34
TORSDOF 6
ENDMDL
MODEL      133
REMARK 921   NORMALIZED FREE ENERGY PREDICTED BY IDOCK:   14.97 KCAL/MOL
REMARK 922        TOTAL FREE ENERGY PREDICTED BY IDOCK:   19.92 KCAL/MOL
REMARK 923 INTER-LIGAND FREE ENERGY PREDICTED BY IDOCK:   16.69 KCAL/MOL
REMARK 924 INTRA-LIGAND FREE ENERGY PREDICTED BY IDOCK:    3.23 KCAL/MOL
REMARK 927      BINDING AFFINITY PREDICTED BY RF-SCORE:    0.00 PKD
ROOT
HETATM    1  C   UNL     1      -5.357   9.931  67.875  1.00  0.00    -0.039 C  
HETATM    2  C   UNL     1      -5.375   8.601  67.305  1.00  0.00    -0.037 C  
HETATM    3  C   UNL     1      -6.729   9.177  66.936  1.00  0.00    -0.076 C  
HETATM    4  C   UNL     1      -6.899  11.216  67.327  1.00  0.00    -0.095 C  
HETATM    5  C   UNL     1      -8.859   6.282  71.003  1.00  0.00    -0.136 C  
HETATM    6  C   UNL     1      -8.330   6.574  72.428  1.00  0.00    -0.108 C  
HETATM    7  C   UNL     1      -7.068   7.408  72.273  1.00  0.00    -0.067 C  
HETATM    8  C   UNL     1      -7.458   8.844  71.969  1.00  0.00     0.062 C  
HETATM    9  C   UNL     1      -6.347  10.447  66.370  1.00  0.00    -0.092 C  
HETATM   10  C   UNL     1      -8.305  10.443  66.725  1.00  0.00    -0.126 C  
HETATM   11  C   UNL     1      -5.440  11.066  65.287  1.00  0.00     0.031 C  
HETATM   12  C   UNL     1      -6.206   9.732  71.894  1.00  0.00     0.341 C  
HETATM   13  C   UNL     1      -8.450   9.000  70.769  1.00  0.00    -0.238 C  
HETATM   14  C   UNL     1      -9.449  10.117  71.172  1.00  0.00     1.666 C  
HETATM   15  C   UNL     1      -8.708  10.176  68.397  1.00  0.00    -0.123 C  
HETATM   16  C   UNL     1      -9.360   7.666  70.458  1.00  0.00    -0.163 C  
HETATM   17  H   UNL     1      -8.774   4.908  73.292  1.00  0.00     0.000 HD 
HETATM   18  O   UNL     1      -7.985   5.429  73.195  1.00  0.00    -0.103 OA 
HETATM   19  C   UNL     1      -5.392   9.553  70.608  1.00  0.00    -0.042 C  
HETATM   20  C   UNL     1      -7.702   9.381  69.423  1.00  0.00    -0.085 C  
HETATM   21  C   UNL     1      -6.229  10.020  69.420  1.00  0.00    -0.045 C  
ENDROOT
BRANCH   3  22
HETATM   22  N   UNL     1      -7.319   8.370  65.378  1.00  0.00    -0.082 N  
HETATM   23  C   UNL     1      -6.388   6.319  64.270  1.00  0.00    -0.030 C  
HETATM   24  C   UNL     1      -7.533   5.925  65.159  1.00  0.00    -0.079 C  
HETATM   25  C   UNL     1      -6.230   7.814  64.371  1.00  0.00    -0.052 C  
HETATM   26  C   UNL     1      -8.292   7.186  65.506  1.00  0.00    -0.129 C  
BRANCH  22  27
HETATM   27  C   UNL     1      -8.163   9.497  64.592  1.00  0.00    -0.146 C  
BRANCH  27  28
HETATM   28  C   UNL     1      -9.633   9.264  64.464  1.00  0.00     0.354 C  
HETATM   29  C   UNL     1     -10.152   8.066  64.159  1.00  0.00     5.511 C  
ENDBRANCH  27  28
ENDBRANCH  22  27
ENDBRANCH   3  22
BRANCH   4  30
HETATM   30  O   UNL     1      -7.085  12.375  66.283  1.00  0.00     0.618 OA 
BRANCH  30  31
HETATM   31  C   UNL     1      -7.809  13.511  66.429  1.00  0.00     1.360 C  
HETATM   32  C   UNL     1      -8.952  13.474  65.438  1.00  0.00     1.245 C  
HETATM   33  O   UNL     1      -7.696  14.287  67.365  1.00  0.00    -0.177 OA 
ENDBRANCH  30  31
ENDBRANCH   4  30
BRANCH   5  34
HETATM   34  N   UNL     1      -9.708   5.074  70.861  1.00  0.00    -0.177 NA 
HETATM   35  C   UNL     1     -10.521   4.599  71.988  1.00  0.00    -0.128 C  
HETATM   36  C   UNL     1     -11.859   5.329  72.056  1.00  0.00     0.509 C  
HETATM   37  O   UNL     1     -12.624   5.073  70.872  1.00  0.00     4.352 OA 
HETATM   38  C   UNL     1     -11.910   5.456  69.691  1.00  0.00     3.185 C  
HETATM   39  C   UNL     1     -10.480   4.886  69.630  1.00  0.00     0.033 C  
ENDBRANCH   5  34
TORSDOF 6
ENDMDL
MODEL      134
REMARK 921   NORMALIZED FREE ENERGY PREDICTED BY IDOCK:   17.60 KCAL/MOL
REMARK 922        TOTAL FREE ENERGY PREDICTED BY IDOCK:   23.47 KCAL/MOL
REMARK 923 INTER-LIGAND FREE ENERGY PREDICTED BY IDOCK:   15.81 KCAL/MOL
REMARK 924 INTRA-LIGAND FREE ENERGY PREDICTED BY IDOCK:    7.67 KCAL/MOL
REMARK 927      BINDING AFFINITY PREDICTED BY RF-SCORE:    0.00 PKD
ROOT
HETATM    1  C   UNL     1      -6.657  10.344  67.621  1.00  0.00    -0.066 C  
HETATM    2  C   UNL     1      -8.009  10.131  68.087  1.00  0.00    -0.104 C  
HETATM    3  C   UNL     1      -8.187  10.737  66.707  1.00  0.00    -0.135 C  
HETATM    4  C   UNL     1      -6.415  10.860  65.620  1.00  0.00     0.023 C  
HETATM    5  C   UNL     1      -9.260  15.474  69.129  1.00  0.00    -0.246 C  
HETATM    6  C   UNL     1      -8.151  16.072  70.028  1.00  0.00     0.803 C  
HETATM    7  C   UNL     1      -7.127  14.974  70.263  1.00  0.00     0.159 C  
HETATM    8  C   UNL     1      -6.252  14.840  69.027  1.00  0.00    -0.094 C  
HETATM    9  C   UNL     1      -7.312   9.902  65.923  1.00  0.00    -0.108 C  
HETATM   10  C   UNL     1      -7.809  11.516  64.869  1.00  0.00     1.245 C  
HETATM   11  C   UNL     1      -7.032   8.425  65.580  1.00  0.00    -0.070 C  
HETATM   12  C   UNL     1      -5.148  13.798  69.267  1.00  0.00    -0.081 C  
HETATM   13  C   UNL     1      -7.049  14.663  67.693  1.00  0.00    -0.203 C  
HETATM   14  C   UNL     1      -6.295  15.494  66.622  1.00  0.00     1.272 C  
HETATM   15  C   UNL     1      -7.346  13.012  65.629  1.00  0.00     4.799 C  
HETATM   16  C   UNL     1      -8.583  15.254  67.731  1.00  0.00    -0.163 C  
HETATM   17  H   UNL     1      -9.222  17.212  71.157  1.00  0.00     0.000 HD 
HETATM   18  O   UNL     1      -8.581  16.526  71.303  1.00  0.00     5.346 OA 
HETATM   19  C   UNL     1      -5.642  12.348  69.224  1.00  0.00    -0.075 C  
HETATM   20  C   UNL     1      -7.143  13.142  67.253  1.00  0.00    -0.033 C  
HETATM   21  C   UNL     1      -6.129  12.030  67.813  1.00  0.00    -0.081 C  
ENDROOT
BRANCH   3  22
HETATM   22  N   UNL     1      -9.796  10.154  66.000  1.00  0.00    -0.230 N  
HETATM   23  C   UNL     1     -11.924   9.665  67.239  1.00  0.00     3.654 C  
HETATM   24  C   UNL     1     -11.964  11.076  66.723  1.00  0.00     1.233 C  
HETATM   25  C   UNL     1     -10.612   9.063  66.809  1.00  0.00    -0.131 C  
HETATM   26  C   UNL     1     -10.869  11.212  65.690  1.00  0.00    -0.138 C  
BRANCH  22  27
HETATM   27  C   UNL     1      -9.438   9.514  64.564  1.00  0.00    -0.005 C  
BRANCH  27  28
HETATM   28  C   UNL     1      -9.744  10.351  63.364  1.00  0.00    -0.318 C  
HETATM   29  C   UNL     1     -10.882  11.048  63.239  1.00  0.00     0.018 C  
ENDBRANCH  27  28
ENDBRANCH  22  27
ENDBRANCH   3  22
BRANCH   4  30
HETATM   30  O   UNL     1      -6.054  10.098  64.294  1.00  0.00    -0.123 OA 
BRANCH  30  31
HETATM   31  C   UNL     1      -6.034  10.595  63.034  1.00  0.00    -0.079 C  
HETATM   32  C   UNL     1      -7.364  10.286  62.382  1.00  0.00    -0.153 C  
HETATM   33  O   UNL     1      -5.191  11.370  62.610  1.00  0.00    -0.113 OA 
ENDBRANCH  30  31
ENDBRANCH   4  30
BRANCH   5  34
HETATM   34  N   UNL     1     -10.590  16.125  69.220  1.00  0.00    -0.258 NA 
HETATM   35  C   UNL     1     -11.814  15.315  69.246  1.00  0.00    -0.329 C  
HETATM   36  C   UNL     1     -12.136  14.837  70.659  1.00  0.00    -0.310 C  
HETATM   37  O   UNL     1     -12.376  15.957  71.518  1.00  0.00    -0.423 OA 
HETATM   38  C   UNL     1     -11.258  16.853  71.541  1.00  0.00     0.716 C  
HETATM   39  C   UNL     1     -10.770  17.254  70.136  1.00  0.00     0.606 C  
ENDBRANCH   5  34
TORSDOF 6
ENDMDL
MODEL      135
REMARK 921   NORMALIZED FREE ENERGY PREDICTED BY IDOCK:   17.75 KCAL/MOL
REMARK 922        TOTAL FREE ENERGY PREDICTED BY IDOCK:   23.68 KCAL/MOL
REMARK 923 INTER-LIGAND FREE ENERGY PREDICTED BY IDOCK:   21.85 KCAL/MOL
REMARK 924 INTRA-LIGAND FREE ENERGY PREDICTED BY IDOCK:    1.83 KCAL/MOL
REMARK 927      BINDING AFFINITY PREDICTED BY RF-SCORE:    0.00 PKD
ROOT
HETATM    1  C   UNL     1      -7.505  11.509  69.996  1.00  0.00     1.013 C  
HETATM    2  C   UNL     1      -6.821  10.477  69.247  1.00  0.00    -0.079 C  
HETATM    3  C   UNL     1      -7.930  10.933  68.317  1.00  0.00    -0.121 C  
HETATM    4  C   UNL     1      -8.906  12.654  68.968  1.00  0.00     0.518 C  
HETATM    5  C   UNL     1     -10.714   6.507  69.775  1.00  0.00    -0.269 C  
HETATM    6  C   UNL     1     -11.064   6.358  71.275  1.00  0.00    -0.282 C  
HETATM    7  C   UNL     1     -10.225   7.375  72.032  1.00  0.00    -0.221 C  
HETATM    8  C   UNL     1     -10.853   8.750  71.875  1.00  0.00    -0.431 C  
HETATM    9  C   UNL     1      -7.748  12.362  68.346  1.00  0.00    -0.144 C  
HETATM   10  C   UNL     1      -9.515  11.936  67.537  1.00  0.00    -0.176 C  
HETATM   11  C   UNL     1      -6.682  13.453  68.115  1.00  0.00    -0.117 C  
HETATM   12  C   UNL     1     -10.077   9.786  72.703  1.00  0.00     3.951 C  
HETATM   13  C   UNL     1     -11.131   9.163  70.392  1.00  0.00    -0.293 C  
HETATM   14  C   UNL     1     -12.495   9.902  70.395  1.00  0.00    -0.107 C  
HETATM   15  C   UNL     1     -10.568  11.042  68.595  1.00  0.00    -0.225 C  
HETATM   16  C   UNL     1     -11.299   7.901  69.351  1.00  0.00     0.317 C  
HETATM   17  H   UNL     1     -11.314   4.448  71.366  1.00  0.00     0.000 HD 
HETATM   18  O   UNL     1     -10.790   5.083  71.839  1.00  0.00    -0.161 OA 
HETATM   19  C   UNL     1      -8.735  10.196  72.088  1.00  0.00     5.393 C  
HETATM   20  C   UNL     1      -9.991  10.101  69.811  1.00  0.00    -0.258 C  
HETATM   21  C   UNL     1      -8.991  10.916  70.767  1.00  0.00     3.704 C  
ENDROOT
BRANCH   3  22
HETATM   22  N   UNL     1      -7.402  10.643  66.566  1.00  0.00    -0.127 N  
HETATM   23  C   UNL     1      -5.454   9.278  65.762  1.00  0.00    -0.040 C  
HETATM   24  C   UNL     1      -6.693   8.428  65.752  1.00  0.00    -0.053 C  
HETATM   25  C   UNL     1      -5.849  10.648  66.249  1.00  0.00    -0.104 C  
HETATM   26  C   UNL     1      -7.880   9.356  65.874  1.00  0.00    -0.099 C  
BRANCH  22  27
HETATM   27  C   UNL     1      -8.068  11.832  65.704  1.00  0.00     0.685 C  
BRANCH  27  28
HETATM   28  C   UNL     1      -8.052  11.671  64.219  1.00  0.00     1.571 C  
HETATM   29  C   UNL     1      -8.306  10.501  63.616  1.00  0.00    -0.108 C  
ENDBRANCH  27  28
ENDBRANCH  22  27
ENDBRANCH   3  22
BRANCH   4  30
HETATM   30  O   UNL     1      -8.921  14.063  68.274  1.00  0.00    -0.180 OA 
BRANCH  30  31
HETATM   31  C   UNL     1      -9.748  15.104  68.533  1.00  0.00    -0.214 C  
HETATM   32  C   UNL     1      -9.649  16.085  67.386  1.00  0.00    -0.225 C  
HETATM   33  O   UNL     1     -10.599  15.108  69.409  1.00  0.00    -0.235 OA 
ENDBRANCH  30  31
ENDBRANCH   4  30
BRANCH   5  34
HETATM   34  N   UNL     1     -10.953   5.311  68.930  1.00  0.00     0.192 NA 
HETATM   35  C   UNL     1     -12.158   5.218  68.097  1.00  0.00     6.596 C  
HETATM   36  C   UNL     1     -11.964   5.921  66.757  1.00  0.00     2.629 C  
HETATM   37  O   UNL     1     -10.912   5.292  66.015  1.00  0.00    -0.171 OA 
HETATM   38  C   UNL     1      -9.683   5.280  66.751  1.00  0.00    -0.160 C  
HETATM   39  C   UNL     1      -9.835   4.731  68.183  1.00  0.00    -0.120 C  
ENDBRANCH   5  34
TORSDOF 6
ENDMDL
MODEL      136
REMARK 921   NORMALIZED FREE ENERGY PREDICTED BY IDOCK:   20.78 KCAL/MOL
REMARK 922        TOTAL FREE ENERGY PREDICTED BY IDOCK:   27.77 KCAL/MOL
REMARK 923 INTER-LIGAND FREE ENERGY PREDICTED BY IDOCK:   18.89 KCAL/MOL
REMARK 924 INTRA-LIGAND FREE ENERGY PREDICTED BY IDOCK:    8.88 KCAL/MOL
REMARK 927      BINDING AFFINITY PREDICTED BY RF-SCORE:    0.00 PKD
ROOT
HETATM    1  C   UNL     1     -10.568   9.750  69.195  1.00  0.00    -0.237 C  
HETATM    2  C   UNL     1      -9.148   9.887  68.955  1.00  0.00    -0.156 C  
HETATM    3  C   UNL     1      -9.716   9.509  67.599  1.00  0.00    -0.154 C  
HETATM    4  C   UNL     1     -11.797   9.559  67.527  1.00  0.00     2.792 C  
HETATM    5  C   UNL     1      -7.968   4.448  68.489  1.00  0.00    -0.078 C  
HETATM    6  C   UNL     1      -8.539   3.713  69.725  1.00  0.00    -0.069 C  
HETATM    7  C   UNL     1      -9.229   4.760  70.587  1.00  0.00    -0.191 C  
HETATM    8  C   UNL     1     -10.582   5.087  69.978  1.00  0.00    -0.100 C  
HETATM    9  C   UNL     1     -10.795  10.457  67.475  1.00  0.00    -0.358 C  
HETATM   10  C   UNL     1     -11.004   9.032  66.102  1.00  0.00     1.362 C  
HETATM   11  C   UNL     1     -11.090  11.970  67.525  1.00  0.00    -0.331 C  
HETATM   12  C   UNL     1     -11.342   6.077  70.875  1.00  0.00    -0.299 C  
HETATM   13  C   UNL     1     -10.528   5.475  68.464  1.00  0.00    -0.234 C  
HETATM   14  C   UNL     1     -11.772   4.824  67.803  1.00  0.00     5.778 C  
HETATM   15  C   UNL     1     -11.150   7.434  66.775  1.00  0.00     0.347 C  
HETATM   16  C   UNL     1      -9.223   4.887  67.654  1.00  0.00    -0.138 C  
HETATM   17  H   UNL     1      -7.146   2.410  70.005  1.00  0.00     0.000 HD 
HETATM   18  O   UNL     1      -7.577   3.063  70.544  1.00  0.00    -0.043 OA 
HETATM   19  C   UNL     1     -10.822   7.516  70.795  1.00  0.00    -0.253 C  
HETATM   20  C   UNL     1     -10.543   7.047  68.251  1.00  0.00    -0.238 C  
HETATM   21  C   UNL     1     -11.063   8.055  69.387  1.00  0.00     0.081 C  
ENDROOT
BRANCH   3  22
HETATM   22  N   UNL     1      -8.618  10.198  66.277  1.00  0.00    -0.129 N  
HETATM   23  C   UNL     1      -8.882  12.372  65.048  1.00  0.00     1.107 C  
HETATM   24  C   UNL     1      -7.958  12.572  66.215  1.00  0.00     0.718 C  
HETATM   25  C   UNL     1      -9.303  10.925  65.047  1.00  0.00    -0.226 C  
HETATM   26  C   UNL     1      -7.532  11.203  66.696  1.00  0.00    -0.146 C  
BRANCH  22  27
HETATM   27  C   UNL     1      -7.796   8.941  65.690  1.00  0.00    -0.096 C  
BRANCH  27  28
HETATM   28  C   UNL     1      -7.762   8.800  64.203  1.00  0.00    -0.130 C  
HETATM   29  C   UNL     1      -7.207   7.746  63.589  1.00  0.00    -0.082 C  
ENDBRANCH  27  28
ENDBRANCH  22  27
ENDBRANCH   3  22
BRANCH   4  30
HETATM   30  O   UNL     1     -12.699  10.521  66.674  1.00  0.00     4.775 OA 
BRANCH  30  31
HETATM   31  C   UNL     1     -12.667  11.875  66.646  1.00  0.00     2.801 C  
HETATM   32  C   UNL     1     -13.607  12.349  65.558  1.00  0.00     3.503 C  
HETATM   33  O   UNL     1     -12.167  12.573  67.514  1.00  0.00    -0.418 OA 
ENDBRANCH  30  31
ENDBRANCH   4  30
BRANCH   5  34
HETATM   34  N   UNL     1      -6.819   3.793  67.818  1.00  0.00    -0.050 NA 
HETATM   35  C   UNL     1      -6.951   2.436  67.272  1.00  0.00    -0.044 C  
HETATM   36  C   UNL     1      -7.548   2.456  65.868  1.00  0.00    -0.068 C  
HETATM   37  O   UNL     1      -6.685   3.167  64.973  1.00  0.00    -0.038 OA 
HETATM   38  C   UNL     1      -6.441   4.504  65.427  1.00  0.00    -0.040 C  
HETATM   39  C   UNL     1      -5.990   4.576  66.898  1.00  0.00    -0.027 C  
ENDBRANCH   5  34
TORSDOF 6
ENDMDL
MODEL      137
REMARK 921   NORMALIZED FREE ENERGY PREDICTED BY IDOCK:   21.21 KCAL/MOL
REMARK 922        TOTAL FREE ENERGY PREDICTED BY IDOCK:   28.35 KCAL/MOL
REMARK 923 INTER-LIGAND FREE ENERGY PREDICTED BY IDOCK:   21.74 KCAL/MOL
REMARK 924 INTRA-LIGAND FREE ENERGY PREDICTED BY IDOCK:    6.61 KCAL/MOL
REMARK 927      BINDING AFFINITY PREDICTED BY RF-SCORE:    0.00 PKD
ROOT
HETATM    1  C   UNL     1     -11.329  10.472  68.648  1.00  0.00    -0.315 C  
HETATM    2  C   UNL     1     -12.231  11.103  67.711  1.00  0.00     0.730 C  
HETATM    3  C   UNL     1     -10.855  11.356  67.123  1.00  0.00    -0.268 C  
HETATM    4  C   UNL     1      -9.339  10.284  68.067  1.00  0.00    -0.138 C  
HETATM    5  C   UNL     1     -11.138  16.397  69.117  1.00  0.00    -0.303 C  
HETATM    6  C   UNL     1     -11.290  16.540  70.650  1.00  0.00    -0.041 C  
HETATM    7  C   UNL     1     -11.658  15.168  71.191  1.00  0.00    -0.405 C  
HETATM    8  C   UNL     1     -10.407  14.308  71.252  1.00  0.00     2.805 C  
HETATM    9  C   UNL     1     -10.293  10.029  67.151  1.00  0.00    -0.300 C  
HETATM   10  C   UNL     1      -8.846  11.356  66.825  1.00  0.00    -0.179 C  
HETATM   11  C   UNL     1     -10.569   8.586  66.683  1.00  0.00    -0.118 C  
HETATM   12  C   UNL     1     -10.730  12.943  71.880  1.00  0.00     8.192 C  
HETATM   13  C   UNL     1      -9.605  14.245  69.911  1.00  0.00     0.945 C  
HETATM   14  C   UNL     1      -8.103  14.282  70.300  1.00  0.00     1.519 C  
HETATM   15  C   UNL     1      -8.684  12.535  68.093  1.00  0.00    -0.190 C  
HETATM   16  C   UNL     1      -9.847  15.528  68.910  1.00  0.00    -0.219 C  
HETATM   17  H   UNL     1     -12.068  18.303  70.740  1.00  0.00     0.000 HD 
HETATM   18  O   UNL     1     -12.298  17.445  71.078  1.00  0.00     3.539 OA 
HETATM   19  C   UNL     1     -11.484  11.991  70.946  1.00  0.00     1.115 C  
HETATM   20  C   UNL     1      -9.934  12.934  69.081  1.00  0.00     0.380 C  
HETATM   21  C   UNL     1     -10.585  11.636  69.765  1.00  0.00     0.373 C  
ENDROOT
BRANCH   3  22
HETATM   22  N   UNL     1     -11.010  11.530  65.287  1.00  0.00    -0.262 N  
HETATM   23  C   UNL     1     -13.000  10.973  63.859  1.00  0.00     2.405 C  
HETATM   24  C   UNL     1     -13.037  12.432  64.214  1.00  0.00    -0.102 C  
HETATM   25  C   UNL     1     -11.766  10.385  64.493  1.00  0.00     3.322 C  
HETATM   26  C   UNL     1     -11.669  12.807  64.738  1.00  0.00    -0.352 C  
BRANCH  22  27
HETATM   27  C   UNL     1      -9.501  11.584  64.722  1.00  0.00    -0.108 C  
BRANCH  27  28
HETATM   28  C   UNL     1      -9.345  11.761  63.246  1.00  0.00    -0.092 C  
HETATM   29  C   UNL     1      -8.673  10.891  62.480  1.00  0.00    -0.332 C  
ENDBRANCH  27  28
ENDBRANCH  22  27
ENDBRANCH   3  22
BRANCH   4  30
HETATM   30  O   UNL     1      -8.447   9.149  67.449  1.00  0.00    -0.115 OA 
BRANCH  30  31
HETATM   31  C   UNL     1      -8.786   7.855  67.236  1.00  0.00    -0.131 C  
HETATM   32  C   UNL     1      -8.830   7.616  65.742  1.00  0.00    -0.134 C  
HETATM   33  O   UNL     1      -8.796   6.992  68.100  1.00  0.00    -0.129 OA 
ENDBRANCH  30  31
ENDBRANCH   4  30
BRANCH   5  34
HETATM   34  N   UNL     1     -11.335  17.637  68.326  1.00  0.00     0.326 NA 
HETATM   35  C   UNL     1     -11.025  18.948  68.909  1.00  0.00     1.220 C  
HETATM   36  C   UNL     1      -9.545  19.287  68.762  1.00  0.00    -0.425 C  
HETATM   37  O   UNL     1      -9.191  19.369  67.376  1.00  0.00    -0.295 OA 
HETATM   38  C   UNL     1      -9.492  18.152  66.683  1.00  0.00    -0.302 C  
HETATM   39  C   UNL     1     -10.931  17.656  66.918  1.00  0.00     0.120 C  
ENDBRANCH   5  34
TORSDOF 6
ENDMDL
MODEL      138
REMARK 921   NORMALIZED FREE ENERGY PREDICTED BY IDOCK:   21.61 KCAL/MOL
REMARK 922        TOTAL FREE ENERGY PREDICTED BY IDOCK:   28.89 KCAL/MOL
REMARK 923 INTER-LIGAND FREE ENERGY PREDICTED BY IDOCK:   26.14 KCAL/MOL
REMARK 924 INTRA-LIGAND FREE ENERGY PREDICTED BY IDOCK:    2.75 KCAL/MOL
REMARK 927      BINDING AFFINITY PREDICTED BY RF-SCORE:    0.00 PKD
ROOT
HETATM    1  C   UNL     1     -10.021  12.395  71.470  1.00  0.00    11.992 C  
HETATM    2  C   UNL     1      -8.782  12.772  70.827  1.00  0.00     8.620 C  
HETATM    3  C   UNL     1      -9.853  13.197  69.840  1.00  0.00     2.173 C  
HETATM    4  C   UNL     1     -11.784  13.094  70.613  1.00  0.00     0.180 C  
HETATM    5  C   UNL     1      -8.716   8.733  66.970  1.00  0.00    -0.123 C  
HETATM    6  C   UNL     1      -8.908   7.371  67.680  1.00  0.00    -0.127 C  
HETATM    7  C   UNL     1      -9.067   7.661  69.164  1.00  0.00    -0.141 C  
HETATM    8  C   UNL     1     -10.480   8.158  69.423  1.00  0.00    -0.223 C  
HETATM    9  C   UNL     1     -10.741  13.942  70.697  1.00  0.00     1.483 C  
HETATM   10  C   UNL     1     -11.652  13.560  68.969  1.00  0.00    -0.356 C  
HETATM   11  C   UNL     1     -10.759  15.114  71.698  1.00  0.00     0.390 C  
HETATM   12  C   UNL     1     -10.700   8.375  70.928  1.00  0.00    -0.260 C  
HETATM   13  C   UNL     1     -10.917   9.352  68.513  1.00  0.00    -0.076 C  
HETATM   14  C   UNL     1     -12.401   9.094  68.139  1.00  0.00     5.068 C  
HETATM   15  C   UNL     1     -11.794  11.862  68.618  1.00  0.00    -0.365 C  
HETATM   16  C   UNL     1     -10.102   9.459  67.088  1.00  0.00    -0.292 C  
HETATM   17  H   UNL     1      -7.730   6.276  66.617  1.00  0.00     0.000 HD 
HETATM   18  O   UNL     1      -7.830   6.457  67.544  1.00  0.00    -0.102 OA 
HETATM   19  C   UNL     1     -10.026   9.635  71.480  1.00  0.00     0.377 C  
HETATM   20  C   UNL     1     -10.762  10.749  69.247  1.00  0.00    -0.268 C  
HETATM   21  C   UNL     1     -10.672  10.864  70.846  1.00  0.00     1.371 C  
ENDROOT
BRANCH   3  22
HETATM   22  N   UNL     1      -9.214  14.618  68.839  1.00  0.00    -0.182 N  
HETATM   23  C   UNL     1      -7.518  16.336  69.529  1.00  0.00    -0.039 C  
HETATM   24  C   UNL     1      -6.827  15.227  68.787  1.00  0.00    -0.109 C  
HETATM   25  C   UNL     1      -8.987  16.003  69.575  1.00  0.00    -0.071 C  
HETATM   26  C   UNL     1      -7.892  14.424  68.077  1.00  0.00    -0.140 C  
BRANCH  22  27
HETATM   27  C   UNL     1     -10.309  14.868  67.682  1.00  0.00    -0.242 C  
BRANCH  27  28
HETATM   28  C   UNL     1      -9.784  15.228  66.331  1.00  0.00    -0.308 C  
HETATM   29  C   UNL     1     -10.188  14.613  65.210  1.00  0.00    -0.421 C  
ENDBRANCH  27  28
ENDBRANCH  22  27
ENDBRANCH   3  22
BRANCH   4  30
HETATM   30  O   UNL     1     -12.771  14.287  70.877  1.00  0.00    -0.323 OA 
BRANCH  30  31
HETATM   31  C   UNL     1     -13.444  14.565  72.019  1.00  0.00    -0.384 C  
HETATM   32  C   UNL     1     -13.088  15.973  72.448  1.00  0.00    -0.399 C  
HETATM   33  O   UNL     1     -14.361  13.891  72.463  1.00  0.00    -0.661 OA 
ENDBRANCH  30  31
ENDBRANCH   4  30
BRANCH   5  34
HETATM   34  N   UNL     1      -8.004   8.691  65.669  1.00  0.00    -0.100 NA 
HETATM   35  C   UNL     1      -8.756   8.734  64.409  1.00  0.00    -0.019 C  
HETATM   36  C   UNL     1      -9.076  10.169  64.000  1.00  0.00    -0.254 C  
HETATM   37  O   UNL     1      -7.866  10.901  63.772  1.00  0.00     0.152 OA 
HETATM   38  C   UNL     1      -7.020  10.892  64.928  1.00  0.00     0.400 C  
HETATM   39  C   UNL     1      -6.782   9.482  65.499  1.00  0.00    -0.080 C  
ENDBRANCH   5  34
TORSDOF 6
ENDMDL
MODEL      139
REMARK 921   NORMALIZED FREE ENERGY PREDICTED BY IDOCK:   21.72 KCAL/MOL
REMARK 922        TOTAL FREE ENERGY PREDICTED BY IDOCK:   29.04 KCAL/MOL
REMARK 923 INTER-LIGAND FREE ENERGY PREDICTED BY IDOCK:   25.70 KCAL/MOL
REMARK 924 INTRA-LIGAND FREE ENERGY PREDICTED BY IDOCK:    3.34 KCAL/MOL
REMARK 927      BINDING AFFINITY PREDICTED BY RF-SCORE:    0.00 PKD
ROOT
HETATM    1  C   UNL     1     -10.080  14.223  63.613  1.00  0.00     3.652 C  
HETATM    2  C   UNL     1      -8.810  13.603  63.918  1.00  0.00     6.319 C  
HETATM    3  C   UNL     1      -9.800  12.868  64.803  1.00  0.00    -0.022 C  
HETATM    4  C   UNL     1     -11.789  13.300  64.361  1.00  0.00    -0.399 C  
HETATM    5  C   UNL     1      -8.072  15.914  68.949  1.00  0.00    -0.214 C  
HETATM    6  C   UNL     1      -8.243  17.447  68.816  1.00  0.00    -0.226 C  
HETATM    7  C   UNL     1      -8.573  17.734  67.360  1.00  0.00    -0.233 C  
HETATM    8  C   UNL     1     -10.036  17.405  67.110  1.00  0.00    -0.291 C  
HETATM    9  C   UNL     1     -10.820  12.518  63.847  1.00  0.00    -0.472 C  
HETATM   10  C   UNL     1     -11.521  12.253  65.691  1.00  0.00    -0.416 C  
HETATM   11  C   UNL     1     -11.021  11.803  62.496  1.00  0.00     1.207 C  
HETATM   12  C   UNL     1     -10.424  17.769  65.668  1.00  0.00    -0.132 C  
HETATM   13  C   UNL     1     -10.457  15.969  67.565  1.00  0.00    -0.297 C  
HETATM   14  C   UNL     1     -11.874  16.107  68.183  1.00  0.00     0.149 C  
HETATM   15  C   UNL     1     -11.509  13.702  66.654  1.00  0.00    -0.365 C  
HETATM   16  C   UNL     1      -9.509  15.319  68.742  1.00  0.00    -0.212 C  
HETATM   17  H   UNL     1      -6.890  18.038  70.056  1.00  0.00     0.000 HD 
HETATM   18  O   UNL     1      -7.096  18.217  69.147  1.00  0.00    -0.260 OA 
HETATM   19  C   UNL     1      -9.898  16.787  64.616  1.00  0.00     2.481 C  
HETATM   20  C   UNL     1     -10.474  14.942  66.357  1.00  0.00    -0.301 C  
HETATM   21  C   UNL     1     -10.558  15.428  64.829  1.00  0.00    -0.274 C  
ENDROOT
BRANCH   3  22
HETATM   22  N   UNL     1      -9.160  11.161  65.129  1.00  0.00    -0.182 N  
HETATM   23  C   UNL     1      -8.440   9.448  63.439  1.00  0.00    -0.202 C  
HETATM   24  C   UNL     1      -7.237  10.218  63.908  1.00  0.00    -0.055 C  
HETATM   25  C   UNL     1      -9.639   9.993  64.171  1.00  0.00    -0.208 C  
HETATM   26  C   UNL     1      -7.636  10.959  65.164  1.00  0.00     0.233 C  
BRANCH  22  27
HETATM   27  C   UNL     1      -9.648  10.786  66.619  1.00  0.00    -0.178 C  
BRANCH  27  28
HETATM   28  C   UNL     1      -9.774   9.331  66.935  1.00  0.00    -0.248 C  
HETATM   29  C   UNL     1     -10.670   8.856  67.812  1.00  0.00    -0.204 C  
ENDBRANCH  27  28
ENDBRANCH  22  27
ENDBRANCH   3  22
BRANCH   4  30
HETATM   30  O   UNL     1     -12.877  12.316  63.799  1.00  0.00    -0.735 OA 
BRANCH  30  31
HETATM   31  C   UNL     1     -13.749  11.557  64.506  1.00  0.00     3.538 C  
HETATM   32  C   UNL     1     -14.022  12.251  65.823  1.00  0.00     7.353 C  
HETATM   33  O   UNL     1     -14.384  10.622  64.043  1.00  0.00     3.864 OA 
ENDBRANCH  30  31
ENDBRANCH   4  30
BRANCH   5  34
HETATM   34  N   UNL     1      -7.229  15.451  70.079  1.00  0.00    -0.052 NA 
HETATM   35  C   UNL     1      -7.619  14.273  70.863  1.00  0.00     2.314 C  
HETATM   36  C   UNL     1      -7.149  12.982  70.200  1.00  0.00     1.100 C  
HETATM   37  O   UNL     1      -5.719  12.957  70.121  1.00  0.00    -0.122 OA 
HETATM   38  C   UNL     1      -5.211  14.093  69.410  1.00  0.00    -0.082 C  
HETATM   39  C   UNL     1      -5.773  15.433  69.921  1.00  0.00    -0.132 C  
ENDBRANCH   5  34
TORSDOF 6
ENDMDL
MODEL      140
REMARK 921   NORMALIZED FREE ENERGY PREDICTED BY IDOCK:   22.31 KCAL/MOL
REMARK 922        TOTAL FREE ENERGY PREDICTED BY IDOCK:   29.84 KCAL/MOL
REMARK 923 INTER-LIGAND FREE ENERGY PREDICTED BY IDOCK:   26.28 KCAL/MOL
REMARK 924 INTRA-LIGAND FREE ENERGY PREDICTED BY IDOCK:    3.56 KCAL/MOL
REMARK 927      BINDING AFFINITY PREDICTED BY RF-SCORE:    0.00 PKD
ROOT
HETATM    1  C   UNL     1     -10.337  14.512  69.141  1.00  0.00    -0.197 C  
HETATM    2  C   UNL     1     -10.672  14.162  67.778  1.00  0.00    -0.251 C  
HETATM    3  C   UNL     1      -9.183  13.889  67.873  1.00  0.00    -0.198 C  
HETATM    4  C   UNL     1      -8.443  13.979  69.818  1.00  0.00     1.170 C  
HETATM    5  C   UNL     1      -8.348  18.598  65.307  1.00  0.00     1.690 C  
HETATM    6  C   UNL     1      -8.878  19.879  65.994  1.00  0.00    -0.240 C  
HETATM    7  C   UNL     1      -9.816  19.433  67.104  1.00  0.00    -0.438 C  
HETATM    8  C   UNL     1      -8.992  18.964  68.291  1.00  0.00    -0.364 C  
HETATM    9  C   UNL     1      -9.122  13.089  69.070  1.00  0.00     0.488 C  
HETATM   10  C   UNL     1      -7.289  13.694  68.584  1.00  0.00    -0.113 C  
HETATM   11  C   UNL     1      -9.712  11.814  69.706  1.00  0.00     1.462 C  
HETATM   12  C   UNL     1      -9.912  18.590  69.464  1.00  0.00     0.207 C  
HETATM   13  C   UNL     1      -7.906  17.896  67.937  1.00  0.00    -0.230 C  
HETATM   14  C   UNL     1      -6.655  18.249  68.784  1.00  0.00    -0.242 C  
HETATM   15  C   UNL     1      -7.120  15.425  68.531  1.00  0.00    -0.114 C  
HETATM   16  C   UNL     1      -7.414  17.916  66.368  1.00  0.00    -0.308 C  
HETATM   17  H   UNL     1      -9.022  21.041  64.462  1.00  0.00     0.000 HD 
HETATM   18  O   UNL     1      -9.609  20.762  65.155  1.00  0.00     0.581 OA 
HETATM   19  C   UNL     1     -10.636  17.252  69.284  1.00  0.00    -0.156 C  
HETATM   20  C   UNL     1      -8.396  16.421  68.255  1.00  0.00    -0.189 C  
HETATM   21  C   UNL     1      -9.606  16.126  69.268  1.00  0.00    -0.235 C  
ENDROOT
BRANCH   3  22
HETATM   22  N   UNL     1      -8.737  12.565  66.658  1.00  0.00    -0.152 N  
HETATM   23  C   UNL     1     -10.296  11.010  65.451  1.00  0.00    -0.330 C  
HETATM   24  C   UNL     1     -10.012  12.201  64.580  1.00  0.00    -0.231 C  
HETATM   25  C   UNL     1      -9.525  11.193  66.733  1.00  0.00    -0.184 C  
HETATM   26  C   UNL     1      -8.810  12.910  65.160  1.00  0.00     1.566 C  
BRANCH  22  27
HETATM   27  C   UNL     1      -7.181  12.236  66.917  1.00  0.00     0.047 C  
BRANCH  27  28
HETATM   28  C   UNL     1      -6.498  11.384  65.897  1.00  0.00     0.314 C  
HETATM   29  C   UNL     1      -5.323  10.782  66.127  1.00  0.00    -0.103 C  
ENDBRANCH  27  28
ENDBRANCH  22  27
ENDBRANCH   3  22
BRANCH   4  30
HETATM   30  O   UNL     1      -7.837  12.802  70.664  1.00  0.00     3.469 OA 
BRANCH  30  31
HETATM   31  C   UNL     1      -6.529  12.505  70.848  1.00  0.00     1.405 C  
HETATM   32  C   UNL     1      -5.773  13.800  71.056  1.00  0.00    -0.210 C  
HETATM   33  O   UNL     1      -6.098  11.382  71.061  1.00  0.00    -0.360 OA 
ENDBRANCH  30  31
ENDBRANCH   4  30
BRANCH   5  34
HETATM   34  N   UNL     1      -7.890  18.757  63.904  1.00  0.00     6.569 NA 
HETATM   35  C   UNL     1      -8.011  20.053  63.225  1.00  0.00     6.455 C  
HETATM   36  C   UNL     1      -6.826  20.961  63.540  1.00  0.00     0.235 C  
HETATM   37  O   UNL     1      -5.610  20.370  63.067  1.00  0.00    -0.216 OA 
HETATM   38  C   UNL     1      -5.402  19.070  63.630  1.00  0.00    -0.258 C  
HETATM   39  C   UNL     1      -6.625  18.143  63.494  1.00  0.00     5.948 C  
ENDBRANCH   5  34
TORSDOF 6
ENDMDL
MODEL      141
REMARK 921   NORMALIZED FREE ENERGY PREDICTED BY IDOCK:   23.33 KCAL/MOL
REMARK 922        TOTAL FREE ENERGY PREDICTED BY IDOCK:   31.22 KCAL/MOL
REMARK 923 INTER-LIGAND FREE ENERGY PREDICTED BY IDOCK:   31.02 KCAL/MOL
REMARK 924 INTRA-LIGAND FREE ENERGY PREDICTED BY IDOCK:    0.19 KCAL/MOL
REMARK 927      BINDING AFFINITY PREDICTED BY RF-SCORE:    0.00 PKD
ROOT
HETATM    1  C   UNL     1      -8.678   5.697  67.355  1.00  0.00    -0.107 C  
HETATM    2  C   UNL     1      -9.977   6.308  67.180  1.00  0.00    -0.189 C  
HETATM    3  C   UNL     1      -9.246   6.620  65.887  1.00  0.00     0.028 C  
HETATM    4  C   UNL     1      -7.447   5.590  65.681  1.00  0.00    -0.077 C  
HETATM    5  C   UNL     1      -8.362  11.618  67.811  1.00  0.00    -0.143 C  
HETATM    6  C   UNL     1      -7.555  11.734  69.126  1.00  0.00     0.081 C  
HETATM    7  C   UNL     1      -7.490  10.341  69.733  1.00  0.00    -0.169 C  
HETATM    8  C   UNL     1      -6.441   9.527  68.994  1.00  0.00    -0.046 C  
HETATM    9  C   UNL     1      -8.755   5.314  65.524  1.00  0.00    -0.149 C  
HETATM   10  C   UNL     1      -7.831   6.697  64.431  1.00  0.00    -0.114 C  
HETATM   11  C   UNL     1      -9.230   3.869  65.271  1.00  0.00    -0.150 C  
HETATM   12  C   UNL     1      -6.289   8.142  69.642  1.00  0.00    -0.033 C  
HETATM   13  C   UNL     1      -6.618   9.513  67.440  1.00  0.00    -0.070 C  
HETATM   14  C   UNL     1      -5.190   9.598  66.838  1.00  0.00    -0.041 C  
HETATM   15  C   UNL     1      -6.956   7.863  65.380  1.00  0.00    -0.059 C  
HETATM   16  C   UNL     1      -7.445  10.799  66.835  1.00  0.00    -0.120 C  
HETATM   17  H   UNL     1      -8.153  13.465  69.728  1.00  0.00     0.000 HD 
HETATM   18  O   UNL     1      -8.113  12.595  70.108  1.00  0.00     2.327 OA 
HETATM   19  C   UNL     1      -7.436   7.177  69.326  1.00  0.00    -0.093 C  
HETATM   20  C   UNL     1      -7.357   8.202  66.936  1.00  0.00    -0.087 C  
HETATM   21  C   UNL     1      -7.432   6.871  67.831  1.00  0.00    -0.099 C  
ENDROOT
BRANCH   3  22
HETATM   22  N   UNL     1     -10.488   6.814  64.528  1.00  0.00     5.657 N  
HETATM   23  C   UNL     1     -10.881   5.274  62.584  1.00  0.00     1.947 C  
HETATM   24  C   UNL     1     -11.833   4.925  63.693  1.00  0.00     3.149 C  
HETATM   25  C   UNL     1     -10.043   6.434  63.056  1.00  0.00     4.542 C  
HETATM   26  C   UNL     1     -11.831   6.077  64.672  1.00  0.00     7.086 C  
BRANCH  22  27
HETATM   27  C   UNL     1     -10.888   8.376  64.518  1.00  0.00     8.912 C  
BRANCH  27  28
HETATM   28  C   UNL     1      -9.768   9.351  64.357  1.00  0.00     0.474 C  
HETATM   29  C   UNL     1      -9.368   9.804  63.160  1.00  0.00    -0.125 C  
ENDBRANCH  27  28
ENDBRANCH  22  27
ENDBRANCH   3  22
BRANCH   4  30
HETATM   30  O   UNL     1      -7.091   4.497  64.611  1.00  0.00    -0.059 OA 
BRANCH  30  31
HETATM   31  C   UNL     1      -5.965   3.747  64.538  1.00  0.00    -0.022 C  
HETATM   32  C   UNL     1      -5.400   3.874  63.140  1.00  0.00    -0.008 C  
HETATM   33  O   UNL     1      -5.389   3.271  65.504  1.00  0.00    -0.008 OA 
ENDBRANCH  30  31
ENDBRANCH   4  30
BRANCH   5  34
HETATM   34  N   UNL     1      -9.024  12.861  67.344  1.00  0.00    -0.190 NA 
HETATM   35  C   UNL     1      -9.171  13.132  65.909  1.00  0.00     0.188 C  
HETATM   36  C   UNL     1     -10.412  12.453  65.338  1.00  0.00    -0.277 C  
HETATM   37  O   UNL     1     -11.592  12.966  65.967  1.00  0.00    -0.336 OA 
HETATM   38  C   UNL     1     -11.546  12.799  67.389  1.00  0.00    -0.356 C  
HETATM   39  C   UNL     1     -10.240  13.317  68.022  1.00  0.00    -0.240 C  
ENDBRANCH   5  34
TORSDOF 6
ENDMDL
MODEL      142
REMARK 921   NORMALIZED FREE ENERGY PREDICTED BY IDOCK:   23.86 KCAL/MOL
REMARK 922        TOTAL FREE ENERGY PREDICTED BY IDOCK:   31.93 KCAL/MOL
REMARK 923 INTER-LIGAND FREE ENERGY PREDICTED BY IDOCK:   20.98 KCAL/MOL
REMARK 924 INTRA-LIGAND FREE ENERGY PREDICTED BY IDOCK:   10.94 KCAL/MOL
REMARK 927      BINDING AFFINITY PREDICTED BY RF-SCORE:    0.00 PKD
ROOT
HETATM    1  C   UNL     1      -9.440   6.635  66.274  1.00  0.00    -0.120 C  
HETATM    2  C   UNL     1      -8.189   6.795  66.981  1.00  0.00    -0.113 C  
HETATM    3  C   UNL     1      -8.464   5.305  67.053  1.00  0.00    -0.106 C  
HETATM    4  C   UNL     1     -10.039   4.691  65.837  1.00  0.00    -0.258 C  
HETATM    5  C   UNL     1     -10.181   6.057  72.146  1.00  0.00    -0.192 C  
HETATM    6  C   UNL     1     -11.384   7.009  72.351  1.00  0.00    -0.269 C  
HETATM    7  C   UNL     1     -11.578   7.768  71.047  1.00  0.00    -0.301 C  
HETATM    8  C   UNL     1     -12.280   6.864  70.048  1.00  0.00     0.106 C  
HETATM    9  C   UNL     1      -8.740   5.006  65.670  1.00  0.00    -0.139 C  
HETATM   10  C   UNL     1      -9.316   3.477  66.806  1.00  0.00    -0.203 C  
HETATM   11  C   UNL     1      -8.138   5.143  64.257  1.00  0.00    -0.125 C  
HETATM   12  C   UNL     1     -12.570   7.632  68.749  1.00  0.00     4.887 C  
HETATM   13  C   UNL     1     -11.597   5.471  69.853  1.00  0.00     1.277 C  
HETATM   14  C   UNL     1     -12.746   4.437  69.722  1.00  0.00    16.690 C  
HETATM   15  C   UNL     1     -10.513   3.905  67.994  1.00  0.00     1.234 C  
HETATM   16  C   UNL     1     -10.681   4.974  71.125  1.00  0.00    -0.072 C  
HETATM   17  H   UNL     1     -11.105   7.500  74.194  1.00  0.00     0.000 HD 
HETATM   18  O   UNL     1     -11.227   7.975  73.380  1.00  0.00    -0.198 OA 
HETATM   19  C   UNL     1     -11.337   7.852  67.867  1.00  0.00     0.788 C  
HETATM   20  C   UNL     1     -10.669   5.437  68.566  1.00  0.00    -0.075 C  
HETATM   21  C   UNL     1     -10.829   6.500  67.374  1.00  0.00    -0.449 C  
ENDROOT
BRANCH   3  22
HETATM   22  N   UNL     1      -6.852   4.404  67.191  1.00  0.00    -0.051 N  
HETATM   23  C   UNL     1      -6.268   2.546  68.776  1.00  0.00    -0.028 C  
HETATM   24  C   UNL     1      -6.728   1.959  67.472  1.00  0.00    -0.038 C  
HETATM   25  C   UNL     1      -6.322   4.046  68.641  1.00  0.00    -0.033 C  
HETATM   26  C   UNL     1      -6.709   3.067  66.444  1.00  0.00    -0.047 C  
BRANCH  22  27
HETATM   27  C   UNL     1      -5.752   5.364  66.506  1.00  0.00    -0.018 C  
BRANCH  27  28
HETATM   28  C   UNL     1      -6.260   6.368  65.523  1.00  0.00    -0.037 C  
HETATM   29  C   UNL     1      -6.195   7.689  65.739  1.00  0.00    -0.038 C  
ENDBRANCH  27  28
ENDBRANCH  22  27
ENDBRANCH   3  22
BRANCH   4  30
HETATM   30  O   UNL     1      -9.965   3.742  64.586  1.00  0.00    -0.183 OA 
BRANCH  30  31
HETATM   31  C   UNL     1      -9.206   2.630  64.436  1.00  0.00    -0.128 C  
HETATM   32  C   UNL     1      -8.181   2.900  63.356  1.00  0.00    -0.085 C  
HETATM   33  O   UNL     1      -9.198   1.689  65.213  1.00  0.00    -0.120 OA 
ENDBRANCH  30  31
ENDBRANCH   4  30
BRANCH   5  34
HETATM   34  N   UNL     1      -9.464   5.644  73.378  1.00  0.00    -0.138 NA 
HETATM   35  C   UNL     1      -9.379   4.227  73.750  1.00  0.00    -0.101 C  
HETATM   36  C   UNL     1      -8.220   3.533  73.041  1.00  0.00    -0.078 C  
HETATM   37  O   UNL     1      -6.975   4.126  73.429  1.00  0.00    -0.058 OA 
HETATM   38  C   UNL     1      -6.953   5.532  73.155  1.00  0.00    -0.081 C  
HETATM   39  C   UNL     1      -8.184   6.279  73.703  1.00  0.00    -0.113 C  
ENDBRANCH   5  34
TORSDOF 6
ENDMDL
MODEL      143
REMARK 921   NORMALIZED FREE ENERGY PREDICTED BY IDOCK:   24.50 KCAL/MOL
REMARK 922        TOTAL FREE ENERGY PREDICTED BY IDOCK:   32.79 KCAL/MOL
REMARK 923 INTER-LIGAND FREE ENERGY PREDICTED BY IDOCK:   19.02 KCAL/MOL
REMARK 924 INTRA-LIGAND FREE ENERGY PREDICTED BY IDOCK:   13.78 KCAL/MOL
REMARK 927      BINDING AFFINITY PREDICTED BY RF-SCORE:    0.00 PKD
ROOT
HETATM    1  C   UNL     1     -10.513  12.557  68.752  1.00  0.00    -0.169 C  
HETATM    2  C   UNL     1     -10.672  13.216  67.474  1.00  0.00    -0.248 C  
HETATM    3  C   UNL     1      -9.487  12.291  67.266  1.00  0.00    -0.186 C  
HETATM    4  C   UNL     1      -9.199  10.946  68.829  1.00  0.00    -0.183 C  
HETATM    5  C   UNL     1      -6.252  16.609  67.859  1.00  0.00    -0.134 C  
HETATM    6  C   UNL     1      -6.330  17.368  69.205  1.00  0.00    -0.244 C  
HETATM    7  C   UNL     1      -7.577  16.876  69.923  1.00  0.00     1.002 C  
HETATM    8  C   UNL     1      -7.289  15.518  70.541  1.00  0.00     0.929 C  
HETATM    9  C   UNL     1     -10.016  11.046  67.764  1.00  0.00    -0.194 C  
HETATM   10  C   UNL     1      -8.041  10.896  67.568  1.00  0.00    -0.116 C  
HETATM   11  C   UNL     1     -11.201  10.076  67.586  1.00  0.00    -0.099 C  
HETATM   12  C   UNL     1      -8.503  15.033  71.349  1.00  0.00     3.879 C  
HETATM   13  C   UNL     1      -6.701  14.469  69.541  1.00  0.00    -0.151 C  
HETATM   14  C   UNL     1      -5.622  13.677  70.326  1.00  0.00    -0.135 C  
HETATM   15  C   UNL     1      -7.158  12.056  68.517  1.00  0.00    -0.098 C  
HETATM   16  C   UNL     1      -5.931  15.121  68.242  1.00  0.00    -0.126 C  
HETATM   17  H   UNL     1      -5.656  19.088  68.653  1.00  0.00     0.000 HD 
HETATM   18  O   UNL     1      -6.435  18.781  69.102  1.00  0.00    -0.260 OA 
HETATM   19  C   UNL     1      -9.665  14.529  70.486  1.00  0.00     1.572 C  
HETATM   20  C   UNL     1      -7.815  13.489  68.981  1.00  0.00     0.157 C  
HETATM   21  C   UNL     1      -9.219  13.280  69.732  1.00  0.00     2.169 C  
ENDROOT
BRANCH   3  22
HETATM   22  N   UNL     1      -9.393  11.831  65.475  1.00  0.00    -0.171 N  
HETATM   23  C   UNL     1     -10.440   9.846  64.348  1.00  0.00     1.216 C  
HETATM   24  C   UNL     1     -11.354  11.031  64.215  1.00  0.00     0.284 C  
HETATM   25  C   UNL     1      -9.221  10.299  65.110  1.00  0.00    -0.206 C  
HETATM   26  C   UNL     1     -10.551  12.264  64.560  1.00  0.00    -0.311 C  
BRANCH  22  27
HETATM   27  C   UNL     1      -8.108  12.608  64.889  1.00  0.00     3.917 C  
BRANCH  27  28
HETATM   28  C   UNL     1      -6.770  12.029  65.215  1.00  0.00     3.311 C  
HETATM   29  C   UNL     1      -6.524  11.377  66.360  1.00  0.00    -0.029 C  
ENDBRANCH  27  28
ENDBRANCH  22  27
ENDBRANCH   3  22
BRANCH   4  30
HETATM   30  O   UNL     1      -9.329   9.381  68.778  1.00  0.00    -0.144 OA 
BRANCH  30  31
HETATM   31  C   UNL     1     -10.437   8.652  68.503  1.00  0.00    -0.172 C  
HETATM   32  C   UNL     1     -11.357   8.717  69.703  1.00  0.00     0.183 C  
HETATM   33  O   UNL     1     -10.736   8.241  67.392  1.00  0.00    -0.270 OA 
ENDBRANCH  30  31
ENDBRANCH   4  30
BRANCH   5  34
HETATM   34  N   UNL     1      -5.490  17.282  66.778  1.00  0.00    -0.170 NA 
HETATM   35  C   UNL     1      -5.717  16.922  65.373  1.00  0.00     2.192 C  
HETATM   36  C   UNL     1      -6.901  17.686  64.787  1.00  0.00     2.808 C  
HETATM   37  O   UNL     1      -6.640  19.094  64.806  1.00  0.00    -0.468 OA 
HETATM   38  C   UNL     1      -6.357  19.561  66.130  1.00  0.00    -0.185 C  
HETATM   39  C   UNL     1      -5.278  18.730  66.851  1.00  0.00    -0.134 C  
ENDBRANCH   5  34
TORSDOF 6
ENDMDL
MODEL      144
REMARK 921   NORMALIZED FREE ENERGY PREDICTED BY IDOCK:   27.51 KCAL/MOL
REMARK 922        TOTAL FREE ENERGY PREDICTED BY IDOCK:   36.86 KCAL/MOL
REMARK 923 INTER-LIGAND FREE ENERGY PREDICTED BY IDOCK:   31.19 KCAL/MOL
REMARK 924 INTRA-LIGAND FREE ENERGY PREDICTED BY IDOCK:    5.67 KCAL/MOL
REMARK 927      BINDING AFFINITY PREDICTED BY RF-SCORE:    0.00 PKD
ROOT
HETATM    1  C   UNL     1     -10.167  18.913  69.233  1.00  0.00     0.021 C  
HETATM    2  C   UNL     1     -10.422  17.590  69.759  1.00  0.00     0.378 C  
HETATM    3  C   UNL     1      -8.965  17.545  69.339  1.00  0.00     0.409 C  
HETATM    4  C   UNL     1      -8.186  19.411  68.840  1.00  0.00    -0.304 C  
HETATM    5  C   UNL     1     -10.527  14.885  64.874  1.00  0.00    -0.359 C  
HETATM    6  C   UNL     1     -11.514  15.612  63.929  1.00  0.00     0.410 C  
HETATM    7  C   UNL     1     -12.061  16.808  64.692  1.00  0.00     1.841 C  
HETATM    8  C   UNL     1     -11.019  17.915  64.691  1.00  0.00     2.010 C  
HETATM    9  C   UNL     1      -8.456  18.736  69.973  1.00  0.00     1.510 C  
HETATM   10  C   UNL     1      -7.131  18.075  68.643  1.00  0.00    -0.269 C  
HETATM   11  C   UNL     1      -8.362  19.432  71.346  1.00  0.00     4.104 C  
HETATM   12  C   UNL     1     -11.577  19.171  65.378  1.00  0.00     2.169 C  
HETATM   13  C   UNL     1      -9.605  17.465  65.184  1.00  0.00     1.646 C  
HETATM   14  C   UNL     1      -8.577  18.188  64.274  1.00  0.00     9.003 C  
HETATM   15  C   UNL     1      -7.754  17.997  67.020  1.00  0.00    -0.235 C  
HETATM   16  C   UNL     1      -9.304  15.857  65.021  1.00  0.00     1.227 C  
HETATM   17  H   UNL     1     -12.285  14.093  63.026  1.00  0.00     0.000 HD 
HETATM   18  O   UNL     1     -12.627  14.841  63.502  1.00  0.00    -0.654 OA 
HETATM   19  C   UNL     1     -11.642  19.068  66.906  1.00  0.00     1.140 C  
HETATM   20  C   UNL     1      -9.359  17.837  66.706  1.00  0.00    -0.286 C  
HETATM   21  C   UNL     1     -10.223  18.962  67.458  1.00  0.00    -0.456 C  
ENDROOT
BRANCH   3  22
HETATM   22  N   UNL     1      -8.078  16.301  70.385  1.00  0.00     1.831 N  
HETATM   23  C   UNL     1      -5.963  15.065  69.831  1.00  0.00    -0.135 C  
HETATM   24  C   UNL     1      -5.626  16.292  70.630  1.00  0.00    -0.043 C  
HETATM   25  C   UNL     1      -7.461  15.031  69.666  1.00  0.00    -0.161 C  
HETATM   26  C   UNL     1      -6.908  16.794  71.253  1.00  0.00     3.792 C  
BRANCH  22  27
HETATM   27  C   UNL     1      -9.166  15.764  71.447  1.00  0.00     4.110 C  
BRANCH  27  28
HETATM   28  C   UNL     1     -10.248  14.885  70.910  1.00  0.00     0.804 C  
HETATM   29  C   UNL     1     -11.408  14.691  71.553  1.00  0.00     0.079 C  
ENDBRANCH  27  28
ENDBRANCH  22  27
ENDBRANCH   3  22
BRANCH   4  30
HETATM   30  O   UNL     1      -7.052  20.202  69.585  1.00  0.00    -0.180 OA 
BRANCH  30  31
HETATM   31  C   UNL     1      -5.769  19.816  69.787  1.00  0.00    -0.266 C  
HETATM   32  C   UNL     1      -5.406  20.109  71.226  1.00  0.00    -0.347 C  
HETATM   33  O   UNL     1      -5.126  19.125  69.012  1.00  0.00    -0.190 OA 
ENDBRANCH  30  31
ENDBRANCH   4  30
BRANCH   5  34
HETATM   34  N   UNL     1     -10.305  13.444  64.595  1.00  0.00    -0.400 NA 
HETATM   35  C   UNL     1     -10.007  12.512  65.689  1.00  0.00    -0.245 C  
HETATM   36  C   UNL     1     -11.283  12.015  66.361  1.00  0.00    -0.337 C  
HETATM   37  O   UNL     1     -12.088  11.291  65.423  1.00  0.00     0.308 OA 
HETATM   38  C   UNL     1     -12.409  12.089  64.278  1.00  0.00    -0.302 C  
HETATM   39  C   UNL     1     -11.179  12.761  63.638  1.00  0.00    -0.427 C  
ENDBRANCH   5  34
TORSDOF 6
ENDMDL
MODEL      145
REMARK 921   NORMALIZED FREE ENERGY PREDICTED BY IDOCK:   27.74 KCAL/MOL
REMARK 922        TOTAL FREE ENERGY PREDICTED BY IDOCK:   37.17 KCAL/MOL
REMARK 923 INTER-LIGAND FREE ENERGY PREDICTED BY IDOCK:   28.84 KCAL/MOL
REMARK 924 INTRA-LIGAND FREE ENERGY PREDICTED BY IDOCK:    8.33 KCAL/MOL
REMARK 927      BINDING AFFINITY PREDICTED BY RF-SCORE:    0.00 PKD
ROOT
HETATM    1  C   UNL     1     -11.184   7.609  68.003  1.00  0.00     0.396 C  
HETATM    2  C   UNL     1     -10.707   8.469  66.942  1.00  0.00    -0.156 C  
HETATM    3  C   UNL     1      -9.463   8.163  67.756  1.00  0.00    -0.142 C  
HETATM    4  C   UNL     1      -9.748   6.670  69.179  1.00  0.00    -0.145 C  
HETATM    5  C   UNL     1      -9.970  13.068  70.024  1.00  0.00     2.491 C  
HETATM    6  C   UNL     1     -11.275  13.351  70.806  1.00  0.00     1.313 C  
HETATM    7  C   UNL     1     -12.256  12.245  70.450  1.00  0.00    -0.371 C  
HETATM    8  C   UNL     1     -11.892  10.992  71.229  1.00  0.00     0.028 C  
HETATM    9  C   UNL     1      -9.539   6.727  67.850  1.00  0.00    -0.125 C  
HETATM   10  C   UNL     1      -8.201   7.407  69.157  1.00  0.00    -0.121 C  
HETATM   11  C   UNL     1      -9.659   5.460  66.979  1.00  0.00    -0.147 C  
HETATM   12  C   UNL     1     -12.920   9.881  70.959  1.00  0.00    -0.412 C  
HETATM   13  C   UNL     1     -10.397  10.557  71.084  1.00  0.00     1.737 C  
HETATM   14  C   UNL     1      -9.949  10.064  72.485  1.00  0.00     5.242 C  
HETATM   15  C   UNL     1      -8.867   8.521  70.317  1.00  0.00    -0.150 C  
HETATM   16  C   UNL     1      -9.368  11.775  70.680  1.00  0.00     6.031 C  
HETATM   17  H   UNL     1     -11.294  15.278  70.727  1.00  0.00     0.000 HD 
HETATM   18  O   UNL     1     -11.908  14.587  70.505  1.00  0.00    -0.280 OA 
HETATM   19  C   UNL     1     -12.772   9.217  69.585  1.00  0.00     1.845 C  
HETATM   20  C   UNL     1     -10.211   9.410  70.004  1.00  0.00    -0.262 C  
HETATM   21  C   UNL     1     -11.434   8.485  69.528  1.00  0.00     0.418 C  
ENDROOT
BRANCH   3  22
HETATM   22  N   UNL     1      -7.983   8.268  66.649  1.00  0.00    -0.097 N  
HETATM   23  C   UNL     1      -5.582   8.556  67.328  1.00  0.00    -0.039 C  
HETATM   24  C   UNL     1      -5.875   7.093  67.151  1.00  0.00    -0.029 C  
HETATM   25  C   UNL     1      -6.849   9.311  67.021  1.00  0.00    -0.080 C  
HETATM   26  C   UNL     1      -7.181   6.980  66.397  1.00  0.00    -0.075 C  
BRANCH  22  27
HETATM   27  C   UNL     1      -8.548   8.678  65.196  1.00  0.00    -0.173 C  
BRANCH  27  28
HETATM   28  C   UNL     1      -7.587   9.346  64.268  1.00  0.00    -0.115 C  
HETATM   29  C   UNL     1      -7.957  10.310  63.412  1.00  0.00    -0.147 C  
ENDBRANCH  27  28
ENDBRANCH  22  27
ENDBRANCH   3  22
BRANCH   4  30
HETATM   30  O   UNL     1      -9.075   5.251  69.221  1.00  0.00    -0.105 OA 
BRANCH  30  31
HETATM   31  C   UNL     1      -7.755   4.959  69.137  1.00  0.00    -0.072 C  
HETATM   32  C   UNL     1      -7.496   3.702  69.941  1.00  0.00    -0.045 C  
HETATM   33  O   UNL     1      -6.982   5.476  68.347  1.00  0.00    -0.061 OA 
ENDBRANCH  30  31
ENDBRANCH   4  30
BRANCH   5  34
HETATM   34  N   UNL     1      -9.103  14.243  69.762  1.00  0.00     0.742 NA 
HETATM   35  C   UNL     1      -9.629  15.410  69.044  1.00  0.00    -0.236 C  
HETATM   36  C   UNL     1     -10.355  16.364  69.988  1.00  0.00    -0.034 C  
HETATM   37  O   UNL     1      -9.447  16.873  70.973  1.00  0.00     3.617 OA 
HETATM   38  C   UNL     1      -8.829  15.815  71.716  1.00  0.00     6.422 C  
HETATM   39  C   UNL     1      -8.212  14.722  70.822  1.00  0.00     2.174 C  
ENDBRANCH   5  34
TORSDOF 6
ENDMDL
MODEL      146
REMARK 921   NORMALIZED FREE ENERGY PREDICTED BY IDOCK:   32.58 KCAL/MOL
REMARK 922        TOTAL FREE ENERGY PREDICTED BY IDOCK:   43.71 KCAL/MOL
REMARK 923 INTER-LIGAND FREE ENERGY PREDICTED BY IDOCK:   20.09 KCAL/MOL
REMARK 924 INTRA-LIGAND FREE ENERGY PREDICTED BY IDOCK:   23.63 KCAL/MOL
REMARK 927      BINDING AFFINITY PREDICTED BY RF-SCORE:    0.00 PKD
ROOT
HETATM    1  C   UNL     1      -9.991  18.333  69.627  1.00  0.00     0.396 C  
HETATM    2  C   UNL     1      -8.754  17.629  69.887  1.00  0.00     1.712 C  
HETATM    3  C   UNL     1      -9.064  17.307  68.437  1.00  0.00    -0.265 C  
HETATM    4  C   UNL     1     -10.621  18.442  67.647  1.00  0.00    -0.408 C  
HETATM    5  C   UNL     1     -10.893  12.474  70.097  1.00  0.00     1.179 C  
HETATM    6  C   UNL     1     -12.078  12.473  71.091  1.00  0.00     0.227 C  
HETATM    7  C   UNL     1     -12.223  13.894  71.614  1.00  0.00    -0.156 C  
HETATM    8  C   UNL     1     -12.919  14.740  70.562  1.00  0.00    -0.336 C  
HETATM    9  C   UNL     1      -9.312  18.624  67.906  1.00  0.00    -0.323 C  
HETATM   10  C   UNL     1      -9.950  17.255  66.609  1.00  0.00    -0.296 C  
HETATM   11  C   UNL     1      -8.672  20.021  67.783  1.00  0.00    -0.367 C  
HETATM   12  C   UNL     1     -13.160  16.161  71.096  1.00  0.00     0.728 C  
HETATM   13  C   UNL     1     -12.262  14.670  69.144  1.00  0.00    -0.223 C  
HETATM   14  C   UNL     1     -13.431  14.651  68.123  1.00  0.00     4.918 C  
HETATM   15  C   UNL     1     -11.167  16.195  67.259  1.00  0.00     0.008 C  
HETATM   16  C   UNL     1     -11.390  13.304  68.862  1.00  0.00    -0.333 C  
HETATM   17  H   UNL     1     -11.836  10.736  71.893  1.00  0.00     0.000 HD 
HETATM   18  O   UNL     1     -11.926  11.624  72.219  1.00  0.00     1.677 OA 
HETATM   19  C   UNL     1     -11.900  17.032  71.137  1.00  0.00     1.506 C  
HETATM   20  C   UNL     1     -11.303  15.903  68.870  1.00  0.00    -0.377 C  
HETATM   21  C   UNL     1     -11.410  17.267  69.711  1.00  0.00     1.143 C  
ENDROOT
BRANCH   3  22
HETATM   22  N   UNL     1      -7.476  16.968  67.546  1.00  0.00    -0.158 N  
HETATM   23  C   UNL     1      -6.674  14.772  66.631  1.00  0.00     1.883 C  
HETATM   24  C   UNL     1      -7.368  15.539  65.541  1.00  0.00     5.430 C  
HETATM   25  C   UNL     1      -6.713  15.619  67.876  1.00  0.00    -0.150 C  
HETATM   26  C   UNL     1      -7.500  16.971  66.008  1.00  0.00    -0.080 C  
BRANCH  22  27
HETATM   27  C   UNL     1      -6.488  18.181  67.933  1.00  0.00    -0.187 C  
BRANCH  27  28
HETATM   28  C   UNL     1      -7.024  19.564  67.753  1.00  0.00    -0.275 C  
HETATM   29  C   UNL     1      -8.160  19.819  67.087  1.00  0.00    -0.327 C  
ENDBRANCH  27  28
ENDBRANCH  22  27
ENDBRANCH   3  22
BRANCH   4  30
HETATM   30  O   UNL     1     -10.537  19.505  66.494  1.00  0.00    -0.443 OA 
BRANCH  30  31
HETATM   31  C   UNL     1     -10.296  19.282  65.180  1.00  0.00     0.993 C  
HETATM   32  C   UNL     1      -9.327  20.336  64.690  1.00  0.00     2.715 C  
HETATM   33  O   UNL     1     -10.608  18.263  64.583  1.00  0.00     0.439 OA 
ENDBRANCH  30  31
ENDBRANCH   4  30
BRANCH   5  34
HETATM   34  N   UNL     1     -10.216  11.169  69.894  1.00  0.00     0.350 NA 
HETATM   35  C   UNL     1     -11.003   9.947  69.687  1.00  0.00    -0.252 C  
HETATM   36  C   UNL     1     -11.400   9.782  68.223  1.00  0.00     0.102 C  
HETATM   37  O   UNL     1     -10.232   9.652  67.404  1.00  0.00    -0.197 OA 
HETATM   38  C   UNL     1      -9.354  10.774  67.556  1.00  0.00    -0.147 C  
HETATM   39  C   UNL     1      -9.037  11.106  69.026  1.00  0.00    -0.023 C  
ENDBRANCH   5  34
TORSDOF 6
ENDMDL
MODEL      147
REMARK 921   NORMALIZED FREE ENERGY PREDICTED BY IDOCK:   33.25 KCAL/MOL
REMARK 922        TOTAL FREE ENERGY PREDICTED BY IDOCK:   44.62 KCAL/MOL
REMARK 923 INTER-LIGAND FREE ENERGY PREDICTED BY IDOCK:   29.75 KCAL/MOL
REMARK 924 INTRA-LIGAND FREE ENERGY PREDICTED BY IDOCK:   14.87 KCAL/MOL
REMARK 927      BINDING AFFINITY PREDICTED BY RF-SCORE:    0.00 PKD
ROOT
HETATM    1  C   UNL     1     -10.638  12.679  64.886  1.00  0.00    -0.332 C  
HETATM    2  C   UNL     1      -9.365  13.335  64.684  1.00  0.00     1.030 C  
HETATM    3  C   UNL     1      -9.019  12.104  65.501  1.00  0.00     0.330 C  
HETATM    4  C   UNL     1     -10.598  10.758  65.684  1.00  0.00    -0.129 C  
HETATM    5  C   UNL     1      -8.743  15.310  69.871  1.00  0.00     0.168 C  
HETATM    6  C   UNL     1     -10.026  16.081  70.261  1.00  0.00     0.358 C  
HETATM    7  C   UNL     1     -10.981  15.982  69.082  1.00  0.00    -0.297 C  
HETATM    8  C   UNL     1     -11.632  14.610  69.086  1.00  0.00    -0.331 C  
HETATM    9  C   UNL     1      -9.685  11.073  64.745  1.00  0.00    -0.311 C  
HETATM   10  C   UNL     1      -9.161  10.355  66.526  1.00  0.00    -0.175 C  
HETATM   11  C   UNL     1      -9.783  10.485  63.323  1.00  0.00    -0.361 C  
HETATM   12  C   UNL     1     -12.670  14.510  67.957  1.00  0.00     0.926 C  
HETATM   13  C   UNL     1     -10.620  13.420  69.160  1.00  0.00    -0.035 C  
HETATM   14  C   UNL     1     -11.259  12.362  70.098  1.00  0.00     0.351 C  
HETATM   15  C   UNL     1      -9.861  11.226  67.860  1.00  0.00    -0.187 C  
HETATM   16  C   UNL     1      -9.166  13.800  69.827  1.00  0.00     1.587 C  
HETATM   17  H   UNL     1      -9.248  17.524  71.278  1.00  0.00     0.000 HD 
HETATM   18  O   UNL     1      -9.845  17.462  70.541  1.00  0.00     1.701 OA 
HETATM   19  C   UNL     1     -12.059  14.349  66.562  1.00  0.00    -0.395 C  
HETATM   20  C   UNL     1     -10.331  12.794  67.731  1.00  0.00    -0.222 C  
HETATM   21  C   UNL     1     -11.327  13.012  66.490  1.00  0.00    -0.359 C  
ENDROOT
BRANCH   3  22
HETATM   22  N   UNL     1      -7.275  11.607  65.127  1.00  0.00     1.484 N  
HETATM   23  C   UNL     1      -6.502   9.672  63.726  1.00  0.00    -0.111 C  
HETATM   24  C   UNL     1      -6.557  10.909  62.875  1.00  0.00     0.188 C  
HETATM   25  C   UNL     1      -6.928  10.061  65.118  1.00  0.00    -0.134 C  
HETATM   26  C   UNL     1      -6.656  12.096  63.807  1.00  0.00     5.960 C  
BRANCH  22  27
HETATM   27  C   UNL     1      -6.368  12.292  66.271  1.00  0.00     1.360 C  
BRANCH  27  28
HETATM   28  C   UNL     1      -6.357  11.621  67.606  1.00  0.00    -0.072 C  
HETATM   29  C   UNL     1      -6.236  10.293  67.748  1.00  0.00    -0.056 C  
ENDBRANCH  27  28
ENDBRANCH  22  27
ENDBRANCH   3  22
BRANCH   4  30
HETATM   30  O   UNL     1     -10.678   9.297  65.112  1.00  0.00     1.573 OA 
BRANCH  30  31
HETATM   31  C   UNL     1      -9.915   8.749  64.136  1.00  0.00     3.023 C  
HETATM   32  C   UNL     1     -10.012   9.629  62.908  1.00  0.00     1.278 C  
HETATM   33  O   UNL     1      -9.103   7.854  64.313  1.00  0.00     0.701 OA 
ENDBRANCH  30  31
ENDBRANCH   4  30
BRANCH   5  34
HETATM   34  N   UNL     1      -7.502  15.716  70.577  1.00  0.00     0.898 NA 
HETATM   35  C   UNL     1      -6.217  15.742  69.868  1.00  0.00    -0.157 C  
HETATM   36  C   UNL     1      -6.022  17.055  69.117  1.00  0.00    -0.185 C  
HETATM   37  O   UNL     1      -5.997  18.153  70.036  1.00  0.00    -0.234 OA 
HETATM   38  C   UNL     1      -7.191  18.207  70.826  1.00  0.00     3.173 C  
HETATM   39  C   UNL     1      -7.544  16.863  71.489  1.00  0.00     7.746 C  
ENDBRANCH   5  34
TORSDOF 6
ENDMDL
MODEL      148
REMARK 921   NORMALIZED FREE ENERGY PREDICTED BY IDOCK:   33.36 KCAL/MOL
REMARK 922        TOTAL FREE ENERGY PREDICTED BY IDOCK:   44.77 KCAL/MOL
REMARK 923 INTER-LIGAND FREE ENERGY PREDICTED BY IDOCK:   40.09 KCAL/MOL
REMARK 924 INTRA-LIGAND FREE ENERGY PREDICTED BY IDOCK:    4.68 KCAL/MOL
REMARK 927      BINDING AFFINITY PREDICTED BY RF-SCORE:    0.00 PKD
ROOT
HETATM    1  C   UNL     1     -10.637  15.940  71.970  1.00  0.00     1.505 C  
HETATM    2  C   UNL     1      -9.344  15.464  72.410  1.00  0.00     6.592 C  
HETATM    3  C   UNL     1      -9.258  15.417  70.895  1.00  0.00     2.092 C  
HETATM    4  C   UNL     1     -10.855  16.356  69.943  1.00  0.00    -0.333 C  
HETATM    5  C   UNL     1     -10.115  10.066  71.203  1.00  0.00     0.678 C  
HETATM    6  C   UNL     1     -11.441   9.601  71.852  1.00  0.00    -0.017 C  
HETATM    7  C   UNL     1     -12.041  10.810  72.554  1.00  0.00     2.383 C  
HETATM    8  C   UNL     1     -12.696  11.708  71.519  1.00  0.00    -0.423 C  
HETATM    9  C   UNL     1      -9.715  16.739  70.549  1.00  0.00     2.134 C  
HETATM   10  C   UNL     1      -9.709  15.594  68.922  1.00  0.00    -0.220 C  
HETATM   11  C   UNL     1      -9.435  18.230  70.829  1.00  0.00     4.031 C  
HETATM   12  C   UNL     1     -13.390  12.894  72.207  1.00  0.00    -0.597 C  
HETATM   13  C   UNL     1     -11.767  12.091  70.321  1.00  0.00    -0.267 C  
HETATM   14  C   UNL     1     -12.658  12.062  69.051  1.00  0.00     0.688 C  
HETATM   15  C   UNL     1     -10.728  14.189  69.057  1.00  0.00    -0.249 C  
HETATM   16  C   UNL     1     -10.541  11.031  70.041  1.00  0.00     0.168 C  
HETATM   17  H   UNL     1     -10.939   7.817  72.384  1.00  0.00     0.000 HD 
HETATM   18  O   UNL     1     -11.315   8.572  72.823  1.00  0.00    -0.286 OA 
HETATM   19  C   UNL     1     -12.426  13.973  72.710  1.00  0.00    -0.074 C  
HETATM   20  C   UNL     1     -11.113  13.524  70.509  1.00  0.00     0.905 C  
HETATM   21  C   UNL     1     -11.729  14.615  71.513  1.00  0.00    -0.273 C  
ENDROOT
BRANCH   3  22
HETATM   22  N   UNL     1      -7.489  15.617  70.389  1.00  0.00     0.648 N  
HETATM   23  C   UNL     1      -6.360  14.660  68.360  1.00  0.00    -0.100 C  
HETATM   24  C   UNL     1      -6.827  16.055  68.055  1.00  0.00    -0.141 C  
HETATM   25  C   UNL     1      -6.741  14.357  69.786  1.00  0.00    -0.124 C  
HETATM   26  C   UNL     1      -7.153  16.722  69.372  1.00  0.00    -0.143 C  
BRANCH  22  27
HETATM   27  C   UNL     1      -6.695  16.048  71.724  1.00  0.00     3.592 C  
BRANCH  27  28
HETATM   28  C   UNL     1      -6.415  17.505  71.895  1.00  0.00     3.935 C  
HETATM   29  C   UNL     1      -5.918  18.018  73.030  1.00  0.00     4.290 C  
ENDBRANCH  27  28
ENDBRANCH  22  27
ENDBRANCH   3  22
BRANCH   4  30
HETATM   30  O   UNL     1     -10.805  17.643  69.044  1.00  0.00    -0.056 OA 
BRANCH  30  31
HETATM   31  C   UNL     1     -11.588  18.746  69.135  1.00  0.00     4.070 C  
HETATM   32  C   UNL     1     -10.970  19.684  70.149  1.00  0.00     2.429 C  
HETATM   33  O   UNL     1     -12.480  19.026  68.350  1.00  0.00     4.045 OA 
ENDBRANCH  30  31
ENDBRANCH   4  30
BRANCH   5  34
HETATM   34  N   UNL     1      -9.106   9.006  70.960  1.00  0.00    -0.243 NA 
HETATM   35  C   UNL     1      -7.956   8.854  71.859  1.00  0.00     0.083 C  
HETATM   36  C   UNL     1      -8.310   8.007  73.077  1.00  0.00    -0.185 C  
HETATM   37  O   UNL     1      -8.681   6.684  72.670  1.00  0.00    -0.124 OA 
HETATM   38  C   UNL     1      -9.775   6.705  71.746  1.00  0.00    -0.161 C  
HETATM   39  C   UNL     1      -9.558   7.670  70.565  1.00  0.00    -0.167 C  
ENDBRANCH   5  34
TORSDOF 6
ENDMDL
MODEL      149
REMARK 921   NORMALIZED FREE ENERGY PREDICTED BY IDOCK:   34.77 KCAL/MOL
REMARK 922        TOTAL FREE ENERGY PREDICTED BY IDOCK:   46.66 KCAL/MOL
REMARK 923 INTER-LIGAND FREE ENERGY PREDICTED BY IDOCK:   45.25 KCAL/MOL
REMARK 924 INTRA-LIGAND FREE ENERGY PREDICTED BY IDOCK:    1.41 KCAL/MOL
REMARK 927      BINDING AFFINITY PREDICTED BY RF-SCORE:    0.00 PKD
ROOT
HETATM    1  C   UNL     1      -9.116  10.224  69.361  1.00  0.00    -0.203 C  
HETATM    2  C   UNL     1      -8.294  11.413  69.414  1.00  0.00     0.402 C  
HETATM    3  C   UNL     1      -9.693  11.919  69.717  1.00  0.00     1.635 C  
HETATM    4  C   UNL     1     -11.074  10.395  70.045  1.00  0.00    -0.314 C  
HETATM    5  C   UNL     1      -9.974  13.663  64.586  1.00  0.00    -0.042 C  
HETATM    6  C   UNL     1      -9.832  12.599  63.471  1.00  0.00     0.431 C  
HETATM    7  C   UNL     1      -9.310  11.332  64.129  1.00  0.00    -0.129 C  
HETATM    8  C   UNL     1     -10.456  10.637  64.845  1.00  0.00    -0.282 C  
HETATM    9  C   UNL     1     -10.101  11.001  70.751  1.00  0.00     2.664 C  
HETATM   10  C   UNL     1     -11.690  11.993  70.080  1.00  0.00    -0.346 C  
HETATM   11  C   UNL     1      -9.665  10.451  72.124  1.00  0.00     6.657 C  
HETATM   12  C   UNL     1      -9.978   9.305  65.446  1.00  0.00     0.095 C  
HETATM   13  C   UNL     1     -11.250  11.557  65.828  1.00  0.00    -0.228 C  
HETATM   14  C   UNL     1     -12.745  11.171  65.675  1.00  0.00     4.380 C  
HETATM   15  C   UNL     1     -11.979  11.772  68.378  1.00  0.00    -0.250 C  
HETATM   16  C   UNL     1     -11.159  13.163  65.485  1.00  0.00    -0.299 C  
HETATM   17  H   UNL     1      -9.259  13.723  62.013  1.00  0.00     0.000 HD 
HETATM   18  O   UNL     1      -8.932  12.931  62.424  1.00  0.00     3.857 OA 
HETATM   19  C   UNL     1      -9.124   9.463  66.708  1.00  0.00    -0.168 C  
HETATM   20  C   UNL     1     -10.779  11.372  67.331  1.00  0.00    -0.274 C  
HETATM   21  C   UNL     1      -9.982  10.065  67.818  1.00  0.00    -0.203 C  
ENDROOT
BRANCH   3  22
HETATM   22  N   UNL     1      -9.565  13.441  70.763  1.00  0.00     5.574 N  
HETATM   23  C   UNL     1      -7.650  15.061  70.881  1.00  0.00     1.629 C  
HETATM   24  C   UNL     1      -8.665  15.565  69.895  1.00  0.00     0.172 C  
HETATM   25  C   UNL     1      -8.170  13.762  71.441  1.00  0.00     7.514 C  
HETATM   26  C   UNL     1      -9.942  14.788  70.121  1.00  0.00     0.396 C  
BRANCH  22  27
HETATM   27  C   UNL     1     -10.640  13.250  71.950  1.00  0.00     7.801 C  
BRANCH  27  28
HETATM   28  C   UNL     1     -11.915  14.019  71.828  1.00  0.00     0.134 C  
HETATM   29  C   UNL     1     -12.466  14.675  72.860  1.00  0.00    -0.390 C  
ENDBRANCH  27  28
ENDBRANCH  22  27
ENDBRANCH   3  22
BRANCH   4  30
HETATM   30  O   UNL     1     -11.835  10.067  71.380  1.00  0.00    -0.370 OA 
BRANCH  30  31
HETATM   31  C   UNL     1     -12.731   9.075  71.599  1.00  0.00    -0.358 C  
HETATM   32  C   UNL     1     -14.113   9.690  71.658  1.00  0.00    -0.023 C  
HETATM   33  O   UNL     1     -12.479   7.884  71.505  1.00  0.00    -0.304 OA 
ENDBRANCH  30  31
ENDBRANCH   4  30
BRANCH   5  34
HETATM   34  N   UNL     1      -9.921  15.078  64.142  1.00  0.00     1.224 NA 
HETATM   35  C   UNL     1     -11.159  15.826  63.892  1.00  0.00     0.964 C  
HETATM   36  C   UNL     1     -11.718  16.424  65.180  1.00  0.00     0.632 C  
HETATM   37  O   UNL     1     -10.787  17.360  65.737  1.00  0.00    -0.219 OA 
HETATM   38  C   UNL     1      -9.513  16.752  65.985  1.00  0.00    -0.223 C  
HETATM   39  C   UNL     1      -8.957  15.986  64.770  1.00  0.00     3.720 C  
ENDBRANCH   5  34
TORSDOF 6
ENDMDL
MODEL      150
REMARK 921   NORMALIZED FREE ENERGY PREDICTED BY IDOCK:   36.33 KCAL/MOL
REMARK 922        TOTAL FREE ENERGY PREDICTED BY IDOCK:   48.77 KCAL/MOL
REMARK 923 INTER-LIGAND FREE ENERGY PREDICTED BY IDOCK:   46.34 KCAL/MOL
REMARK 924 INTRA-LIGAND FREE ENERGY PREDICTED BY IDOCK:    2.43 KCAL/MOL
REMARK 927      BINDING AFFINITY PREDICTED BY RF-SCORE:    0.00 PKD
ROOT
HETATM    1  C   UNL     1     -10.866  15.667  70.616  1.00  0.00    -0.319 C  
HETATM    2  C   UNL     1     -11.135  15.174  69.283  1.00  0.00    -0.279 C  
HETATM    3  C   UNL     1      -9.670  14.849  69.507  1.00  0.00    -0.034 C  
HETATM    4  C   UNL     1      -9.047  15.134  71.474  1.00  0.00     3.976 C  
HETATM    5  C   UNL     1      -8.437  19.182  66.480  1.00  0.00    -0.317 C  
HETATM    6  C   UNL     1      -8.942  20.557  66.980  1.00  0.00    -0.257 C  
HETATM    7  C   UNL     1      -9.968  20.286  68.068  1.00  0.00    -0.459 C  
HETATM    8  C   UNL     1      -9.243  19.924  69.354  1.00  0.00     0.209 C  
HETATM    9  C   UNL     1      -9.724  14.192  70.790  1.00  0.00     3.233 C  
HETATM   10  C   UNL     1      -7.836  14.655  70.361  1.00  0.00     1.055 C  
HETATM   11  C   UNL     1     -10.417  13.028  71.526  1.00  0.00     7.728 C  
HETATM   12  C   UNL     1     -10.252  19.731  70.497  1.00  0.00     1.156 C  
HETATM   13  C   UNL     1      -8.195  18.774  69.197  1.00  0.00    -0.043 C  
HETATM   14  C   UNL     1      -6.981  19.169  70.080  1.00  0.00     0.334 C  
HETATM   15  C   UNL     1      -7.574  16.358  70.122  1.00  0.00     1.270 C  
HETATM   16  C   UNL     1      -7.607  18.589  67.673  1.00  0.00    -0.238 C  
HETATM   17  H   UNL     1      -8.932  21.535  65.318  1.00  0.00     0.000 HD 
HETATM   18  O   UNL     1      -9.573  21.366  65.998  1.00  0.00     1.648 OA 
HETATM   19  C   UNL     1     -11.032  18.414  70.423  1.00  0.00     2.751 C  
HETATM   20  C   UNL     1      -8.778  17.370  69.649  1.00  0.00     0.949 C  
HETATM   21  C   UNL     1     -10.061  17.250  70.606  1.00  0.00     2.109 C  
ENDROOT
BRANCH   3  22
HETATM   22  N   UNL     1      -9.220  13.373  68.484  1.00  0.00    -0.135 N  
HETATM   23  C   UNL     1      -8.471  11.118  69.297  1.00  0.00     0.121 C  
HETATM   24  C   UNL     1      -9.955  11.093  69.064  1.00  0.00    -0.155 C  
HETATM   25  C   UNL     1      -7.981  12.499  68.945  1.00  0.00     0.165 C  
HETATM   26  C   UNL     1     -10.305  12.310  68.239  1.00  0.00    -0.221 C  
BRANCH  22  27
HETATM   27  C   UNL     1      -8.880  13.943  67.015  1.00  0.00    -0.218 C  
BRANCH  27  28
HETATM   28  C   UNL     1     -10.044  14.248  66.130  1.00  0.00    -0.325 C  
HETATM   29  C   UNL     1     -10.194  13.699  64.916  1.00  0.00    -0.363 C  
ENDBRANCH  27  28
ENDBRANCH  22  27
ENDBRANCH   3  22
BRANCH   4  30
HETATM   30  O   UNL     1      -8.556  14.039  72.488  1.00  0.00     7.235 OA 
BRANCH  30  31
HETATM   31  C   UNL     1      -7.295  13.840  72.943  1.00  0.00     6.394 C  
HETATM   32  C   UNL     1      -6.679  12.708  72.150  1.00  0.00     5.437 C  
HETATM   33  O   UNL     1      -6.697  14.610  73.678  1.00  0.00     1.294 OA 
ENDBRANCH  30  31
ENDBRANCH   4  30
BRANCH   5  34
HETATM   34  N   UNL     1      -7.887  19.154  65.103  1.00  0.00     0.317 NA 
HETATM   35  C   UNL     1      -7.837  20.381  64.297  1.00  0.00     1.993 C  
HETATM   36  C   UNL     1      -6.585  21.198  64.604  1.00  0.00     0.044 C  
HETATM   37  O   UNL     1      -5.410  20.449  64.270  1.00  0.00    -0.170 OA 
HETATM   38  C   UNL     1      -5.368  19.197  64.966  1.00  0.00    -0.178 C  
HETATM   39  C   UNL     1      -6.669  18.383  64.837  1.00  0.00     0.631 C  
ENDBRANCH   5  34
TORSDOF 6
ENDMDL
MODEL      151
REMARK 921   NORMALIZED FREE ENERGY PREDICTED BY IDOCK:   39.54 KCAL/MOL
REMARK 922        TOTAL FREE ENERGY PREDICTED BY IDOCK:   53.11 KCAL/MOL
REMARK 923 INTER-LIGAND FREE ENERGY PREDICTED BY IDOCK:   47.07 KCAL/MOL
REMARK 924 INTRA-LIGAND FREE ENERGY PREDICTED BY IDOCK:    6.04 KCAL/MOL
REMARK 927      BINDING AFFINITY PREDICTED BY RF-SCORE:    0.00 PKD
ROOT
HETATM    1  C   UNL     1     -10.175  14.025  63.507  1.00  0.00     3.298 C  
HETATM    2  C   UNL     1      -8.919  13.652  64.118  1.00  0.00     4.618 C  
HETATM    3  C   UNL     1      -9.966  13.120  65.078  1.00  0.00    -0.142 C  
HETATM    4  C   UNL     1     -11.905  13.204  64.321  1.00  0.00    -0.406 C  
HETATM    5  C   UNL     1      -8.979  17.418  68.241  1.00  0.00    -0.268 C  
HETATM    6  C   UNL     1      -9.226  18.817  67.627  1.00  0.00    -0.285 C  
HETATM    7  C   UNL     1      -9.384  18.623  66.127  1.00  0.00    -0.166 C  
HETATM    8  C   UNL     1     -10.778  18.093  65.840  1.00  0.00    -0.140 C  
HETATM    9  C   UNL     1     -10.832  12.403  64.175  1.00  0.00    -0.414 C  
HETATM   10  C   UNL     1     -11.746  12.632  65.928  1.00  0.00    -0.470 C  
HETATM   11  C   UNL     1     -10.812  11.302  63.096  1.00  0.00    -0.107 C  
HETATM   12  C   UNL     1     -11.000  17.970  64.324  1.00  0.00     4.049 C  
HETATM   13  C   UNL     1     -11.165  16.824  66.668  1.00  0.00     0.464 C  
HETATM   14  C   UNL     1     -12.655  16.999  67.064  1.00  0.00     4.638 C  
HETATM   15  C   UNL     1     -11.948  14.296  66.395  1.00  0.00    -0.438 C  
HETATM   16  C   UNL     1     -10.338  16.650  68.079  1.00  0.00    -0.303 C  
HETATM   17  H   UNL     1      -8.083  19.881  68.758  1.00  0.00     0.000 HD 
HETATM   18  O   UNL     1      -8.182  19.760  67.821  1.00  0.00    -0.294 OA 
HETATM   19  C   UNL     1     -10.283  16.777  63.685  1.00  0.00     7.207 C  
HETATM   20  C   UNL     1     -10.963  15.487  65.839  1.00  0.00    -0.264 C  
HETATM   21  C   UNL     1     -10.879  15.484  64.236  1.00  0.00     0.335 C  
ENDROOT
BRANCH   3  22
HETATM   22  N   UNL     1      -9.269  11.660  65.977  1.00  0.00    -0.219 N  
HETATM   23  C   UNL     1     -10.413   9.481  66.475  1.00  0.00    -0.201 C  
HETATM   24  C   UNL     1      -9.621   9.346  65.205  1.00  0.00    -0.251 C  
HETATM   25  C   UNL     1     -10.217  10.886  66.983  1.00  0.00    -0.214 C  
HETATM   26  C   UNL     1      -8.670  10.518  65.138  1.00  0.00    -0.185 C  
BRANCH  22  27
HETATM   27  C   UNL     1      -8.025  12.224  66.833  1.00  0.00    -0.068 C  
BRANCH  27  28
HETATM   28  C   UNL     1      -7.816  11.624  68.185  1.00  0.00    -0.133 C  
HETATM   29  C   UNL     1      -8.831  11.336  69.013  1.00  0.00     0.026 C  
ENDBRANCH  27  28
ENDBRANCH  22  27
ENDBRANCH   3  22
BRANCH   4  30
HETATM   30  O   UNL     1     -12.849  11.995  63.979  1.00  0.00    -0.575 OA 
BRANCH  30  31
HETATM   31  C   UNL     1     -13.600  11.265  64.838  1.00  0.00     5.561 C  
HETATM   32  C   UNL     1     -14.371  10.237  64.037  1.00  0.00     9.713 C  
HETATM   33  O   UNL     1     -13.471  11.277  66.052  1.00  0.00     6.612 OA 
ENDBRANCH  30  31
ENDBRANCH   4  30
BRANCH   5  34
HETATM   34  N   UNL     1      -8.261  17.398  69.540  1.00  0.00     0.411 NA 
HETATM   35  C   UNL     1      -6.799  17.273  69.580  1.00  0.00    -0.080 C  
HETATM   36  C   UNL     1      -6.119  18.629  69.414  1.00  0.00    -0.261 C  
HETATM   37  O   UNL     1      -6.479  19.499  70.493  1.00  0.00    -0.104 OA 
HETATM   38  C   UNL     1      -7.899  19.665  70.586  1.00  0.00     1.550 C  
HETATM   39  C   UNL     1      -8.669  18.331  70.593  1.00  0.00     4.581 C  
ENDBRANCH   5  34
TORSDOF 6
ENDMDL
MODEL      152
REMARK 921   NORMALIZED FREE ENERGY PREDICTED BY IDOCK:   41.75 KCAL/MOL
REMARK 922        TOTAL FREE ENERGY PREDICTED BY IDOCK:   56.09 KCAL/MOL
REMARK 923 INTER-LIGAND FREE ENERGY PREDICTED BY IDOCK:   47.82 KCAL/MOL
REMARK 924 INTRA-LIGAND FREE ENERGY PREDICTED BY IDOCK:    8.28 KCAL/MOL
REMARK 927      BINDING AFFINITY PREDICTED BY RF-SCORE:    0.00 PKD
ROOT
HETATM    1  C   UNL     1     -10.337   7.345  67.864  1.00  0.00    -0.258 C  
HETATM    2  C   UNL     1     -11.243   8.153  67.078  1.00  0.00     0.836 C  
HETATM    3  C   UNL     1      -9.869   8.693  66.725  1.00  0.00    -0.253 C  
HETATM    4  C   UNL     1      -8.306   7.518  67.443  1.00  0.00    -0.112 C  
HETATM    5  C   UNL     1     -10.836  12.832  70.100  1.00  0.00     1.166 C  
HETATM    6  C   UNL     1     -11.101  12.484  71.584  1.00  0.00     5.301 C  
HETATM    7  C   UNL     1     -11.347  10.985  71.653  1.00  0.00     2.080 C  
HETATM    8  C   UNL     1     -10.014  10.260  71.572  1.00  0.00     2.700 C  
HETATM    9  C   UNL     1      -9.166   7.475  66.407  1.00  0.00    -0.212 C  
HETATM   10  C   UNL     1      -7.857   8.958  66.630  1.00  0.00    -0.100 C  
HETATM   11  C   UNL     1      -9.250   6.228  65.505  1.00  0.00     0.162 C  
HETATM   12  C   UNL     1     -10.222   8.746  71.728  1.00  0.00    -0.408 C  
HETATM   13  C   UNL     1      -9.127  10.682  70.355  1.00  0.00     1.455 C  
HETATM   14  C   UNL     1      -7.666  10.728  70.875  1.00  0.00     2.645 C  
HETATM   15  C   UNL     1      -7.908   9.700  68.203  1.00  0.00    -0.086 C  
HETATM   16  C   UNL     1      -9.446  12.184  69.765  1.00  0.00     2.059 C  
HETATM   17  H   UNL     1     -12.074  14.059  72.124  1.00  0.00     0.000 HD 
HETATM   18  O   UNL     1     -12.227  13.122  72.167  1.00  0.00     0.374 OA 
HETATM   19  C   UNL     1     -10.805   8.066  70.486  1.00  0.00    -0.241 C  
HETATM   20  C   UNL     1      -9.255   9.666  69.143  1.00  0.00    -0.168 C  
HETATM   21  C   UNL     1      -9.799   8.169  69.343  1.00  0.00    -0.182 C  
ENDROOT
BRANCH   3  22
HETATM   22  N   UNL     1      -9.926   9.408  65.019  1.00  0.00     0.151 N  
HETATM   23  C   UNL     1      -8.694  11.420  64.161  1.00  0.00     0.413 C  
HETATM   24  C   UNL     1      -7.902  10.182  63.846  1.00  0.00    -0.149 C  
HETATM   25  C   UNL     1      -9.948  10.985  64.874  1.00  0.00    -0.288 C  
HETATM   26  C   UNL     1      -8.822   8.997  64.030  1.00  0.00    -0.015 C  
BRANCH  22  27
HETATM   27  C   UNL     1     -11.285   8.850  64.354  1.00  0.00    10.061 C  
BRANCH  27  28
HETATM   28  C   UNL     1     -11.926   9.714  63.317  1.00  0.00    10.196 C  
HETATM   29  C   UNL     1     -13.254   9.773  63.144  1.00  0.00    11.659 C  
ENDBRANCH  27  28
ENDBRANCH  22  27
ENDBRANCH   3  22
BRANCH   4  30
HETATM   30  O   UNL     1      -7.256   6.709  66.600  1.00  0.00    -0.070 OA 
BRANCH  30  31
HETATM   31  C   UNL     1      -6.559   7.135  65.519  1.00  0.00    -0.048 C  
HETATM   32  C   UNL     1      -5.239   6.396  65.486  1.00  0.00    -0.014 C  
HETATM   33  O   UNL     1      -7.032   7.800  64.611  1.00  0.00    -0.060 OA 
ENDBRANCH  30  31
ENDBRANCH   4  30
BRANCH   5  34
HETATM   34  N   UNL     1     -11.120  14.233  69.701  1.00  0.00    -0.217 NA 
HETATM   35  C   UNL     1     -12.496  14.745  69.713  1.00  0.00    -0.191 C  
HETATM   36  C   UNL     1     -12.897  15.233  71.102  1.00  0.00    -0.427 C  
HETATM   37  O   UNL     1     -12.058  16.322  71.506  1.00  0.00    -0.425 OA 
HETATM   38  C   UNL     1     -10.674  15.955  71.490  1.00  0.00     0.626 C  
HETATM   39  C   UNL     1     -10.232  15.300  70.168  1.00  0.00    -0.144 C  
ENDBRANCH   5  34
TORSDOF 6
ENDMDL
MODEL      153
REMARK 921   NORMALIZED FREE ENERGY PREDICTED BY IDOCK:   43.78 KCAL/MOL
REMARK 922        TOTAL FREE ENERGY PREDICTED BY IDOCK:   58.83 KCAL/MOL
REMARK 923 INTER-LIGAND FREE ENERGY PREDICTED BY IDOCK:   35.36 KCAL/MOL
REMARK 924 INTRA-LIGAND FREE ENERGY PREDICTED BY IDOCK:   23.47 KCAL/MOL
REMARK 927      BINDING AFFINITY PREDICTED BY RF-SCORE:    0.00 PKD
ROOT
HETATM    1  C   UNL     1      -8.818  12.842  69.573  1.00  0.00     1.622 C  
HETATM    2  C   UNL     1      -9.028  13.717  68.441  1.00  0.00    -0.160 C  
HETATM    3  C   UNL     1     -10.386  13.080  68.671  1.00  0.00    -0.191 C  
HETATM    4  C   UNL     1     -10.510  12.006  70.450  1.00  0.00     2.590 C  
HETATM    5  C   UNL     1      -9.321   9.754  64.516  1.00  0.00    -0.235 C  
HETATM    6  C   UNL     1      -8.080   8.840  64.646  1.00  0.00    -0.157 C  
HETATM    7  C   UNL     1      -7.263   9.361  65.818  1.00  0.00    -0.095 C  
HETATM    8  C   UNL     1      -7.912   8.906  67.115  1.00  0.00    -0.096 C  
HETATM    9  C   UNL     1     -10.561  13.301  70.084  1.00  0.00     1.404 C  
HETATM   10  C   UNL     1     -11.900  11.973  69.450  1.00  0.00    -0.384 C  
HETATM   11  C   UNL     1     -10.559  14.419  71.146  1.00  0.00     1.554 C  
HETATM   12  C   UNL     1      -7.061   9.342  68.317  1.00  0.00    -0.076 C  
HETATM   13  C   UNL     1      -9.434   9.248  67.225  1.00  0.00    -0.181 C  
HETATM   14  C   UNL     1     -10.107   8.025  67.903  1.00  0.00    -0.243 C  
HETATM   15  C   UNL     1     -11.189  10.552  68.741  1.00  0.00    -0.317 C  
HETATM   16  C   UNL     1     -10.197   9.444  65.781  1.00  0.00    -0.024 C  
HETATM   17  H   UNL     1      -7.732   8.489  62.782  1.00  0.00     0.000 HD 
HETATM   18  O   UNL     1      -7.222   8.814  63.515  1.00  0.00    -0.092 OA 
HETATM   19  C   UNL     1      -7.166  10.835  68.646  1.00  0.00    -0.089 C  
HETATM   20  C   UNL     1      -9.690  10.565  68.072  1.00  0.00    -0.162 C  
HETATM   21  C   UNL     1      -8.593  11.147  69.090  1.00  0.00     0.045 C  
ENDROOT
BRANCH   3  22
HETATM   22  N   UNL     1     -11.700  14.238  68.068  1.00  0.00    -0.334 N  
HETATM   23  C   UNL     1     -11.505  16.714  67.698  1.00  0.00     0.262 C  
HETATM   24  C   UNL     1     -11.244  15.997  66.403  1.00  0.00     0.158 C  
HETATM   25  C   UNL     1     -11.796  15.668  68.743  1.00  0.00    -0.321 C  
HETATM   26  C   UNL     1     -11.728  14.574  66.567  1.00  0.00    -0.368 C  
BRANCH  22  27
HETATM   27  C   UNL     1     -13.102  13.489  68.336  1.00  0.00     2.653 C  
BRANCH  27  28
HETATM   28  C   UNL     1     -13.340  12.992  69.725  1.00  0.00     1.947 C  
HETATM   29  C   UNL     1     -13.320  13.799  70.796  1.00  0.00     0.010 C  
ENDBRANCH  27  28
ENDBRANCH  22  27
ENDBRANCH   3  22
BRANCH   4  30
HETATM   30  O   UNL     1     -11.409  12.326  71.698  1.00  0.00     2.719 OA 
BRANCH  30  31
HETATM   31  C   UNL     1     -11.591  13.527  72.299  1.00  0.00     2.667 C  
HETATM   32  C   UNL     1     -13.044  13.636  72.709  1.00  0.00    -0.371 C  
HETATM   33  O   UNL     1     -10.686  14.260  72.665  1.00  0.00     2.506 OA 
ENDBRANCH  30  31
ENDBRANCH   4  30
BRANCH   5  34
HETATM   34  N   UNL     1      -9.947   9.810  63.172  1.00  0.00     0.737 NA 
HETATM   35  C   UNL     1     -11.302   9.285  62.960  1.00  0.00    10.002 C  
HETATM   36  C   UNL     1     -12.364  10.321  63.316  1.00  0.00     5.960 C  
HETATM   37  O   UNL     1     -12.240  11.469  62.468  1.00  0.00     0.734 OA 
HETATM   38  C   UNL     1     -10.933  12.049  62.554  1.00  0.00     1.574 C  
HETATM   39  C   UNL     1      -9.798  11.025  62.367  1.00  0.00     0.114 C  
ENDBRANCH   5  34
TORSDOF 6
ENDMDL
MODEL      154
REMARK 921   NORMALIZED FREE ENERGY PREDICTED BY IDOCK:   44.18 KCAL/MOL
REMARK 922        TOTAL FREE ENERGY PREDICTED BY IDOCK:   59.38 KCAL/MOL
REMARK 923 INTER-LIGAND FREE ENERGY PREDICTED BY IDOCK:   58.50 KCAL/MOL
REMARK 924 INTRA-LIGAND FREE ENERGY PREDICTED BY IDOCK:    0.88 KCAL/MOL
REMARK 927      BINDING AFFINITY PREDICTED BY RF-SCORE:    0.00 PKD
ROOT
HETATM    1  C   UNL     1      -5.848  14.528  68.053  1.00  0.00    -0.149 C  
HETATM    2  C   UNL     1      -5.831  13.520  67.016  1.00  0.00     0.978 C  
HETATM    3  C   UNL     1      -7.286  13.944  67.094  1.00  0.00     0.180 C  
HETATM    4  C   UNL     1      -7.598  15.632  68.273  1.00  0.00    -0.119 C  
HETATM    5  C   UNL     1      -8.254   9.431  69.948  1.00  0.00    -0.149 C  
HETATM    6  C   UNL     1      -7.492   9.266  71.285  1.00  0.00     0.050 C  
HETATM    7  C   UNL     1      -6.383  10.306  71.297  1.00  0.00     0.321 C  
HETATM    8  C   UNL     1      -6.979  11.661  71.639  1.00  0.00     5.327 C  
HETATM    9  C   UNL     1      -7.162  15.379  67.025  1.00  0.00    -0.072 C  
HETATM   10  C   UNL     1      -9.001  14.901  67.616  1.00  0.00    -0.181 C  
HETATM   11  C   UNL     1      -6.557  16.502  66.158  1.00  0.00     0.784 C  
HETATM   12  C   UNL     1      -5.869  12.719  71.747  1.00  0.00     0.861 C  
HETATM   13  C   UNL     1      -8.196  12.070  70.746  1.00  0.00     6.868 C  
HETATM   14  C   UNL     1      -9.213  12.766  71.689  1.00  0.00    17.797 C  
HETATM   15  C   UNL     1      -9.039  13.972  69.087  1.00  0.00     0.282 C  
HETATM   16  C   UNL     1      -8.999  10.807  70.065  1.00  0.00     0.847 C  
HETATM   17  H   UNL     1      -7.575   7.349  71.477  1.00  0.00     0.000 HD 
HETATM   18  O   UNL     1      -6.882   7.999  71.485  1.00  0.00    -0.049 OA 
HETATM   19  C   UNL     1      -5.307  13.171  70.394  1.00  0.00    -0.127 C  
HETATM   20  C   UNL     1      -7.772  13.045  69.569  1.00  0.00     0.814 C  
HETATM   21  C   UNL     1      -6.406  13.888  69.614  1.00  0.00    -0.123 C  
ENDROOT
BRANCH   3  22
HETATM   22  N   UNL     1      -8.078  13.677  65.441  1.00  0.00     3.846 N  
HETATM   23  C   UNL     1     -10.439  14.206  64.772  1.00  0.00    -0.432 C  
HETATM   24  C   UNL     1      -9.548  15.356  64.396  1.00  0.00     3.012 C  
HETATM   25  C   UNL     1      -9.572  13.152  65.410  1.00  0.00     0.110 C  
HETATM   26  C   UNL     1      -8.120  14.864  64.464  1.00  0.00    10.693 C  
BRANCH  22  27
HETATM   27  C   UNL     1      -7.170  12.575  64.693  1.00  0.00     7.180 C  
BRANCH  27  28
HETATM   28  C   UNL     1      -7.897  11.474  63.991  1.00  0.00     1.617 C  
HETATM   29  C   UNL     1      -7.763  10.185  64.335  1.00  0.00    -0.134 C  
ENDBRANCH  27  28
ENDBRANCH  22  27
ENDBRANCH   3  22
BRANCH   4  30
HETATM   30  O   UNL     1      -8.108  17.042  67.805  1.00  0.00    -0.185 OA 
BRANCH  30  31
HETATM   31  C   UNL     1      -9.122  17.770  68.330  1.00  0.00    -0.278 C  
HETATM   32  C   UNL     1     -10.276  17.751  67.350  1.00  0.00    -0.353 C  
HETATM   33  O   UNL     1      -9.174  18.148  69.490  1.00  0.00     0.293 OA 
ENDBRANCH  30  31
ENDBRANCH   4  30
BRANCH   5  34
HETATM   34  N   UNL     1      -8.977   8.230  69.462  1.00  0.00    -0.149 NA 
HETATM   35  C   UNL     1     -10.421   8.286  69.202  1.00  0.00    -0.206 C  
HETATM   36  C   UNL     1     -10.716   8.826  67.806  1.00  0.00    -0.125 C  
HETATM   37  O   UNL     1     -10.161   7.957  66.812  1.00  0.00    -0.277 OA 
HETATM   38  C   UNL     1      -8.750   7.785  66.989  1.00  0.00    -0.129 C  
HETATM   39  C   UNL     1      -8.359   7.396  68.428  1.00  0.00    -0.125 C  
ENDBRANCH   5  34
TORSDOF 6
ENDMDL
MODEL      155
REMARK 921   NORMALIZED FREE ENERGY PREDICTED BY IDOCK:   44.85 KCAL/MOL
REMARK 922        TOTAL FREE ENERGY PREDICTED BY IDOCK:   60.29 KCAL/MOL
REMARK 923 INTER-LIGAND FREE ENERGY PREDICTED BY IDOCK:   42.56 KCAL/MOL
REMARK 924 INTRA-LIGAND FREE ENERGY PREDICTED BY IDOCK:   17.73 KCAL/MOL
REMARK 927      BINDING AFFINITY PREDICTED BY RF-SCORE:    0.00 PKD
ROOT
HETATM    1  C   UNL     1     -11.121   9.097  68.534  1.00  0.00     0.117 C  
HETATM    2  C   UNL     1     -11.719  10.215  67.839  1.00  0.00     0.672 C  
HETATM    3  C   UNL     1     -10.624   9.742  66.901  1.00  0.00    -0.173 C  
HETATM    4  C   UNL     1      -9.778   7.923  67.462  1.00  0.00    -0.159 C  
HETATM    5  C   UNL     1      -7.582  13.874  68.673  1.00  0.00    -0.130 C  
HETATM    6  C   UNL     1      -7.254  13.909  70.185  1.00  0.00     0.654 C  
HETATM    7  C   UNL     1      -8.174  12.907  70.864  1.00  0.00     7.975 C  
HETATM    8  C   UNL     1      -7.636  11.505  70.634  1.00  0.00     3.360 C  
HETATM    9  C   UNL     1     -10.902   8.329  66.840  1.00  0.00     0.010 C  
HETATM   10  C   UNL     1      -9.093   8.683  66.087  1.00  0.00    -0.250 C  
HETATM   11  C   UNL     1     -12.033   7.329  66.525  1.00  0.00     4.430 C  
HETATM   12  C   UNL     1      -8.496  10.475  71.384  1.00  0.00     4.564 C  
HETATM   13  C   UNL     1      -7.356  11.164  69.133  1.00  0.00    -0.115 C  
HETATM   14  C   UNL     1      -6.044  10.336  69.113  1.00  0.00    -0.037 C  
HETATM   15  C   UNL     1      -8.006   9.438  67.216  1.00  0.00    -0.106 C  
HETATM   16  C   UNL     1      -7.083  12.472  68.175  1.00  0.00    -0.103 C  
HETATM   17  H   UNL     1      -6.879  15.789  70.397  1.00  0.00     0.000 HD 
HETATM   18  O   UNL     1      -7.454  15.163  70.822  1.00  0.00     0.698 OA 
HETATM   19  C   UNL     1      -9.850  10.195  70.723  1.00  0.00     0.518 C  
HETATM   20  C   UNL     1      -8.543  10.342  68.477  1.00  0.00    -0.126 C  
HETATM   21  C   UNL     1      -9.614   9.540  69.365  1.00  0.00    -0.186 C  
ENDROOT
BRANCH   3  22
HETATM   22  N   UNL     1     -11.096  10.171  65.163  1.00  0.00     1.041 N  
HETATM   23  C   UNL     1     -12.027  12.347  64.323  1.00  0.00    -0.489 C  
HETATM   24  C   UNL     1     -10.535  12.343  64.142  1.00  0.00    -0.415 C  
HETATM   25  C   UNL     1     -12.411  11.027  64.941  1.00  0.00     2.841 C  
HETATM   26  C   UNL     1     -10.063  10.916  64.300  1.00  0.00    -0.351 C  
BRANCH  22  27
HETATM   27  C   UNL     1     -11.310   8.764  64.406  1.00  0.00    11.718 C  
BRANCH  27  28
HETATM   28  C   UNL     1     -10.081   7.964  64.121  1.00  0.00     5.723 C  
HETATM   29  C   UNL     1      -9.465   7.226  65.056  1.00  0.00     1.357 C  
ENDBRANCH  27  28
ENDBRANCH  22  27
ENDBRANCH   3  22
BRANCH   4  30
HETATM   30  O   UNL     1      -9.843   6.561  66.683  1.00  0.00    -0.167 OA 
BRANCH  30  31
HETATM   31  C   UNL     1     -10.409   5.400  67.092  1.00  0.00    -0.236 C  
HETATM   32  C   UNL     1      -9.993   5.151  68.526  1.00  0.00    -0.221 C  
HETATM   33  O   UNL     1     -11.294   4.812  66.490  1.00  0.00     0.856 OA 
ENDBRANCH  30  31
ENDBRANCH   4  30
BRANCH   5  34
HETATM   34  N   UNL     1      -7.247  15.100  67.908  1.00  0.00    -0.129 NA 
HETATM   35  C   UNL     1      -7.912  16.372  68.212  1.00  0.00    -0.170 C  
HETATM   36  C   UNL     1      -7.222  17.100  69.362  1.00  0.00    -0.042 C  
HETATM   37  O   UNL     1      -5.874  17.426  69.004  1.00  0.00    -0.176 OA 
HETATM   38  C   UNL     1      -5.129  16.259  68.639  1.00  0.00    -0.104 C  
HETATM   39  C   UNL     1      -5.843  15.381  67.594  1.00  0.00    -0.091 C  
ENDBRANCH   5  34
TORSDOF 6
ENDMDL
MODEL      156
REMARK 921   NORMALIZED FREE ENERGY PREDICTED BY IDOCK:   62.92 KCAL/MOL
REMARK 922        TOTAL FREE ENERGY PREDICTED BY IDOCK:   84.69 KCAL/MOL
REMARK 923 INTER-LIGAND FREE ENERGY PREDICTED BY IDOCK:   80.59 KCAL/MOL
REMARK 924 INTRA-LIGAND FREE ENERGY PREDICTED BY IDOCK:    4.10 KCAL/MOL
REMARK 927      BINDING AFFINITY PREDICTED BY RF-SCORE:    0.00 PKD
ROOT
HETATM    1  C   UNL     1      -9.094  10.231  69.370  1.00  0.00    -0.203 C  
HETATM    2  C   UNL     1      -8.177  11.341  69.511  1.00  0.00     0.437 C  
HETATM    3  C   UNL     1      -9.546  11.973  69.676  1.00  0.00     1.503 C  
HETATM    4  C   UNL     1     -11.087  10.583  69.856  1.00  0.00    -0.307 C  
HETATM    5  C   UNL     1      -9.152  13.714  64.550  1.00  0.00     2.761 C  
HETATM    6  C   UNL     1      -8.998  12.637  63.450  1.00  0.00     2.637 C  
HETATM    7  C   UNL     1      -8.661  11.330  64.151  1.00  0.00     0.295 C  
HETATM    8  C   UNL     1      -9.932  10.745  64.745  1.00  0.00    -0.382 C  
HETATM    9  C   UNL     1     -10.138  11.101  70.659  1.00  0.00     2.576 C  
HETATM   10  C   UNL     1     -11.555  12.231  69.836  1.00  0.00    -0.278 C  
HETATM   11  C   UNL     1      -9.894  10.519  72.066  1.00  0.00     6.653 C  
HETATM   12  C   UNL     1      -9.640   9.378  65.384  1.00  0.00    -0.296 C  
HETATM   13  C   UNL     1     -10.734  11.739  65.648  1.00  0.00    -0.328 C  
HETATM   14  C   UNL     1     -12.235  11.489  65.344  1.00  0.00     0.994 C  
HETATM   15  C   UNL     1     -11.691  12.030  68.113  1.00  0.00    -0.398 C  
HETATM   16  C   UNL     1     -10.462  13.328  65.324  1.00  0.00    -0.324 C  
HETATM   17  H   UNL     1      -8.181  13.697  62.062  1.00  0.00     0.000 HD 
HETATM   18  O   UNL     1      -7.970  12.880  62.500  1.00  0.00     4.744 OA 
HETATM   19  C   UNL     1      -8.906   9.463  66.727  1.00  0.00    -0.142 C  
HETATM   20  C   UNL     1     -10.434  11.517  67.190  1.00  0.00    -0.259 C  
HETATM   21  C   UNL     1      -9.812  10.145  67.747  1.00  0.00    -0.190 C  
ENDROOT
BRANCH   3  22
HETATM   22  N   UNL     1      -9.386  13.482  70.736  1.00  0.00     5.572 N  
HETATM   23  C   UNL     1     -11.198  14.644  72.029  1.00  0.00     0.563 C  
HETATM   24  C   UNL     1     -10.489  13.674  72.931  1.00  0.00     8.687 C  
HETATM   25  C   UNL     1     -10.545  14.561  70.673  1.00  0.00     0.650 C  
HETATM   26  C   UNL     1      -9.199  13.281  72.249  1.00  0.00    16.857 C  
BRANCH  22  27
HETATM   27  C   UNL     1      -8.030  14.212  70.259  1.00  0.00     1.598 C  
BRANCH  27  28
HETATM   28  C   UNL     1      -6.835  14.047  71.141  1.00  0.00     1.296 C  
HETATM   29  C   UNL     1      -6.877  13.367  72.296  1.00  0.00     4.475 C  
ENDBRANCH  27  28
ENDBRANCH  22  27
ENDBRANCH   3  22
BRANCH   4  30
HETATM   30  O   UNL     1     -12.004  10.332  71.106  1.00  0.00    -0.342 OA 
BRANCH  30  31
HETATM   31  C   UNL     1     -13.230  10.855  71.350  1.00  0.00    -0.258 C  
HETATM   32  C   UNL     1     -13.506  10.743  72.834  1.00  0.00     1.736 C  
HETATM   33  O   UNL     1     -13.869  11.521  70.551  1.00  0.00     1.614 OA 
ENDBRANCH  30  31
ENDBRANCH   4  30
BRANCH   5  34
HETATM   34  N   UNL     1      -8.926  15.116  64.121  1.00  0.00     5.601 NA 
HETATM   35  C   UNL     1     -10.037  16.076  64.101  1.00  0.00     3.179 C  
HETATM   36  C   UNL     1     -10.254  16.706  65.473  1.00  0.00    -0.202 C  
HETATM   37  O   UNL     1      -9.091  17.443  65.870  1.00  0.00    -0.515 OA 
HETATM   38  C   UNL     1      -7.922  16.615  65.884  1.00  0.00     0.237 C  
HETATM   39  C   UNL     1      -7.725  15.817  64.581  1.00  0.00    10.347 C  
ENDBRANCH   5  34
TORSDOF 6
ENDMDL
MODEL      157
REMARK 921   NORMALIZED FREE ENERGY PREDICTED BY IDOCK:   79.25 KCAL/MOL
REMARK 922        TOTAL FREE ENERGY PREDICTED BY IDOCK:  106.75 KCAL/MOL
REMARK 923 INTER-LIGAND FREE ENERGY PREDICTED BY IDOCK:   95.04 KCAL/MOL
REMARK 924 INTRA-LIGAND FREE ENERGY PREDICTED BY IDOCK:   11.71 KCAL/MOL
REMARK 927      BINDING AFFINITY PREDICTED BY RF-SCORE:    0.00 PKD
ROOT
HETATM    1  C   UNL     1     -10.303  13.097  68.725  1.00  0.00    -0.146 C  
HETATM    2  C   UNL     1     -10.954  14.043  67.847  1.00  0.00    -0.261 C  
HETATM    3  C   UNL     1      -9.475  14.255  67.583  1.00  0.00    -0.211 C  
HETATM    4  C   UNL     1      -8.260  12.806  68.456  1.00  0.00    -0.068 C  
HETATM    5  C   UNL     1      -9.736  18.664  70.737  1.00  0.00     3.049 C  
HETATM    6  C   UNL     1     -10.170  18.454  72.208  1.00  0.00     5.099 C  
HETATM    7  C   UNL     1     -10.743  17.049  72.306  1.00  0.00     3.012 C  
HETATM    8  C   UNL     1      -9.599  16.049  72.351  1.00  0.00     7.389 C  
HETATM    9  C   UNL     1      -9.036  12.900  67.360  1.00  0.00    -0.197 C  
HETATM   10  C   UNL     1      -7.452  14.074  67.634  1.00  0.00    -0.186 C  
HETATM   11  C   UNL     1      -9.331  11.658  66.495  1.00  0.00    -0.216 C  
HETATM   12  C   UNL     1     -10.145  14.625  72.540  1.00  0.00     4.616 C  
HETATM   13  C   UNL     1      -8.561  16.210  71.192  1.00  0.00     4.890 C  
HETATM   14  C   UNL     1      -7.165  15.963  71.821  1.00  0.00     4.922 C  
HETATM   15  C   UNL     1      -7.445  14.884  69.173  1.00  0.00    -0.158 C  
HETATM   16  C   UNL     1      -8.503  17.715  70.531  1.00  0.00     4.330 C  
HETATM   17  H   UNL     1     -10.808  20.226  72.620  1.00  0.00     0.000 HD 
HETATM   18  O   UNL     1     -11.166  19.348  72.682  1.00  0.00     4.043 OA 
HETATM   19  C   UNL     1     -10.778  14.028  71.279  1.00  0.00     2.592 C  
HETATM   20  C   UNL     1      -8.827  15.188  70.008  1.00  0.00     0.363 C  
HETATM   21  C   UNL     1      -9.699  13.856  70.214  1.00  0.00     2.407 C  
ENDROOT
BRANCH   3  22
HETATM   22  N   UNL     1      -9.258  14.882  65.855  1.00  0.00    -0.192 N  
HETATM   23  C   UNL     1      -9.901  13.731  63.717  1.00  0.00     2.643 C  
HETATM   24  C   UNL     1     -11.012  14.650  64.138  1.00  0.00     0.339 C  
HETATM   25  C   UNL     1      -8.802  13.850  64.742  1.00  0.00     3.575 C  
HETATM   26  C   UNL     1     -10.455  15.583  65.189  1.00  0.00    -0.403 C  
BRANCH  22  27
HETATM   27  C   UNL     1      -8.123  16.023  65.941  1.00  0.00     0.665 C  
BRANCH  27  28
HETATM   28  C   UNL     1      -7.364  16.308  64.685  1.00  0.00     9.476 C  
HETATM   29  C   UNL     1      -7.175  15.386  63.730  1.00  0.00    22.231 C  
ENDBRANCH  27  28
ENDBRANCH  22  27
ENDBRANCH   3  22
BRANCH   4  30
HETATM   30  O   UNL     1      -7.358  11.749  67.723  1.00  0.00    -0.092 OA 
BRANCH  30  31
HETATM   31  C   UNL     1      -7.688  10.976  66.660  1.00  0.00    -0.153 C  
HETATM   32  C   UNL     1      -8.673   9.926  67.126  1.00  0.00    -0.136 C  
HETATM   33  O   UNL     1      -7.428  11.251  65.499  1.00  0.00     0.213 OA 
ENDBRANCH  30  31
ENDBRANCH   4  30
BRANCH   5  34
HETATM   34  N   UNL     1      -9.678  20.072  70.273  1.00  0.00     0.558 NA 
HETATM   35  C   UNL     1      -9.277  20.386  68.896  1.00  0.00     0.554 C  
HETATM   36  C   UNL     1     -10.459  20.291  67.937  1.00  0.00    -0.181 C  
HETATM   37  O   UNL     1     -11.463  21.249  68.291  1.00  0.00     2.937 OA 
HETATM   38  C   UNL     1     -11.906  21.072  69.642  1.00  0.00     4.311 C  
HETATM   39  C   UNL     1     -10.751  20.993  70.658  1.00  0.00     3.421 C  
ENDBRANCH   5  34
TORSDOF 6
ENDMDL
