MODEL        1
REMARK 921   NORMALIZED FREE ENERGY PREDICTED BY IDOCK:   -7.12 KCAL/MOL
REMARK 922        TOTAL FREE ENERGY PREDICTED BY IDOCK:  -10.95 KCAL/MOL
REMARK 923 INTER-LIGAND FREE ENERGY PREDICTED BY IDOCK:   -9.62 KCAL/MOL
REMARK 924 INTRA-LIGAND FREE ENERGY PREDICTED BY IDOCK:   -1.32 KCAL/MOL
REMARK 927      BINDING AFFINITY PREDICTED BY RF-SCORE:    0.00 PKD
ROOT
HETATM    1  F   UNL     1     -14.161  16.311  72.937  1.00  0.00    -0.602 F  
HETATM    2  C   UNL     1     -12.993  15.672  73.197  1.00  0.00    -0.535 C  
HETATM    3  O   UNL     1     -13.088  14.345  72.706  1.00  0.00    -0.454 OA 
HETATM    4  F   UNL     1     -12.878  15.603  74.548  1.00  0.00    -0.598 F  
ENDROOT
BRANCH   3   5
HETATM    5  C   UNL     1     -12.653  14.170  71.417  1.00  0.00    -0.368 A  
HETATM    6  C   UNL     1     -12.477  12.840  70.987  1.00  0.00    -0.277 A  
HETATM    7  C   UNL     1     -11.939  14.972  69.247  1.00  0.00    -0.322 A  
HETATM    8  C   UNL     1     -12.010  12.586  69.692  1.00  0.00    -0.339 A  
HETATM    9  C   UNL     1     -12.415  15.229  70.534  1.00  0.00    -0.454 A  
HETATM   10  C   UNL     1     -11.712  13.656  68.834  1.00  0.00    -0.377 A  
BRANCH   6  11
HETATM   11  O   UNL     1     -12.806  11.870  71.898  1.00  0.00    -0.341 OA 
BRANCH  11  12
HETATM   12  C   UNL     1     -13.050  10.555  71.407  1.00  0.00    -0.410 C  
BRANCH  12  13
HETATM   13  C   UNL     1     -11.975   9.655  71.941  1.00  0.00    -0.330 C  
HETATM   14  C   UNL     1     -11.611   8.386  71.214  1.00  0.00    -0.326 C  
HETATM   15  C   UNL     1     -10.643   9.535  71.243  1.00  0.00    -0.358 C  
ENDBRANCH  12  13
ENDBRANCH  11  12
ENDBRANCH   6  11
BRANCH  10  16
HETATM   16  C   UNL     1     -11.094  13.420  67.496  1.00  0.00    -0.274 C  
HETATM   17  O   UNL     1     -10.114  14.069  67.156  1.00  0.00    -0.253 OA 
HETATM   18  H   UNL     1     -12.502  11.928  67.142  1.00  0.00     0.000 HD 
HETATM   19  N   UNL     1     -11.622  12.330  66.821  1.00  0.00    -0.372 N  
BRANCH  19  20
HETATM   20  C   UNL     1     -10.970  11.755  65.693  1.00  0.00    -0.295 A  
HETATM   21  C   UNL     1     -10.205  10.596  65.905  1.00  0.00    -0.251 A  
HETATM   22  C   UNL     1      -9.554  10.015  64.829  1.00  0.00    -0.308 A  
HETATM   23 CL   UNL     1     -10.020   9.909  67.478  1.00  0.00    -0.215 Cl 
HETATM   24  N   UNL     1      -9.628  10.485  63.564  1.00  0.00    -0.305 NA 
HETATM   25  C   UNL     1     -10.398  11.585  63.375  1.00  0.00    -0.418 A  
HETATM   26  C   UNL     1     -11.084  12.251  64.387  1.00  0.00    -0.330 A  
HETATM   27 CL   UNL     1     -12.150  13.530  63.942  1.00  0.00    -0.513 Cl 
ENDBRANCH  19  20
ENDBRANCH  10  16
ENDBRANCH   3   5
TORSDOF 6
ENDMDL
MODEL        2
REMARK 921   NORMALIZED FREE ENERGY PREDICTED BY IDOCK:   -6.93 KCAL/MOL
REMARK 922        TOTAL FREE ENERGY PREDICTED BY IDOCK:  -10.69 KCAL/MOL
REMARK 923 INTER-LIGAND FREE ENERGY PREDICTED BY IDOCK:   -9.62 KCAL/MOL
REMARK 924 INTRA-LIGAND FREE ENERGY PREDICTED BY IDOCK:   -1.07 KCAL/MOL
REMARK 927      BINDING AFFINITY PREDICTED BY RF-SCORE:    0.00 PKD
ROOT
HETATM    1  F   UNL     1     -12.210  15.051  73.969  1.00  0.00    -0.584 F  
HETATM    2  C   UNL     1     -13.109  15.414  73.020  1.00  0.00    -0.514 C  
HETATM    3  O   UNL     1     -12.401  15.902  71.893  1.00  0.00    -0.413 OA 
HETATM    4  F   UNL     1     -13.826  16.445  73.535  1.00  0.00    -0.604 F  
ENDROOT
BRANCH   3   5
HETATM    5  C   UNL     1     -12.097  14.960  70.945  1.00  0.00    -0.317 A  
HETATM    6  C   UNL     1     -11.337  15.399  69.842  1.00  0.00    -0.304 A  
HETATM    7  C   UNL     1     -12.157  12.724  70.020  1.00  0.00    -0.355 A  
HETATM    8  C   UNL     1     -11.011  14.497  68.822  1.00  0.00    -0.262 A  
HETATM    9  C   UNL     1     -12.474  13.617  71.045  1.00  0.00    -0.456 A  
HETATM   10  C   UNL     1     -11.450  13.167  68.898  1.00  0.00    -0.343 A  
BRANCH   6  11
HETATM   11  O   UNL     1     -10.952  16.714  69.869  1.00  0.00    -0.347 OA 
BRANCH  11  12
HETATM   12  C   UNL     1     -10.097  17.176  68.826  1.00  0.00    -0.329 C  
BRANCH  12  13
HETATM   13  C   UNL     1     -10.142  18.676  68.824  1.00  0.00    -0.398 C  
HETATM   14  C   UNL     1      -9.098  19.469  68.078  1.00  0.00    -0.386 C  
HETATM   15  C   UNL     1     -10.516  19.441  67.579  1.00  0.00    -0.577 C  
ENDBRANCH  12  13
ENDBRANCH  11  12
ENDBRANCH   6  11
BRANCH  10  16
HETATM   16  C   UNL     1     -11.227  12.217  67.769  1.00  0.00    -0.275 C  
HETATM   17  O   UNL     1     -11.942  11.230  67.655  1.00  0.00    -0.634 OA 
HETATM   18  H   UNL     1      -9.689  13.441  67.082  1.00  0.00     0.000 HD 
HETATM   19  N   UNL     1     -10.302  12.663  66.838  1.00  0.00    -0.232 N  
BRANCH  19  20
HETATM   20  C   UNL     1     -10.182  12.066  65.550  1.00  0.00    -0.258 A  
HETATM   21  C   UNL     1      -9.259  11.017  65.403  1.00  0.00    -0.210 A  
HETATM   22  C   UNL     1      -9.115  10.419  64.161  1.00  0.00    -0.242 A  
HETATM   23 CL   UNL     1      -8.270  10.491  66.717  1.00  0.00    -0.123 Cl 
HETATM   24  N   UNL     1      -9.834  10.768  63.072  1.00  0.00    -0.330 NA 
HETATM   25  C   UNL     1     -10.743  11.760  63.243  1.00  0.00    -0.346 A  
HETATM   26  C   UNL     1     -10.959  12.434  64.443  1.00  0.00    -0.334 A  
HETATM   27 CL   UNL     1     -12.270  13.549  64.524  1.00  0.00    -0.443 Cl 
ENDBRANCH  19  20
ENDBRANCH  10  16
ENDBRANCH   3   5
TORSDOF 6
ENDMDL
MODEL        3
REMARK 921   NORMALIZED FREE ENERGY PREDICTED BY IDOCK:   -6.93 KCAL/MOL
REMARK 922        TOTAL FREE ENERGY PREDICTED BY IDOCK:  -10.69 KCAL/MOL
REMARK 923 INTER-LIGAND FREE ENERGY PREDICTED BY IDOCK:   -9.52 KCAL/MOL
REMARK 924 INTRA-LIGAND FREE ENERGY PREDICTED BY IDOCK:   -1.16 KCAL/MOL
REMARK 927      BINDING AFFINITY PREDICTED BY RF-SCORE:    0.00 PKD
ROOT
HETATM    1  F   UNL     1     -11.935  15.245  73.962  1.00  0.00    -0.567 F  
HETATM    2  C   UNL     1     -12.953  15.461  73.093  1.00  0.00    -0.515 C  
HETATM    3  O   UNL     1     -12.410  15.939  71.874  1.00  0.00    -0.413 OA 
HETATM    4  F   UNL     1     -13.714  16.454  73.622  1.00  0.00    -0.571 F  
ENDROOT
BRANCH   3   5
HETATM    5  C   UNL     1     -12.108  14.970  70.952  1.00  0.00    -0.324 A  
HETATM    6  C   UNL     1     -11.381  15.383  69.818  1.00  0.00    -0.306 A  
HETATM    7  C   UNL     1     -12.146  12.701  70.107  1.00  0.00    -0.368 A  
HETATM    8  C   UNL     1     -11.061  14.452  68.823  1.00  0.00    -0.275 A  
HETATM    9  C   UNL     1     -12.457  13.624  71.108  1.00  0.00    -0.442 A  
HETATM   10  C   UNL     1     -11.472  13.117  68.955  1.00  0.00    -0.345 A  
BRANCH   6  11
HETATM   11  O   UNL     1     -11.020  16.705  69.791  1.00  0.00    -0.330 OA 
BRANCH  11  12
HETATM   12  C   UNL     1     -10.075  17.114  68.805  1.00  0.00    -0.329 C  
BRANCH  12  13
HETATM   13  C   UNL     1     -10.786  17.999  67.824  1.00  0.00    -0.350 C  
HETATM   14  C   UNL     1     -10.372  19.440  67.658  1.00  0.00    -0.550 C  
HETATM   15  C   UNL     1     -10.111  18.454  66.554  1.00  0.00    -0.406 C  
ENDBRANCH  12  13
ENDBRANCH  11  12
ENDBRANCH   6  11
BRANCH  10  16
HETATM   16  C   UNL     1     -11.256  12.132  67.855  1.00  0.00    -0.272 C  
HETATM   17  O   UNL     1     -12.061  11.228  67.683  1.00  0.00    -0.600 OA 
HETATM   18  H   UNL     1      -9.539  13.171  67.303  1.00  0.00     0.000 HD 
HETATM   19  N   UNL     1     -10.209  12.461  67.008  1.00  0.00    -0.219 N  
BRANCH  19  20
HETATM   20  C   UNL     1     -10.042  11.836  65.740  1.00  0.00    -0.237 A  
HETATM   21  C   UNL     1     -10.442  12.557  64.602  1.00  0.00    -0.319 A  
HETATM   22  C   UNL     1     -10.297  11.975  63.353  1.00  0.00    -0.434 A  
HETATM   23 CL   UNL     1     -11.151  14.126  64.728  1.00  0.00    -0.377 Cl 
HETATM   24  N   UNL     1      -9.765  10.749  63.154  1.00  0.00    -0.334 NA 
HETATM   25  C   UNL     1      -9.354  10.083  64.262  1.00  0.00    -0.288 A  
HETATM   26  C   UNL     1      -9.464  10.572  65.561  1.00  0.00    -0.216 A  
HETATM   27 CL   UNL     1      -8.738   9.666  66.834  1.00  0.00    -0.135 Cl 
ENDBRANCH  19  20
ENDBRANCH  10  16
ENDBRANCH   3   5
TORSDOF 6
ENDMDL
MODEL        4
REMARK 921   NORMALIZED FREE ENERGY PREDICTED BY IDOCK:   -6.77 KCAL/MOL
REMARK 922        TOTAL FREE ENERGY PREDICTED BY IDOCK:  -10.46 KCAL/MOL
REMARK 923 INTER-LIGAND FREE ENERGY PREDICTED BY IDOCK:   -9.29 KCAL/MOL
REMARK 924 INTRA-LIGAND FREE ENERGY PREDICTED BY IDOCK:   -1.17 KCAL/MOL
REMARK 927      BINDING AFFINITY PREDICTED BY RF-SCORE:    0.00 PKD
ROOT
HETATM    1  F   UNL     1     -11.199  17.916  67.701  1.00  0.00    -0.302 F  
HETATM    2  C   UNL     1     -10.133  17.398  68.361  1.00  0.00    -0.347 C  
HETATM    3  O   UNL     1     -10.596  16.787  69.553  1.00  0.00    -0.324 OA 
HETATM    4  F   UNL     1      -9.345  18.446  68.714  1.00  0.00    -0.322 F  
ENDROOT
BRANCH   3   5
HETATM    5  C   UNL     1     -10.907  15.456  69.442  1.00  0.00    -0.263 A  
HETATM    6  C   UNL     1     -12.012  15.002  70.190  1.00  0.00    -0.320 A  
HETATM    7  C   UNL     1     -10.563  13.219  68.584  1.00  0.00    -0.264 A  
HETATM    8  C   UNL     1     -12.371  13.650  70.145  1.00  0.00    -0.372 A  
HETATM    9  C   UNL     1     -10.209  14.569  68.616  1.00  0.00    -0.243 A  
HETATM   10  C   UNL     1     -11.625  12.754  69.365  1.00  0.00    -0.361 A  
BRANCH   6  11
HETATM   11  O   UNL     1     -12.678  15.959  70.910  1.00  0.00    -0.429 OA 
BRANCH  11  12
HETATM   12  C   UNL     1     -13.854  15.563  71.612  1.00  0.00    -0.456 C  
BRANCH  12  13
HETATM   13  C   UNL     1     -13.604  15.761  73.078  1.00  0.00    -0.638 C  
HETATM   14  C   UNL     1     -12.591  14.910  73.801  1.00  0.00    -0.584 C  
HETATM   15  C   UNL     1     -12.317  16.370  73.574  1.00  0.00    -0.576 C  
ENDBRANCH  12  13
ENDBRANCH  11  12
ENDBRANCH   6  11
BRANCH  10  16
HETATM   16  C   UNL     1     -11.905  11.288  69.396  1.00  0.00    -0.355 C  
HETATM   17  O   UNL     1     -12.273  10.719  68.378  1.00  0.00    -0.470 OA 
HETATM   18  H   UNL     1     -11.348  11.254  71.402  1.00  0.00     0.000 HD 
HETATM   19  N   UNL     1     -11.542  10.675  70.585  1.00  0.00    -0.342 N  
BRANCH  19  20
HETATM   20  C   UNL     1     -11.434   9.260  70.700  1.00  0.00    -0.274 A  
HETATM   21  C   UNL     1     -12.441   8.586  71.411  1.00  0.00    -0.297 A  
HETATM   22  C   UNL     1     -12.362   7.209  71.545  1.00  0.00    -0.370 A  
HETATM   23 CL   UNL     1     -13.744   9.436  72.160  1.00  0.00    -0.491 Cl 
HETATM   24  N   UNL     1     -11.376   6.458  71.007  1.00  0.00    -0.314 NA 
HETATM   25  C   UNL     1     -10.432   7.123  70.296  1.00  0.00    -0.217 A  
HETATM   26  C   UNL     1     -10.412   8.503  70.110  1.00  0.00    -0.220 A  
HETATM   27 CL   UNL     1      -9.234   9.162  69.038  1.00  0.00    -0.142 Cl 
ENDBRANCH  19  20
ENDBRANCH  10  16
ENDBRANCH   3   5
TORSDOF 6
ENDMDL
MODEL        5
REMARK 921   NORMALIZED FREE ENERGY PREDICTED BY IDOCK:   -6.76 KCAL/MOL
REMARK 922        TOTAL FREE ENERGY PREDICTED BY IDOCK:  -10.45 KCAL/MOL
REMARK 923 INTER-LIGAND FREE ENERGY PREDICTED BY IDOCK:   -9.22 KCAL/MOL
REMARK 924 INTRA-LIGAND FREE ENERGY PREDICTED BY IDOCK:   -1.23 KCAL/MOL
REMARK 927      BINDING AFFINITY PREDICTED BY RF-SCORE:    0.00 PKD
ROOT
HETATM    1  F   UNL     1     -10.826  17.634  67.339  1.00  0.00    -0.350 F  
HETATM    2  C   UNL     1     -10.028  17.234  68.360  1.00  0.00    -0.322 C  
HETATM    3  O   UNL     1     -10.848  16.739  69.405  1.00  0.00    -0.318 OA 
HETATM    4  F   UNL     1      -9.398  18.345  68.821  1.00  0.00    -0.322 F  
ENDROOT
BRANCH   3   5
HETATM    5  C   UNL     1     -11.103  15.393  69.356  1.00  0.00    -0.282 A  
HETATM    6  C   UNL     1     -12.180  14.927  70.136  1.00  0.00    -0.336 A  
HETATM    7  C   UNL     1     -10.674  13.136  68.593  1.00  0.00    -0.274 A  
HETATM    8  C   UNL     1     -12.482  13.560  70.155  1.00  0.00    -0.276 A  
HETATM    9  C   UNL     1     -10.377  14.500  68.562  1.00  0.00    -0.242 A  
HETATM   10  C   UNL     1     -11.706  12.662  69.407  1.00  0.00    -0.387 A  
BRANCH   6  11
HETATM   11  O   UNL     1     -12.878  15.886  70.822  1.00  0.00    -0.441 OA 
BRANCH  11  12
HETATM   12  C   UNL     1     -13.949  15.456  71.659  1.00  0.00    -0.516 C  
BRANCH  12  13
HETATM   13  C   UNL     1     -13.578  15.767  73.079  1.00  0.00    -0.638 C  
HETATM   14  C   UNL     1     -12.570  14.915  73.808  1.00  0.00    -0.584 C  
HETATM   15  C   UNL     1     -12.220  16.326  73.424  1.00  0.00    -0.614 C  
ENDBRANCH  12  13
ENDBRANCH  11  12
ENDBRANCH   6  11
BRANCH  10  16
HETATM   16  C   UNL     1     -11.924  11.189  69.506  1.00  0.00    -0.355 C  
HETATM   17  O   UNL     1     -12.139  10.538  68.493  1.00  0.00    -0.329 OA 
HETATM   18  H   UNL     1     -11.616  11.312  71.561  1.00  0.00     0.000 HD 
HETATM   19  N   UNL     1     -11.683  10.673  70.770  1.00  0.00    -0.341 N  
BRANCH  19  20
HETATM   20  C   UNL     1     -11.528   9.275  70.995  1.00  0.00    -0.319 A  
HETATM   21  C   UNL     1     -10.240   8.732  70.851  1.00  0.00    -0.226 A  
HETATM   22  C   UNL     1     -10.056   7.374  71.058  1.00  0.00    -0.190 A  
HETATM   23 CL   UNL     1      -8.896   9.706  70.377  1.00  0.00    -0.269 Cl 
HETATM   24  N   UNL     1     -11.047   6.530  71.419  1.00  0.00    -0.257 NA 
HETATM   25  C   UNL     1     -12.276   7.079  71.586  1.00  0.00    -0.357 A  
HETATM   26  C   UNL     1     -12.571   8.427  71.393  1.00  0.00    -0.277 A  
HETATM   27 CL   UNL     1     -14.146   8.983  71.813  1.00  0.00    -0.399 Cl 
ENDBRANCH  19  20
ENDBRANCH  10  16
ENDBRANCH   3   5
TORSDOF 6
ENDMDL
MODEL        6
REMARK 921   NORMALIZED FREE ENERGY PREDICTED BY IDOCK:   -6.74 KCAL/MOL
REMARK 922        TOTAL FREE ENERGY PREDICTED BY IDOCK:  -10.42 KCAL/MOL
REMARK 923 INTER-LIGAND FREE ENERGY PREDICTED BY IDOCK:   -9.25 KCAL/MOL
REMARK 924 INTRA-LIGAND FREE ENERGY PREDICTED BY IDOCK:   -1.18 KCAL/MOL
REMARK 927      BINDING AFFINITY PREDICTED BY RF-SCORE:    0.00 PKD
ROOT
HETATM    1  F   UNL     1     -11.422  11.096  63.998  1.00  0.00    -0.386 F  
HETATM    2  C   UNL     1     -12.250  12.126  63.696  1.00  0.00    -0.562 C  
HETATM    3  O   UNL     1     -12.802  12.628  64.901  1.00  0.00    -0.763 OA 
HETATM    4  F   UNL     1     -13.267  11.607  62.961  1.00  0.00    -0.551 F  
ENDROOT
BRANCH   3   5
HETATM    5  C   UNL     1     -12.094  13.645  65.486  1.00  0.00    -0.411 A  
HETATM    6  C   UNL     1     -11.816  13.511  66.861  1.00  0.00    -0.407 A  
HETATM    7  C   UNL     1     -10.941  15.774  65.457  1.00  0.00    -0.275 A  
HETATM    8  C   UNL     1     -11.120  14.524  67.530  1.00  0.00    -0.316 A  
HETATM    9  C   UNL     1     -11.625  14.761  64.784  1.00  0.00    -0.418 A  
HETATM   10  C   UNL     1     -10.711  15.670  66.832  1.00  0.00    -0.307 A  
BRANCH   6  11
HETATM   11  O   UNL     1     -12.251  12.350  67.446  1.00  0.00    -0.459 OA 
BRANCH  11  12
HETATM   12  C   UNL     1     -11.280  11.347  67.733  1.00  0.00    -0.283 C  
BRANCH  12  13
HETATM   13  C   UNL     1     -11.024  11.362  69.211  1.00  0.00    -0.282 C  
HETATM   14  C   UNL     1     -12.146  11.650  70.177  1.00  0.00    -0.414 C  
HETATM   15  C   UNL     1     -11.555  10.270  70.104  1.00  0.00    -0.376 C  
ENDBRANCH  12  13
ENDBRANCH  11  12
ENDBRANCH   6  11
BRANCH  10  16
HETATM   16  C   UNL     1     -10.080  16.820  67.543  1.00  0.00    -0.276 C  
HETATM   17  O   UNL     1     -10.574  17.238  68.581  1.00  0.00    -0.347 OA 
HETATM   18  H   UNL     1      -8.588  16.861  66.091  1.00  0.00     0.000 HD 
HETATM   19  N   UNL     1      -8.855  17.200  67.015  1.00  0.00    -0.222 N  
BRANCH  19  20
HETATM   20  C   UNL     1      -7.960  18.049  67.726  1.00  0.00    -0.235 A  
HETATM   21  C   UNL     1      -7.959  19.414  67.396  1.00  0.00    -0.268 A  
HETATM   22  C   UNL     1      -7.095  20.266  68.066  1.00  0.00    -0.281 A  
HETATM   23 CL   UNL     1      -8.970  20.044  66.147  1.00  0.00    -0.384 Cl 
HETATM   24  N   UNL     1      -6.258  19.866  69.048  1.00  0.00    -0.282 NA 
HETATM   25  C   UNL     1      -6.298  18.550  69.375  1.00  0.00    -0.258 A  
HETATM   26  C   UNL     1      -7.119  17.609  68.758  1.00  0.00    -0.263 A  
HETATM   27 CL   UNL     1      -7.164  16.016  69.412  1.00  0.00    -0.221 Cl 
ENDBRANCH  19  20
ENDBRANCH  10  16
ENDBRANCH   3   5
TORSDOF 6
ENDMDL
MODEL        7
REMARK 921   NORMALIZED FREE ENERGY PREDICTED BY IDOCK:   -6.61 KCAL/MOL
REMARK 922        TOTAL FREE ENERGY PREDICTED BY IDOCK:  -10.25 KCAL/MOL
REMARK 923 INTER-LIGAND FREE ENERGY PREDICTED BY IDOCK:   -9.09 KCAL/MOL
REMARK 924 INTRA-LIGAND FREE ENERGY PREDICTED BY IDOCK:   -1.16 KCAL/MOL
REMARK 927      BINDING AFFINITY PREDICTED BY RF-SCORE:    0.00 PKD
ROOT
HETATM    1  F   UNL     1     -12.638  13.836  66.505  1.00  0.00    -0.436 F  
HETATM    2  C   UNL     1     -11.589  14.123  67.315  1.00  0.00    -0.373 C  
HETATM    3  O   UNL     1     -12.045  14.128  68.657  1.00  0.00    -0.343 OA 
HETATM    4  F   UNL     1     -11.194  15.386  67.009  1.00  0.00    -0.323 F  
ENDROOT
BRANCH   3   5
HETATM    5  C   UNL     1     -11.947  12.926  69.309  1.00  0.00    -0.260 A  
HETATM    6  C   UNL     1     -12.536  12.852  70.587  1.00  0.00    -0.252 A  
HETATM    7  C   UNL     1     -11.242  10.618  69.496  1.00  0.00    -0.331 A  
HETATM    8  C   UNL     1     -12.453  11.664  71.322  1.00  0.00    -0.371 A  
HETATM    9  C   UNL     1     -11.333  11.798  68.756  1.00  0.00    -0.325 A  
HETATM   10  C   UNL     1     -11.777  10.557  70.786  1.00  0.00    -0.454 A  
BRANCH   6  11
HETATM   11  O   UNL     1     -13.179  13.985  71.013  1.00  0.00    -0.308 OA 
BRANCH  11  12
HETATM   12  C   UNL     1     -13.704  13.991  72.339  1.00  0.00    -0.568 C  
BRANCH  12  13
HETATM   13  C   UNL     1     -13.386  15.322  72.955  1.00  0.00    -0.616 C  
HETATM   14  C   UNL     1     -12.296  15.442  73.990  1.00  0.00    -0.792 C  
HETATM   15  C   UNL     1     -12.104  16.045  72.626  1.00  0.00    -0.640 C  
ENDBRANCH  12  13
ENDBRANCH  11  12
ENDBRANCH   6  11
BRANCH  10  16
HETATM   16  C   UNL     1     -11.562   9.321  71.595  1.00  0.00    -0.393 C  
HETATM   17  O   UNL     1     -12.437   8.936  72.359  1.00  0.00    -0.375 OA 
HETATM   18  H   UNL     1      -9.705   9.084  70.685  1.00  0.00     0.000 HD 
HETATM   19  N   UNL     1     -10.414   8.622  71.254  1.00  0.00    -0.223 N  
BRANCH  19  20
HETATM   20  C   UNL     1     -10.197   7.280  71.677  1.00  0.00    -0.192 A  
HETATM   21  C   UNL     1     -10.585   6.252  70.801  1.00  0.00    -0.243 A  
HETATM   22  C   UNL     1     -10.392   4.934  71.185  1.00  0.00    -0.152 A  
HETATM   23 CL   UNL     1     -11.339   6.591  69.285  1.00  0.00    -0.385 Cl 
HETATM   24  N   UNL     1      -9.823   4.570  72.355  1.00  0.00    -0.159 NA 
HETATM   25  C   UNL     1      -9.424   5.577  73.171  1.00  0.00    -0.143 A  
HETATM   26  C   UNL     1      -9.582   6.931  72.887  1.00  0.00    -0.148 A  
HETATM   27 CL   UNL     1      -8.866   8.075  73.958  1.00  0.00    -0.288 Cl 
ENDBRANCH  19  20
ENDBRANCH  10  16
ENDBRANCH   3   5
TORSDOF 6
ENDMDL
MODEL        8
REMARK 921   NORMALIZED FREE ENERGY PREDICTED BY IDOCK:   -6.55 KCAL/MOL
REMARK 922        TOTAL FREE ENERGY PREDICTED BY IDOCK:  -10.17 KCAL/MOL
REMARK 923 INTER-LIGAND FREE ENERGY PREDICTED BY IDOCK:   -9.05 KCAL/MOL
REMARK 924 INTRA-LIGAND FREE ENERGY PREDICTED BY IDOCK:   -1.12 KCAL/MOL
REMARK 927      BINDING AFFINITY PREDICTED BY RF-SCORE:    0.00 PKD
ROOT
HETATM    1  F   UNL     1     -12.497  13.924  66.592  1.00  0.00    -0.450 F  
HETATM    2  C   UNL     1     -11.457  14.189  67.421  1.00  0.00    -0.345 C  
HETATM    3  O   UNL     1     -11.927  14.152  68.758  1.00  0.00    -0.334 OA 
HETATM    4  F   UNL     1     -11.061  15.461  67.158  1.00  0.00    -0.316 F  
ENDROOT
BRANCH   3   5
HETATM    5  C   UNL     1     -11.834  12.931  69.374  1.00  0.00    -0.312 A  
HETATM    6  C   UNL     1     -12.523  12.786  70.595  1.00  0.00    -0.246 A  
HETATM    7  C   UNL     1     -11.049  10.646  69.541  1.00  0.00    -0.328 A  
HETATM    8  C   UNL     1     -12.451  11.575  71.292  1.00  0.00    -0.399 A  
HETATM    9  C   UNL     1     -11.128  11.849  68.837  1.00  0.00    -0.299 A  
HETATM   10  C   UNL     1     -11.686  10.516  70.778  1.00  0.00    -0.454 A  
BRANCH   6  11
HETATM   11  O   UNL     1     -13.247  13.876  71.003  1.00  0.00    -0.284 OA 
BRANCH  11  12
HETATM   12  C   UNL     1     -13.688  13.909  72.358  1.00  0.00    -0.576 C  
BRANCH  12  13
HETATM   13  C   UNL     1     -13.527  15.313  72.862  1.00  0.00    -0.611 C  
HETATM   14  C   UNL     1     -12.562  15.617  73.979  1.00  0.00    -0.767 C  
HETATM   15  C   UNL     1     -12.271  16.100  72.586  1.00  0.00    -0.625 C  
ENDBRANCH  12  13
ENDBRANCH  11  12
ENDBRANCH   6  11
BRANCH  10  16
HETATM   16  C   UNL     1     -11.488   9.260  71.559  1.00  0.00    -0.384 C  
HETATM   17  O   UNL     1     -12.393   8.834  72.265  1.00  0.00    -0.373 OA 
HETATM   18  H   UNL     1      -9.582   9.087  70.741  1.00  0.00     0.000 HD 
HETATM   19  N   UNL     1     -10.310   8.595  71.258  1.00  0.00    -0.219 N  
BRANCH  19  20
HETATM   20  C   UNL     1     -10.087   7.244  71.650  1.00  0.00    -0.184 A  
HETATM   21  C   UNL     1      -9.390   7.022  72.850  1.00  0.00    -0.140 A  
HETATM   22  C   UNL     1      -9.152   5.719  73.257  1.00  0.00    -0.133 A  
HETATM   23 CL   UNL     1      -8.784   8.330  73.800  1.00  0.00    -0.287 Cl 
HETATM   24  N   UNL     1      -9.575   4.631  72.576  1.00  0.00    -0.136 NA 
HETATM   25  C   UNL     1     -10.275   4.867  71.438  1.00  0.00    -0.187 A  
HETATM   26  C   UNL     1     -10.558   6.134  70.935  1.00  0.00    -0.242 A  
HETATM   27 CL   UNL     1     -11.603   6.252  69.570  1.00  0.00    -0.417 Cl 
ENDBRANCH  19  20
ENDBRANCH  10  16
ENDBRANCH   3   5
TORSDOF 6
ENDMDL
MODEL        9
REMARK 921   NORMALIZED FREE ENERGY PREDICTED BY IDOCK:   -6.54 KCAL/MOL
REMARK 922        TOTAL FREE ENERGY PREDICTED BY IDOCK:  -10.16 KCAL/MOL
REMARK 923 INTER-LIGAND FREE ENERGY PREDICTED BY IDOCK:   -9.04 KCAL/MOL
REMARK 924 INTRA-LIGAND FREE ENERGY PREDICTED BY IDOCK:   -1.12 KCAL/MOL
REMARK 927      BINDING AFFINITY PREDICTED BY RF-SCORE:    0.00 PKD
ROOT
HETATM    1  F   UNL     1     -11.135  11.488  63.306  1.00  0.00    -0.431 F  
HETATM    2  C   UNL     1     -12.213  12.279  63.535  1.00  0.00    -0.568 C  
HETATM    3  O   UNL     1     -12.456  12.315  64.931  1.00  0.00    -0.500 OA 
HETATM    4  F   UNL     1     -13.275  11.671  62.947  1.00  0.00    -0.483 F  
ENDROOT
BRANCH   3   5
HETATM    5  C   UNL     1     -11.830  13.333  65.604  1.00  0.00    -0.380 A  
HETATM    6  C   UNL     1     -11.670  13.164  66.994  1.00  0.00    -0.377 A  
HETATM    7  C   UNL     1     -10.740  15.490  65.736  1.00  0.00    -0.362 A  
HETATM    8  C   UNL     1     -11.064  14.174  67.749  1.00  0.00    -0.292 A  
HETATM    9  C   UNL     1     -11.333  14.480  64.977  1.00  0.00    -0.377 A  
HETATM   10  C   UNL     1     -10.628  15.351  67.122  1.00  0.00    -0.305 A  
BRANCH   6  11
HETATM   11  O   UNL     1     -12.122  11.976  67.506  1.00  0.00    -0.555 OA 
BRANCH  11  12
HETATM   12  C   UNL     1     -11.292  11.302  68.449  1.00  0.00    -0.281 C  
BRANCH  12  13
HETATM   13  C   UNL     1     -12.165  10.821  69.571  1.00  0.00    -0.292 C  
HETATM   14  C   UNL     1     -11.552  10.305  70.848  1.00  0.00    -0.454 C  
HETATM   15  C   UNL     1     -12.296  11.611  70.849  1.00  0.00    -0.436 C  
ENDBRANCH  12  13
ENDBRANCH  11  12
ENDBRANCH   6  11
BRANCH  10  16
HETATM   16  C   UNL     1     -10.094  16.495  67.917  1.00  0.00    -0.256 C  
HETATM   17  O   UNL     1     -10.649  16.824  68.957  1.00  0.00    -0.310 OA 
HETATM   18  H   UNL     1      -8.559  16.706  66.527  1.00  0.00     0.000 HD 
HETATM   19  N   UNL     1      -8.877  16.976  67.458  1.00  0.00    -0.209 N  
BRANCH  19  20
HETATM   20  C   UNL     1      -8.061  17.836  68.246  1.00  0.00    -0.283 A  
HETATM   21  C   UNL     1      -6.968  17.261  68.915  1.00  0.00    -0.233 A  
HETATM   22  C   UNL     1      -6.156  18.071  69.695  1.00  0.00    -0.233 A  
HETATM   23 CL   UNL     1      -6.640  15.569  68.826  1.00  0.00    -0.105 Cl 
HETATM   24  N   UNL     1      -6.339  19.402  69.836  1.00  0.00    -0.276 NA 
HETATM   25  C   UNL     1      -7.380  19.943  69.156  1.00  0.00    -0.188 A  
HETATM   26  C   UNL     1      -8.260  19.220  68.355  1.00  0.00    -0.347 A  
HETATM   27 CL   UNL     1      -9.423  20.092  67.430  1.00  0.00    -0.503 Cl 
ENDBRANCH  19  20
ENDBRANCH  10  16
ENDBRANCH   3   5
TORSDOF 6
ENDMDL
MODEL       10
REMARK 921   NORMALIZED FREE ENERGY PREDICTED BY IDOCK:   -6.53 KCAL/MOL
REMARK 922        TOTAL FREE ENERGY PREDICTED BY IDOCK:  -10.14 KCAL/MOL
REMARK 923 INTER-LIGAND FREE ENERGY PREDICTED BY IDOCK:   -8.97 KCAL/MOL
REMARK 924 INTRA-LIGAND FREE ENERGY PREDICTED BY IDOCK:   -1.17 KCAL/MOL
REMARK 927      BINDING AFFINITY PREDICTED BY RF-SCORE:    0.00 PKD
ROOT
HETATM    1  F   UNL     1     -13.203  14.133  65.810  1.00  0.00    -0.549 F  
HETATM    2  C   UNL     1     -11.920  14.223  66.242  1.00  0.00    -0.412 C  
HETATM    3  O   UNL     1     -11.930  14.364  67.652  1.00  0.00    -0.377 OA 
HETATM    4  F   UNL     1     -11.410  15.366  65.716  1.00  0.00    -0.325 F  
ENDROOT
BRANCH   3   5
HETATM    5  C   UNL     1     -11.863  13.189  68.355  1.00  0.00    -0.351 A  
HETATM    6  C   UNL     1     -12.160  13.260  69.731  1.00  0.00    -0.290 A  
HETATM    7  C   UNL     1     -11.466  10.810  68.558  1.00  0.00    -0.362 A  
HETATM    8  C   UNL     1     -12.086  12.104  70.516  1.00  0.00    -0.383 A  
HETATM    9  C   UNL     1     -11.550  11.958  67.769  1.00  0.00    -0.393 A  
HETATM   10  C   UNL     1     -11.707  10.885  69.933  1.00  0.00    -0.418 A  
BRANCH   6  11
HETATM   11  O   UNL     1     -12.527  14.495  70.199  1.00  0.00    -0.331 OA 
BRANCH  11  12
HETATM   12  C   UNL     1     -11.639  15.154  71.099  1.00  0.00    -0.360 C  
BRANCH  12  13
HETATM   13  C   UNL     1     -12.467  15.813  72.163  1.00  0.00    -0.533 C  
HETATM   14  C   UNL     1     -13.875  15.345  72.433  1.00  0.00    -0.661 C  
HETATM   15  C   UNL     1     -12.794  15.097  73.449  1.00  0.00    -0.661 C  
ENDBRANCH  12  13
ENDBRANCH  11  12
ENDBRANCH   6  11
BRANCH  10  16
HETATM   16  C   UNL     1     -11.497   9.665  70.766  1.00  0.00    -0.328 C  
HETATM   17  O   UNL     1     -12.298   9.387  71.649  1.00  0.00    -0.337 OA 
HETATM   18  H   UNL     1      -9.794   9.232  69.650  1.00  0.00     0.000 HD 
HETATM   19  N   UNL     1     -10.463   8.856  70.322  1.00  0.00    -0.202 N  
BRANCH  19  20
HETATM   20  C   UNL     1     -10.307   7.516  70.777  1.00  0.00    -0.203 A  
HETATM   21  C   UNL     1     -10.607   6.483  69.873  1.00  0.00    -0.233 A  
HETATM   22  C   UNL     1     -10.470   5.167  70.287  1.00  0.00    -0.226 A  
HETATM   23 CL   UNL     1     -11.186   6.814  68.281  1.00  0.00    -0.204 Cl 
HETATM   24  N   UNL     1     -10.037   4.809  71.516  1.00  0.00    -0.192 NA 
HETATM   25  C   UNL     1      -9.720   5.820  72.362  1.00  0.00    -0.159 A  
HETATM   26  C   UNL     1      -9.831   7.173  72.051  1.00  0.00    -0.158 A  
HETATM   27 CL   UNL     1      -9.226   8.320  73.184  1.00  0.00    -0.322 Cl 
ENDBRANCH  19  20
ENDBRANCH  10  16
ENDBRANCH   3   5
TORSDOF 6
ENDMDL
MODEL       11
REMARK 921   NORMALIZED FREE ENERGY PREDICTED BY IDOCK:   -6.51 KCAL/MOL
REMARK 922        TOTAL FREE ENERGY PREDICTED BY IDOCK:  -10.12 KCAL/MOL
REMARK 923 INTER-LIGAND FREE ENERGY PREDICTED BY IDOCK:   -8.92 KCAL/MOL
REMARK 924 INTRA-LIGAND FREE ENERGY PREDICTED BY IDOCK:   -1.20 KCAL/MOL
REMARK 927      BINDING AFFINITY PREDICTED BY RF-SCORE:    0.00 PKD
ROOT
HETATM    1  F   UNL     1     -11.232   9.649  69.309  1.00  0.00    -0.237 F  
HETATM    2  C   UNL     1     -10.850  10.009  68.059  1.00  0.00    -0.260 C  
HETATM    3  O   UNL     1     -11.825  10.888  67.526  1.00  0.00    -0.524 OA 
HETATM    4  F   UNL     1     -10.858   8.878  67.307  1.00  0.00    -0.351 F  
ENDROOT
BRANCH   3   5
HETATM    5  C   UNL     1     -11.595  12.220  67.752  1.00  0.00    -0.351 A  
HETATM    6  C   UNL     1     -11.909  13.103  66.699  1.00  0.00    -0.391 A  
HETATM    7  C   UNL     1     -10.860  14.089  69.105  1.00  0.00    -0.235 A  
HETATM    8  C   UNL     1     -11.675  14.474  66.851  1.00  0.00    -0.399 A  
HETATM    9  C   UNL     1     -11.104  12.722  68.962  1.00  0.00    -0.285 A  
HETATM   10  C   UNL     1     -11.120  14.961  68.044  1.00  0.00    -0.301 A  
BRANCH   6  11
HETATM   11  O   UNL     1     -12.454  12.526  65.582  1.00  0.00    -0.648 OA 
BRANCH  11  12
HETATM   12  C   UNL     1     -11.968  12.953  64.311  1.00  0.00    -0.399 C  
BRANCH  12  13
HETATM   13  C   UNL     1     -11.379  11.759  63.619  1.00  0.00    -0.525 C  
HETATM   14  C   UNL     1      -9.917  11.736  63.250  1.00  0.00    -0.435 C  
HETATM   15  C   UNL     1     -10.430  10.832  64.336  1.00  0.00    -0.344 C  
ENDBRANCH  12  13
ENDBRANCH  11  12
ENDBRANCH   6  11
BRANCH  10  16
HETATM   16  C   UNL     1     -10.743  16.398  68.187  1.00  0.00    -0.336 C  
HETATM   17  O   UNL     1     -11.276  17.083  69.049  1.00  0.00    -0.099 OA 
HETATM   18  H   UNL     1      -9.365  16.159  66.645  1.00  0.00     0.000 HD 
HETATM   19  N   UNL     1      -9.663  16.773  67.402  1.00  0.00    -0.242 N  
BRANCH  19  20
HETATM   20  C   UNL     1      -8.959  17.991  67.623  1.00  0.00    -0.251 A  
HETATM   21  C   UNL     1      -7.822  17.945  68.446  1.00  0.00    -0.286 A  
HETATM   22  C   UNL     1      -7.117  19.114  68.685  1.00  0.00    -0.318 A  
HETATM   23 CL   UNL     1      -7.312  16.480  69.203  1.00  0.00    -0.225 Cl 
HETATM   24  N   UNL     1      -7.445  20.310  68.148  1.00  0.00    -0.234 NA 
HETATM   25  C   UNL     1      -8.526  20.327  67.330  1.00  0.00    -0.347 A  
HETATM   26  C   UNL     1      -9.309  19.214  67.033  1.00  0.00    -0.309 A  
HETATM   27 CL   UNL     1     -10.542  19.381  65.842  1.00  0.00    -0.584 Cl 
ENDBRANCH  19  20
ENDBRANCH  10  16
ENDBRANCH   3   5
TORSDOF 6
ENDMDL
MODEL       12
REMARK 921   NORMALIZED FREE ENERGY PREDICTED BY IDOCK:   -6.51 KCAL/MOL
REMARK 922        TOTAL FREE ENERGY PREDICTED BY IDOCK:  -10.12 KCAL/MOL
REMARK 923 INTER-LIGAND FREE ENERGY PREDICTED BY IDOCK:   -9.01 KCAL/MOL
REMARK 924 INTRA-LIGAND FREE ENERGY PREDICTED BY IDOCK:   -1.11 KCAL/MOL
REMARK 927      BINDING AFFINITY PREDICTED BY RF-SCORE:    0.00 PKD
ROOT
HETATM    1  F   UNL     1     -12.556  14.320  64.544  1.00  0.00    -0.425 F  
HETATM    2  C   UNL     1     -11.444  14.593  65.272  1.00  0.00    -0.361 C  
HETATM    3  O   UNL     1     -11.795  14.599  66.645  1.00  0.00    -0.375 OA 
HETATM    4  F   UNL     1     -11.060  15.852  64.939  1.00  0.00    -0.384 F  
ENDROOT
BRANCH   3   5
HETATM    5  C   UNL     1     -11.662  13.394  67.285  1.00  0.00    -0.380 A  
HETATM    6  C   UNL     1     -11.926  13.382  68.669  1.00  0.00    -0.327 A  
HETATM    7  C   UNL     1     -11.162  11.026  67.356  1.00  0.00    -0.355 A  
HETATM    8  C   UNL     1     -11.784  12.192  69.392  1.00  0.00    -0.391 A  
HETATM    9  C   UNL     1     -11.314  12.208  66.629  1.00  0.00    -0.405 A  
HETATM   10  C   UNL     1     -11.371  11.022  68.738  1.00  0.00    -0.349 A  
BRANCH   6  11
HETATM   11  O   UNL     1     -12.331  14.575  69.208  1.00  0.00    -0.263 OA 
BRANCH  11  12
HETATM   12  C   UNL     1     -12.106  14.784  70.600  1.00  0.00    -0.310 C  
BRANCH  12  13
HETATM   13  C   UNL     1     -13.351  15.385  71.184  1.00  0.00    -0.580 C  
HETATM   14  C   UNL     1     -14.363  14.512  71.883  1.00  0.00    -0.647 C  
HETATM   15  C   UNL     1     -13.539  15.488  72.676  1.00  0.00    -0.657 C  
ENDBRANCH  12  13
ENDBRANCH  11  12
ENDBRANCH   6  11
BRANCH  10  16
HETATM   16  C   UNL     1     -11.089   9.771  69.502  1.00  0.00    -0.192 C  
HETATM   17  O   UNL     1     -10.880   8.726  68.901  1.00  0.00    -0.143 OA 
HETATM   18  H   UNL     1     -11.227  10.858  71.272  1.00  0.00     0.000 HD 
HETATM   19  N   UNL     1     -10.925   9.973  70.864  1.00  0.00    -0.321 N  
BRANCH  19  20
HETATM   20  C   UNL     1     -10.349   8.982  71.708  1.00  0.00    -0.337 A  
HETATM   21  C   UNL     1     -11.220   8.217  72.501  1.00  0.00    -0.391 A  
HETATM   22  C   UNL     1     -10.690   7.247  73.338  1.00  0.00    -0.369 A  
HETATM   23 CL   UNL     1     -12.925   8.489  72.494  1.00  0.00    -0.349 Cl 
HETATM   24  N   UNL     1      -9.371   6.969  73.422  1.00  0.00    -0.153 NA 
HETATM   25  C   UNL     1      -8.550   7.696  72.624  1.00  0.00    -0.127 A  
HETATM   26  C   UNL     1      -8.977   8.699  71.757  1.00  0.00    -0.237 A  
HETATM   27 CL   UNL     1      -7.818   9.403  70.694  1.00  0.00    -0.179 Cl 
ENDBRANCH  19  20
ENDBRANCH  10  16
ENDBRANCH   3   5
TORSDOF 6
ENDMDL
MODEL       13
REMARK 921   NORMALIZED FREE ENERGY PREDICTED BY IDOCK:   -6.50 KCAL/MOL
REMARK 922        TOTAL FREE ENERGY PREDICTED BY IDOCK:  -10.11 KCAL/MOL
REMARK 923 INTER-LIGAND FREE ENERGY PREDICTED BY IDOCK:   -9.03 KCAL/MOL
REMARK 924 INTRA-LIGAND FREE ENERGY PREDICTED BY IDOCK:   -1.08 KCAL/MOL
REMARK 927      BINDING AFFINITY PREDICTED BY RF-SCORE:    0.00 PKD
ROOT
HETATM    1  F   UNL     1     -10.945  16.595  66.904  1.00  0.00    -0.256 F  
HETATM    2  C   UNL     1     -10.419  16.539  68.153  1.00  0.00    -0.313 C  
HETATM    3  O   UNL     1     -11.454  16.204  69.062  1.00  0.00    -0.347 OA 
HETATM    4  F   UNL     1      -9.995  17.794  68.454  1.00  0.00    -0.285 F  
ENDROOT
BRANCH   3   5
HETATM    5  C   UNL     1     -11.610  14.863  69.297  1.00  0.00    -0.306 A  
HETATM    6  C   UNL     1     -12.468  14.504  70.356  1.00  0.00    -0.347 A  
HETATM    7  C   UNL     1     -11.175  12.523  68.851  1.00  0.00    -0.330 A  
HETATM    8  C   UNL     1     -12.655  13.153  70.669  1.00  0.00    -0.286 A  
HETATM    9  C   UNL     1     -10.995  13.870  68.528  1.00  0.00    -0.277 A  
HETATM   10  C   UNL     1     -11.982  12.165  69.934  1.00  0.00    -0.380 A  
BRANCH   6  11
HETATM   11  O   UNL     1     -13.083  15.544  71.003  1.00  0.00    -0.477 OA 
BRANCH  11  12
HETATM   12  C   UNL     1     -13.979  15.227  72.066  1.00  0.00    -0.543 C  
BRANCH  12  13
HETATM   13  C   UNL     1     -13.477  15.902  73.308  1.00  0.00    -0.599 C  
HETATM   14  C   UNL     1     -12.390  15.265  74.137  1.00  0.00    -0.762 C  
HETATM   15  C   UNL     1     -12.101  16.518  73.358  1.00  0.00    -0.474 C  
ENDBRANCH  12  13
ENDBRANCH  11  12
ENDBRANCH   6  11
BRANCH  10  16
HETATM   16  C   UNL     1     -12.062  10.727  70.324  1.00  0.00    -0.348 C  
HETATM   17  O   UNL     1     -13.122  10.264  70.725  1.00  0.00    -0.381 OA 
HETATM   18  H   UNL     1     -10.063  10.501  69.790  1.00  0.00     0.000 HD 
HETATM   19  N   UNL     1     -10.921  10.000  70.020  1.00  0.00    -0.278 N  
BRANCH  19  20
HETATM   20  C   UNL     1     -10.913   8.576  70.019  1.00  0.00    -0.196 A  
HETATM   21  C   UNL     1     -10.765   7.927  68.782  1.00  0.00    -0.051 A  
HETATM   22  C   UNL     1     -10.758   6.542  68.747  1.00  0.00    -0.272 A  
HETATM   23 CL   UNL     1     -10.641   8.812  67.305  1.00  0.00    -0.346 Cl 
HETATM   24  N   UNL     1     -10.862   5.763  69.847  1.00  0.00    -0.347 NA 
HETATM   25  C   UNL     1     -10.970   6.409  71.035  1.00  0.00    -0.274 A  
HETATM   26  C   UNL     1     -10.998   7.794  71.180  1.00  0.00    -0.239 A  
HETATM   27 CL   UNL     1     -10.969   8.445  72.774  1.00  0.00    -0.316 Cl 
ENDBRANCH  19  20
ENDBRANCH  10  16
ENDBRANCH   3   5
TORSDOF 6
ENDMDL
MODEL       14
REMARK 921   NORMALIZED FREE ENERGY PREDICTED BY IDOCK:   -6.40 KCAL/MOL
REMARK 922        TOTAL FREE ENERGY PREDICTED BY IDOCK:   -9.96 KCAL/MOL
REMARK 923 INTER-LIGAND FREE ENERGY PREDICTED BY IDOCK:   -8.73 KCAL/MOL
REMARK 924 INTRA-LIGAND FREE ENERGY PREDICTED BY IDOCK:   -1.23 KCAL/MOL
REMARK 927      BINDING AFFINITY PREDICTED BY RF-SCORE:    0.00 PKD
ROOT
HETATM    1  F   UNL     1     -11.421  10.111  69.512  1.00  0.00    -0.250 F  
HETATM    2  C   UNL     1     -11.189  10.467  68.224  1.00  0.00    -0.291 C  
HETATM    3  O   UNL     1     -12.154  11.432  67.842  1.00  0.00    -0.646 OA 
HETATM    4  F   UNL     1     -11.394   9.357  67.469  1.00  0.00    -0.198 F  
ENDROOT
BRANCH   3   5
HETATM    5  C   UNL     1     -11.786  12.737  68.048  1.00  0.00    -0.356 A  
HETATM    6  C   UNL     1     -11.903  13.606  66.946  1.00  0.00    -0.411 A  
HETATM    7  C   UNL     1     -10.951  14.561  69.404  1.00  0.00    -0.275 A  
HETATM    8  C   UNL     1     -11.520  14.946  67.076  1.00  0.00    -0.333 A  
HETATM    9  C   UNL     1     -11.343  13.226  69.281  1.00  0.00    -0.311 A  
HETATM   10  C   UNL     1     -11.014  15.413  68.298  1.00  0.00    -0.288 A  
BRANCH   6  11
HETATM   11  O   UNL     1     -12.416  13.053  65.802  1.00  0.00    -0.470 OA 
BRANCH  11  12
HETATM   12  C   UNL     1     -11.801  13.399  64.564  1.00  0.00    -0.398 C  
BRANCH  12  13
HETATM   13  C   UNL     1     -11.476  12.126  63.838  1.00  0.00    -0.519 C  
HETATM   14  C   UNL     1     -10.054  11.810  63.452  1.00  0.00    -0.470 C  
HETATM   15  C   UNL     1     -10.735  11.007  64.524  1.00  0.00    -0.335 C  
ENDBRANCH  12  13
ENDBRANCH  11  12
ENDBRANCH   6  11
BRANCH  10  16
HETATM   16  C   UNL     1     -10.481  16.801  68.431  1.00  0.00    -0.339 C  
HETATM   17  O   UNL     1     -10.710  17.445  69.446  1.00  0.00    -0.188 OA 
HETATM   18  H   UNL     1      -9.572  16.598  66.569  1.00  0.00     0.000 HD 
HETATM   19  N   UNL     1      -9.609  17.164  67.417  1.00  0.00    -0.244 N  
BRANCH  19  20
HETATM   20  C   UNL     1      -8.762  18.304  67.524  1.00  0.00    -0.254 A  
HETATM   21  C   UNL     1      -9.237  19.518  67.001  1.00  0.00    -0.332 A  
HETATM   22  C   UNL     1      -8.435  20.645  67.085  1.00  0.00    -0.201 A  
HETATM   23 CL   UNL     1     -10.770  19.627  66.215  1.00  0.00    -0.557 Cl 
HETATM   24  N   UNL     1      -7.217  20.657  67.670  1.00  0.00    -0.320 NA 
HETATM   25  C   UNL     1      -6.791  19.483  68.199  1.00  0.00    -0.271 A  
HETATM   26  C   UNL     1      -7.512  18.292  68.158  1.00  0.00    -0.263 A  
HETATM   27 CL   UNL     1      -6.895  16.939  69.027  1.00  0.00    -0.213 Cl 
ENDBRANCH  19  20
ENDBRANCH  10  16
ENDBRANCH   3   5
TORSDOF 6
ENDMDL
MODEL       15
REMARK 921   NORMALIZED FREE ENERGY PREDICTED BY IDOCK:   -6.34 KCAL/MOL
REMARK 922        TOTAL FREE ENERGY PREDICTED BY IDOCK:   -9.89 KCAL/MOL
REMARK 923 INTER-LIGAND FREE ENERGY PREDICTED BY IDOCK:   -8.72 KCAL/MOL
REMARK 924 INTRA-LIGAND FREE ENERGY PREDICTED BY IDOCK:   -1.17 KCAL/MOL
REMARK 927      BINDING AFFINITY PREDICTED BY RF-SCORE:    0.00 PKD
ROOT
HETATM    1  F   UNL     1     -13.540   7.839  71.231  1.00  0.00    -0.352 F  
HETATM    2  C   UNL     1     -13.399   8.957  71.985  1.00  0.00    -0.421 C  
HETATM    3  O   UNL     1     -12.040   9.357  71.948  1.00  0.00    -0.367 OA 
HETATM    4  F   UNL     1     -13.690   8.605  73.264  1.00  0.00    -0.182 F  
ENDROOT
BRANCH   3   5
HETATM    5  C   UNL     1     -11.722  10.244  70.952  1.00  0.00    -0.379 A  
HETATM    6  C   UNL     1     -10.793   9.803  69.988  1.00  0.00    -0.278 A  
HETATM    7  C   UNL     1     -11.890  12.378  69.820  1.00  0.00    -0.387 A  
HETATM    8  C   UNL     1     -10.401  10.665  68.957  1.00  0.00    -0.237 A  
HETATM    9  C   UNL     1     -12.291  11.517  70.843  1.00  0.00    -0.460 A  
HETATM   10  C   UNL     1     -10.928  11.964  68.894  1.00  0.00    -0.285 A  
BRANCH   6  11
HETATM   11  O   UNL     1     -10.347   8.516  70.136  1.00  0.00    -0.198 OA 
BRANCH  11  12
HETATM   12  C   UNL     1     -10.630   7.592  69.088  1.00  0.00    -0.197 C  
BRANCH  12  13
HETATM   13  C   UNL     1     -11.231   6.363  69.706  1.00  0.00    -0.484 C  
HETATM   14  C   UNL     1     -10.367   5.169  70.024  1.00  0.00    -0.347 C  
HETATM   15  C   UNL     1     -10.946   5.994  71.140  1.00  0.00    -0.341 C  
ENDBRANCH  12  13
ENDBRANCH  11  12
ENDBRANCH   6  11
BRANCH  10  16
HETATM   16  C   UNL     1     -10.436  12.945  67.883  1.00  0.00    -0.224 C  
HETATM   17  O   UNL     1      -9.505  12.646  67.149  1.00  0.00    -0.202 OA 
HETATM   18  H   UNL     1     -11.915  14.275  68.499  1.00  0.00     0.000 HD 
HETATM   19  N   UNL     1     -11.230  14.076  67.770  1.00  0.00    -0.270 N  
BRANCH  19  20
HETATM   20  C   UNL     1     -11.117  14.968  66.665  1.00  0.00    -0.326 A  
HETATM   21  C   UNL     1     -11.698  14.573  65.449  1.00  0.00    -0.354 A  
HETATM   22  C   UNL     1     -11.601  15.416  64.353  1.00  0.00    -0.264 A  
HETATM   23 CL   UNL     1     -12.485  13.046  65.275  1.00  0.00    -0.539 Cl 
HETATM   24  N   UNL     1     -10.995  16.623  64.386  1.00  0.00    -0.899 NA 
HETATM   25  C   UNL     1     -10.470  17.001  65.578  1.00  0.00    -0.166 A  
HETATM   26  C   UNL     1     -10.503  16.226  66.735  1.00  0.00    -0.287 A  
HETATM   27 CL   UNL     1      -9.938  16.931  68.202  1.00  0.00    -0.273 Cl 
ENDBRANCH  19  20
ENDBRANCH  10  16
ENDBRANCH   3   5
TORSDOF 6
ENDMDL
MODEL       16
REMARK 921   NORMALIZED FREE ENERGY PREDICTED BY IDOCK:   -6.32 KCAL/MOL
REMARK 922        TOTAL FREE ENERGY PREDICTED BY IDOCK:   -9.86 KCAL/MOL
REMARK 923 INTER-LIGAND FREE ENERGY PREDICTED BY IDOCK:   -8.81 KCAL/MOL
REMARK 924 INTRA-LIGAND FREE ENERGY PREDICTED BY IDOCK:   -1.05 KCAL/MOL
REMARK 927      BINDING AFFINITY PREDICTED BY RF-SCORE:    0.00 PKD
ROOT
HETATM    1  F   UNL     1     -12.703  11.832  70.707  1.00  0.00    -0.378 F  
HETATM    2  C   UNL     1     -11.841  11.331  69.786  1.00  0.00    -0.364 C  
HETATM    3  O   UNL     1     -12.221  11.810  68.508  1.00  0.00    -0.430 OA 
HETATM    4  F   UNL     1     -12.007   9.984  69.788  1.00  0.00    -0.234 F  
ENDROOT
BRANCH   3   5
HETATM    5  C   UNL     1     -11.621  12.982  68.123  1.00  0.00    -0.341 A  
HETATM    6  C   UNL     1     -11.629  13.271  66.744  1.00  0.00    -0.365 A  
HETATM    7  C   UNL     1     -10.424  15.041  68.553  1.00  0.00    -0.232 A  
HETATM    8  C   UNL     1     -11.012  14.437  66.277  1.00  0.00    -0.318 A  
HETATM    9  C   UNL     1     -11.048  13.885  69.025  1.00  0.00    -0.302 A  
HETATM   10  C   UNL     1     -10.381  15.305  67.181  1.00  0.00    -0.265 A  
BRANCH   6  11
HETATM   11  O   UNL     1     -12.278  12.364  65.949  1.00  0.00    -0.629 OA 
BRANCH  11  12
HETATM   12  C   UNL     1     -12.571  12.747  64.607  1.00  0.00    -0.419 C  
BRANCH  12  13
HETATM   13  C   UNL     1     -11.793  11.849  63.691  1.00  0.00    -0.573 C  
HETATM   14  C   UNL     1     -10.359  12.164  63.350  1.00  0.00    -0.438 C  
HETATM   15  C   UNL     1     -10.680  10.977  64.215  1.00  0.00    -0.348 C  
ENDBRANCH  12  13
ENDBRANCH  11  12
ENDBRANCH   6  11
BRANCH  10  16
HETATM   16  C   UNL     1      -9.608  16.488  66.702  1.00  0.00    -0.258 C  
HETATM   17  O   UNL     1      -9.925  17.037  65.655  1.00  0.00    -0.554 OA 
HETATM   18  H   UNL     1      -8.420  16.366  68.406  1.00  0.00     0.000 HD 
HETATM   19  N   UNL     1      -8.678  16.957  67.617  1.00  0.00    -0.208 N  
BRANCH  19  20
HETATM   20  C   UNL     1      -8.074  18.240  67.486  1.00  0.00    -0.239 A  
HETATM   21  C   UNL     1      -6.740  18.288  67.047  1.00  0.00    -0.185 A  
HETATM   22  C   UNL     1      -6.122  19.521  66.914  1.00  0.00    -0.176 A  
HETATM   23 CL   UNL     1      -5.843  16.851  66.717  1.00  0.00    -0.210 Cl 
HETATM   24  N   UNL     1      -6.736  20.699  67.160  1.00  0.00    -0.269 NA 
HETATM   25  C   UNL     1      -8.033  20.632  67.551  1.00  0.00    -0.226 A  
HETATM   26  C   UNL     1      -8.744  19.448  67.726  1.00  0.00    -0.311 A  
HETATM   27 CL   UNL     1     -10.430  19.553  68.061  1.00  0.00    -0.538 Cl 
ENDBRANCH  19  20
ENDBRANCH  10  16
ENDBRANCH   3   5
TORSDOF 6
ENDMDL
MODEL       17
REMARK 921   NORMALIZED FREE ENERGY PREDICTED BY IDOCK:   -6.32 KCAL/MOL
REMARK 922        TOTAL FREE ENERGY PREDICTED BY IDOCK:   -9.86 KCAL/MOL
REMARK 923 INTER-LIGAND FREE ENERGY PREDICTED BY IDOCK:   -8.85 KCAL/MOL
REMARK 924 INTRA-LIGAND FREE ENERGY PREDICTED BY IDOCK:   -1.00 KCAL/MOL
REMARK 927      BINDING AFFINITY PREDICTED BY RF-SCORE:    0.00 PKD
ROOT
HETATM    1  F   UNL     1     -13.806  12.426  72.235  1.00  0.00    -0.517 F  
HETATM    2  C   UNL     1     -12.680  11.961  71.640  1.00  0.00    -0.235 C  
HETATM    3  O   UNL     1     -12.763  12.227  70.250  1.00  0.00    -0.004 OA 
HETATM    4  F   UNL     1     -12.680  10.613  71.803  1.00  0.00    -0.460 F  
ENDROOT
BRANCH   3   5
HETATM    5  C   UNL     1     -12.225  13.424  69.853  1.00  0.00    -0.271 A  
HETATM    6  C   UNL     1     -11.931  13.559  68.482  1.00  0.00    -0.344 A  
HETATM    7  C   UNL     1     -11.412  15.669  70.254  1.00  0.00    -0.361 A  
HETATM    8  C   UNL     1     -11.356  14.745  68.010  1.00  0.00    -0.332 A  
HETATM    9  C   UNL     1     -11.996  14.492  70.727  1.00  0.00    -0.388 A  
HETATM   10  C   UNL     1     -11.068  15.787  68.905  1.00  0.00    -0.298 A  
BRANCH   6  11
HETATM   11  O   UNL     1     -12.259  12.488  67.694  1.00  0.00    -0.401 OA 
BRANCH  11  12
HETATM   12  C   UNL     1     -11.580  12.348  66.448  1.00  0.00    -0.384 C  
BRANCH  12  13
HETATM   13  C   UNL     1     -12.526  12.763  65.359  1.00  0.00    -0.478 C  
HETATM   14  C   UNL     1     -12.069  13.699  64.268  1.00  0.00    -0.480 C  
HETATM   15  C   UNL     1     -12.357  12.259  63.948  1.00  0.00    -0.606 C  
ENDBRANCH  12  13
ENDBRANCH  11  12
ENDBRANCH   6  11
BRANCH  10  16
HETATM   16  C   UNL     1     -10.341  17.010  68.454  1.00  0.00    -0.351 C  
HETATM   17  O   UNL     1     -10.174  17.939  69.232  1.00  0.00    -0.305 OA 
HETATM   18  H   UNL     1     -10.056  16.119  66.594  1.00  0.00     0.000 HD 
HETATM   19  N   UNL     1      -9.766  16.887  67.198  1.00  0.00    -0.247 N  
BRANCH  19  20
HETATM   20  C   UNL     1      -8.782  17.804  66.728  1.00  0.00    -0.256 A  
HETATM   21  C   UNL     1      -7.464  17.335  66.603  1.00  0.00    -0.252 A  
HETATM   22  C   UNL     1      -6.482  18.204  66.153  1.00  0.00    -0.235 A  
HETATM   23 CL   UNL     1      -7.031  15.723  67.042  1.00  0.00    -0.200 Cl 
HETATM   24  N   UNL     1      -6.720  19.485  65.797  1.00  0.00    -0.242 NA 
HETATM   25  C   UNL     1      -8.005  19.908  65.893  1.00  0.00    -0.276 A  
HETATM   26  C   UNL     1      -9.063  19.122  66.343  1.00  0.00    -0.343 A  
HETATM   27 CL   UNL     1     -10.657  19.767  66.239  1.00  0.00    -0.588 Cl 
ENDBRANCH  19  20
ENDBRANCH  10  16
ENDBRANCH   3   5
TORSDOF 6
ENDMDL
MODEL       18
REMARK 921   NORMALIZED FREE ENERGY PREDICTED BY IDOCK:   -6.31 KCAL/MOL
REMARK 922        TOTAL FREE ENERGY PREDICTED BY IDOCK:   -9.85 KCAL/MOL
REMARK 923 INTER-LIGAND FREE ENERGY PREDICTED BY IDOCK:   -8.55 KCAL/MOL
REMARK 924 INTRA-LIGAND FREE ENERGY PREDICTED BY IDOCK:   -1.30 KCAL/MOL
REMARK 927      BINDING AFFINITY PREDICTED BY RF-SCORE:    0.00 PKD
ROOT
HETATM    1  F   UNL     1     -12.825  11.618  72.048  1.00  0.00    -0.482 F  
HETATM    2  C   UNL     1     -12.346  11.003  70.938  1.00  0.00    -0.402 C  
HETATM    3  O   UNL     1     -12.716  11.769  69.804  1.00  0.00     0.071 OA 
HETATM    4  F   UNL     1     -12.979   9.805  70.851  1.00  0.00    -0.366 F  
ENDROOT
BRANCH   3   5
HETATM    5  C   UNL     1     -11.802  12.716  69.419  1.00  0.00    -0.296 A  
HETATM    6  C   UNL     1     -12.057  14.041  69.825  1.00  0.00    -0.348 A  
HETATM    7  C   UNL     1      -9.781  13.443  68.300  1.00  0.00    -0.226 A  
HETATM    8  C   UNL     1     -11.180  15.063  69.445  1.00  0.00    -0.299 A  
HETATM    9  C   UNL     1     -10.647  12.418  68.687  1.00  0.00    -0.243 A  
HETATM   10  C   UNL     1     -10.059  14.766  68.655  1.00  0.00    -0.238 A  
BRANCH   6  11
HETATM   11  O   UNL     1     -13.172  14.222  70.600  1.00  0.00    -0.300 OA 
BRANCH  11  12
HETATM   12  C   UNL     1     -13.310  15.466  71.283  1.00  0.00    -0.520 C  
BRANCH  12  13
HETATM   13  C   UNL     1     -13.334  15.182  72.757  1.00  0.00    -0.596 C  
HETATM   14  C   UNL     1     -12.056  14.871  73.495  1.00  0.00    -0.436 C  
HETATM   15  C   UNL     1     -12.771  16.169  73.748  1.00  0.00    -0.684 C  
ENDBRANCH  12  13
ENDBRANCH  11  12
ENDBRANCH   6  11
BRANCH  10  16
HETATM   16  C   UNL     1      -9.178  15.850  68.130  1.00  0.00    -0.190 C  
HETATM   17  O   UNL     1      -8.737  15.776  66.991  1.00  0.00    -0.192 OA 
HETATM   18  H   UNL     1      -9.401  16.864  69.934  1.00  0.00     0.000 HD 
HETATM   19  N   UNL     1      -9.085  16.950  68.968  1.00  0.00    -0.224 N  
BRANCH  19  20
HETATM   20  C   UNL     1      -8.562  18.196  68.519  1.00  0.00    -0.294 A  
HETATM   21  C   UNL     1      -7.207  18.462  68.776  1.00  0.00    -0.284 A  
HETATM   22  C   UNL     1      -6.668  19.669  68.356  1.00  0.00    -0.288 A  
HETATM   23 CL   UNL     1      -6.213  17.346  69.640  1.00  0.00    -0.252 Cl 
HETATM   24  N   UNL     1      -7.368  20.609  67.685  1.00  0.00    -0.308 NA 
HETATM   25  C   UNL     1      -8.666  20.319  67.418  1.00  0.00    -0.341 A  
HETATM   26  C   UNL     1      -9.306  19.144  67.803  1.00  0.00    -0.305 A  
HETATM   27 CL   UNL     1     -10.909  18.867  67.234  1.00  0.00    -0.511 Cl 
ENDBRANCH  19  20
ENDBRANCH  10  16
ENDBRANCH   3   5
TORSDOF 6
ENDMDL
MODEL       19
REMARK 921   NORMALIZED FREE ENERGY PREDICTED BY IDOCK:   -6.30 KCAL/MOL
REMARK 922        TOTAL FREE ENERGY PREDICTED BY IDOCK:   -9.84 KCAL/MOL
REMARK 923 INTER-LIGAND FREE ENERGY PREDICTED BY IDOCK:   -8.78 KCAL/MOL
REMARK 924 INTRA-LIGAND FREE ENERGY PREDICTED BY IDOCK:   -1.06 KCAL/MOL
REMARK 927      BINDING AFFINITY PREDICTED BY RF-SCORE:    0.00 PKD
ROOT
HETATM    1  F   UNL     1     -11.679  11.544  70.626  1.00  0.00    -0.403 F  
HETATM    2  C   UNL     1     -11.531  11.616  69.280  1.00  0.00    -0.300 C  
HETATM    3  O   UNL     1     -12.282  12.720  68.803  1.00  0.00    -0.188 OA 
HETATM    4  F   UNL     1     -12.084  10.488  68.765  1.00  0.00    -0.294 F  
ENDROOT
BRANCH   3   5
HETATM    5  C   UNL     1     -11.594  13.904  68.731  1.00  0.00    -0.335 A  
HETATM    6  C   UNL     1     -11.871  14.857  69.731  1.00  0.00    -0.315 A  
HETATM    7  C   UNL     1     -10.002  15.422  67.720  1.00  0.00    -0.225 A  
HETATM    8  C   UNL     1     -11.225  16.098  69.705  1.00  0.00    -0.343 A  
HETATM    9  C   UNL     1     -10.635  14.179  67.750  1.00  0.00    -0.243 A  
HETATM   10  C   UNL     1     -10.314  16.390  68.679  1.00  0.00    -0.273 A  
BRANCH   6  11
HETATM   11  O   UNL     1     -12.769  14.468  70.691  1.00  0.00    -0.338 OA 
BRANCH  11  12
HETATM   12  C   UNL     1     -13.769  15.406  71.082  1.00  0.00    -0.417 C  
BRANCH  12  13
HETATM   13  C   UNL     1     -13.680  15.582  72.570  1.00  0.00    -0.668 C  
HETATM   14  C   UNL     1     -12.816  14.663  73.396  1.00  0.00    -0.526 C  
HETATM   15  C   UNL     1     -12.422  16.103  73.218  1.00  0.00    -0.642 C  
ENDBRANCH  12  13
ENDBRANCH  11  12
ENDBRANCH   6  11
BRANCH  10  16
HETATM   16  C   UNL     1      -9.706  17.747  68.553  1.00  0.00    -0.343 C  
HETATM   17  O   UNL     1     -10.194  18.690  69.162  1.00  0.00    -0.315 OA 
HETATM   18  H   UNL     1      -8.244  16.944  67.308  1.00  0.00     0.000 HD 
HETATM   19  N   UNL     1      -8.504  17.760  67.863  1.00  0.00    -0.240 N  
BRANCH  19  20
HETATM   20  C   UNL     1      -7.623  18.877  67.905  1.00  0.00    -0.259 A  
HETATM   21  C   UNL     1      -7.942  19.988  67.106  1.00  0.00    -0.316 A  
HETATM   22  C   UNL     1      -7.102  21.090  67.121  1.00  0.00    -0.317 A  
HETATM   23 CL   UNL     1      -9.326  19.992  66.074  1.00  0.00    -0.417 Cl 
HETATM   24  N   UNL     1      -5.991  21.175  67.885  1.00  0.00    -0.343 NA 
HETATM   25  C   UNL     1      -5.718  20.107  68.674  1.00  0.00    -0.250 A  
HETATM   26  C   UNL     1      -6.489  18.948  68.727  1.00  0.00    -0.252 A  
HETATM   27 CL   UNL     1      -6.091  17.760  69.909  1.00  0.00    -0.213 Cl 
ENDBRANCH  19  20
ENDBRANCH  10  16
ENDBRANCH   3   5
TORSDOF 6
ENDMDL
MODEL       20
REMARK 921   NORMALIZED FREE ENERGY PREDICTED BY IDOCK:   -6.30 KCAL/MOL
REMARK 922        TOTAL FREE ENERGY PREDICTED BY IDOCK:   -9.84 KCAL/MOL
REMARK 923 INTER-LIGAND FREE ENERGY PREDICTED BY IDOCK:   -8.61 KCAL/MOL
REMARK 924 INTRA-LIGAND FREE ENERGY PREDICTED BY IDOCK:   -1.23 KCAL/MOL
REMARK 927      BINDING AFFINITY PREDICTED BY RF-SCORE:    0.00 PKD
ROOT
HETATM    1  F   UNL     1     -13.823   7.652  71.306  1.00  0.00    -0.391 F  
HETATM    2  C   UNL     1     -13.857   8.808  72.014  1.00  0.00    -0.451 C  
HETATM    3  O   UNL     1     -12.536   9.314  72.112  1.00  0.00    -0.374 OA 
HETATM    4  F   UNL     1     -14.269   8.487  73.267  1.00  0.00    -0.104 F  
ENDROOT
BRANCH   3   5
HETATM    5  C   UNL     1     -12.170  10.181  71.115  1.00  0.00    -0.389 A  
HETATM    6  C   UNL     1     -11.271   9.688  70.149  1.00  0.00    -0.256 A  
HETATM    7  C   UNL     1     -12.218  12.321  69.984  1.00  0.00    -0.267 A  
HETATM    8  C   UNL     1     -10.833  10.526  69.117  1.00  0.00    -0.277 A  
HETATM    9  C   UNL     1     -12.666  11.485  71.008  1.00  0.00    -0.426 A  
HETATM   10  C   UNL     1     -11.284  11.853  69.055  1.00  0.00    -0.316 A  
BRANCH   6  11
HETATM   11  O   UNL     1     -10.899   8.377  70.296  1.00  0.00    -0.236 OA 
BRANCH  11  12
HETATM   12  C   UNL     1     -10.901   7.553  69.132  1.00  0.00    -0.088 C  
BRANCH  12  13
HETATM   13  C   UNL     1     -11.280   6.164  69.552  1.00  0.00    -0.482 C  
HETATM   14  C   UNL     1     -10.235   5.080  69.635  1.00  0.00    -0.306 C  
HETATM   15  C   UNL     1     -10.862   5.614  70.892  1.00  0.00    -0.294 C  
ENDBRANCH  12  13
ENDBRANCH  11  12
ENDBRANCH   6  11
BRANCH  10  16
HETATM   16  C   UNL     1     -10.740  12.805  68.043  1.00  0.00    -0.230 C  
HETATM   17  O   UNL     1      -9.734  12.511  67.413  1.00  0.00    -0.190 OA 
HETATM   18  H   UNL     1     -12.319  14.098  68.453  1.00  0.00     0.000 HD 
HETATM   19  N   UNL     1     -11.563  13.894  67.800  1.00  0.00    -0.326 N  
BRANCH  19  20
HETATM   20  C   UNL     1     -11.383  14.735  66.665  1.00  0.00    -0.347 A  
HETATM   21  C   UNL     1     -10.634  15.910  66.839  1.00  0.00    -0.309 A  
HETATM   22  C   UNL     1     -10.444  16.753  65.755  1.00  0.00    -0.292 A  
HETATM   23 CL   UNL     1      -9.986  16.351  68.377  1.00  0.00    -0.231 Cl 
HETATM   24  N   UNL     1     -10.922  16.500  64.516  1.00  0.00    -0.845 NA 
HETATM   25  C   UNL     1     -11.613  15.344  64.361  1.00  0.00    -0.264 A  
HETATM   26  C   UNL     1     -11.870  14.435  65.385  1.00  0.00    -0.366 A  
HETATM   27 CL   UNL     1     -12.618  12.938  64.975  1.00  0.00    -0.551 Cl 
ENDBRANCH  19  20
ENDBRANCH  10  16
ENDBRANCH   3   5
TORSDOF 6
ENDMDL
MODEL       21
REMARK 921   NORMALIZED FREE ENERGY PREDICTED BY IDOCK:   -6.29 KCAL/MOL
REMARK 922        TOTAL FREE ENERGY PREDICTED BY IDOCK:   -9.82 KCAL/MOL
REMARK 923 INTER-LIGAND FREE ENERGY PREDICTED BY IDOCK:   -8.60 KCAL/MOL
REMARK 924 INTRA-LIGAND FREE ENERGY PREDICTED BY IDOCK:   -1.22 KCAL/MOL
REMARK 927      BINDING AFFINITY PREDICTED BY RF-SCORE:    0.00 PKD
ROOT
HETATM    1  F   UNL     1     -11.205  19.150  67.168  1.00  0.00    -0.509 F  
HETATM    2  C   UNL     1     -10.182  18.575  67.848  1.00  0.00    -0.384 C  
HETATM    3  O   UNL     1     -10.724  17.701  68.823  1.00  0.00    -0.257 OA 
HETATM    4  F   UNL     1      -9.537  19.575  68.502  1.00  0.00    -0.375 F  
ENDROOT
BRANCH   3   5
HETATM    5  C   UNL     1     -10.899  16.406  68.410  1.00  0.00    -0.342 A  
HETATM    6  C   UNL     1     -11.664  15.574  69.252  1.00  0.00    -0.365 A  
HETATM    7  C   UNL     1     -10.579  14.563  66.873  1.00  0.00    -0.279 A  
HETATM    8  C   UNL     1     -11.863  14.232  68.907  1.00  0.00    -0.372 A  
HETATM    9  C   UNL     1     -10.389  15.905  67.208  1.00  0.00    -0.293 A  
HETATM   10  C   UNL     1     -11.292  13.721  67.731  1.00  0.00    -0.331 A  
BRANCH   6  11
HETATM   11  O   UNL     1     -12.184  16.173  70.370  1.00  0.00    -0.212 OA 
BRANCH  11  12
HETATM   12  C   UNL     1     -11.635  15.808  71.634  1.00  0.00    -0.457 C  
BRANCH  12  13
HETATM   13  C   UNL     1     -12.770  15.414  72.532  1.00  0.00    -0.480 C  
HETATM   14  C   UNL     1     -14.136  15.135  71.959  1.00  0.00    -0.659 C  
HETATM   15  C   UNL     1     -13.317  14.008  72.524  1.00  0.00    -0.639 C  
ENDBRANCH  12  13
ENDBRANCH  11  12
ENDBRANCH   6  11
BRANCH  10  16
HETATM   16  C   UNL     1     -11.380  12.268  67.402  1.00  0.00    -0.325 C  
HETATM   17  O   UNL     1     -12.235  11.873  66.621  1.00  0.00    -0.493 OA 
HETATM   18  H   UNL     1      -9.737  11.920  68.632  1.00  0.00     0.000 HD 
HETATM   19  N   UNL     1     -10.332  11.515  67.910  1.00  0.00    -0.179 N  
BRANCH  19  20
HETATM   20  C   UNL     1     -10.063  10.194  67.453  1.00  0.00    -0.205 A  
HETATM   21  C   UNL     1     -10.432   9.128  68.291  1.00  0.00    -0.208 A  
HETATM   22  C   UNL     1     -10.180   7.830  67.877  1.00  0.00    -0.206 A  
HETATM   23 CL   UNL     1     -11.145   9.400  69.840  1.00  0.00    -0.242 Cl 
HETATM   24  N   UNL     1      -9.615   7.517  66.690  1.00  0.00    -0.198 NA 
HETATM   25  C   UNL     1      -9.298   8.558  65.881  1.00  0.00    -0.163 A  
HETATM   26  C   UNL     1      -9.499   9.898  66.204  1.00  0.00    -0.200 A  
HETATM   27 CL   UNL     1      -9.194  11.082  64.990  1.00  0.00    -0.228 Cl 
ENDBRANCH  19  20
ENDBRANCH  10  16
ENDBRANCH   3   5
TORSDOF 6
ENDMDL
MODEL       22
REMARK 921   NORMALIZED FREE ENERGY PREDICTED BY IDOCK:   -6.25 KCAL/MOL
REMARK 922        TOTAL FREE ENERGY PREDICTED BY IDOCK:   -9.76 KCAL/MOL
REMARK 923 INTER-LIGAND FREE ENERGY PREDICTED BY IDOCK:   -8.78 KCAL/MOL
REMARK 924 INTRA-LIGAND FREE ENERGY PREDICTED BY IDOCK:   -0.98 KCAL/MOL
REMARK 927      BINDING AFFINITY PREDICTED BY RF-SCORE:    0.00 PKD
ROOT
HETATM    1  F   UNL     1     -12.278  11.854  70.100  1.00  0.00    -0.341 F  
HETATM    2  C   UNL     1     -11.519  11.490  69.037  1.00  0.00    -0.291 C  
HETATM    3  O   UNL     1     -12.077  12.065  67.868  1.00  0.00    -0.531 OA 
HETATM    4  F   UNL     1     -11.625  10.141  68.924  1.00  0.00    -0.254 F  
ENDROOT
BRANCH   3   5
HETATM    5  C   UNL     1     -11.582  13.298  67.532  1.00  0.00    -0.346 A  
HETATM    6  C   UNL     1     -11.633  13.648  66.168  1.00  0.00    -0.347 A  
HETATM    7  C   UNL     1     -10.553  15.429  68.044  1.00  0.00    -0.263 A  
HETATM    8  C   UNL     1     -11.121  14.881  65.749  1.00  0.00    -0.342 A  
HETATM    9  C   UNL     1     -11.073  14.204  68.468  1.00  0.00    -0.276 A  
HETATM   10  C   UNL     1     -10.552  15.757  66.686  1.00  0.00    -0.307 A  
BRANCH   6  11
HETATM   11  O   UNL     1     -12.216  12.726  65.338  1.00  0.00    -0.444 OA 
BRANCH  11  12
HETATM   12  C   UNL     1     -11.974  12.847  63.938  1.00  0.00    -0.480 C  
BRANCH  12  13
HETATM   13  C   UNL     1     -11.274  11.600  63.482  1.00  0.00    -0.462 C  
HETATM   14  C   UNL     1      -9.788  11.608  63.230  1.00  0.00    -0.428 C  
HETATM   15  C   UNL     1     -10.345  10.849  64.401  1.00  0.00    -0.430 C  
ENDBRANCH  12  13
ENDBRANCH  11  12
ENDBRANCH   6  11
BRANCH  10  16
HETATM   16  C   UNL     1      -9.886  17.020  66.253  1.00  0.00    -0.294 C  
HETATM   17  O   UNL     1     -10.422  17.734  65.416  1.00  0.00    -0.641 OA 
HETATM   18  H   UNL     1      -8.344  16.633  67.597  1.00  0.00     0.000 HD 
HETATM   19  N   UNL     1      -8.764  17.345  67.000  1.00  0.00    -0.227 N  
BRANCH  19  20
HETATM   20  C   UNL     1      -8.182  18.644  66.958  1.00  0.00    -0.253 A  
HETATM   21  C   UNL     1      -8.806  19.661  67.698  1.00  0.00    -0.320 A  
HETATM   22  C   UNL     1      -8.266  20.938  67.674  1.00  0.00     0.033 A  
HETATM   23 CL   UNL     1     -10.252  19.370  68.596  1.00  0.00    -0.499 Cl 
HETATM   24  N   UNL     1      -7.147  21.266  66.992  1.00  0.00    -0.458 NA 
HETATM   25  C   UNL     1      -6.540  20.262  66.311  1.00  0.00    -0.224 A  
HETATM   26  C   UNL     1      -7.004  18.950  66.261  1.00  0.00    -0.233 A  
HETATM   27 CL   UNL     1      -6.018  17.768  65.487  1.00  0.00    -0.122 Cl 
ENDBRANCH  19  20
ENDBRANCH  10  16
ENDBRANCH   3   5
TORSDOF 6
ENDMDL
MODEL       23
REMARK 921   NORMALIZED FREE ENERGY PREDICTED BY IDOCK:   -6.23 KCAL/MOL
REMARK 922        TOTAL FREE ENERGY PREDICTED BY IDOCK:   -9.74 KCAL/MOL
REMARK 923 INTER-LIGAND FREE ENERGY PREDICTED BY IDOCK:   -8.68 KCAL/MOL
REMARK 924 INTRA-LIGAND FREE ENERGY PREDICTED BY IDOCK:   -1.07 KCAL/MOL
REMARK 927      BINDING AFFINITY PREDICTED BY RF-SCORE:    0.00 PKD
ROOT
HETATM    1  F   UNL     1      -9.711  16.530  67.249  1.00  0.00    -0.234 F  
HETATM    2  C   UNL     1     -10.583  16.722  68.270  1.00  0.00    -0.352 C  
HETATM    3  O   UNL     1     -11.751  15.961  68.013  1.00  0.00    -0.245 OA 
HETATM    4  F   UNL     1     -10.931  18.034  68.245  1.00  0.00    -0.313 F  
ENDROOT
BRANCH   3   5
HETATM    5  C   UNL     1     -11.745  14.693  68.534  1.00  0.00    -0.316 A  
HETATM    6  C   UNL     1     -11.596  13.634  67.615  1.00  0.00    -0.346 A  
HETATM    7  C   UNL     1     -11.871  13.101  70.354  1.00  0.00    -0.259 A  
HETATM    8  C   UNL     1     -11.608  12.312  68.074  1.00  0.00    -0.408 A  
HETATM    9  C   UNL     1     -11.848  14.422  69.902  1.00  0.00    -0.382 A  
HETATM   10  C   UNL     1     -11.778  12.047  69.441  1.00  0.00    -0.402 A  
BRANCH   6  11
HETATM   11  O   UNL     1     -11.428  14.001  66.306  1.00  0.00    -0.330 OA 
BRANCH  11  12
HETATM   12  C   UNL     1     -12.520  13.793  65.413  1.00  0.00    -0.500 C  
BRANCH  12  13
HETATM   13  C   UNL     1     -11.966  13.268  64.121  1.00  0.00    -0.505 C  
HETATM   14  C   UNL     1     -11.298  11.917  64.071  1.00  0.00    -0.475 C  
HETATM   15  C   UNL     1     -12.628  12.120  63.400  1.00  0.00    -0.584 C  
ENDBRANCH  12  13
ENDBRANCH  11  12
ENDBRANCH   6  11
BRANCH  10  16
HETATM   16  C   UNL     1     -11.921  10.649  69.942  1.00  0.00    -0.310 C  
HETATM   17  O   UNL     1     -12.989  10.278  70.410  1.00  0.00    -0.272 OA 
HETATM   18  H   UNL     1      -9.957  10.272  69.364  1.00  0.00     0.000 HD 
HETATM   19  N   UNL     1     -10.832   9.839  69.659  1.00  0.00    -0.240 N  
BRANCH  19  20
HETATM   20  C   UNL     1     -10.900   8.421  69.767  1.00  0.00    -0.183 A  
HETATM   21  C   UNL     1     -10.765   7.671  68.587  1.00  0.00    -0.059 A  
HETATM   22  C   UNL     1     -10.832   6.289  68.658  1.00  0.00    -0.333 A  
HETATM   23 CL   UNL     1     -10.568   8.432  67.049  1.00  0.00    -0.370 Cl 
HETATM   24  N   UNL     1     -10.996   5.604  69.811  1.00  0.00    -0.315 NA 
HETATM   25  C   UNL     1     -11.090   6.344  70.943  1.00  0.00    -0.298 A  
HETATM   26  C   UNL     1     -11.047   7.736  70.981  1.00  0.00    -0.257 A  
HETATM   27 CL   UNL     1     -11.011   8.506  72.522  1.00  0.00    -0.391 Cl 
ENDBRANCH  19  20
ENDBRANCH  10  16
ENDBRANCH   3   5
TORSDOF 6
ENDMDL
MODEL       24
REMARK 921   NORMALIZED FREE ENERGY PREDICTED BY IDOCK:   -6.20 KCAL/MOL
REMARK 922        TOTAL FREE ENERGY PREDICTED BY IDOCK:   -9.70 KCAL/MOL
REMARK 923 INTER-LIGAND FREE ENERGY PREDICTED BY IDOCK:   -8.37 KCAL/MOL
REMARK 924 INTRA-LIGAND FREE ENERGY PREDICTED BY IDOCK:   -1.33 KCAL/MOL
REMARK 927      BINDING AFFINITY PREDICTED BY RF-SCORE:    0.00 PKD
ROOT
HETATM    1  F   UNL     1     -12.277   6.948  71.927  1.00  0.00    -0.324 F  
HETATM    2  C   UNL     1     -11.613   7.926  72.591  1.00  0.00    -0.377 C  
HETATM    3  O   UNL     1     -10.577   8.414  71.755  1.00  0.00    -0.239 OA 
HETATM    4  F   UNL     1     -11.032   7.342  73.670  1.00  0.00    -0.396 F  
ENDROOT
BRANCH   3   5
HETATM    5  C   UNL     1     -10.921   9.477  70.961  1.00  0.00    -0.353 A  
HETATM    6  C   UNL     1     -10.127   9.692  69.817  1.00  0.00    -0.233 A  
HETATM    7  C   UNL     1     -12.281  11.394  70.383  1.00  0.00    -0.450 A  
HETATM    8  C   UNL     1     -10.404  10.775  68.975  1.00  0.00    -0.235 A  
HETATM    9  C   UNL     1     -12.015  10.309  71.220  1.00  0.00    -0.457 A  
HETATM   10  C   UNL     1     -11.463  11.644  69.278  1.00  0.00    -0.364 A  
BRANCH   6  11
HETATM   11  O   UNL     1      -9.124   8.782  69.608  1.00  0.00    -0.145 OA 
BRANCH  11  12
HETATM   12  C   UNL     1      -9.165   8.015  68.407  1.00  0.00    -0.135 C  
BRANCH  12  13
HETATM   13  C   UNL     1      -9.602   6.624  68.763  1.00  0.00    -0.131 C  
HETATM   14  C   UNL     1     -11.066   6.304  68.928  1.00  0.00    -0.434 C  
HETATM   15  C   UNL     1     -10.305   5.748  67.757  1.00  0.00    -0.266 C  
ENDBRANCH  12  13
ENDBRANCH  11  12
ENDBRANCH   6  11
BRANCH  10  16
HETATM   16  C   UNL     1     -11.704  12.875  68.470  1.00  0.00    -0.339 C  
HETATM   17  O   UNL     1     -12.357  13.795  68.945  1.00  0.00    -0.291 OA 
HETATM   18  H   UNL     1     -10.565  12.055  66.933  1.00  0.00     0.000 HD 
HETATM   19  N   UNL     1     -10.991  12.913  67.282  1.00  0.00    -0.255 N  
BRANCH  19  20
HETATM   20  C   UNL     1     -10.837  14.115  66.534  1.00  0.00    -0.298 A  
HETATM   21  C   UNL     1     -11.652  14.287  65.403  1.00  0.00    -0.346 A  
HETATM   22  C   UNL     1     -11.523  15.444  64.651  1.00  0.00    -0.337 A  
HETATM   23 CL   UNL     1     -12.773  13.073  64.904  1.00  0.00    -0.492 Cl 
HETATM   24  N   UNL     1     -10.667  16.444  64.955  1.00  0.00    -0.705 NA 
HETATM   25  C   UNL     1      -9.912  16.274  66.069  1.00  0.00    -0.345 A  
HETATM   26  C   UNL     1      -9.956  15.148  66.887  1.00  0.00    -0.239 A  
HETATM   27 CL   UNL     1      -9.053  15.172  68.354  1.00  0.00    -0.179 Cl 
ENDBRANCH  19  20
ENDBRANCH  10  16
ENDBRANCH   3   5
TORSDOF 6
ENDMDL
MODEL       25
REMARK 921   NORMALIZED FREE ENERGY PREDICTED BY IDOCK:   -6.12 KCAL/MOL
REMARK 922        TOTAL FREE ENERGY PREDICTED BY IDOCK:   -9.59 KCAL/MOL
REMARK 923 INTER-LIGAND FREE ENERGY PREDICTED BY IDOCK:   -8.46 KCAL/MOL
REMARK 924 INTRA-LIGAND FREE ENERGY PREDICTED BY IDOCK:   -1.13 KCAL/MOL
REMARK 927      BINDING AFFINITY PREDICTED BY RF-SCORE:    0.00 PKD
ROOT
HETATM    1  F   UNL     1     -12.268   6.352  70.245  1.00  0.00    -0.440 F  
HETATM    2  C   UNL     1     -12.076   7.193  71.290  1.00  0.00    -0.348 C  
HETATM    3  O   UNL     1     -10.938   7.995  71.020  1.00  0.00    -0.233 OA 
HETATM    4  F   UNL     1     -11.788   6.419  72.368  1.00  0.00    -0.315 F  
ENDROOT
BRANCH   3   5
HETATM    5  C   UNL     1     -11.200   9.181  70.385  1.00  0.00    -0.240 A  
HETATM    6  C   UNL     1     -10.725   9.308  69.065  1.00  0.00    -0.167 A  
HETATM    7  C   UNL     1     -12.120  11.418  70.273  1.00  0.00    -0.459 A  
HETATM    8  C   UNL     1     -10.933  10.502  68.364  1.00  0.00    -0.310 A  
HETATM    9  C   UNL     1     -11.925  10.224  70.970  1.00  0.00    -0.483 A  
HETATM   10  C   UNL     1     -11.603  11.567  68.983  1.00  0.00    -0.383 A  
BRANCH   6  11
HETATM   11  O   UNL     1     -10.091   8.206  68.551  1.00  0.00    -0.189 OA 
BRANCH  11  12
HETATM   12  C   UNL     1     -10.461   7.778  67.243  1.00  0.00    -0.322 C  
BRANCH  12  13
HETATM   13  C   UNL     1     -10.947   6.362  67.340  1.00  0.00    -0.463 C  
HETATM   14  C   UNL     1     -10.401   5.302  66.418  1.00  0.00    -0.315 C  
HETATM   15  C   UNL     1     -10.059   5.270  67.881  1.00  0.00    -0.208 C  
ENDBRANCH  12  13
ENDBRANCH  11  12
ENDBRANCH   6  11
BRANCH  10  16
HETATM   16  C   UNL     1     -11.729  12.893  68.309  1.00  0.00    -0.350 C  
HETATM   17  O   UNL     1     -12.309  13.810  68.875  1.00  0.00    -0.291 OA 
HETATM   18  H   UNL     1     -10.643  12.144  66.699  1.00  0.00     0.000 HD 
HETATM   19  N   UNL     1     -11.000  12.994  67.134  1.00  0.00    -0.264 N  
BRANCH  19  20
HETATM   20  C   UNL     1     -10.735  14.250  66.518  1.00  0.00    -0.297 A  
HETATM   21  C   UNL     1      -9.729  15.052  67.083  1.00  0.00    -0.226 A  
HETATM   22  C   UNL     1      -9.451  16.283  66.509  1.00  0.00    -0.264 A  
HETATM   23 CL   UNL     1      -8.869  14.563  68.497  1.00  0.00    -0.180 Cl 
HETATM   24  N   UNL     1     -10.078  16.758  65.411  1.00  0.00    -0.596 NA 
HETATM   25  C   UNL     1     -11.022  15.954  64.861  1.00  0.00    -0.411 A  
HETATM   26  C   UNL     1     -11.385  14.707  65.363  1.00  0.00    -0.344 A  
HETATM   27 CL   UNL     1     -12.482  13.748  64.443  1.00  0.00    -0.359 Cl 
ENDBRANCH  19  20
ENDBRANCH  10  16
ENDBRANCH   3   5
TORSDOF 6
ENDMDL
MODEL       26
REMARK 921   NORMALIZED FREE ENERGY PREDICTED BY IDOCK:   -6.11 KCAL/MOL
REMARK 922        TOTAL FREE ENERGY PREDICTED BY IDOCK:   -9.58 KCAL/MOL
REMARK 923 INTER-LIGAND FREE ENERGY PREDICTED BY IDOCK:   -8.30 KCAL/MOL
REMARK 924 INTRA-LIGAND FREE ENERGY PREDICTED BY IDOCK:   -1.28 KCAL/MOL
REMARK 927      BINDING AFFINITY PREDICTED BY RF-SCORE:    0.00 PKD
ROOT
HETATM    1  F   UNL     1     -10.645   5.384  67.550  1.00  0.00    -0.236 F  
HETATM    2  C   UNL     1     -10.950   6.041  68.696  1.00  0.00    -0.284 C  
HETATM    3  O   UNL     1      -9.959   7.027  68.928  1.00  0.00    -0.154 OA 
HETATM    4  F   UNL     1     -10.870   5.131  69.701  1.00  0.00    -0.345 F  
ENDROOT
BRANCH   3   5
HETATM    5  C   UNL     1     -10.230   8.261  68.397  1.00  0.00    -0.209 A  
HETATM    6  C   UNL     1     -10.605   9.271  69.306  1.00  0.00    -0.222 A  
HETATM    7  C   UNL     1     -10.450   9.826  66.562  1.00  0.00    -0.212 A  
HETATM    8  C   UNL     1     -10.921  10.549  68.831  1.00  0.00    -0.291 A  
HETATM    9  C   UNL     1     -10.122   8.553  67.033  1.00  0.00    -0.347 A  
HETATM   10  C   UNL     1     -10.874  10.815  67.455  1.00  0.00    -0.345 A  
BRANCH   6  11
HETATM   11  O   UNL     1     -10.611   8.909  70.628  1.00  0.00    -0.207 OA 
BRANCH  11  12
HETATM   12  C   UNL     1     -11.581   9.516  71.477  1.00  0.00    -0.395 C  
BRANCH  12  13
HETATM   13  C   UNL     1     -12.320   8.422  72.190  1.00  0.00    -0.426 C  
HETATM   14  C   UNL     1     -13.029   7.346  71.408  1.00  0.00    -0.403 C  
HETATM   15  C   UNL     1     -11.797   7.008  72.199  1.00  0.00    -0.314 C  
ENDBRANCH  12  13
ENDBRANCH  11  12
ENDBRANCH   6  11
BRANCH  10  16
HETATM   16  C   UNL     1     -11.327  12.128  66.908  1.00  0.00    -0.343 C  
HETATM   17  O   UNL     1     -12.356  12.639  67.330  1.00  0.00    -0.322 OA 
HETATM   18  H   UNL     1      -9.635  12.174  65.697  1.00  0.00     0.000 HD 
HETATM   19  N   UNL     1     -10.406  12.730  66.065  1.00  0.00    -0.271 N  
BRANCH  19  20
HETATM   20  C   UNL     1     -10.506  14.103  65.699  1.00  0.00    -0.321 A  
HETATM   21  C   UNL     1     -11.319  14.424  64.599  1.00  0.00    -0.371 A  
HETATM   22  C   UNL     1     -11.433  15.751  64.213  1.00  0.00    -0.198 A  
HETATM   23 CL   UNL     1     -12.136  13.205  63.690  1.00  0.00    -0.582 Cl 
HETATM   24  N   UNL     1     -10.823  16.773  64.853  1.00  0.00    -0.698 NA 
HETATM   25  C   UNL     1     -10.071  16.445  65.933  1.00  0.00    -0.347 A  
HETATM   26  C   UNL     1      -9.881  15.146  66.396  1.00  0.00    -0.280 A  
HETATM   27 CL   UNL     1      -9.033  14.927  67.880  1.00  0.00    -0.173 Cl 
ENDBRANCH  19  20
ENDBRANCH  10  16
ENDBRANCH   3   5
TORSDOF 6
ENDMDL
MODEL       27
REMARK 921   NORMALIZED FREE ENERGY PREDICTED BY IDOCK:   -6.11 KCAL/MOL
REMARK 922        TOTAL FREE ENERGY PREDICTED BY IDOCK:   -9.58 KCAL/MOL
REMARK 923 INTER-LIGAND FREE ENERGY PREDICTED BY IDOCK:   -8.48 KCAL/MOL
REMARK 924 INTRA-LIGAND FREE ENERGY PREDICTED BY IDOCK:   -1.10 KCAL/MOL
REMARK 927      BINDING AFFINITY PREDICTED BY RF-SCORE:    0.00 PKD
ROOT
HETATM    1  F   UNL     1     -10.495   5.485  67.656  1.00  0.00    -0.201 F  
HETATM    2  C   UNL     1     -11.015   6.126  68.732  1.00  0.00    -0.348 C  
HETATM    3  O   UNL     1     -10.128   7.166  69.108  1.00  0.00    -0.174 OA 
HETATM    4  F   UNL     1     -11.049   5.225  69.746  1.00  0.00    -0.328 F  
ENDROOT
BRANCH   3   5
HETATM    5  C   UNL     1     -10.376   8.382  68.527  1.00  0.00    -0.200 A  
HETATM    6  C   UNL     1     -10.843   9.404  69.377  1.00  0.00    -0.189 A  
HETATM    7  C   UNL     1     -10.469   9.901  66.643  1.00  0.00    -0.239 A  
HETATM    8  C   UNL     1     -11.142  10.664  68.847  1.00  0.00    -0.314 A  
HETATM    9  C   UNL     1     -10.159   8.646  67.170  1.00  0.00    -0.329 A  
HETATM   10  C   UNL     1     -10.984  10.901  67.473  1.00  0.00    -0.352 A  
BRANCH   6  11
HETATM   11  O   UNL     1     -10.953   9.072  70.702  1.00  0.00    -0.234 OA 
BRANCH  11  12
HETATM   12  C   UNL     1     -11.913   9.778  71.485  1.00  0.00    -0.407 C  
BRANCH  12  13
HETATM   13  C   UNL     1     -12.712   8.768  72.255  1.00  0.00    -0.466 C  
HETATM   14  C   UNL     1     -14.182   8.584  71.975  1.00  0.00    -0.535 C  
HETATM   15  C   UNL     1     -13.208   7.503  71.600  1.00  0.00    -0.404 C  
ENDBRANCH  12  13
ENDBRANCH  11  12
ENDBRANCH   6  11
BRANCH  10  16
HETATM   16  C   UNL     1     -11.413  12.192  66.860  1.00  0.00    -0.351 C  
HETATM   17  O   UNL     1     -12.531  12.632  67.090  1.00  0.00    -0.236 OA 
HETATM   18  H   UNL     1      -9.536  12.361  65.976  1.00  0.00     0.000 HD 
HETATM   19  N   UNL     1     -10.395  12.863  66.201  1.00  0.00    -0.270 N  
BRANCH  19  20
HETATM   20  C   UNL     1     -10.513  14.232  65.828  1.00  0.00    -0.316 A  
HETATM   21  C   UNL     1      -9.744  15.168  66.539  1.00  0.00    -0.271 A  
HETATM   22  C   UNL     1      -9.840  16.510  66.204  1.00  0.00    -0.332 A  
HETATM   23 CL   UNL     1      -8.721  14.694  67.846  1.00  0.00    -0.163 Cl 
HETATM   24  N   UNL     1     -10.621  16.980  65.206  1.00  0.00    -0.655 NA 
HETATM   25  C   UNL     1     -11.331  16.056  64.511  1.00  0.00    -0.295 A  
HETATM   26  C   UNL     1     -11.314  14.689  64.772  1.00  0.00    -0.396 A  
HETATM   27 CL   UNL     1     -12.144  13.643  63.682  1.00  0.00    -0.468 Cl 
ENDBRANCH  19  20
ENDBRANCH  10  16
ENDBRANCH   3   5
TORSDOF 6
ENDMDL
MODEL       28
REMARK 921   NORMALIZED FREE ENERGY PREDICTED BY IDOCK:   -6.10 KCAL/MOL
REMARK 922        TOTAL FREE ENERGY PREDICTED BY IDOCK:   -9.57 KCAL/MOL
REMARK 923 INTER-LIGAND FREE ENERGY PREDICTED BY IDOCK:   -8.59 KCAL/MOL
REMARK 924 INTRA-LIGAND FREE ENERGY PREDICTED BY IDOCK:   -0.97 KCAL/MOL
REMARK 927      BINDING AFFINITY PREDICTED BY RF-SCORE:    0.00 PKD
ROOT
HETATM    1  F   UNL     1     -10.129  15.165  64.881  1.00  0.00    -0.373 F  
HETATM    2  C   UNL     1     -10.399  15.533  66.158  1.00  0.00    -0.315 C  
HETATM    3  O   UNL     1     -11.649  14.978  66.532  1.00  0.00    -0.302 OA 
HETATM    4  F   UNL     1     -10.533  16.884  66.155  1.00  0.00    -0.307 F  
ENDROOT
BRANCH   3   5
HETATM    5  C   UNL     1     -11.583  13.743  67.124  1.00  0.00    -0.364 A  
HETATM    6  C   UNL     1     -11.859  13.691  68.505  1.00  0.00    -0.371 A  
HETATM    7  C   UNL     1     -11.207  11.352  67.105  1.00  0.00    -0.363 A  
HETATM    8  C   UNL     1     -11.785  12.468  69.182  1.00  0.00    -0.375 A  
HETATM    9  C   UNL     1     -11.292  12.567  66.425  1.00  0.00    -0.379 A  
HETATM   10  C   UNL     1     -11.428  11.304  68.485  1.00  0.00    -0.372 A  
BRANCH   6  11
HETATM   11  O   UNL     1     -12.207  14.882  69.088  1.00  0.00    -0.250 OA 
BRANCH  11  12
HETATM   12  C   UNL     1     -11.948  15.039  70.481  1.00  0.00    -0.308 C  
BRANCH  12  13
HETATM   13  C   UNL     1     -13.256  15.308  71.166  1.00  0.00    -0.567 C  
HETATM   14  C   UNL     1     -13.812  14.323  72.163  1.00  0.00    -0.589 C  
HETATM   15  C   UNL     1     -13.310  15.661  72.631  1.00  0.00    -0.623 C  
ENDBRANCH  12  13
ENDBRANCH  11  12
ENDBRANCH   6  11
BRANCH  10  16
HETATM   16  C   UNL     1     -11.218  10.012  69.201  1.00  0.00    -0.149 C  
HETATM   17  O   UNL     1     -11.015   8.989  68.562  1.00  0.00    -0.073 OA 
HETATM   18  H   UNL     1     -11.397  11.022  71.013  1.00  0.00     0.000 HD 
HETATM   19  N   UNL     1     -11.106  10.147  70.577  1.00  0.00    -0.313 N  
BRANCH  19  20
HETATM   20  C   UNL     1     -10.597   9.100  71.397  1.00  0.00    -0.341 A  
HETATM   21  C   UNL     1      -9.214   8.860  71.361  1.00  0.00    -0.258 A  
HETATM   22  C   UNL     1      -8.688   7.845  72.144  1.00  0.00    -0.142 A  
HETATM   23 CL   UNL     1      -8.165   9.765  70.331  1.00  0.00    -0.192 Cl 
HETATM   24  N   UNL     1      -9.429   7.075  72.971  1.00  0.00    -0.144 NA 
HETATM   25  C   UNL     1     -10.757   7.345  73.017  1.00  0.00    -0.364 A  
HETATM   26  C   UNL     1     -11.387   8.333  72.265  1.00  0.00    -0.378 A  
HETATM   27 CL   UNL     1     -13.052   8.651  72.573  1.00  0.00    -0.384 Cl 
ENDBRANCH  19  20
ENDBRANCH  10  16
ENDBRANCH   3   5
TORSDOF 6
ENDMDL
MODEL       29
REMARK 921   NORMALIZED FREE ENERGY PREDICTED BY IDOCK:   -6.07 KCAL/MOL
REMARK 922        TOTAL FREE ENERGY PREDICTED BY IDOCK:   -9.53 KCAL/MOL
REMARK 923 INTER-LIGAND FREE ENERGY PREDICTED BY IDOCK:   -8.43 KCAL/MOL
REMARK 924 INTRA-LIGAND FREE ENERGY PREDICTED BY IDOCK:   -1.10 KCAL/MOL
REMARK 927      BINDING AFFINITY PREDICTED BY RF-SCORE:    0.00 PKD
ROOT
HETATM    1  F   UNL     1     -12.159  16.446  72.714  1.00  0.00    -0.518 F  
HETATM    2  C   UNL     1     -13.284  15.699  72.839  1.00  0.00    -0.532 C  
HETATM    3  O   UNL     1     -13.628  15.187  71.563  1.00  0.00    -0.402 OA 
HETATM    4  F   UNL     1     -14.274  16.545  73.224  1.00  0.00    -0.537 F  
ENDROOT
BRANCH   3   5
HETATM    5  C   UNL     1     -13.097  13.958  71.267  1.00  0.00    -0.315 A  
HETATM    6  C   UNL     1     -12.226  13.896  70.161  1.00  0.00    -0.358 A  
HETATM    7  C   UNL     1     -12.807  11.582  71.633  1.00  0.00    -0.475 A  
HETATM    8  C   UNL     1     -11.668  12.669  69.785  1.00  0.00    -0.354 A  
HETATM    9  C   UNL     1     -13.356  12.806  72.018  1.00  0.00    -0.565 A  
HETATM   10  C   UNL     1     -11.986  11.507  70.504  1.00  0.00    -0.439 A  
BRANCH   6  11
HETATM   11  O   UNL     1     -11.975  15.089  69.534  1.00  0.00    -0.303 OA 
BRANCH  11  12
HETATM   12  C   UNL     1     -11.726  15.060  68.130  1.00  0.00    -0.312 C  
BRANCH  12  13
HETATM   13  C   UNL     1     -10.478  15.850  67.867  1.00  0.00    -0.288 C  
HETATM   14  C   UNL     1     -10.086  16.984  68.781  1.00  0.00    -0.307 C  
HETATM   15  C   UNL     1      -9.272  15.720  68.763  1.00  0.00    -0.216 C  
ENDBRANCH  12  13
ENDBRANCH  11  12
ENDBRANCH   6  11
BRANCH  10  16
HETATM   16  C   UNL     1     -11.508  10.167  70.052  1.00  0.00    -0.277 C  
HETATM   17  O   UNL     1     -11.207   9.994  68.879  1.00  0.00    -0.209 OA 
HETATM   18  H   UNL     1     -11.674   9.480  72.011  1.00  0.00     0.000 HD 
HETATM   19  N   UNL     1     -11.290   9.272  71.089  1.00  0.00    -0.311 N  
BRANCH  19  20
HETATM   20  C   UNL     1     -10.547   8.072  70.903  1.00  0.00    -0.213 A  
HETATM   21  C   UNL     1     -11.256   6.859  70.924  1.00  0.00    -0.289 A  
HETATM   22  C   UNL     1     -10.561   5.672  70.752  1.00  0.00    -0.265 A  
HETATM   23 CL   UNL     1     -12.958   6.810  71.207  1.00  0.00    -0.304 Cl 
HETATM   24  N   UNL     1      -9.229   5.607  70.537  1.00  0.00    -0.147 NA 
HETATM   25  C   UNL     1      -8.569   6.791  70.486  1.00  0.00    -0.142 A  
HETATM   26  C   UNL     1      -9.168   8.036  70.658  1.00  0.00    -0.154 A  
HETATM   27 CL   UNL     1      -8.209   9.443  70.394  1.00  0.00    -0.194 Cl 
ENDBRANCH  19  20
ENDBRANCH  10  16
ENDBRANCH   3   5
TORSDOF 6
ENDMDL
MODEL       30
REMARK 921   NORMALIZED FREE ENERGY PREDICTED BY IDOCK:   -6.04 KCAL/MOL
REMARK 922        TOTAL FREE ENERGY PREDICTED BY IDOCK:   -9.48 KCAL/MOL
REMARK 923 INTER-LIGAND FREE ENERGY PREDICTED BY IDOCK:   -8.23 KCAL/MOL
REMARK 924 INTRA-LIGAND FREE ENERGY PREDICTED BY IDOCK:   -1.26 KCAL/MOL
REMARK 927      BINDING AFFINITY PREDICTED BY RF-SCORE:    0.00 PKD
ROOT
HETATM    1  F   UNL     1     -12.036  16.376  73.001  1.00  0.00    -0.538 F  
HETATM    2  C   UNL     1     -13.169  15.631  72.984  1.00  0.00    -0.562 C  
HETATM    3  O   UNL     1     -13.513  15.365  71.635  1.00  0.00    -0.437 OA 
HETATM    4  F   UNL     1     -14.152  16.403  73.516  1.00  0.00    -0.523 F  
ENDROOT
BRANCH   3   5
HETATM    5  C   UNL     1     -12.994  14.205  71.120  1.00  0.00    -0.349 A  
HETATM    6  C   UNL     1     -12.299  14.312  69.899  1.00  0.00    -0.324 A  
HETATM    7  C   UNL     1     -12.574  11.821  71.154  1.00  0.00    -0.412 A  
HETATM    8  C   UNL     1     -11.765  13.165  69.302  1.00  0.00    -0.376 A  
HETATM    9  C   UNL     1     -13.098  12.965  71.759  1.00  0.00    -0.458 A  
HETATM   10  C   UNL     1     -11.932  11.914  69.917  1.00  0.00    -0.398 A  
BRANCH   6  11
HETATM   11  O   UNL     1     -12.185  15.579  69.388  1.00  0.00    -0.312 OA 
BRANCH  11  12
HETATM   12  C   UNL     1     -10.880  16.147  69.310  1.00  0.00    -0.310 C  
BRANCH  12  13
HETATM   13  C   UNL     1     -10.667  16.622  67.902  1.00  0.00    -0.344 C  
HETATM   14  C   UNL     1      -9.432  16.217  67.139  1.00  0.00    -0.231 C  
HETATM   15  C   UNL     1     -10.774  15.672  66.736  1.00  0.00    -0.300 C  
ENDBRANCH  12  13
ENDBRANCH  11  12
ENDBRANCH   6  11
BRANCH  10  16
HETATM   16  C   UNL     1     -11.485  10.660  69.243  1.00  0.00    -0.281 C  
HETATM   17  O   UNL     1     -11.728  10.488  68.057  1.00  0.00    -0.450 OA 
HETATM   18  H   UNL     1     -10.613  10.046  71.031  1.00  0.00     0.000 HD 
HETATM   19  N   UNL     1     -10.663   9.866  70.028  1.00  0.00    -0.270 N  
BRANCH  19  20
HETATM   20  C   UNL     1      -9.888   8.807  69.476  1.00  0.00    -0.180 A  
HETATM   21  C   UNL     1      -8.594   9.115  69.026  1.00  0.00    -0.133 A  
HETATM   22  C   UNL     1      -7.815   8.107  68.478  1.00  0.00    -0.118 A  
HETATM   23 CL   UNL     1      -7.970  10.723  69.095  1.00  0.00    -0.147 Cl 
HETATM   24  N   UNL     1      -8.220   6.822  68.370  1.00  0.00    -0.119 NA 
HETATM   25  C   UNL     1      -9.459   6.539  68.841  1.00  0.00    -0.129 A  
HETATM   26  C   UNL     1     -10.325   7.477  69.399  1.00  0.00    -0.213 A  
HETATM   27 CL   UNL     1     -11.794   6.912  70.099  1.00  0.00    -0.315 Cl 
ENDBRANCH  19  20
ENDBRANCH  10  16
ENDBRANCH   3   5
TORSDOF 6
ENDMDL
MODEL       31
REMARK 921   NORMALIZED FREE ENERGY PREDICTED BY IDOCK:   -5.92 KCAL/MOL
REMARK 922        TOTAL FREE ENERGY PREDICTED BY IDOCK:   -9.32 KCAL/MOL
REMARK 923 INTER-LIGAND FREE ENERGY PREDICTED BY IDOCK:   -8.21 KCAL/MOL
REMARK 924 INTRA-LIGAND FREE ENERGY PREDICTED BY IDOCK:   -1.11 KCAL/MOL
REMARK 927      BINDING AFFINITY PREDICTED BY RF-SCORE:    0.00 PKD
ROOT
HETATM    1  F   UNL     1     -12.529  14.317  64.017  1.00  0.00    -0.476 F  
HETATM    2  C   UNL     1     -11.522  14.809  64.781  1.00  0.00    -0.410 C  
HETATM    3  O   UNL     1     -11.945  14.810  66.134  1.00  0.00    -0.281 OA 
HETATM    4  F   UNL     1     -11.340  16.100  64.404  1.00  0.00    -0.490 F  
ENDROOT
BRANCH   3   5
HETATM    5  C   UNL     1     -11.644  13.674  66.839  1.00  0.00    -0.367 A  
HETATM    6  C   UNL     1     -11.722  13.764  68.244  1.00  0.00    -0.359 A  
HETATM    7  C   UNL     1     -10.974  11.355  67.021  1.00  0.00    -0.347 A  
HETATM    8  C   UNL     1     -11.403  12.650  69.029  1.00  0.00    -0.345 A  
HETATM    9  C   UNL     1     -11.303  12.460  66.235  1.00  0.00    -0.388 A  
HETATM   10  C   UNL     1     -10.998  11.455  68.415  1.00  0.00    -0.263 A  
BRANCH   6  11
HETATM   11  O   UNL     1     -12.137  14.972  68.741  1.00  0.00    -0.272 OA 
BRANCH  11  12
HETATM   12  C   UNL     1     -11.415  15.519  69.842  1.00  0.00    -0.327 C  
BRANCH  12  13
HETATM   13  C   UNL     1     -12.400  15.837  70.928  1.00  0.00    -0.451 C  
HETATM   14  C   UNL     1     -12.665  14.844  72.031  1.00  0.00    -0.394 C  
HETATM   15  C   UNL     1     -11.941  16.126  72.335  1.00  0.00    -0.649 C  
ENDBRANCH  12  13
ENDBRANCH  11  12
ENDBRANCH   6  11
BRANCH  10  16
HETATM   16  C   UNL     1     -10.531  10.293  69.227  1.00  0.00    -0.228 C  
HETATM   17  O   UNL     1      -9.416  10.312  69.730  1.00  0.00    -0.191 OA 
HETATM   18  H   UNL     1     -12.374   9.376  68.919  1.00  0.00     0.000 HD 
HETATM   19  N   UNL     1     -11.517   9.350  69.471  1.00  0.00     0.059 N  
BRANCH  19  20
HETATM   20  C   UNL     1     -11.367   8.346  70.470  1.00  0.00    -0.216 A  
HETATM   21  C   UNL     1     -12.052   8.528  71.683  1.00  0.00    -0.321 A  
HETATM   22  C   UNL     1     -11.923   7.570  72.677  1.00  0.00    -0.110 A  
HETATM   23 CL   UNL     1     -13.008   9.934  71.980  1.00  0.00    -0.517 Cl 
HETATM   24  N   UNL     1     -11.189   6.444  72.543  1.00  0.00    -0.264 NA 
HETATM   25  C   UNL     1     -10.563   6.271  71.352  1.00  0.00    -0.237 A  
HETATM   26  C   UNL     1     -10.618   7.174  70.294  1.00  0.00    -0.227 A  
HETATM   27 CL   UNL     1      -9.902   6.715  68.796  1.00  0.00    -0.136 Cl 
ENDBRANCH  19  20
ENDBRANCH  10  16
ENDBRANCH   3   5
TORSDOF 6
ENDMDL
MODEL       32
REMARK 921   NORMALIZED FREE ENERGY PREDICTED BY IDOCK:   -5.91 KCAL/MOL
REMARK 922        TOTAL FREE ENERGY PREDICTED BY IDOCK:   -9.30 KCAL/MOL
REMARK 923 INTER-LIGAND FREE ENERGY PREDICTED BY IDOCK:   -8.17 KCAL/MOL
REMARK 924 INTRA-LIGAND FREE ENERGY PREDICTED BY IDOCK:   -1.13 KCAL/MOL
REMARK 927      BINDING AFFINITY PREDICTED BY RF-SCORE:    0.00 PKD
ROOT
HETATM    1  F   UNL     1     -12.027  15.206  71.848  1.00  0.00    -0.342 F  
HETATM    2  C   UNL     1     -13.148  14.680  71.295  1.00  0.00    -0.359 C  
HETATM    3  O   UNL     1     -12.764  13.799  70.253  1.00  0.00    -0.265 OA 
HETATM    4  F   UNL     1     -13.828  15.712  70.733  1.00  0.00    -0.479 F  
ENDROOT
BRANCH   3   5
HETATM    5  C   UNL     1     -12.590  12.492  70.630  1.00  0.00    -0.155 A  
HETATM    6  C   UNL     1     -11.735  11.712  69.827  1.00  0.00    -0.352 A  
HETATM    7  C   UNL     1     -12.990  10.583  72.065  1.00  0.00    -0.490 A  
HETATM    8  C   UNL     1     -11.531  10.363  70.137  1.00  0.00    -0.396 A  
HETATM    9  C   UNL     1     -13.187  11.932  71.765  1.00  0.00    -0.426 A  
HETATM   10  C   UNL     1     -12.186   9.792  71.239  1.00  0.00    -0.465 A  
BRANCH   6  11
HETATM   11  O   UNL     1     -11.138  12.368  68.781  1.00  0.00    -0.237 OA 
BRANCH  11  12
HETATM   12  C   UNL     1     -11.396  11.888  67.464  1.00  0.00    -0.314 C  
BRANCH  12  13
HETATM   13  C   UNL     1     -11.351  13.060  66.529  1.00  0.00    -0.359 C  
HETATM   14  C   UNL     1     -12.444  13.266  65.511  1.00  0.00    -0.531 C  
HETATM   15  C   UNL     1     -12.317  14.209  66.674  1.00  0.00    -0.375 C  
ENDBRANCH  12  13
ENDBRANCH  11  12
ENDBRANCH   6  11
BRANCH  10  16
HETATM   16  C   UNL     1     -12.088   8.330  71.520  1.00  0.00    -0.299 C  
HETATM   17  O   UNL     1     -13.104   7.650  71.564  1.00  0.00    -0.340 OA 
HETATM   18  H   UNL     1     -10.016   8.514  71.599  1.00  0.00     0.000 HD 
HETATM   19  N   UNL     1     -10.788   7.850  71.538  1.00  0.00    -0.226 N  
BRANCH  19  20
HETATM   20  C   UNL     1     -10.498   6.457  71.474  1.00  0.00    -0.219 A  
HETATM   21  C   UNL     1     -10.334   5.771  72.689  1.00  0.00    -0.198 A  
HETATM   22  C   UNL     1     -10.047   4.415  72.661  1.00  0.00    -0.173 A  
HETATM   23 CL   UNL     1     -10.433   6.584  74.208  1.00  0.00    -0.302 Cl 
HETATM   24  N   UNL     1      -9.937   3.695  71.523  1.00  0.00    -0.153 NA 
HETATM   25  C   UNL     1     -10.132   4.369  70.362  1.00  0.00    -0.104 A  
HETATM   26  C   UNL     1     -10.414   5.730  70.278  1.00  0.00    -0.280 A  
HETATM   27 CL   UNL     1     -10.800   6.387  68.733  1.00  0.00    -0.335 Cl 
ENDBRANCH  19  20
ENDBRANCH  10  16
ENDBRANCH   3   5
TORSDOF 6
ENDMDL
MODEL       33
REMARK 921   NORMALIZED FREE ENERGY PREDICTED BY IDOCK:   -5.91 KCAL/MOL
REMARK 922        TOTAL FREE ENERGY PREDICTED BY IDOCK:   -9.30 KCAL/MOL
REMARK 923 INTER-LIGAND FREE ENERGY PREDICTED BY IDOCK:   -8.25 KCAL/MOL
REMARK 924 INTRA-LIGAND FREE ENERGY PREDICTED BY IDOCK:   -1.05 KCAL/MOL
REMARK 927      BINDING AFFINITY PREDICTED BY RF-SCORE:    0.00 PKD
ROOT
HETATM    1  F   UNL     1      -9.014  18.724  66.675  1.00  0.00    -0.274 F  
HETATM    2  C   UNL     1     -10.165  18.106  66.313  1.00  0.00    -0.395 C  
HETATM    3  O   UNL     1      -9.841  17.001  65.486  1.00  0.00    -0.551 OA 
HETATM    4  F   UNL     1     -10.865  18.993  65.560  1.00  0.00    -0.523 F  
ENDROOT
BRANCH   3   5
HETATM    5  C   UNL     1      -9.659  15.814  66.146  1.00  0.00    -0.332 A  
HETATM    6  C   UNL     1     -10.511  14.752  65.782  1.00  0.00    -0.334 A  
HETATM    7  C   UNL     1      -8.568  14.387  67.770  1.00  0.00    -0.171 A  
HETATM    8  C   UNL     1     -10.398  13.518  66.433  1.00  0.00    -0.289 A  
HETATM    9  C   UNL     1      -8.669  15.616  67.115  1.00  0.00    -0.233 A  
HETATM   10  C   UNL     1      -9.446  13.348  67.450  1.00  0.00    -0.222 A  
BRANCH   6  11
HETATM   11  O   UNL     1     -11.398  15.020  64.773  1.00  0.00    -0.402 OA 
BRANCH  11  12
HETATM   12  C   UNL     1     -12.525  14.158  64.635  1.00  0.00    -0.350 C  
BRANCH  12  13
HETATM   13  C   UNL     1     -12.328  13.335  63.396  1.00  0.00    -0.402 C  
HETATM   14  C   UNL     1     -11.298  12.235  63.367  1.00  0.00    -0.508 C  
HETATM   15  C   UNL     1     -12.761  11.891  63.344  1.00  0.00    -0.496 C  
ENDBRANCH  12  13
ENDBRANCH  11  12
ENDBRANCH   6  11
BRANCH  10  16
HETATM   16  C   UNL     1      -9.387  12.088  68.247  1.00  0.00    -0.197 C  
HETATM   17  O   UNL     1      -8.395  11.838  68.917  1.00  0.00    -0.062 OA 
HETATM   18  H   UNL     1     -11.310  11.623  67.597  1.00  0.00     0.000 HD 
HETATM   19  N   UNL     1     -10.583  11.387  68.273  1.00  0.00    -0.185 N  
BRANCH  19  20
HETATM   20  C   UNL     1     -10.826  10.347  69.215  1.00  0.00    -0.241 A  
HETATM   21  C   UNL     1     -11.623  10.653  70.330  1.00  0.00    -0.351 A  
HETATM   22  C   UNL     1     -11.874   9.664  71.268  1.00  0.00    -0.381 A  
HETATM   23 CL   UNL     1     -12.256  12.239  70.583  1.00  0.00    -0.445 Cl 
HETATM   24  N   UNL     1     -11.414   8.398  71.165  1.00  0.00    -0.269 NA 
HETATM   25  C   UNL     1     -10.674   8.114  70.064  1.00  0.00    -0.243 A  
HETATM   26  C   UNL     1     -10.355   9.034  69.069  1.00  0.00    -0.219 A  
HETATM   27 CL   UNL     1      -9.550   8.461  67.658  1.00  0.00    -0.176 Cl 
ENDBRANCH  19  20
ENDBRANCH  10  16
ENDBRANCH   3   5
TORSDOF 6
ENDMDL
MODEL       34
REMARK 921   NORMALIZED FREE ENERGY PREDICTED BY IDOCK:   -5.90 KCAL/MOL
REMARK 922        TOTAL FREE ENERGY PREDICTED BY IDOCK:   -9.29 KCAL/MOL
REMARK 923 INTER-LIGAND FREE ENERGY PREDICTED BY IDOCK:   -8.21 KCAL/MOL
REMARK 924 INTRA-LIGAND FREE ENERGY PREDICTED BY IDOCK:   -1.08 KCAL/MOL
REMARK 927      BINDING AFFINITY PREDICTED BY RF-SCORE:    0.00 PKD
ROOT
HETATM    1  F   UNL     1     -10.471  18.831  66.563  1.00  0.00    -0.378 F  
HETATM    2  C   UNL     1     -10.180  18.510  67.848  1.00  0.00    -0.384 C  
HETATM    3  O   UNL     1     -11.140  17.573  68.306  1.00  0.00    -0.212 OA 
HETATM    4  F   UNL     1     -10.328  19.644  68.578  1.00  0.00    -0.481 F  
ENDROOT
BRANCH   3   5
HETATM    5  C   UNL     1     -10.803  16.257  68.121  1.00  0.00    -0.342 A  
HETATM    6  C   UNL     1     -11.201  15.357  69.130  1.00  0.00    -0.287 A  
HETATM    7  C   UNL     1      -9.790  14.435  66.890  1.00  0.00    -0.263 A  
HETATM    8  C   UNL     1     -10.869  14.002  69.020  1.00  0.00    -0.268 A  
HETATM    9  C   UNL     1     -10.129  15.786  66.990  1.00  0.00    -0.261 A  
HETATM   10  C   UNL     1     -10.135  13.549  67.914  1.00  0.00    -0.248 A  
BRANCH   6  11
HETATM   11  O   UNL     1     -11.921  15.900  70.162  1.00  0.00    -0.344 OA 
BRANCH  11  12
HETATM   12  C   UNL     1     -13.077  15.194  70.608  1.00  0.00    -0.337 C  
BRANCH  12  13
HETATM   13  C   UNL     1     -13.345  15.598  72.028  1.00  0.00    -0.543 C  
HETATM   14  C   UNL     1     -12.914  14.712  73.168  1.00  0.00    -0.605 C  
HETATM   15  C   UNL     1     -12.224  16.028  72.940  1.00  0.00    -0.621 C  
ENDBRANCH  12  13
ENDBRANCH  11  12
ENDBRANCH   6  11
BRANCH  10  16
HETATM   16  C   UNL     1      -9.658  12.137  67.832  1.00  0.00    -0.198 C  
HETATM   17  O   UNL     1      -8.495  11.872  68.102  1.00  0.00    -0.149 OA 
HETATM   18  H   UNL     1     -11.582  11.550  67.293  1.00  0.00     0.000 HD 
HETATM   19  N   UNL     1     -10.672  11.217  67.610  1.00  0.00    -0.212 N  
BRANCH  19  20
HETATM   20  C   UNL     1     -10.478   9.821  67.811  1.00  0.00    -0.246 A  
HETATM   21  C   UNL     1     -10.081   9.053  66.703  1.00  0.00    -0.285 A  
HETATM   22  C   UNL     1      -9.888   7.690  66.865  1.00  0.00    -0.234 A  
HETATM   23 CL   UNL     1      -9.874   9.758  65.141  1.00  0.00    -0.365 Cl 
HETATM   24  N   UNL     1     -10.037   7.046  68.043  1.00  0.00    -0.161 NA 
HETATM   25  C   UNL     1     -10.388   7.810  69.108  1.00  0.00    -0.215 A  
HETATM   26  C   UNL     1     -10.616   9.183  69.052  1.00  0.00    -0.199 A  
HETATM   27 CL   UNL     1     -10.888  10.023  70.531  1.00  0.00    -0.373 Cl 
ENDBRANCH  19  20
ENDBRANCH  10  16
ENDBRANCH   3   5
TORSDOF 6
ENDMDL
MODEL       35
REMARK 921   NORMALIZED FREE ENERGY PREDICTED BY IDOCK:   -5.85 KCAL/MOL
REMARK 922        TOTAL FREE ENERGY PREDICTED BY IDOCK:   -9.23 KCAL/MOL
REMARK 923 INTER-LIGAND FREE ENERGY PREDICTED BY IDOCK:   -8.11 KCAL/MOL
REMARK 924 INTRA-LIGAND FREE ENERGY PREDICTED BY IDOCK:   -1.12 KCAL/MOL
REMARK 927      BINDING AFFINITY PREDICTED BY RF-SCORE:    0.00 PKD
ROOT
HETATM    1  F   UNL     1     -10.963  19.750  67.114  1.00  0.00    -0.560 F  
HETATM    2  C   UNL     1     -10.778  19.315  65.843  1.00  0.00    -0.372 C  
HETATM    3  O   UNL     1      -9.773  18.315  65.851  1.00  0.00    -0.516 OA 
HETATM    4  F   UNL     1     -10.304  20.371  65.134  1.00  0.00    -0.417 F  
ENDROOT
BRANCH   3   5
HETATM    5  C   UNL     1     -10.231  17.032  66.000  1.00  0.00    -0.325 A  
HETATM    6  C   UNL     1     -10.117  16.467  67.286  1.00  0.00    -0.270 A  
HETATM    7  C   UNL     1     -11.226  14.981  65.183  1.00  0.00    -0.391 A  
HETATM    8  C   UNL     1     -10.540  15.151  67.505  1.00  0.00    -0.269 A  
HETATM    9  C   UNL     1     -10.816  16.298  64.963  1.00  0.00    -0.337 A  
HETATM   10  C   UNL     1     -11.065  14.399  66.443  1.00  0.00    -0.326 A  
BRANCH   6  11
HETATM   11  O   UNL     1      -9.600  17.288  68.254  1.00  0.00    -0.267 OA 
BRANCH  11  12
HETATM   12  C   UNL     1      -8.278  17.019  68.714  1.00  0.00    -0.245 C  
BRANCH  12  13
HETATM   13  C   UNL     1      -7.412  18.186  68.339  1.00  0.00    -0.287 C  
HETATM   14  C   UNL     1      -7.717  19.564  68.869  1.00  0.00    -0.369 C  
HETATM   15  C   UNL     1      -6.495  18.831  69.347  1.00  0.00    -0.285 C  
ENDBRANCH  12  13
ENDBRANCH  11  12
ENDBRANCH   6  11
BRANCH  10  16
HETATM   16  C   UNL     1     -11.406  12.956  66.616  1.00  0.00    -0.317 C  
HETATM   17  O   UNL     1     -12.396  12.496  66.065  1.00  0.00    -0.615 OA 
HETATM   18  H   UNL     1      -9.700  12.724  67.787  1.00  0.00     0.000 HD 
HETATM   19  N   UNL     1     -10.430  12.226  67.277  1.00  0.00    -0.216 N  
BRANCH  19  20
HETATM   20  C   UNL     1     -10.416  10.803  67.264  1.00  0.00    -0.237 A  
HETATM   21  C   UNL     1      -9.780  10.168  66.184  1.00  0.00    -0.218 A  
HETATM   22  C   UNL     1      -9.754   8.783  66.139  1.00  0.00    -0.250 A  
HETATM   23 CL   UNL     1      -9.073  11.070  64.893  1.00  0.00    -0.195 Cl 
HETATM   24  N   UNL     1     -10.289   7.992  67.095  1.00  0.00    -0.298 NA 
HETATM   25  C   UNL     1     -10.869   8.623  68.145  1.00  0.00     0.043 A  
HETATM   26  C   UNL     1     -10.959  10.006  68.282  1.00  0.00    -0.227 A  
HETATM   27 CL   UNL     1     -11.579  10.639  69.760  1.00  0.00    -0.346 Cl 
ENDBRANCH  19  20
ENDBRANCH  10  16
ENDBRANCH   3   5
TORSDOF 6
ENDMDL
MODEL       36
REMARK 921   NORMALIZED FREE ENERGY PREDICTED BY IDOCK:   -5.82 KCAL/MOL
REMARK 922        TOTAL FREE ENERGY PREDICTED BY IDOCK:   -9.18 KCAL/MOL
REMARK 923 INTER-LIGAND FREE ENERGY PREDICTED BY IDOCK:   -8.08 KCAL/MOL
REMARK 924 INTRA-LIGAND FREE ENERGY PREDICTED BY IDOCK:   -1.10 KCAL/MOL
REMARK 927      BINDING AFFINITY PREDICTED BY RF-SCORE:    0.00 PKD
ROOT
HETATM    1  F   UNL     1     -10.708  13.878  64.561  1.00  0.00    -0.376 F  
HETATM    2  C   UNL     1     -10.811  14.399  65.808  1.00  0.00    -0.307 C  
HETATM    3  O   UNL     1     -11.874  13.747  66.482  1.00  0.00    -0.362 OA 
HETATM    4  F   UNL     1     -11.157  15.704  65.659  1.00  0.00    -0.321 F  
ENDROOT
BRANCH   3   5
HETATM    5  C   UNL     1     -11.512  12.638  67.204  1.00  0.00    -0.346 A  
HETATM    6  C   UNL     1     -11.768  12.676  68.589  1.00  0.00    -0.325 A  
HETATM    7  C   UNL     1     -10.569  10.420  67.434  1.00  0.00    -0.321 A  
HETATM    8  C   UNL     1     -11.401  11.590  69.392  1.00  0.00    -0.355 A  
HETATM    9  C   UNL     1     -10.945  11.496  66.628  1.00  0.00    -0.349 A  
HETATM   10  C   UNL     1     -10.772  10.476  68.816  1.00  0.00    -0.249 A  
BRANCH   6  11
HETATM   11  O   UNL     1     -12.394  13.806  69.048  1.00  0.00    -0.302 OA 
BRANCH  11  12
HETATM   12  C   UNL     1     -12.015  14.299  70.331  1.00  0.00    -0.332 C  
BRANCH  12  13
HETATM   13  C   UNL     1     -13.267  14.527  71.126  1.00  0.00    -0.423 C  
HETATM   14  C   UNL     1     -13.671  13.557  72.208  1.00  0.00    -0.700 C  
HETATM   15  C   UNL     1     -13.204  14.939  72.575  1.00  0.00    -0.499 C  
ENDBRANCH  12  13
ENDBRANCH  11  12
ENDBRANCH   6  11
BRANCH  10  16
HETATM   16  C   UNL     1     -10.257   9.360  69.663  1.00  0.00    -0.212 C  
HETATM   17  O   UNL     1      -9.386   9.581  70.494  1.00  0.00    -0.252 OA 
HETATM   18  H   UNL     1     -11.601   8.072  68.731  1.00  0.00     0.000 HD 
HETATM   19  N   UNL     1     -10.968   8.179  69.524  1.00  0.00    -0.119 N  
BRANCH  19  20
HETATM   20  C   UNL     1     -10.841   7.109  70.456  1.00  0.00    -0.246 A  
HETATM   21  C   UNL     1      -9.981   6.051  70.118  1.00  0.00    -0.178 A  
HETATM   22  C   UNL     1      -9.839   4.993  71.002  1.00  0.00    -0.198 A  
HETATM   23 CL   UNL     1      -9.138   6.015  68.613  1.00  0.00    -0.117 Cl 
HETATM   24  N   UNL     1     -10.466   4.925  72.197  1.00  0.00    -0.206 NA 
HETATM   25  C   UNL     1     -11.265   5.972  72.520  1.00  0.00    -0.290 A  
HETATM   26  C   UNL     1     -11.485   7.077  71.701  1.00  0.00    -0.266 A  
HETATM   27 CL   UNL     1     -12.396   8.393  72.339  1.00  0.00    -0.430 Cl 
ENDBRANCH  19  20
ENDBRANCH  10  16
ENDBRANCH   3   5
TORSDOF 6
ENDMDL
MODEL       37
REMARK 921   NORMALIZED FREE ENERGY PREDICTED BY IDOCK:   -5.81 KCAL/MOL
REMARK 922        TOTAL FREE ENERGY PREDICTED BY IDOCK:   -9.17 KCAL/MOL
REMARK 923 INTER-LIGAND FREE ENERGY PREDICTED BY IDOCK:   -8.09 KCAL/MOL
REMARK 924 INTRA-LIGAND FREE ENERGY PREDICTED BY IDOCK:   -1.08 KCAL/MOL
REMARK 927      BINDING AFFINITY PREDICTED BY RF-SCORE:    0.00 PKD
ROOT
HETATM    1  F   UNL     1     -10.310  19.711  67.367  1.00  0.00    -0.443 F  
HETATM    2  C   UNL     1     -10.443  19.155  66.138  1.00  0.00    -0.477 C  
HETATM    3  O   UNL     1      -9.553  18.055  66.043  1.00  0.00    -0.499 OA 
HETATM    4  F   UNL     1     -10.039  20.091  65.240  1.00  0.00    -0.337 F  
ENDROOT
BRANCH   3   5
HETATM    5  C   UNL     1     -10.081  16.846  66.415  1.00  0.00    -0.322 A  
HETATM    6  C   UNL     1      -9.800  16.412  67.726  1.00  0.00    -0.239 A  
HETATM    7  C   UNL     1     -11.361  14.830  66.017  1.00  0.00    -0.332 A  
HETATM    8  C   UNL     1     -10.285  15.175  68.166  1.00  0.00    -0.227 A  
HETATM    9  C   UNL     1     -10.889  16.068  65.579  1.00  0.00    -0.301 A  
HETATM   10  C   UNL     1     -11.039  14.371  67.298  1.00  0.00    -0.318 A  
BRANCH   6  11
HETATM   11  O   UNL     1      -9.064  17.276  68.494  1.00  0.00    -0.257 OA 
BRANCH  11  12
HETATM   12  C   UNL     1      -7.751  16.870  68.875  1.00  0.00    -0.237 C  
BRANCH  12  13
HETATM   13  C   UNL     1      -6.798  17.959  68.475  1.00  0.00    -0.236 C  
HETATM   14  C   UNL     1      -7.238  19.401  68.490  1.00  0.00    -0.356 C  
HETATM   15  C   UNL     1      -6.235  18.913  69.498  1.00  0.00    -0.290 C  
ENDBRANCH  12  13
ENDBRANCH  11  12
ENDBRANCH   6  11
BRANCH  10  16
HETATM   16  C   UNL     1     -11.461  12.995  67.695  1.00  0.00    -0.324 C  
HETATM   17  O   UNL     1     -12.078  12.297  66.902  1.00  0.00    -0.583 OA 
HETATM   18  H   UNL     1     -10.534  13.274  69.537  1.00  0.00     0.000 HD 
HETATM   19  N   UNL     1     -10.943  12.581  68.912  1.00  0.00    -0.240 N  
BRANCH  19  20
HETATM   20  C   UNL     1     -10.965  11.215  69.313  1.00  0.00    -0.247 A  
HETATM   21  C   UNL     1     -11.863  10.850  70.330  1.00  0.00    -0.361 A  
HETATM   22  C   UNL     1     -11.905   9.529  70.747  1.00  0.00    -0.277 A  
HETATM   23 CL   UNL     1     -12.877  12.014  71.102  1.00  0.00    -0.394 Cl 
HETATM   24  N   UNL     1     -11.143   8.549  70.213  1.00  0.00    -0.241 NA 
HETATM   25  C   UNL     1     -10.307   8.915  69.209  1.00  0.00    -0.213 A  
HETATM   26  C   UNL     1     -10.179  10.214  68.724  1.00  0.00    -0.186 A  
HETATM   27 CL   UNL     1      -9.195  10.469  67.333  1.00  0.00    -0.151 Cl 
ENDBRANCH  19  20
ENDBRANCH  10  16
ENDBRANCH   3   5
TORSDOF 6
ENDMDL
MODEL       38
REMARK 921   NORMALIZED FREE ENERGY PREDICTED BY IDOCK:   -5.80 KCAL/MOL
REMARK 922        TOTAL FREE ENERGY PREDICTED BY IDOCK:   -9.15 KCAL/MOL
REMARK 923 INTER-LIGAND FREE ENERGY PREDICTED BY IDOCK:   -8.08 KCAL/MOL
REMARK 924 INTRA-LIGAND FREE ENERGY PREDICTED BY IDOCK:   -1.07 KCAL/MOL
REMARK 927      BINDING AFFINITY PREDICTED BY RF-SCORE:    0.00 PKD
ROOT
HETATM    1  F   UNL     1      -9.320   5.026  66.155  1.00  0.00    -0.132 F  
HETATM    2  C   UNL     1     -10.114   5.337  67.209  1.00  0.00    -0.195 C  
HETATM    3  O   UNL     1      -9.480   6.353  67.966  1.00  0.00    -0.119 OA 
HETATM    4  F   UNL     1     -10.185   4.226  67.986  1.00  0.00    -0.138 F  
ENDROOT
BRANCH   3   5
HETATM    5  C   UNL     1      -9.808   7.635  67.610  1.00  0.00    -0.164 A  
HETATM    6  C   UNL     1     -10.380   8.442  68.614  1.00  0.00    -0.197 A  
HETATM    7  C   UNL     1      -9.970   9.470  66.039  1.00  0.00    -0.348 A  
HETATM    8  C   UNL     1     -10.764   9.754  68.315  1.00  0.00    -0.277 A  
HETATM    9  C   UNL     1      -9.574   8.165  66.337  1.00  0.00    -0.286 A  
HETATM   10  C   UNL     1     -10.587  10.255  67.017  1.00  0.00    -0.302 A  
BRANCH   6  11
HETATM   11  O   UNL     1     -10.501   7.860  69.849  1.00  0.00    -0.220 OA 
BRANCH  11  12
HETATM   12  C   UNL     1     -11.535   8.334  70.708  1.00  0.00    -0.252 C  
BRANCH  12  13
HETATM   13  C   UNL     1     -10.901   8.777  71.993  1.00  0.00    -0.428 C  
HETATM   14  C   UNL     1     -10.423   7.759  72.998  1.00  0.00    -0.432 C  
HETATM   15  C   UNL     1      -9.425   8.588  72.238  1.00  0.00    -0.365 C  
ENDBRANCH  12  13
ENDBRANCH  11  12
ENDBRANCH   6  11
BRANCH  10  16
HETATM   16  C   UNL     1     -11.101  11.604  66.635  1.00  0.00    -0.307 C  
HETATM   17  O   UNL     1     -12.086  12.060  67.200  1.00  0.00    -0.587 OA 
HETATM   18  H   UNL     1      -9.538  11.781  65.271  1.00  0.00     0.000 HD 
HETATM   19  N   UNL     1     -10.272  12.291  65.762  1.00  0.00    -0.250 N  
BRANCH  19  20
HETATM   20  C   UNL     1     -10.418  13.688  65.529  1.00  0.00    -0.306 A  
HETATM   21  C   UNL     1      -9.580  14.558  66.248  1.00  0.00    -0.304 A  
HETATM   22  C   UNL     1      -9.700  15.924  66.047  1.00  0.00    -0.343 A  
HETATM   23 CL   UNL     1      -8.444  13.968  67.405  1.00  0.00    -0.195 Cl 
HETATM   24  N   UNL     1     -10.567  16.481  65.174  1.00  0.00    -0.674 NA 
HETATM   25  C   UNL     1     -11.343  15.623  64.465  1.00  0.00    -0.320 A  
HETATM   26  C   UNL     1     -11.310  14.237  64.597  1.00  0.00    -0.373 A  
HETATM   27 CL   UNL     1     -12.242  13.293  63.498  1.00  0.00    -0.568 Cl 
ENDBRANCH  19  20
ENDBRANCH  10  16
ENDBRANCH   3   5
TORSDOF 6
ENDMDL
MODEL       39
REMARK 921   NORMALIZED FREE ENERGY PREDICTED BY IDOCK:   -5.77 KCAL/MOL
REMARK 922        TOTAL FREE ENERGY PREDICTED BY IDOCK:   -9.12 KCAL/MOL
REMARK 923 INTER-LIGAND FREE ENERGY PREDICTED BY IDOCK:   -7.80 KCAL/MOL
REMARK 924 INTRA-LIGAND FREE ENERGY PREDICTED BY IDOCK:   -1.32 KCAL/MOL
REMARK 927      BINDING AFFINITY PREDICTED BY RF-SCORE:    0.00 PKD
ROOT
HETATM    1  F   UNL     1     -12.161  15.929  73.260  1.00  0.00    -0.472 F  
HETATM    2  C   UNL     1     -13.404  15.465  72.980  1.00  0.00    -0.527 C  
HETATM    3  O   UNL     1     -13.419  14.996  71.642  1.00  0.00    -0.349 OA 
HETATM    4  F   UNL     1     -14.244  16.529  73.053  1.00  0.00    -0.409 F  
ENDROOT
BRANCH   3   5
HETATM    5  C   UNL     1     -13.117  13.668  71.488  1.00  0.00    -0.350 A  
HETATM    6  C   UNL     1     -12.201  13.343  70.467  1.00  0.00    -0.352 A  
HETATM    7  C   UNL     1     -13.317  11.323  72.059  1.00  0.00    -0.386 A  
HETATM    8  C   UNL     1     -11.867  12.004  70.235  1.00  0.00    -0.356 A  
HETATM    9  C   UNL     1     -13.644  12.659  72.301  1.00  0.00    -0.508 A  
HETATM   10  C   UNL     1     -12.451  10.993  71.013  1.00  0.00    -0.512 A  
BRANCH   6  11
HETATM   11  O   UNL     1     -11.683  14.405  69.773  1.00  0.00    -0.270 OA 
BRANCH  11  12
HETATM   12  C   UNL     1     -10.643  14.140  68.835  1.00  0.00    -0.239 C  
BRANCH  12  13
HETATM   13  C   UNL     1     -11.211  14.309  67.456  1.00  0.00    -0.322 C  
HETATM   14  C   UNL     1     -10.506  13.715  66.263  1.00  0.00    -0.291 C  
HETATM   15  C   UNL     1     -11.820  13.144  66.717  1.00  0.00    -0.444 C  
ENDBRANCH  12  13
ENDBRANCH  11  12
ENDBRANCH   6  11
BRANCH  10  16
HETATM   16  C   UNL     1     -12.212   9.552  70.707  1.00  0.00    -0.196 C  
HETATM   17  O   UNL     1     -13.149   8.766  70.715  1.00  0.00     0.100 OA 
HETATM   18  H   UNL     1     -10.198   9.982  70.400  1.00  0.00     0.000 HD 
HETATM   19  N   UNL     1     -10.926   9.280  70.267  1.00  0.00    -0.238 N  
BRANCH  19  20
HETATM   20  C   UNL     1     -10.592   8.049  69.634  1.00  0.00    -0.223 A  
HETATM   21  C   UNL     1     -10.316   8.080  68.256  1.00  0.00    -0.197 A  
HETATM   22  C   UNL     1      -9.992   6.898  67.610  1.00  0.00    -0.144 A  
HETATM   23 CL   UNL     1     -10.419   9.543  67.345  1.00  0.00    -0.322 Cl 
HETATM   24  N   UNL     1      -9.899   5.703  68.233  1.00  0.00    -0.134 NA 
HETATM   25  C   UNL     1     -10.136   5.700  69.569  1.00  0.00    -0.225 A  
HETATM   26  C   UNL     1     -10.478   6.827  70.311  1.00  0.00    -0.207 A  
HETATM   27 CL   UNL     1     -10.577   6.673  72.024  1.00  0.00    -0.230 Cl 
ENDBRANCH  19  20
ENDBRANCH  10  16
ENDBRANCH   3   5
TORSDOF 6
ENDMDL
MODEL       40
REMARK 921   NORMALIZED FREE ENERGY PREDICTED BY IDOCK:   -5.75 KCAL/MOL
REMARK 922        TOTAL FREE ENERGY PREDICTED BY IDOCK:   -9.09 KCAL/MOL
REMARK 923 INTER-LIGAND FREE ENERGY PREDICTED BY IDOCK:   -8.27 KCAL/MOL
REMARK 924 INTRA-LIGAND FREE ENERGY PREDICTED BY IDOCK:   -0.83 KCAL/MOL
REMARK 927      BINDING AFFINITY PREDICTED BY RF-SCORE:    0.00 PKD
ROOT
HETATM    1  F   UNL     1      -9.726  18.101  68.329  1.00  0.00    -0.279 F  
HETATM    2  C   UNL     1     -10.722  17.696  67.502  1.00  0.00    -0.290 C  
HETATM    3  O   UNL     1     -10.264  16.578  66.761  1.00  0.00    -0.281 OA 
HETATM    4  F   UNL     1     -10.939  18.710  66.626  1.00  0.00    -0.383 F  
ENDROOT
BRANCH   3   5
HETATM    5  C   UNL     1     -10.525  15.357  67.329  1.00  0.00    -0.282 A  
HETATM    6  C   UNL     1     -11.047  14.364  66.477  1.00  0.00    -0.331 A  
HETATM    7  C   UNL     1     -10.596  13.807  69.187  1.00  0.00    -0.099 A  
HETATM    8  C   UNL     1     -11.361  13.102  66.994  1.00  0.00    -0.349 A  
HETATM    9  C   UNL     1     -10.270  15.063  68.672  1.00  0.00    -0.231 A  
HETATM   10  C   UNL     1     -11.164  12.836  68.357  1.00  0.00    -0.313 A  
BRANCH   6  11
HETATM   11  O   UNL     1     -11.193  14.723  65.162  1.00  0.00    -0.346 OA 
BRANCH  11  12
HETATM   12  C   UNL     1     -12.370  14.294  64.484  1.00  0.00    -0.410 C  
BRANCH  12  13
HETATM   13  C   UNL     1     -11.969  13.261  63.471  1.00  0.00    -0.537 C  
HETATM   14  C   UNL     1     -11.422  11.929  63.916  1.00  0.00    -0.511 C  
HETATM   15  C   UNL     1     -12.780  12.005  63.277  1.00  0.00    -0.437 C  
ENDBRANCH  12  13
ENDBRANCH  11  12
ENDBRANCH   6  11
BRANCH  10  16
HETATM   16  C   UNL     1     -11.607  11.545  68.962  1.00  0.00    -0.318 C  
HETATM   17  O   UNL     1     -12.278  10.764  68.301  1.00  0.00    -0.449 OA 
HETATM   18  H   UNL     1     -10.590  12.048  70.707  1.00  0.00     0.000 HD 
HETATM   19  N   UNL     1     -11.046  11.288  70.203  1.00  0.00    -0.068 N  
BRANCH  19  20
HETATM   20  C   UNL     1     -11.088   9.993  70.794  1.00  0.00    -0.334 A  
HETATM   21  C   UNL     1      -9.960   9.171  70.639  1.00  0.00    -0.248 A  
HETATM   22  C   UNL     1      -9.971   7.903  71.199  1.00  0.00    -0.173 A  
HETATM   23 CL   UNL     1      -8.585   9.683  69.730  1.00  0.00    -0.190 Cl 
HETATM   24  N   UNL     1     -11.004   7.408  71.916  1.00  0.00    -0.229 NA 
HETATM   25  C   UNL     1     -12.070   8.230  72.083  1.00  0.00    -0.367 A  
HETATM   26  C   UNL     1     -12.165   9.516  71.554  1.00  0.00    -0.386 A  
HETATM   27 CL   UNL     1     -13.517  10.482  72.006  1.00  0.00    -0.426 Cl 
ENDBRANCH  19  20
ENDBRANCH  10  16
ENDBRANCH   3   5
TORSDOF 6
ENDMDL
MODEL       41
REMARK 921   NORMALIZED FREE ENERGY PREDICTED BY IDOCK:   -5.74 KCAL/MOL
REMARK 922        TOTAL FREE ENERGY PREDICTED BY IDOCK:   -9.08 KCAL/MOL
REMARK 923 INTER-LIGAND FREE ENERGY PREDICTED BY IDOCK:   -8.02 KCAL/MOL
REMARK 924 INTRA-LIGAND FREE ENERGY PREDICTED BY IDOCK:   -1.06 KCAL/MOL
REMARK 927      BINDING AFFINITY PREDICTED BY RF-SCORE:    0.00 PKD
ROOT
HETATM    1  F   UNL     1     -12.018  16.332  73.005  1.00  0.00    -0.522 F  
HETATM    2  C   UNL     1     -13.016  15.620  72.426  1.00  0.00    -0.448 C  
HETATM    3  O   UNL     1     -13.003  15.878  71.032  1.00  0.00    -0.477 OA 
HETATM    4  F   UNL     1     -14.183  16.105  72.924  1.00  0.00    -0.660 F  
ENDROOT
BRANCH   3   5
HETATM    5  C   UNL     1     -12.241  15.016  70.287  1.00  0.00    -0.340 A  
HETATM    6  C   UNL     1     -11.258  15.596  69.460  1.00  0.00    -0.313 A  
HETATM    7  C   UNL     1     -11.587  12.813  69.525  1.00  0.00    -0.342 A  
HETATM    8  C   UNL     1     -10.460  14.778  68.653  1.00  0.00    -0.250 A  
HETATM    9  C   UNL     1     -12.377  13.625  70.341  1.00  0.00    -0.415 A  
HETATM   10  C   UNL     1     -10.649  13.388  68.663  1.00  0.00    -0.257 A  
BRANCH   6  11
HETATM   11  O   UNL     1     -11.150  16.961  69.531  1.00  0.00    -0.174 OA 
BRANCH  11  12
HETATM   12  C   UNL     1     -10.113  17.584  68.778  1.00  0.00    -0.363 C  
BRANCH  12  13
HETATM   13  C   UNL     1     -10.749  18.310  67.629  1.00  0.00    -0.373 C  
HETATM   14  C   UNL     1     -10.207  19.641  67.173  1.00  0.00    -0.558 C  
HETATM   15  C   UNL     1     -10.049  18.428  66.299  1.00  0.00    -0.409 C  
ENDBRANCH  12  13
ENDBRANCH  11  12
ENDBRANCH   6  11
BRANCH  10  16
HETATM   16  C   UNL     1      -9.902  12.503  67.722  1.00  0.00    -0.204 C  
HETATM   17  O   UNL     1      -8.771  12.809  67.368  1.00  0.00    -0.176 OA 
HETATM   18  H   UNL     1     -11.514  11.186  67.728  1.00  0.00     0.000 HD 
HETATM   19  N   UNL     1     -10.533  11.294  67.472  1.00  0.00    -0.193 N  
BRANCH  19  20
HETATM   20  C   UNL     1      -9.851  10.200  66.866  1.00  0.00    -0.195 A  
HETATM   21  C   UNL     1      -9.788  10.170  65.463  1.00  0.00    -0.298 A  
HETATM   22  C   UNL     1      -9.135   9.116  64.843  1.00  0.00    -0.132 A  
HETATM   23 CL   UNL     1     -10.541  11.386  64.497  1.00  0.00    -0.369 Cl 
HETATM   24  N   UNL     1      -8.527   8.113  65.512  1.00  0.00    -0.156 NA 
HETATM   25  C   UNL     1      -8.571   8.177  66.866  1.00  0.00    -0.124 A  
HETATM   26  C   UNL     1      -9.207   9.185  67.587  1.00  0.00    -0.128 A  
HETATM   27 CL   UNL     1      -9.020   9.202  69.299  1.00  0.00    -0.141 Cl 
ENDBRANCH  19  20
ENDBRANCH  10  16
ENDBRANCH   3   5
TORSDOF 6
ENDMDL
MODEL       42
REMARK 921   NORMALIZED FREE ENERGY PREDICTED BY IDOCK:   -5.72 KCAL/MOL
REMARK 922        TOTAL FREE ENERGY PREDICTED BY IDOCK:   -9.05 KCAL/MOL
REMARK 923 INTER-LIGAND FREE ENERGY PREDICTED BY IDOCK:   -7.65 KCAL/MOL
REMARK 924 INTRA-LIGAND FREE ENERGY PREDICTED BY IDOCK:   -1.40 KCAL/MOL
REMARK 927      BINDING AFFINITY PREDICTED BY RF-SCORE:    0.00 PKD
ROOT
HETATM    1  F   UNL     1      -9.649   8.819  72.677  1.00  0.00    -0.339 F  
HETATM    2  C   UNL     1      -9.021   8.323  71.582  1.00  0.00    -0.180 C  
HETATM    3  O   UNL     1      -9.873   8.487  70.461  1.00  0.00    -0.174 OA 
HETATM    4  F   UNL     1      -8.867   6.990  71.791  1.00  0.00    -0.126 F  
ENDROOT
BRANCH   3   5
HETATM    5  C   UNL     1      -9.703   9.658  69.768  1.00  0.00    -0.224 A  
HETATM    6  C   UNL     1     -10.859  10.434  69.548  1.00  0.00    -0.255 A  
HETATM    7  C   UNL     1      -8.372  11.296  68.582  1.00  0.00    -0.146 A  
HETATM    8  C   UNL     1     -10.765  11.629  68.825  1.00  0.00    -0.254 A  
HETATM    9  C   UNL     1      -8.460  10.110  69.313  1.00  0.00    -0.167 A  
HETATM   10  C   UNL     1      -9.524  12.041  68.315  1.00  0.00    -0.199 A  
BRANCH   6  11
HETATM   11  O   UNL     1     -12.017   9.946  70.095  1.00  0.00    -0.192 OA 
BRANCH  11  12
HETATM   12  C   UNL     1     -12.600  10.676  71.172  1.00  0.00    -0.423 C  
BRANCH  12  13
HETATM   13  C   UNL     1     -12.857   9.714  72.295  1.00  0.00    -0.407 C  
HETATM   14  C   UNL     1     -14.155   8.950  72.363  1.00  0.00    -0.493 C  
HETATM   15  C   UNL     1     -12.874   8.225  72.056  1.00  0.00    -0.369 C  
ENDBRANCH  12  13
ENDBRANCH  11  12
ENDBRANCH   6  11
BRANCH  10  16
HETATM   16  C   UNL     1      -9.415  13.242  67.435  1.00  0.00    -0.218 C  
HETATM   17  O   UNL     1      -8.413  13.405  66.752  1.00  0.00    -0.108 OA 
HETATM   18  H   UNL     1     -11.316  13.828  68.049  1.00  0.00     0.000 HD 
HETATM   19  N   UNL     1     -10.581  13.988  67.360  1.00  0.00    -0.277 N  
BRANCH  19  20
HETATM   20  C   UNL     1     -10.781  14.971  66.350  1.00  0.00    -0.322 A  
HETATM   21  C   UNL     1     -11.559  14.610  65.237  1.00  0.00    -0.354 A  
HETATM   22  C   UNL     1     -11.769  15.543  64.233  1.00  0.00    -0.190 A  
HETATM   23 CL   UNL     1     -12.216  13.023  65.068  1.00  0.00    -0.466 Cl 
HETATM   24  N   UNL     1     -11.286  16.805  64.269  1.00  0.00    -1.111 NA 
HETATM   25  C   UNL     1     -10.567  17.144  65.367  1.00  0.00    -0.104 A  
HETATM   26  C   UNL     1     -10.288  16.281  66.425  1.00  0.00    -0.314 A  
HETATM   27 CL   UNL     1      -9.504  16.928  67.816  1.00  0.00    -0.234 Cl 
ENDBRANCH  19  20
ENDBRANCH  10  16
ENDBRANCH   3   5
TORSDOF 6
ENDMDL
MODEL       43
REMARK 921   NORMALIZED FREE ENERGY PREDICTED BY IDOCK:   -5.71 KCAL/MOL
REMARK 922        TOTAL FREE ENERGY PREDICTED BY IDOCK:   -9.04 KCAL/MOL
REMARK 923 INTER-LIGAND FREE ENERGY PREDICTED BY IDOCK:   -7.96 KCAL/MOL
REMARK 924 INTRA-LIGAND FREE ENERGY PREDICTED BY IDOCK:   -1.08 KCAL/MOL
REMARK 927      BINDING AFFINITY PREDICTED BY RF-SCORE:    0.00 PKD
ROOT
HETATM    1  F   UNL     1     -12.296  16.390  72.516  1.00  0.00    -0.497 F  
HETATM    2  C   UNL     1     -13.243  15.450  72.275  1.00  0.00    -0.421 C  
HETATM    3  O   UNL     1     -13.391  15.311  70.872  1.00  0.00    -0.445 OA 
HETATM    4  F   UNL     1     -14.411  15.936  72.767  1.00  0.00    -0.663 F  
ENDROOT
BRANCH   3   5
HETATM    5  C   UNL     1     -12.596  14.355  70.294  1.00  0.00    -0.323 A  
HETATM    6  C   UNL     1     -11.715  14.794  69.285  1.00  0.00    -0.316 A  
HETATM    7  C   UNL     1     -11.789  12.089  70.019  1.00  0.00    -0.392 A  
HETATM    8  C   UNL     1     -10.892  13.869  68.633  1.00  0.00    -0.278 A  
HETATM    9  C   UNL     1     -12.603  13.011  70.680  1.00  0.00    -0.270 A  
HETATM   10  C   UNL     1     -10.954  12.511  68.981  1.00  0.00    -0.237 A  
BRANCH   6  11
HETATM   11  O   UNL     1     -11.727  16.140  69.028  1.00  0.00    -0.345 OA 
BRANCH  11  12
HETATM   12  C   UNL     1     -10.655  16.923  69.548  1.00  0.00    -0.239 C  
BRANCH  12  13
HETATM   13  C   UNL     1      -9.973  17.596  68.393  1.00  0.00    -0.356 C  
HETATM   14  C   UNL     1     -10.785  18.228  67.291  1.00  0.00    -0.366 C  
HETATM   15  C   UNL     1     -10.003  19.096  68.237  1.00  0.00    -0.482 C  
ENDBRANCH  12  13
ENDBRANCH  11  12
ENDBRANCH   6  11
BRANCH  10  16
HETATM   16  C   UNL     1     -10.182  11.485  68.219  1.00  0.00    -0.196 C  
HETATM   17  O   UNL     1      -8.988  11.654  68.011  1.00  0.00    -0.162 OA 
HETATM   18  H   UNL     1     -11.909  10.331  68.081  1.00  0.00     0.000 HD 
HETATM   19  N   UNL     1     -10.897  10.325  67.962  1.00  0.00    -0.256 N  
BRANCH  19  20
HETATM   20  C   UNL     1     -10.257   9.126  67.536  1.00  0.00    -0.245 A  
HETATM   21  C   UNL     1     -10.243   8.043  68.432  1.00  0.00    -0.207 A  
HETATM   22  C   UNL     1      -9.625   6.864  68.049  1.00  0.00    -0.123 A  
HETATM   23 CL   UNL     1     -10.934   8.164  70.009  1.00  0.00    -0.233 Cl 
HETATM   24  N   UNL     1      -9.046   6.677  66.843  1.00  0.00    -0.131 NA 
HETATM   25  C   UNL     1      -9.100   7.723  65.980  1.00  0.00    -0.121 A  
HETATM   26  C   UNL     1      -9.686   8.953  66.268  1.00  0.00    -0.275 A  
HETATM   27 CL   UNL     1      -9.813  10.110  64.998  1.00  0.00    -0.382 Cl 
ENDBRANCH  19  20
ENDBRANCH  10  16
ENDBRANCH   3   5
TORSDOF 6
ENDMDL
MODEL       44
REMARK 921   NORMALIZED FREE ENERGY PREDICTED BY IDOCK:   -5.69 KCAL/MOL
REMARK 922        TOTAL FREE ENERGY PREDICTED BY IDOCK:   -9.01 KCAL/MOL
REMARK 923 INTER-LIGAND FREE ENERGY PREDICTED BY IDOCK:   -7.94 KCAL/MOL
REMARK 924 INTRA-LIGAND FREE ENERGY PREDICTED BY IDOCK:   -1.06 KCAL/MOL
REMARK 927      BINDING AFFINITY PREDICTED BY RF-SCORE:    0.00 PKD
ROOT
HETATM    1  F   UNL     1      -9.295   6.138  70.385  1.00  0.00    -0.153 F  
HETATM    2  C   UNL     1      -9.681   5.733  69.150  1.00  0.00    -0.147 C  
HETATM    3  O   UNL     1     -10.813   6.493  68.761  1.00  0.00    -0.251 OA 
HETATM    4  F   UNL     1     -10.073   4.439  69.267  1.00  0.00    -0.265 F  
ENDROOT
BRANCH   3   5
HETATM    5  C   UNL     1     -10.532   7.641  68.067  1.00  0.00    -0.189 A  
HETATM    6  C   UNL     1     -10.657   8.853  68.775  1.00  0.00    -0.157 A  
HETATM    7  C   UNL     1      -9.877   8.865  66.083  1.00  0.00    -0.326 A  
HETATM    8  C   UNL     1     -10.412  10.067  68.123  1.00  0.00    -0.250 A  
HETATM    9  C   UNL     1     -10.109   7.652  66.733  1.00  0.00    -0.325 A  
HETATM   10  C   UNL     1     -10.052  10.071  66.767  1.00  0.00    -0.286 A  
BRANCH   6  11
HETATM   11  O   UNL     1     -11.004   8.737  70.096  1.00  0.00    -0.239 OA 
BRANCH  11  12
HETATM   12  C   UNL     1     -11.134   9.937  70.855  1.00  0.00    -0.348 C  
BRANCH  12  13
HETATM   13  C   UNL     1     -12.584  10.320  70.868  1.00  0.00    -0.465 C  
HETATM   14  C   UNL     1     -13.437  10.037  72.079  1.00  0.00    -0.448 C  
HETATM   15  C   UNL     1     -13.082  11.455  71.729  1.00  0.00    -0.523 C  
ENDBRANCH  12  13
ENDBRANCH  11  12
ENDBRANCH   6  11
BRANCH  10  16
HETATM   16  C   UNL     1      -9.908  11.351  66.013  1.00  0.00    -0.223 C  
HETATM   17  O   UNL     1      -9.384  11.349  64.907  1.00  0.00    -0.203 OA 
HETATM   18  H   UNL     1     -10.872  12.342  67.569  1.00  0.00     0.000 HD 
HETATM   19  N   UNL     1     -10.560  12.423  66.602  1.00  0.00    -0.228 N  
BRANCH  19  20
HETATM   20  C   UNL     1     -10.808  13.635  65.895  1.00  0.00    -0.275 A  
HETATM   21  C   UNL     1      -9.945  14.716  66.137  1.00  0.00    -0.304 A  
HETATM   22  C   UNL     1     -10.162  15.911  65.468  1.00  0.00    -0.365 A  
HETATM   23 CL   UNL     1      -8.655  14.607  67.278  1.00  0.00    -0.215 Cl 
HETATM   24  N   UNL     1     -11.150  16.097  64.566  1.00  0.00    -0.637 NA 
HETATM   25  C   UNL     1     -11.952  15.030  64.322  1.00  0.00    -0.295 A  
HETATM   26  C   UNL     1     -11.828  13.792  64.946  1.00  0.00    -0.375 A  
HETATM   27 CL   UNL     1     -12.824  12.499  64.393  1.00  0.00    -0.450 Cl 
ENDBRANCH  19  20
ENDBRANCH  10  16
ENDBRANCH   3   5
TORSDOF 6
ENDMDL
MODEL       45
REMARK 921   NORMALIZED FREE ENERGY PREDICTED BY IDOCK:   -5.67 KCAL/MOL
REMARK 922        TOTAL FREE ENERGY PREDICTED BY IDOCK:   -8.98 KCAL/MOL
REMARK 923 INTER-LIGAND FREE ENERGY PREDICTED BY IDOCK:   -7.69 KCAL/MOL
REMARK 924 INTRA-LIGAND FREE ENERGY PREDICTED BY IDOCK:   -1.30 KCAL/MOL
REMARK 927      BINDING AFFINITY PREDICTED BY RF-SCORE:    0.00 PKD
ROOT
HETATM    1  F   UNL     1     -13.205  12.215  64.414  1.00  0.00    -0.512 F  
HETATM    2  C   UNL     1     -11.931  12.033  63.989  1.00  0.00    -0.403 C  
HETATM    3  O   UNL     1     -11.055  12.278  65.077  1.00  0.00    -0.299 OA 
HETATM    4  F   UNL     1     -11.693  12.981  63.047  1.00  0.00    -0.550 F  
ENDROOT
BRANCH   3   5
HETATM    5  C   UNL     1     -10.739  11.176  65.829  1.00  0.00    -0.188 A  
HETATM    6  C   UNL     1     -11.242  11.146  67.145  1.00  0.00    -0.249 A  
HETATM    7  C   UNL     1      -9.674   9.030  66.182  1.00  0.00    -0.354 A  
HETATM    8  C   UNL     1     -10.937  10.064  67.979  1.00  0.00    -0.296 A  
HETATM    9  C   UNL     1      -9.986  10.102  65.343  1.00  0.00    -0.377 A  
HETATM   10  C   UNL     1     -10.126   9.022  67.505  1.00  0.00    -0.285 A  
BRANCH   6  11
HETATM   11  O   UNL     1     -12.030  12.207  67.506  1.00  0.00    -0.544 OA 
BRANCH  11  12
HETATM   12  C   UNL     1     -11.811  12.790  68.788  1.00  0.00    -0.307 C  
BRANCH  12  13
HETATM   13  C   UNL     1     -11.668  14.272  68.603  1.00  0.00    -0.380 C  
HETATM   14  C   UNL     1     -10.415  14.847  67.992  1.00  0.00    -0.246 C  
HETATM   15  C   UNL     1     -11.710  14.892  67.229  1.00  0.00    -0.308 C  
ENDBRANCH  12  13
ENDBRANCH  11  12
ENDBRANCH   6  11
BRANCH  10  16
HETATM   16  C   UNL     1      -9.681   7.920  68.408  1.00  0.00    -0.160 C  
HETATM   17  O   UNL     1      -8.556   7.946  68.889  1.00  0.00    -0.130 OA 
HETATM   18  H   UNL     1     -11.558   7.042  68.212  1.00  0.00     0.000 HD 
HETATM   19  N   UNL     1     -10.692   7.035  68.750  1.00  0.00    -0.212 N  
BRANCH  19  20
HETATM   20  C   UNL     1     -10.555   6.118  69.831  1.00  0.00    -0.265 A  
HETATM   21  C   UNL     1     -11.096   6.491  71.072  1.00  0.00    -0.288 A  
HETATM   22  C   UNL     1     -10.976   5.622  72.145  1.00  0.00    -0.250 A  
HETATM   23 CL   UNL     1     -11.863   8.020  71.303  1.00  0.00    -0.308 Cl 
HETATM   24  N   UNL     1     -10.384   4.410  72.067  1.00  0.00    -0.159 NA 
HETATM   25  C   UNL     1      -9.898   4.055  70.851  1.00  0.00    -0.159 A  
HETATM   26  C   UNL     1      -9.956   4.856  69.714  1.00  0.00    -0.244 A  
HETATM   27 CL   UNL     1      -9.442   4.179  68.215  1.00  0.00    -0.213 Cl 
ENDBRANCH  19  20
ENDBRANCH  10  16
ENDBRANCH   3   5
TORSDOF 6
ENDMDL
MODEL       46
REMARK 921   NORMALIZED FREE ENERGY PREDICTED BY IDOCK:   -5.67 KCAL/MOL
REMARK 922        TOTAL FREE ENERGY PREDICTED BY IDOCK:   -8.98 KCAL/MOL
REMARK 923 INTER-LIGAND FREE ENERGY PREDICTED BY IDOCK:   -8.08 KCAL/MOL
REMARK 924 INTRA-LIGAND FREE ENERGY PREDICTED BY IDOCK:   -0.90 KCAL/MOL
REMARK 927      BINDING AFFINITY PREDICTED BY RF-SCORE:    0.00 PKD
ROOT
HETATM    1  F   UNL     1      -9.931  18.148  68.517  1.00  0.00    -0.313 F  
HETATM    2  C   UNL     1     -10.874  17.731  67.635  1.00  0.00    -0.224 C  
HETATM    3  O   UNL     1     -10.360  16.621  66.919  1.00  0.00    -0.297 OA 
HETATM    4  F   UNL     1     -11.057  18.745  66.750  1.00  0.00    -0.372 F  
ENDROOT
BRANCH   3   5
HETATM    5  C   UNL     1     -10.635  15.396  67.469  1.00  0.00    -0.283 A  
HETATM    6  C   UNL     1     -11.118  14.405  66.592  1.00  0.00    -0.326 A  
HETATM    7  C   UNL     1     -10.767  13.834  69.314  1.00  0.00    -0.090 A  
HETATM    8  C   UNL     1     -11.444  13.138  67.090  1.00  0.00    -0.378 A  
HETATM    9  C   UNL     1     -10.430  15.095  68.820  1.00  0.00    -0.234 A  
HETATM   10  C   UNL     1     -11.298  12.865  68.458  1.00  0.00    -0.324 A  
BRANCH   6  11
HETATM   11  O   UNL     1     -11.216  14.771  65.275  1.00  0.00    -0.336 OA 
BRANCH  11  12
HETATM   12  C   UNL     1     -12.392  14.389  64.566  1.00  0.00    -0.418 C  
BRANCH  12  13
HETATM   13  C   UNL     1     -11.985  13.445  63.473  1.00  0.00    -0.467 C  
HETATM   14  C   UNL     1     -11.140  12.236  63.784  1.00  0.00    -0.507 C  
HETATM   15  C   UNL     1     -12.577  12.061  63.379  1.00  0.00    -0.592 C  
ENDBRANCH  12  13
ENDBRANCH  11  12
ENDBRANCH   6  11
BRANCH  10  16
HETATM   16  C   UNL     1     -11.755  11.568  69.037  1.00  0.00    -0.335 C  
HETATM   17  O   UNL     1     -12.522  10.856  68.403  1.00  0.00    -0.283 OA 
HETATM   18  H   UNL     1     -10.565  11.928  70.707  1.00  0.00     0.000 HD 
HETATM   19  N   UNL     1     -11.103  11.219  70.210  1.00  0.00     0.015 N  
BRANCH  19  20
HETATM   20  C   UNL     1     -11.164   9.898  70.741  1.00  0.00    -0.353 A  
HETATM   21  C   UNL     1     -12.268   9.571  71.545  1.00  0.00    -0.386 A  
HETATM   22  C   UNL     1     -12.354   8.296  72.081  1.00  0.00    -0.360 A  
HETATM   23 CL   UNL     1     -13.490  10.731  71.920  1.00  0.00    -0.408 Cl 
HETATM   24  N   UNL     1     -11.442   7.325  71.856  1.00  0.00    -0.259 NA 
HETATM   25  C   UNL     1     -10.401   7.650  71.049  1.00  0.00    -0.202 A  
HETATM   26  C   UNL     1     -10.215   8.903  70.470  1.00  0.00    -0.204 A  
HETATM   27 CL   UNL     1      -8.930   9.092  69.337  1.00  0.00    -0.142 Cl 
ENDBRANCH  19  20
ENDBRANCH  10  16
ENDBRANCH   3   5
TORSDOF 6
ENDMDL
MODEL       47
REMARK 921   NORMALIZED FREE ENERGY PREDICTED BY IDOCK:   -5.60 KCAL/MOL
REMARK 922        TOTAL FREE ENERGY PREDICTED BY IDOCK:   -8.89 KCAL/MOL
REMARK 923 INTER-LIGAND FREE ENERGY PREDICTED BY IDOCK:   -7.77 KCAL/MOL
REMARK 924 INTRA-LIGAND FREE ENERGY PREDICTED BY IDOCK:   -1.12 KCAL/MOL
REMARK 927      BINDING AFFINITY PREDICTED BY RF-SCORE:    0.00 PKD
ROOT
HETATM    1  F   UNL     1      -9.709  15.239  66.745  1.00  0.00    -0.216 F  
HETATM    2  C   UNL     1     -10.704  15.324  67.662  1.00  0.00    -0.282 C  
HETATM    3  O   UNL     1     -11.691  14.357  67.345  1.00  0.00    -0.362 OA 
HETATM    4  F   UNL     1     -11.267  16.551  67.517  1.00  0.00    -0.267 F  
ENDROOT
BRANCH   3   5
HETATM    5  C   UNL     1     -11.525  13.137  67.948  1.00  0.00    -0.308 A  
HETATM    6  C   UNL     1     -11.019  12.099  67.140  1.00  0.00    -0.268 A  
HETATM    7  C   UNL     1     -11.640  11.621  69.832  1.00  0.00    -0.366 A  
HETATM    8  C   UNL     1     -10.848  10.819  67.682  1.00  0.00    -0.332 A  
HETATM    9  C   UNL     1     -11.801  12.901  69.299  1.00  0.00    -0.363 A  
HETATM   10  C   UNL     1     -11.190  10.575  69.020  1.00  0.00    -0.316 A  
BRANCH   6  11
HETATM   11  O   UNL     1     -10.709  12.444  65.851  1.00  0.00    -0.254 OA 
BRANCH  11  12
HETATM   12  C   UNL     1     -10.569  11.393  64.898  1.00  0.00    -0.307 C  
BRANCH  12  13
HETATM   13  C   UNL     1     -11.196  11.849  63.613  1.00  0.00    -0.522 C  
HETATM   14  C   UNL     1     -12.696  11.857  63.457  1.00  0.00    -0.530 C  
HETATM   15  C   UNL     1     -11.944  13.156  63.533  1.00  0.00    -0.580 C  
ENDBRANCH  12  13
ENDBRANCH  11  12
ENDBRANCH   6  11
BRANCH  10  16
HETATM   16  C   UNL     1     -11.138   9.196  69.589  1.00  0.00    -0.087 C  
HETATM   17  O   UNL     1     -10.782   8.262  68.885  1.00  0.00    -0.175 OA 
HETATM   18  H   UNL     1     -11.743   9.964  71.427  1.00  0.00     0.000 HD 
HETATM   19  N   UNL     1     -11.350   9.148  70.958  1.00  0.00    -0.286 N  
BRANCH  19  20
HETATM   20  C   UNL     1     -11.034   7.993  71.729  1.00  0.00    -0.251 A  
HETATM   21  C   UNL     1     -12.050   7.043  71.923  1.00  0.00    -0.323 A  
HETATM   22  C   UNL     1     -11.776   5.910  72.672  1.00  0.00    -0.198 A  
HETATM   23 CL   UNL     1     -13.640   7.277  71.292  1.00  0.00    -0.398 Cl 
HETATM   24  N   UNL     1     -10.568   5.644  73.216  1.00  0.00    -0.232 NA 
HETATM   25  C   UNL     1      -9.591   6.557  72.989  1.00  0.00    -0.149 A  
HETATM   26  C   UNL     1      -9.763   7.732  72.261  1.00  0.00    -0.186 A  
HETATM   27 CL   UNL     1      -8.373   8.694  71.929  1.00  0.00    -0.212 Cl 
ENDBRANCH  19  20
ENDBRANCH  10  16
ENDBRANCH   3   5
TORSDOF 6
ENDMDL
MODEL       48
REMARK 921   NORMALIZED FREE ENERGY PREDICTED BY IDOCK:   -5.57 KCAL/MOL
REMARK 922        TOTAL FREE ENERGY PREDICTED BY IDOCK:   -8.85 KCAL/MOL
REMARK 923 INTER-LIGAND FREE ENERGY PREDICTED BY IDOCK:   -7.71 KCAL/MOL
REMARK 924 INTRA-LIGAND FREE ENERGY PREDICTED BY IDOCK:   -1.14 KCAL/MOL
REMARK 927      BINDING AFFINITY PREDICTED BY RF-SCORE:    0.00 PKD
ROOT
HETATM    1  F   UNL     1     -11.520  10.003  68.909  1.00  0.00    -0.246 F  
HETATM    2  C   UNL     1     -10.696   9.892  67.839  1.00  0.00    -0.265 C  
HETATM    3  O   UNL     1     -10.996  10.938  66.929  1.00  0.00    -0.271 OA 
HETATM    4  F   UNL     1     -11.000   8.717  67.231  1.00  0.00    -0.333 F  
ENDROOT
BRANCH   3   5
HETATM    5  C   UNL     1     -10.270  12.087  67.104  1.00  0.00    -0.202 A  
HETATM    6  C   UNL     1     -10.815  13.266  66.558  1.00  0.00    -0.281 A  
HETATM    7  C   UNL     1      -8.361  13.338  67.913  1.00  0.00    -0.163 A  
HETATM    8  C   UNL     1     -10.115  14.473  66.676  1.00  0.00    -0.275 A  
HETATM    9  C   UNL     1      -9.062  12.136  67.808  1.00  0.00    -0.189 A  
HETATM   10  C   UNL     1      -8.872  14.500  67.327  1.00  0.00    -0.221 A  
BRANCH   6  11
HETATM   11  O   UNL     1     -12.037  13.133  65.952  1.00  0.00    -0.406 OA 
BRANCH  11  12
HETATM   12  C   UNL     1     -12.343  14.016  64.875  1.00  0.00    -0.427 C  
BRANCH  12  13
HETATM   13  C   UNL     1     -12.148  13.263  63.592  1.00  0.00    -0.551 C  
HETATM   14  C   UNL     1     -10.892  12.462  63.360  1.00  0.00    -0.417 C  
HETATM   15  C   UNL     1     -12.204  11.756  63.557  1.00  0.00    -0.489 C  
ENDBRANCH  12  13
ENDBRANCH  11  12
ENDBRANCH   6  11
BRANCH  10  16
HETATM   16  C   UNL     1      -8.046  15.742  67.357  1.00  0.00    -0.169 C  
HETATM   17  O   UNL     1      -7.016  15.803  66.700  1.00  0.00    -0.177 OA 
HETATM   18  H   UNL     1      -9.451  16.610  68.624  1.00  0.00     0.000 HD 
HETATM   19  N   UNL     1      -8.648  16.798  68.025  1.00  0.00    -0.205 N  
BRANCH  19  20
HETATM   20  C   UNL     1      -8.177  18.136  67.897  1.00  0.00    -0.249 A  
HETATM   21  C   UNL     1      -8.904  19.004  67.066  1.00  0.00    -0.294 A  
HETATM   22  C   UNL     1      -8.470  20.312  66.917  1.00  0.00    -0.285 A  
HETATM   23 CL   UNL     1     -10.293  18.469  66.192  1.00  0.00    -0.455 Cl 
HETATM   24  N   UNL     1      -7.388  20.819  67.549  1.00  0.00    -0.334 NA 
HETATM   25  C   UNL     1      -6.720  19.974  68.373  1.00  0.00    -0.301 A  
HETATM   26  C   UNL     1      -7.065  18.642  68.585  1.00  0.00    -0.288 A  
HETATM   27 CL   UNL     1      -6.208  17.762  69.792  1.00  0.00    -0.219 Cl 
ENDBRANCH  19  20
ENDBRANCH  10  16
ENDBRANCH   3   5
TORSDOF 6
ENDMDL
MODEL       49
REMARK 921   NORMALIZED FREE ENERGY PREDICTED BY IDOCK:   -5.56 KCAL/MOL
REMARK 922        TOTAL FREE ENERGY PREDICTED BY IDOCK:   -8.84 KCAL/MOL
REMARK 923 INTER-LIGAND FREE ENERGY PREDICTED BY IDOCK:   -7.83 KCAL/MOL
REMARK 924 INTRA-LIGAND FREE ENERGY PREDICTED BY IDOCK:   -1.00 KCAL/MOL
REMARK 927      BINDING AFFINITY PREDICTED BY RF-SCORE:    0.00 PKD
ROOT
HETATM    1  F   UNL     1      -9.070   7.497  70.966  1.00  0.00    -0.144 F  
HETATM    2  C   UNL     1      -9.490   7.232  69.704  1.00  0.00    -0.155 C  
HETATM    3  O   UNL     1     -10.809   7.730  69.554  1.00  0.00    -0.230 OA 
HETATM    4  F   UNL     1      -9.543   5.881  69.585  1.00  0.00    -0.146 F  
ENDROOT
BRANCH   3   5
HETATM    5  C   UNL     1     -10.896   9.016  69.089  1.00  0.00    -0.089 A  
HETATM    6  C   UNL     1     -11.329   9.992  70.009  1.00  0.00    -0.275 A  
HETATM    7  C   UNL     1     -10.702  10.714  67.373  1.00  0.00    -0.326 A  
HETATM    8  C   UNL     1     -11.467  11.322  69.595  1.00  0.00    -0.380 A  
HETATM    9  C   UNL     1     -10.552   9.388  67.785  1.00  0.00    -0.317 A  
HETATM   10  C   UNL     1     -11.183  11.675  68.267  1.00  0.00    -0.320 A  
BRANCH   6  11
HETATM   11  O   UNL     1     -11.571   9.545  71.281  1.00  0.00    -0.314 OA 
BRANCH  11  12
HETATM   12  C   UNL     1     -12.888   9.709  71.802  1.00  0.00    -0.421 C  
BRANCH  12  13
HETATM   13  C   UNL     1     -13.365   8.368  72.279  1.00  0.00    -0.298 C  
HETATM   14  C   UNL     1     -14.336   7.565  71.450  1.00  0.00    -0.540 C  
HETATM   15  C   UNL     1     -12.916   7.097  71.603  1.00  0.00    -0.415 C  
ENDBRANCH  12  13
ENDBRANCH  11  12
ENDBRANCH   6  11
BRANCH  10  16
HETATM   16  C   UNL     1     -11.441  13.056  67.766  1.00  0.00    -0.316 C  
HETATM   17  O   UNL     1     -12.213  13.788  68.370  1.00  0.00    -0.340 OA 
HETATM   18  H   UNL     1     -10.085  12.717  66.222  1.00  0.00     0.000 HD 
HETATM   19  N   UNL     1     -10.615  13.434  66.718  1.00  0.00    -0.276 N  
BRANCH  19  20
HETATM   20  C   UNL     1     -10.485  14.793  66.314  1.00  0.00    -0.296 A  
HETATM   21  C   UNL     1     -11.275  15.230  65.238  1.00  0.00    -0.336 A  
HETATM   22  C   UNL     1     -11.168  16.547  64.818  1.00  0.00    -0.143 A  
HETATM   23 CL   UNL     1     -12.337  14.157  64.401  1.00  0.00    -0.441 Cl 
HETATM   24  N   UNL     1     -10.358  17.457  65.401  1.00  0.00    -0.632 NA 
HETATM   25  C   UNL     1      -9.628  17.024  66.459  1.00  0.00    -0.278 A  
HETATM   26  C   UNL     1      -9.652  15.723  66.954  1.00  0.00    -0.230 A  
HETATM   27 CL   UNL     1      -8.791  15.390  68.408  1.00  0.00    -0.171 Cl 
ENDBRANCH  19  20
ENDBRANCH  10  16
ENDBRANCH   3   5
TORSDOF 6
ENDMDL
MODEL       50
REMARK 921   NORMALIZED FREE ENERGY PREDICTED BY IDOCK:   -5.56 KCAL/MOL
REMARK 922        TOTAL FREE ENERGY PREDICTED BY IDOCK:   -8.83 KCAL/MOL
REMARK 923 INTER-LIGAND FREE ENERGY PREDICTED BY IDOCK:   -7.75 KCAL/MOL
REMARK 924 INTRA-LIGAND FREE ENERGY PREDICTED BY IDOCK:   -1.08 KCAL/MOL
REMARK 927      BINDING AFFINITY PREDICTED BY RF-SCORE:    0.00 PKD
ROOT
HETATM    1  F   UNL     1      -7.291   9.962  63.745  1.00  0.00    -0.113 F  
HETATM    2  C   UNL     1      -8.594   9.861  63.382  1.00  0.00    -0.205 C  
HETATM    3  O   UNL     1      -9.335   9.386  64.493  1.00  0.00    -0.189 OA 
HETATM    4  F   UNL     1      -8.657   8.916  62.409  1.00  0.00    -0.180 F  
ENDROOT
BRANCH   3   5
HETATM    5  C   UNL     1      -9.855  10.360  65.305  1.00  0.00    -0.297 A  
HETATM    6  C   UNL     1     -10.022  10.025  66.664  1.00  0.00    -0.216 A  
HETATM    7  C   UNL     1     -10.744  12.570  65.737  1.00  0.00    -0.299 A  
HETATM    8  C   UNL     1     -10.571  10.962  67.547  1.00  0.00    -0.271 A  
HETATM    9  C   UNL     1     -10.185  11.643  64.856  1.00  0.00    -0.315 A  
HETATM   10  C   UNL     1     -10.961  12.224  67.073  1.00  0.00    -0.314 A  
BRANCH   6  11
HETATM   11  O   UNL     1      -9.601   8.771  67.025  1.00  0.00    -0.156 OA 
BRANCH  11  12
HETATM   12  C   UNL     1     -10.587   7.845  67.475  1.00  0.00    -0.242 C  
BRANCH  12  13
HETATM   13  C   UNL     1     -10.146   7.314  68.807  1.00  0.00    -0.179 C  
HETATM   14  C   UNL     1     -10.933   7.633  70.053  1.00  0.00    -0.237 C  
HETATM   15  C   UNL     1     -10.926   6.231  69.510  1.00  0.00    -0.445 C  
ENDBRANCH  12  13
ENDBRANCH  11  12
ENDBRANCH   6  11
BRANCH  10  16
HETATM   16  C   UNL     1     -11.665  13.195  67.961  1.00  0.00    -0.355 C  
HETATM   17  O   UNL     1     -12.535  13.920  67.499  1.00  0.00    -0.177 OA 
HETATM   18  H   UNL     1     -10.545  12.491  69.569  1.00  0.00     0.000 HD 
HETATM   19  N   UNL     1     -11.358  13.048  69.305  1.00  0.00    -0.267 N  
BRANCH  19  20
HETATM   20  C   UNL     1     -12.144  13.651  70.328  1.00  0.00    -0.357 A  
HETATM   21  C   UNL     1     -12.817  12.799  71.219  1.00  0.00    -0.262 A  
HETATM   22  C   UNL     1     -13.594  13.355  72.223  1.00  0.00    -0.605 A  
HETATM   23 CL   UNL     1     -12.735  11.082  71.065  1.00  0.00    -0.475 Cl 
HETATM   24  N   UNL     1     -13.730  14.686  72.416  1.00  0.00    -0.437 NA 
HETATM   25  C   UNL     1     -13.046  15.491  71.566  1.00  0.00    -0.496 A  
HETATM   26  C   UNL     1     -12.247  15.036  70.520  1.00  0.00    -0.337 A  
HETATM   27 CL   UNL     1     -11.317  16.193  69.645  1.00  0.00    -0.329 Cl 
ENDBRANCH  19  20
ENDBRANCH  10  16
ENDBRANCH   3   5
TORSDOF 6
ENDMDL
MODEL       51
REMARK 921   NORMALIZED FREE ENERGY PREDICTED BY IDOCK:   -5.55 KCAL/MOL
REMARK 922        TOTAL FREE ENERGY PREDICTED BY IDOCK:   -8.83 KCAL/MOL
REMARK 923 INTER-LIGAND FREE ENERGY PREDICTED BY IDOCK:   -7.94 KCAL/MOL
REMARK 924 INTRA-LIGAND FREE ENERGY PREDICTED BY IDOCK:   -0.88 KCAL/MOL
REMARK 927      BINDING AFFINITY PREDICTED BY RF-SCORE:    0.00 PKD
ROOT
HETATM    1  F   UNL     1     -11.947  14.023  64.191  1.00  0.00    -0.425 F  
HETATM    2  C   UNL     1     -10.921  14.328  65.023  1.00  0.00    -0.387 C  
HETATM    3  O   UNL     1     -11.446  14.554  66.320  1.00  0.00    -0.347 OA 
HETATM    4  F   UNL     1     -10.395  15.499  64.582  1.00  0.00    -0.376 F  
ENDROOT
BRANCH   3   5
HETATM    5  C   UNL     1     -11.496  13.447  67.129  1.00  0.00    -0.339 A  
HETATM    6  C   UNL     1     -11.639  13.682  68.511  1.00  0.00    -0.335 A  
HETATM    7  C   UNL     1     -11.463  11.061  67.533  1.00  0.00    -0.266 A  
HETATM    8  C   UNL     1     -11.670  12.600  69.398  1.00  0.00    -0.387 A  
HETATM    9  C   UNL     1     -11.443  12.136  66.644  1.00  0.00    -0.426 A  
HETATM   10  C   UNL     1     -11.550  11.291  68.909  1.00  0.00    -0.386 A  
BRANCH   6  11
HETATM   11  O   UNL     1     -11.757  14.996  68.883  1.00  0.00    -0.307 OA 
BRANCH  11  12
HETATM   12  C   UNL     1     -10.714  15.557  69.675  1.00  0.00    -0.271 C  
BRANCH  12  13
HETATM   13  C   UNL     1      -9.952  16.524  68.817  1.00  0.00    -0.255 C  
HETATM   14  C   UNL     1     -10.653  17.291  67.725  1.00  0.00    -0.367 C  
HETATM   15  C   UNL     1     -10.160  18.012  68.949  1.00  0.00    -0.352 C  
ENDBRANCH  12  13
ENDBRANCH  11  12
ENDBRANCH   6  11
BRANCH  10  16
HETATM   16  C   UNL     1     -11.454  10.128  69.839  1.00  0.00    -0.254 C  
HETATM   17  O   UNL     1     -12.287   9.987  70.724  1.00  0.00    -0.297 OA 
HETATM   18  H   UNL     1      -9.778   9.469  68.794  1.00  0.00     0.000 HD 
HETATM   19  N   UNL     1     -10.484   9.204  69.480  1.00  0.00    -0.215 N  
BRANCH  19  20
HETATM   20  C   UNL     1     -10.446   7.896  70.041  1.00  0.00    -0.231 A  
HETATM   21  C   UNL     1     -10.658   6.810  69.175  1.00  0.00    -0.232 A  
HETATM   22  C   UNL     1     -10.633   5.524  69.691  1.00  0.00    -0.305 A  
HETATM   23 CL   UNL     1     -10.996   7.043  67.498  1.00  0.00    -0.324 Cl 
HETATM   24  N   UNL     1     -10.389   5.242  70.990  1.00  0.00    -0.233 NA 
HETATM   25  C   UNL     1     -10.153   6.301  71.803  1.00  0.00    -0.186 A  
HETATM   26  C   UNL     1     -10.167   7.631  71.389  1.00  0.00    -0.185 A  
HETATM   27 CL   UNL     1      -9.680   8.839  72.518  1.00  0.00    -0.255 Cl 
ENDBRANCH  19  20
ENDBRANCH  10  16
ENDBRANCH   3   5
TORSDOF 6
ENDMDL
MODEL       52
REMARK 921   NORMALIZED FREE ENERGY PREDICTED BY IDOCK:   -5.54 KCAL/MOL
REMARK 922        TOTAL FREE ENERGY PREDICTED BY IDOCK:   -8.81 KCAL/MOL
REMARK 923 INTER-LIGAND FREE ENERGY PREDICTED BY IDOCK:   -7.52 KCAL/MOL
REMARK 924 INTRA-LIGAND FREE ENERGY PREDICTED BY IDOCK:   -1.29 KCAL/MOL
REMARK 927      BINDING AFFINITY PREDICTED BY RF-SCORE:    0.00 PKD
ROOT
HETATM    1  F   UNL     1      -9.581   4.938  65.825  1.00  0.00    -0.150 F  
HETATM    2  C   UNL     1     -10.165   5.091  67.039  1.00  0.00    -0.208 C  
HETATM    3  O   UNL     1      -9.364   5.965  67.817  1.00  0.00    -0.109 OA 
HETATM    4  F   UNL     1     -10.146   3.872  67.638  1.00  0.00    -0.174 F  
ENDROOT
BRANCH   3   5
HETATM    5  C   UNL     1      -9.694   7.292  67.725  1.00  0.00    -0.140 A  
HETATM    6  C   UNL     1     -10.241   7.887  68.879  1.00  0.00    -0.205 A  
HETATM    7  C   UNL     1      -9.881   9.399  66.546  1.00  0.00    -0.325 A  
HETATM    8  C   UNL     1     -10.626   9.233  68.850  1.00  0.00    -0.222 A  
HETATM    9  C   UNL     1      -9.485   8.060  66.574  1.00  0.00    -0.278 A  
HETATM   10  C   UNL     1     -10.474   9.978  67.671  1.00  0.00    -0.297 A  
BRANCH   6  11
HETATM   11  O   UNL     1     -10.339   7.075  69.979  1.00  0.00    -0.194 OA 
BRANCH  11  12
HETATM   12  C   UNL     1     -11.622   6.543  70.298  1.00  0.00    -0.409 C  
BRANCH  12  13
HETATM   13  C   UNL     1     -11.961   6.964  71.698  1.00  0.00    -0.379 C  
HETATM   14  C   UNL     1     -11.164   8.046  72.383  1.00  0.00    -0.432 C  
HETATM   15  C   UNL     1     -12.588   8.307  71.977  1.00  0.00    -0.387 C  
ENDBRANCH  12  13
ENDBRANCH  11  12
ENDBRANCH   6  11
BRANCH  10  16
HETATM   16  C   UNL     1     -10.990  11.375  67.571  1.00  0.00    -0.260 C  
HETATM   17  O   UNL     1     -12.023  11.598  66.956  1.00  0.00    -0.593 OA 
HETATM   18  H   UNL     1      -9.395  12.016  68.745  1.00  0.00     0.000 HD 
HETATM   19  N   UNL     1     -10.300  12.283  68.360  1.00  0.00    -0.221 N  
BRANCH  19  20
HETATM   20  C   UNL     1     -10.820  13.577  68.648  1.00  0.00    -0.259 A  
HETATM   21  C   UNL     1     -10.466  14.627  67.784  1.00  0.00    -0.246 A  
HETATM   22  C   UNL     1     -10.951  15.899  68.039  1.00  0.00    -0.336 A  
HETATM   23 CL   UNL     1      -9.405  14.378  66.445  1.00  0.00    -0.301 Cl 
HETATM   24  N   UNL     1     -11.776  16.195  69.067  1.00  0.00    -0.313 NA 
HETATM   25  C   UNL     1     -12.133  15.162  69.870  1.00  0.00    -0.336 A  
HETATM   26  C   UNL     1     -11.694  13.850  69.709  1.00  0.00    -0.309 A  
HETATM   27 CL   UNL     1     -12.381  12.634  70.717  1.00  0.00    -0.439 Cl 
ENDBRANCH  19  20
ENDBRANCH  10  16
ENDBRANCH   3   5
TORSDOF 6
ENDMDL
MODEL       53
REMARK 921   NORMALIZED FREE ENERGY PREDICTED BY IDOCK:   -5.53 KCAL/MOL
REMARK 922        TOTAL FREE ENERGY PREDICTED BY IDOCK:   -8.80 KCAL/MOL
REMARK 923 INTER-LIGAND FREE ENERGY PREDICTED BY IDOCK:   -7.82 KCAL/MOL
REMARK 924 INTRA-LIGAND FREE ENERGY PREDICTED BY IDOCK:   -0.98 KCAL/MOL
REMARK 927      BINDING AFFINITY PREDICTED BY RF-SCORE:    0.00 PKD
ROOT
HETATM    1  F   UNL     1     -13.108   9.758  72.697  1.00  0.00    -0.430 F  
HETATM    2  C   UNL     1     -12.451   9.614  71.519  1.00  0.00    -0.386 C  
HETATM    3  O   UNL     1     -13.114  10.391  70.536  1.00  0.00    -0.328 OA 
HETATM    4  F   UNL     1     -12.570   8.309  71.162  1.00  0.00    -0.306 F  
ENDROOT
BRANCH   3   5
HETATM    5  C   UNL     1     -12.649  11.673  70.398  1.00  0.00    -0.132 A  
HETATM    6  C   UNL     1     -11.937  11.962  69.216  1.00  0.00    -0.281 A  
HETATM    7  C   UNL     1     -12.339  13.955  71.146  1.00  0.00    -0.440 A  
HETATM    8  C   UNL     1     -11.411  13.243  69.019  1.00  0.00    -0.334 A  
HETATM    9  C   UNL     1     -12.876  12.681  71.341  1.00  0.00    -0.358 A  
HETATM   10  C   UNL     1     -11.586  14.230  70.001  1.00  0.00    -0.325 A  
BRANCH   6  11
HETATM   11  O   UNL     1     -11.831  10.931  68.319  1.00  0.00    -0.530 OA 
BRANCH  11  12
HETATM   12  C   UNL     1     -10.688  10.910  67.466  1.00  0.00    -0.252 C  
BRANCH  12  13
HETATM   13  C   UNL     1     -10.709   9.620  66.700  1.00  0.00    -0.102 C  
HETATM   14  C   UNL     1      -9.480   9.152  65.961  1.00  0.00    -0.321 C  
HETATM   15  C   UNL     1      -9.945   8.414  67.186  1.00  0.00    -0.304 C  
ENDBRANCH  12  13
ENDBRANCH  11  12
ENDBRANCH   6  11
BRANCH  10  16
HETATM   16  C   UNL     1     -10.930  15.565  69.877  1.00  0.00    -0.307 C  
HETATM   17  O   UNL     1     -11.185  16.444  70.688  1.00  0.00    -0.358 OA 
HETATM   18  H   UNL     1      -9.879  14.861  68.223  1.00  0.00     0.000 HD 
HETATM   19  N   UNL     1      -9.936  15.611  68.912  1.00  0.00    -0.204 N  
BRANCH  19  20
HETATM   20  C   UNL     1      -8.992  16.676  68.855  1.00  0.00    -0.239 A  
HETATM   21  C   UNL     1      -7.683  16.408  69.287  1.00  0.00    -0.171 A  
HETATM   22  C   UNL     1      -6.741  17.425  69.248  1.00  0.00    -0.222 A  
HETATM   23 CL   UNL     1      -7.233  14.862  69.908  1.00  0.00    -0.140 Cl 
HETATM   24  N   UNL     1      -7.000  18.670  68.792  1.00  0.00    -0.281 NA 
HETATM   25  C   UNL     1      -8.261  18.899  68.347  1.00  0.00    -0.342 A  
HETATM   26  C   UNL     1      -9.283  17.953  68.353  1.00  0.00    -0.286 A  
HETATM   27 CL   UNL     1     -10.775  18.363  67.596  1.00  0.00    -0.435 Cl 
ENDBRANCH  19  20
ENDBRANCH  10  16
ENDBRANCH   3   5
TORSDOF 6
ENDMDL
MODEL       54
REMARK 921   NORMALIZED FREE ENERGY PREDICTED BY IDOCK:   -5.47 KCAL/MOL
REMARK 922        TOTAL FREE ENERGY PREDICTED BY IDOCK:   -8.72 KCAL/MOL
REMARK 923 INTER-LIGAND FREE ENERGY PREDICTED BY IDOCK:   -7.35 KCAL/MOL
REMARK 924 INTRA-LIGAND FREE ENERGY PREDICTED BY IDOCK:   -1.36 KCAL/MOL
REMARK 927      BINDING AFFINITY PREDICTED BY RF-SCORE:    0.00 PKD
ROOT
HETATM    1  F   UNL     1      -9.372  18.141  68.915  1.00  0.00    -0.298 F  
HETATM    2  C   UNL     1     -10.559  17.954  68.287  1.00  0.00    -0.304 C  
HETATM    3  O   UNL     1     -10.379  16.994  67.260  1.00  0.00    -0.301 OA 
HETATM    4  F   UNL     1     -10.880  19.134  67.697  1.00  0.00    -0.488 F  
ENDROOT
BRANCH   3   5
HETATM    5  C   UNL     1     -10.609  15.695  67.630  1.00  0.00    -0.294 A  
HETATM    6  C   UNL     1      -9.642  14.747  67.239  1.00  0.00    -0.223 A  
HETATM    7  C   UNL     1     -11.901  13.945  68.693  1.00  0.00    -0.407 A  
HETATM    8  C   UNL     1      -9.825  13.397  67.561  1.00  0.00    -0.227 A  
HETATM    9  C   UNL     1     -11.716  15.294  68.385  1.00  0.00    -0.340 A  
HETATM   10  C   UNL     1     -10.973  12.994  68.261  1.00  0.00    -0.285 A  
BRANCH   6  11
HETATM   11  O   UNL     1      -8.556  15.245  66.568  1.00  0.00    -0.276 OA 
BRANCH  11  12
HETATM   12  C   UNL     1      -7.326  15.346  67.281  1.00  0.00    -0.204 C  
BRANCH  12  13
HETATM   13  C   UNL     1      -6.908  16.787  67.278  1.00  0.00    -0.205 C  
HETATM   14  C   UNL     1      -5.795  17.258  66.376  1.00  0.00    -0.222 C  
HETATM   15  C   UNL     1      -7.211  17.684  66.104  1.00  0.00    -0.352 C  
ENDBRANCH  12  13
ENDBRANCH  11  12
ENDBRANCH   6  11
BRANCH  10  16
HETATM   16  C   UNL     1     -11.257  11.550  68.507  1.00  0.00    -0.258 C  
HETATM   17  O   UNL     1     -12.401  11.130  68.405  1.00  0.00    -0.556 OA 
HETATM   18  H   UNL     1      -9.226  11.238  68.844  1.00  0.00     0.000 HD 
HETATM   19  N   UNL     1     -10.118  10.776  68.669  1.00  0.00    -0.176 N  
BRANCH  19  20
HETATM   20  C   UNL     1     -10.158   9.354  68.599  1.00  0.00    -0.190 A  
HETATM   21  C   UNL     1     -10.325   8.648  69.801  1.00  0.00    -0.212 A  
HETATM   22  C   UNL     1     -10.363   7.263  69.767  1.00  0.00    -0.220 A  
HETATM   23 CL   UNL     1     -10.436   9.461  71.320  1.00  0.00    -0.401 Cl 
HETATM   24  N   UNL     1     -10.272   6.538  68.631  1.00  0.00    -0.160 NA 
HETATM   25  C   UNL     1     -10.145   7.239  67.477  1.00  0.00    -0.193 A  
HETATM   26  C   UNL     1     -10.085   8.628  67.401  1.00  0.00    -0.229 A  
HETATM   27 CL   UNL     1     -10.093   9.358  65.841  1.00  0.00    -0.332 Cl 
ENDBRANCH  19  20
ENDBRANCH  10  16
ENDBRANCH   3   5
TORSDOF 6
ENDMDL
MODEL       55
REMARK 921   NORMALIZED FREE ENERGY PREDICTED BY IDOCK:   -5.42 KCAL/MOL
REMARK 922        TOTAL FREE ENERGY PREDICTED BY IDOCK:   -8.65 KCAL/MOL
REMARK 923 INTER-LIGAND FREE ENERGY PREDICTED BY IDOCK:   -7.62 KCAL/MOL
REMARK 924 INTRA-LIGAND FREE ENERGY PREDICTED BY IDOCK:   -1.04 KCAL/MOL
REMARK 927      BINDING AFFINITY PREDICTED BY RF-SCORE:    0.00 PKD
ROOT
HETATM    1  F   UNL     1     -10.510  10.582  69.850  1.00  0.00    -0.264 F  
HETATM    2  C   UNL     1     -10.653  10.894  68.538  1.00  0.00    -0.190 C  
HETATM    3  O   UNL     1     -11.173  12.209  68.443  1.00  0.00    -0.225 OA 
HETATM    4  F   UNL     1     -11.585  10.044  68.034  1.00  0.00    -0.274 F  
ENDROOT
BRANCH   3   5
HETATM    5  C   UNL     1     -10.232  13.202  68.359  1.00  0.00    -0.247 A  
HETATM    6  C   UNL     1     -10.608  14.470  68.845  1.00  0.00    -0.249 A  
HETATM    7  C   UNL     1      -8.051  14.071  67.768  1.00  0.00    -0.170 A  
HETATM    8  C   UNL     1      -9.706  15.538  68.768  1.00  0.00    -0.213 A  
HETATM    9  C   UNL     1      -8.943  13.001  67.854  1.00  0.00    -0.200 A  
HETATM   10  C   UNL     1      -8.439  15.343  68.199  1.00  0.00    -0.147 A  
BRANCH   6  11
HETATM   11  O   UNL     1     -11.863  14.551  69.389  1.00  0.00    -0.290 OA 
BRANCH  11  12
HETATM   12  C   UNL     1     -11.978  15.044  70.722  1.00  0.00    -0.318 C  
BRANCH  12  13
HETATM   13  C   UNL     1     -13.413  14.912  71.140  1.00  0.00    -0.474 C  
HETATM   14  C   UNL     1     -13.792  14.025  72.299  1.00  0.00    -0.655 C  
HETATM   15  C   UNL     1     -13.907  15.518  72.430  1.00  0.00    -0.662 C  
ENDBRANCH  12  13
ENDBRANCH  11  12
ENDBRANCH   6  11
BRANCH  10  16
HETATM   16  C   UNL     1      -7.505  16.488  67.988  1.00  0.00    -0.156 C  
HETATM   17  O   UNL     1      -6.677  16.439  67.088  1.00  0.00    -0.171 OA 
HETATM   18  H   UNL     1      -8.438  17.498  69.551  1.00  0.00     0.000 HD 
HETATM   19  N   UNL     1      -7.800  17.600  68.762  1.00  0.00    -0.267 N  
BRANCH  19  20
HETATM   20  C   UNL     1      -7.239  18.879  68.487  1.00  0.00    -0.290 A  
HETATM   21  C   UNL     1      -6.126  19.278  69.247  1.00  0.00    -0.267 A  
HETATM   22  C   UNL     1      -5.559  20.520  69.007  1.00  0.00    -0.327 A  
HETATM   23 CL   UNL     1      -5.482  18.281  70.500  1.00  0.00    -0.254 Cl 
HETATM   24  N   UNL     1      -6.000  21.374  68.058  1.00  0.00    -0.301 NA 
HETATM   25  C   UNL     1      -7.053  20.957  67.313  1.00  0.00    -0.370 A  
HETATM   26  C   UNL     1      -7.702  19.736  67.479  1.00  0.00    -0.278 A  
HETATM   27 CL   UNL     1      -8.913  19.296  66.335  1.00  0.00    -0.357 Cl 
ENDBRANCH  19  20
ENDBRANCH  10  16
ENDBRANCH   3   5
TORSDOF 6
ENDMDL
MODEL       56
REMARK 921   NORMALIZED FREE ENERGY PREDICTED BY IDOCK:   -5.42 KCAL/MOL
REMARK 922        TOTAL FREE ENERGY PREDICTED BY IDOCK:   -8.65 KCAL/MOL
REMARK 923 INTER-LIGAND FREE ENERGY PREDICTED BY IDOCK:   -7.86 KCAL/MOL
REMARK 924 INTRA-LIGAND FREE ENERGY PREDICTED BY IDOCK:   -0.79 KCAL/MOL
REMARK 927      BINDING AFFINITY PREDICTED BY RF-SCORE:    0.00 PKD
ROOT
HETATM    1  F   UNL     1     -13.159  13.049  65.069  1.00  0.00    -0.499 F  
HETATM    2  C   UNL     1     -11.834  12.764  65.123  1.00  0.00    -0.391 C  
HETATM    3  O   UNL     1     -11.313  13.274  66.338  1.00  0.00    -0.296 OA 
HETATM    4  F   UNL     1     -11.247  13.444  64.105  1.00  0.00    -0.362 F  
ENDROOT
BRANCH   3   5
HETATM    5  C   UNL     1     -11.329  12.397  67.392  1.00  0.00    -0.321 A  
HETATM    6  C   UNL     1     -11.713  12.920  68.642  1.00  0.00    -0.324 A  
HETATM    7  C   UNL     1     -11.023  10.214  68.395  1.00  0.00    -0.293 A  
HETATM    8  C   UNL     1     -11.728  12.088  69.768  1.00  0.00    -0.390 A  
HETATM    9  C   UNL     1     -11.019  11.038  67.268  1.00  0.00    -0.356 A  
HETATM   10  C   UNL     1     -11.351  10.742  69.647  1.00  0.00    -0.362 A  
BRANCH   6  11
HETATM   11  O   UNL     1     -12.071  14.243  68.650  1.00  0.00    -0.325 OA 
BRANCH  11  12
HETATM   12  C   UNL     1     -12.083  14.920  69.905  1.00  0.00    -0.332 C  
BRANCH  12  13
HETATM   13  C   UNL     1     -11.052  16.009  69.852  1.00  0.00    -0.352 C  
HETATM   14  C   UNL     1      -9.792  15.828  69.043  1.00  0.00    -0.240 C  
HETATM   15  C   UNL     1     -10.835  16.815  68.596  1.00  0.00    -0.336 C  
ENDBRANCH  12  13
ENDBRANCH  11  12
ENDBRANCH   6  11
BRANCH  10  16
HETATM   16  C   UNL     1     -11.235   9.864  70.848  1.00  0.00    -0.360 C  
HETATM   17  O   UNL     1     -11.979  10.041  71.804  1.00  0.00    -0.354 OA 
HETATM   18  H   UNL     1      -9.726   8.800  69.888  1.00  0.00     0.000 HD 
HETATM   19  N   UNL     1     -10.372   8.793  70.677  1.00  0.00    -0.199 N  
BRANCH  19  20
HETATM   20  C   UNL     1     -10.363   7.683  71.569  1.00  0.00    -0.196 A  
HETATM   21  C   UNL     1      -9.197   7.464  72.321  1.00  0.00    -0.132 A  
HETATM   22  C   UNL     1      -9.154   6.389  73.196  1.00  0.00    -0.128 A  
HETATM   23 CL   UNL     1      -7.805   8.469  72.147  1.00  0.00    -0.161 Cl 
HETATM   24  N   UNL     1     -10.187   5.540  73.392  1.00  0.00    -0.189 NA 
HETATM   25  C   UNL     1     -11.315   5.789  72.681  1.00  0.00    -0.300 A  
HETATM   26  C   UNL     1     -11.459   6.833  71.770  1.00  0.00    -0.281 A  
HETATM   27 CL   UNL     1     -13.016   7.102  71.083  1.00  0.00    -0.377 Cl 
ENDBRANCH  19  20
ENDBRANCH  10  16
ENDBRANCH   3   5
TORSDOF 6
ENDMDL
MODEL       57
REMARK 921   NORMALIZED FREE ENERGY PREDICTED BY IDOCK:   -5.40 KCAL/MOL
REMARK 922        TOTAL FREE ENERGY PREDICTED BY IDOCK:   -8.61 KCAL/MOL
REMARK 923 INTER-LIGAND FREE ENERGY PREDICTED BY IDOCK:   -7.39 KCAL/MOL
REMARK 924 INTRA-LIGAND FREE ENERGY PREDICTED BY IDOCK:   -1.23 KCAL/MOL
REMARK 927      BINDING AFFINITY PREDICTED BY RF-SCORE:    0.00 PKD
ROOT
HETATM    1  F   UNL     1      -9.793  19.082  68.876  1.00  0.00    -0.393 F  
HETATM    2  C   UNL     1     -10.692  18.788  67.904  1.00  0.00    -0.285 C  
HETATM    3  O   UNL     1     -10.180  17.721  67.124  1.00  0.00    -0.326 OA 
HETATM    4  F   UNL     1     -10.775  19.881  67.104  1.00  0.00    -0.537 F  
ENDROOT
BRANCH   3   5
HETATM    5  C   UNL     1     -10.540  16.467  67.545  1.00  0.00    -0.309 A  
HETATM    6  C   UNL     1      -9.704  15.404  67.150  1.00  0.00    -0.216 A  
HETATM    7  C   UNL     1     -11.978  14.907  68.711  1.00  0.00    -0.284 A  
HETATM    8  C   UNL     1     -10.025  14.094  67.521  1.00  0.00    -0.236 A  
HETATM    9  C   UNL     1     -11.655  16.216  68.353  1.00  0.00    -0.228 A  
HETATM   10  C   UNL     1     -11.181  13.844  68.276  1.00  0.00    -0.298 A  
BRANCH   6  11
HETATM   11  O   UNL     1      -8.596  15.757  66.423  1.00  0.00    -0.284 OA 
BRANCH  11  12
HETATM   12  C   UNL     1      -7.319  15.561  67.025  1.00  0.00    -0.137 C  
BRANCH  12  13
HETATM   13  C   UNL     1      -6.811  16.900  67.474  1.00  0.00    -0.171 C  
HETATM   14  C   UNL     1      -6.950  17.324  68.914  1.00  0.00    -0.233 C  
HETATM   15  C   UNL     1      -5.591  17.015  68.352  1.00  0.00    -0.131 C  
ENDBRANCH  12  13
ENDBRANCH  11  12
ENDBRANCH   6  11
BRANCH  10  16
HETATM   16  C   UNL     1     -11.617  12.449  68.579  1.00  0.00    -0.313 C  
HETATM   17  O   UNL     1     -12.181  11.788  67.717  1.00  0.00    -0.536 OA 
HETATM   18  H   UNL     1     -10.801  12.640  70.484  1.00  0.00     0.000 HD 
HETATM   19  N   UNL     1     -11.167  11.976  69.802  1.00  0.00    -0.106 N  
BRANCH  19  20
HETATM   20  C   UNL     1     -11.203  10.592  70.133  1.00  0.00    -0.315 A  
HETATM   21  C   UNL     1     -10.208   9.766  69.586  1.00  0.00    -0.233 A  
HETATM   22  C   UNL     1     -10.218   8.413  69.885  1.00  0.00    -0.201 A  
HETATM   23 CL   UNL     1      -9.005  10.387  68.515  1.00  0.00    -0.133 Cl 
HETATM   24  N   UNL     1     -11.124   7.832  70.702  1.00  0.00    -0.255 NA 
HETATM   25  C   UNL     1     -12.056   8.652  71.247  1.00  0.00    -0.290 A  
HETATM   26  C   UNL     1     -12.142  10.021  71.004  1.00  0.00    -0.373 A  
HETATM   27 CL   UNL     1     -13.284  10.938  71.911  1.00  0.00    -0.565 Cl 
ENDBRANCH  19  20
ENDBRANCH  10  16
ENDBRANCH   3   5
TORSDOF 6
ENDMDL
MODEL       58
REMARK 921   NORMALIZED FREE ENERGY PREDICTED BY IDOCK:   -5.39 KCAL/MOL
REMARK 922        TOTAL FREE ENERGY PREDICTED BY IDOCK:   -8.61 KCAL/MOL
REMARK 923 INTER-LIGAND FREE ENERGY PREDICTED BY IDOCK:   -7.39 KCAL/MOL
REMARK 924 INTRA-LIGAND FREE ENERGY PREDICTED BY IDOCK:   -1.22 KCAL/MOL
REMARK 927      BINDING AFFINITY PREDICTED BY RF-SCORE:    0.00 PKD
ROOT
HETATM    1  F   UNL     1      -9.339   8.891  67.783  1.00  0.00    -0.140 F  
HETATM    2  C   UNL     1      -9.597   9.401  66.553  1.00  0.00    -0.208 C  
HETATM    3  O   UNL     1     -10.786  10.169  66.625  1.00  0.00    -0.178 OA 
HETATM    4  F   UNL     1      -9.837   8.344  65.735  1.00  0.00    -0.240 F  
ENDROOT
BRANCH   3   5
HETATM    5  C   UNL     1     -10.604  11.498  66.907  1.00  0.00    -0.247 A  
HETATM    6  C   UNL     1     -11.415  12.045  67.922  1.00  0.00    -0.330 A  
HETATM    7  C   UNL     1      -9.550  13.654  66.583  1.00  0.00    -0.289 A  
HETATM    8  C   UNL     1     -11.302  13.402  68.244  1.00  0.00    -0.330 A  
HETATM    9  C   UNL     1      -9.652  12.298  66.266  1.00  0.00    -0.248 A  
HETATM   10  C   UNL     1     -10.390  14.212  67.550  1.00  0.00    -0.248 A  
BRANCH   6  11
HETATM   11  O   UNL     1     -12.265  11.167  68.542  1.00  0.00    -0.600 OA 
BRANCH  11  12
HETATM   12  C   UNL     1     -12.150  11.020  69.956  1.00  0.00    -0.364 C  
BRANCH  12  13
HETATM   13  C   UNL     1     -11.545   9.675  70.232  1.00  0.00    -0.255 C  
HETATM   14  C   UNL     1     -10.113   9.563  70.690  1.00  0.00    -0.353 C  
HETATM   15  C   UNL     1     -11.231   9.237  71.641  1.00  0.00    -0.449 C  
ENDBRANCH  12  13
ENDBRANCH  11  12
ENDBRANCH   6  11
BRANCH  10  16
HETATM   16  C   UNL     1     -10.337  15.685  67.784  1.00  0.00    -0.266 C  
HETATM   17  O   UNL     1     -11.076  16.196  68.614  1.00  0.00    -0.318 OA 
HETATM   18  H   UNL     1      -8.807  15.822  66.379  1.00  0.00     0.000 HD 
HETATM   19  N   UNL     1      -9.294  16.318  67.125  1.00  0.00    -0.219 N  
BRANCH  19  20
HETATM   20  C   UNL     1      -8.883  17.640  67.460  1.00  0.00    -0.231 A  
HETATM   21  C   UNL     1      -9.566  18.706  66.852  1.00  0.00    -0.310 A  
HETATM   22  C   UNL     1      -9.187  20.005  67.153  1.00  0.00    -0.368 A  
HETATM   23 CL   UNL     1     -10.828  18.437  65.706  1.00  0.00    -0.206 Cl 
HETATM   24  N   UNL     1      -8.204  20.316  68.027  1.00  0.00    -0.160 NA 
HETATM   25  C   UNL     1      -7.580  19.273  68.629  1.00  0.00    -0.350 A  
HETATM   26  C   UNL     1      -7.875  17.933  68.389  1.00  0.00    -0.286 A  
HETATM   27 CL   UNL     1      -7.102  16.743  69.366  1.00  0.00    -0.203 Cl 
ENDBRANCH  19  20
ENDBRANCH  10  16
ENDBRANCH   3   5
TORSDOF 6
ENDMDL
MODEL       59
REMARK 921   NORMALIZED FREE ENERGY PREDICTED BY IDOCK:   -5.38 KCAL/MOL
REMARK 922        TOTAL FREE ENERGY PREDICTED BY IDOCK:   -8.59 KCAL/MOL
REMARK 923 INTER-LIGAND FREE ENERGY PREDICTED BY IDOCK:   -7.45 KCAL/MOL
REMARK 924 INTRA-LIGAND FREE ENERGY PREDICTED BY IDOCK:   -1.14 KCAL/MOL
REMARK 927      BINDING AFFINITY PREDICTED BY RF-SCORE:    0.00 PKD
ROOT
HETATM    1  F   UNL     1     -11.574   6.075  70.413  1.00  0.00    -0.405 F  
HETATM    2  C   UNL     1     -12.281   6.816  71.302  1.00  0.00    -0.364 C  
HETATM    3  O   UNL     1     -11.472   7.900  71.728  1.00  0.00    -0.252 OA 
HETATM    4  F   UNL     1     -12.509   6.023  72.379  1.00  0.00    -0.342 F  
ENDROOT
BRANCH   3   5
HETATM    5  C   UNL     1     -11.599   9.047  70.989  1.00  0.00    -0.300 A  
HETATM    6  C   UNL     1     -10.620   9.272  70.000  1.00  0.00    -0.228 A  
HETATM    7  C   UNL     1     -12.691  11.123  70.387  1.00  0.00    -0.247 A  
HETATM    8  C   UNL     1     -10.673  10.436  69.225  1.00  0.00    -0.270 A  
HETATM    9  C   UNL     1     -12.649   9.957  71.154  1.00  0.00    -0.464 A  
HETATM   10  C   UNL     1     -11.692  11.376  69.443  1.00  0.00    -0.406 A  
BRANCH   6  11
HETATM   11  O   UNL     1      -9.675   8.289  69.863  1.00  0.00    -0.177 OA 
BRANCH  11  12
HETATM   12  C   UNL     1      -8.330   8.692  69.618  1.00  0.00    -0.123 C  
BRANCH  12  13
HETATM   13  C   UNL     1      -7.729   9.115  70.926  1.00  0.00    -0.152 C  
HETATM   14  C   UNL     1      -7.990   8.317  72.178  1.00  0.00    -0.186 C  
HETATM   15  C   UNL     1      -6.618   8.321  71.565  1.00  0.00    -0.058 C  
ENDBRANCH  12  13
ENDBRANCH  11  12
ENDBRANCH   6  11
BRANCH  10  16
HETATM   16  C   UNL     1     -11.701  12.682  68.721  1.00  0.00    -0.323 C  
HETATM   17  O   UNL     1     -12.140  13.680  69.276  1.00  0.00    -0.334 OA 
HETATM   18  H   UNL     1     -10.797  11.755  67.091  1.00  0.00     0.000 HD 
HETATM   19  N   UNL     1     -11.030  12.656  67.508  1.00  0.00    -0.238 N  
BRANCH  19  20
HETATM   20  C   UNL     1     -10.657  13.850  66.827  1.00  0.00    -0.277 A  
HETATM   21  C   UNL     1      -9.386  14.382  67.098  1.00  0.00    -0.220 A  
HETATM   22  C   UNL     1      -8.995  15.547  66.456  1.00  0.00    -0.312 A  
HETATM   23 CL   UNL     1      -8.323  13.650  68.244  1.00  0.00    -0.161 Cl 
HETATM   24  N   UNL     1      -9.760  16.199  65.554  1.00  0.00    -0.467 NA 
HETATM   25  C   UNL     1     -10.970  15.650  65.281  1.00  0.00    -0.364 A  
HETATM   26  C   UNL     1     -11.463  14.492  65.877  1.00  0.00    -0.345 A  
HETATM   27 CL   UNL     1     -12.947  13.843  65.289  1.00  0.00    -0.433 Cl 
ENDBRANCH  19  20
ENDBRANCH  10  16
ENDBRANCH   3   5
TORSDOF 6
ENDMDL
MODEL       60
REMARK 921   NORMALIZED FREE ENERGY PREDICTED BY IDOCK:   -5.37 KCAL/MOL
REMARK 922        TOTAL FREE ENERGY PREDICTED BY IDOCK:   -8.58 KCAL/MOL
REMARK 923 INTER-LIGAND FREE ENERGY PREDICTED BY IDOCK:   -7.53 KCAL/MOL
REMARK 924 INTRA-LIGAND FREE ENERGY PREDICTED BY IDOCK:   -1.05 KCAL/MOL
REMARK 927      BINDING AFFINITY PREDICTED BY RF-SCORE:    0.00 PKD
ROOT
HETATM    1  F   UNL     1     -12.388  13.383  62.806  1.00  0.00    -0.498 F  
HETATM    2  C   UNL     1     -12.391  12.846  64.051  1.00  0.00    -0.380 C  
HETATM    3  O   UNL     1     -11.048  12.707  64.484  1.00  0.00    -0.298 OA 
HETATM    4  F   UNL     1     -12.919  11.600  63.939  1.00  0.00    -0.468 F  
ENDROOT
BRANCH   3   5
HETATM    5  C   UNL     1     -10.546  13.779  65.176  1.00  0.00    -0.374 A  
HETATM    6  C   UNL     1      -9.667  13.488  66.238  1.00  0.00    -0.277 A  
HETATM    7  C   UNL     1     -10.319  16.146  65.631  1.00  0.00    -0.405 A  
HETATM    8  C   UNL     1      -9.136  14.532  67.005  1.00  0.00    -0.254 A  
HETATM    9  C   UNL     1     -10.841  15.109  64.856  1.00  0.00    -0.437 A  
HETATM   10  C   UNL     1      -9.490  15.860  66.719  1.00  0.00    -0.254 A  
BRANCH   6  11
HETATM   11  O   UNL     1      -9.380  12.162  66.428  1.00  0.00    -0.221 OA 
BRANCH  11  12
HETATM   12  C   UNL     1      -8.608  11.807  67.573  1.00  0.00    -0.157 C  
BRANCH  12  13
HETATM   13  C   UNL     1      -9.518  11.117  68.547  1.00  0.00    -0.193 C  
HETATM   14  C   UNL     1     -10.854  11.720  68.901  1.00  0.00    -0.265 C  
HETATM   15  C   UNL     1     -10.794  10.458  68.087  1.00  0.00    -0.311 C  
ENDBRANCH  12  13
ENDBRANCH  11  12
ENDBRANCH   6  11
BRANCH  10  16
HETATM   16  C   UNL     1      -9.041  16.982  67.595  1.00  0.00    -0.229 C  
HETATM   17  O   UNL     1      -9.810  17.448  68.424  1.00  0.00    -0.283 OA 
HETATM   18  H   UNL     1      -7.169  16.902  66.688  1.00  0.00     0.000 HD 
HETATM   19  N   UNL     1      -7.691  17.274  67.481  1.00  0.00    -0.174 N  
BRANCH  19  20
HETATM   20  C   UNL     1      -7.012  18.079  68.440  1.00  0.00    -0.236 A  
HETATM   21  C   UNL     1      -6.255  17.421  69.422  1.00  0.00    -0.250 A  
HETATM   22  C   UNL     1      -5.586  18.176  70.373  1.00  0.00    -0.220 A  
HETATM   23 CL   UNL     1      -6.178  15.698  69.502  1.00  0.00    -0.143 Cl 
HETATM   24  N   UNL     1      -5.596  19.526  70.401  1.00  0.00    -0.233 NA 
HETATM   25  C   UNL     1      -6.305  20.144  69.423  1.00  0.00    -0.318 A  
HETATM   26  C   UNL     1      -7.020  19.481  68.429  1.00  0.00    -0.295 A  
HETATM   27 CL   UNL     1      -7.725  20.422  67.170  1.00  0.00    -0.356 Cl 
ENDBRANCH  19  20
ENDBRANCH  10  16
ENDBRANCH   3   5
TORSDOF 6
ENDMDL
MODEL       61
REMARK 921   NORMALIZED FREE ENERGY PREDICTED BY IDOCK:   -5.36 KCAL/MOL
REMARK 922        TOTAL FREE ENERGY PREDICTED BY IDOCK:   -8.57 KCAL/MOL
REMARK 923 INTER-LIGAND FREE ENERGY PREDICTED BY IDOCK:   -7.35 KCAL/MOL
REMARK 924 INTRA-LIGAND FREE ENERGY PREDICTED BY IDOCK:   -1.22 KCAL/MOL
REMARK 927      BINDING AFFINITY PREDICTED BY RF-SCORE:    0.00 PKD
ROOT
HETATM    1  F   UNL     1     -11.833   7.000  70.805  1.00  0.00    -0.332 F  
HETATM    2  C   UNL     1     -12.495   8.071  71.309  1.00  0.00    -0.253 C  
HETATM    3  O   UNL     1     -11.550   9.086  71.602  1.00  0.00    -0.307 OA 
HETATM    4  F   UNL     1     -13.049   7.671  72.482  1.00  0.00    -0.109 F  
ENDROOT
BRANCH   3   5
HETATM    5  C   UNL     1     -11.317   9.975  70.585  1.00  0.00    -0.348 A  
HETATM    6  C   UNL     1     -10.043   9.925  69.984  1.00  0.00    -0.260 A  
HETATM    7  C   UNL     1     -11.951  11.778  69.099  1.00  0.00    -0.356 A  
HETATM    8  C   UNL     1      -9.725  10.820  68.957  1.00  0.00    -0.201 A  
HETATM    9  C   UNL     1     -12.276  10.879  70.116  1.00  0.00    -0.423 A  
HETATM   10  C   UNL     1     -10.671  11.768  68.538  1.00  0.00    -0.251 A  
BRANCH   6  11
HETATM   11  O   UNL     1      -9.197   8.957  70.461  1.00  0.00    -0.170 OA 
BRANCH  11  12
HETATM   12  C   UNL     1      -8.932   7.836  69.622  1.00  0.00    -0.143 C  
BRANCH  12  13
HETATM   13  C   UNL     1      -7.514   7.944  69.142  1.00  0.00    -0.093 C  
HETATM   14  C   UNL     1      -6.924   6.874  68.259  1.00  0.00    -0.080 C  
HETATM   15  C   UNL     1      -7.202   8.240  67.697  1.00  0.00    -0.088 C  
ENDBRANCH  12  13
ENDBRANCH  11  12
ENDBRANCH   6  11
BRANCH  10  16
HETATM   16  C   UNL     1     -10.319  12.816  67.535  1.00  0.00    -0.219 C  
HETATM   17  O   UNL     1      -9.407  12.617  66.744  1.00  0.00    -0.221 OA 
HETATM   18  H   UNL     1     -11.869  13.996  68.268  1.00  0.00     0.000 HD 
HETATM   19  N   UNL     1     -11.210  13.877  67.499  1.00  0.00    -0.292 N  
BRANCH  19  20
HETATM   20  C   UNL     1     -11.233  14.805  66.419  1.00  0.00    -0.342 A  
HETATM   21  C   UNL     1     -10.509  15.999  66.572  1.00  0.00    -0.302 A  
HETATM   22  C   UNL     1     -10.514  16.925  65.541  1.00  0.00    -0.204 A  
HETATM   23 CL   UNL     1      -9.656  16.359  68.029  1.00  0.00    -0.223 Cl 
HETATM   24  N   UNL     1     -11.162  16.740  64.370  1.00  0.00    -1.107 NA 
HETATM   25  C   UNL     1     -11.826  15.566  64.228  1.00  0.00    -0.173 A  
HETATM   26  C   UNL     1     -11.893  14.575  65.204  1.00  0.00    -0.374 A  
HETATM   27 CL   UNL     1     -12.639  13.077  64.792  1.00  0.00    -0.478 Cl 
ENDBRANCH  19  20
ENDBRANCH  10  16
ENDBRANCH   3   5
TORSDOF 6
ENDMDL
MODEL       62
REMARK 921   NORMALIZED FREE ENERGY PREDICTED BY IDOCK:   -5.34 KCAL/MOL
REMARK 922        TOTAL FREE ENERGY PREDICTED BY IDOCK:   -8.54 KCAL/MOL
REMARK 923 INTER-LIGAND FREE ENERGY PREDICTED BY IDOCK:   -7.93 KCAL/MOL
REMARK 924 INTRA-LIGAND FREE ENERGY PREDICTED BY IDOCK:   -0.61 KCAL/MOL
REMARK 927      BINDING AFFINITY PREDICTED BY RF-SCORE:    0.00 PKD
ROOT
HETATM    1  F   UNL     1     -10.186  20.777  66.600  1.00  0.00    -0.501 F  
HETATM    2  C   UNL     1     -10.866  19.867  65.859  1.00  0.00    -0.234 C  
HETATM    3  O   UNL     1     -10.006  18.774  65.590  1.00  0.00    -0.436 OA 
HETATM    4  F   UNL     1     -11.156  20.465  64.675  1.00  0.00    -0.216 F  
ENDROOT
BRANCH   3   5
HETATM    5  C   UNL     1     -10.057  17.754  66.505  1.00  0.00    -0.358 A  
HETATM    6  C   UNL     1     -10.549  16.517  66.044  1.00  0.00    -0.253 A  
HETATM    7  C   UNL     1      -9.739  16.810  68.712  1.00  0.00    -0.261 A  
HETATM    8  C   UNL     1     -10.654  15.439  66.930  1.00  0.00    -0.309 A  
HETATM    9  C   UNL     1      -9.622  17.884  67.828  1.00  0.00    -0.277 A  
HETATM   10  C   UNL     1     -10.277  15.597  68.272  1.00  0.00    -0.223 A  
BRANCH   6  11
HETATM   11  O   UNL     1     -10.881  16.466  64.715  1.00  0.00    -0.697 OA 
BRANCH  11  12
HETATM   12  C   UNL     1     -11.985  15.647  64.338  1.00  0.00    -0.136 C  
BRANCH  12  13
HETATM   13  C   UNL     1     -11.535  14.216  64.385  1.00  0.00    -0.344 C  
HETATM   14  C   UNL     1     -12.453  13.145  64.918  1.00  0.00    -0.490 C  
HETATM   15  C   UNL     1     -12.121  13.185  63.452  1.00  0.00    -0.558 C  
ENDBRANCH  12  13
ENDBRANCH  11  12
ENDBRANCH   6  11
BRANCH  10  16
HETATM   16  C   UNL     1     -10.495  14.506  69.267  1.00  0.00    -0.173 C  
HETATM   17  O   UNL     1      -9.673  14.320  70.154  1.00  0.00     0.870 OA 
HETATM   18  H   UNL     1     -12.303  14.059  68.336  1.00  0.00     0.000 HD 
HETATM   19  N   UNL     1     -11.741  13.904  69.173  1.00  0.00    -0.313 N  
BRANCH  19  20
HETATM   20  C   UNL     1     -12.257  13.077  70.210  1.00  0.00    -0.296 A  
HETATM   21  C   UNL     1     -13.028  13.693  71.210  1.00  0.00    -0.322 A  
HETATM   22  C   UNL     1     -13.542  12.916  72.236  1.00  0.00    -0.515 A  
HETATM   23 CL   UNL     1     -13.310  15.396  71.215  1.00  0.00    -0.562 Cl 
HETATM   24  N   UNL     1     -13.366  11.579  72.325  1.00  0.00    -0.252 NA 
HETATM   25  C   UNL     1     -12.647  10.999  71.332  1.00  0.00    -0.393 A  
HETATM   26  C   UNL     1     -12.079  11.687  70.264  1.00  0.00    -0.358 A  
HETATM   27 CL   UNL     1     -11.342  10.771  69.005  1.00  0.00    -0.317 Cl 
ENDBRANCH  19  20
ENDBRANCH  10  16
ENDBRANCH   3   5
TORSDOF 6
ENDMDL
MODEL       63
REMARK 921   NORMALIZED FREE ENERGY PREDICTED BY IDOCK:   -5.32 KCAL/MOL
REMARK 922        TOTAL FREE ENERGY PREDICTED BY IDOCK:   -8.51 KCAL/MOL
REMARK 923 INTER-LIGAND FREE ENERGY PREDICTED BY IDOCK:   -7.55 KCAL/MOL
REMARK 924 INTRA-LIGAND FREE ENERGY PREDICTED BY IDOCK:   -0.96 KCAL/MOL
REMARK 927      BINDING AFFINITY PREDICTED BY RF-SCORE:    0.00 PKD
ROOT
HETATM    1  F   UNL     1      -8.949  19.194  65.848  1.00  0.00    -0.302 F  
HETATM    2  C   UNL     1     -10.130  18.608  66.162  1.00  0.00    -0.369 C  
HETATM    3  O   UNL     1     -10.280  17.444  65.367  1.00  0.00    -0.603 OA 
HETATM    4  F   UNL     1     -11.107  19.480  65.804  1.00  0.00    -0.450 F  
ENDROOT
BRANCH   3   5
HETATM    5  C   UNL     1      -9.799  16.290  65.929  1.00  0.00    -0.334 A  
HETATM    6  C   UNL     1     -10.435  15.091  65.550  1.00  0.00    -0.365 A  
HETATM    7  C   UNL     1      -8.304  15.046  67.371  1.00  0.00    -0.210 A  
HETATM    8  C   UNL     1     -10.013  13.877  66.104  1.00  0.00    -0.322 A  
HETATM    9  C   UNL     1      -8.714  16.257  66.812  1.00  0.00    -0.264 A  
HETATM   10  C   UNL     1      -8.967  13.861  67.039  1.00  0.00    -0.251 A  
BRANCH   6  11
HETATM   11  O   UNL     1     -11.438  15.215  64.624  1.00  0.00    -0.397 OA 
BRANCH  11  12
HETATM   12  C   UNL     1     -12.450  14.212  64.604  1.00  0.00    -0.350 C  
BRANCH  12  13
HETATM   13  C   UNL     1     -12.193  13.321  63.425  1.00  0.00    -0.476 C  
HETATM   14  C   UNL     1     -11.304  12.111  63.563  1.00  0.00    -0.535 C  
HETATM   15  C   UNL     1     -12.782  11.935  63.353  1.00  0.00    -0.496 C  
ENDBRANCH  12  13
ENDBRANCH  11  12
ENDBRANCH   6  11
BRANCH  10  16
HETATM   16  C   UNL     1      -8.580  12.601  67.740  1.00  0.00    -0.179 C  
HETATM   17  O   UNL     1      -7.810  12.646  68.689  1.00  0.00    -0.118 OA 
HETATM   18  H   UNL     1      -9.831  11.539  66.459  1.00  0.00     0.000 HD 
HETATM   19  N   UNL     1      -9.295  11.488  67.325  1.00  0.00    -0.165 N  
BRANCH  19  20
HETATM   20  C   UNL     1      -9.303  10.277  68.073  1.00  0.00    -0.138 A  
HETATM   21  C   UNL     1      -8.315   9.323  67.776  1.00  0.00    -0.116 A  
HETATM   22  C   UNL     1      -8.299   8.131  68.483  1.00  0.00    -0.126 A  
HETATM   23 CL   UNL     1      -7.156   9.580  66.523  1.00  0.00    -0.085 Cl 
HETATM   24  N   UNL     1      -9.170   7.833  69.471  1.00  0.00    -0.150 NA 
HETATM   25  C   UNL     1     -10.095   8.780  69.766  1.00  0.00    -0.196 A  
HETATM   26  C   UNL     1     -10.206  10.004  69.111  1.00  0.00    -0.210 A  
HETATM   27 CL   UNL     1     -11.329  11.157  69.726  1.00  0.00    -0.343 Cl 
ENDBRANCH  19  20
ENDBRANCH  10  16
ENDBRANCH   3   5
TORSDOF 6
ENDMDL
MODEL       64
REMARK 921   NORMALIZED FREE ENERGY PREDICTED BY IDOCK:   -5.32 KCAL/MOL
REMARK 922        TOTAL FREE ENERGY PREDICTED BY IDOCK:   -8.50 KCAL/MOL
REMARK 923 INTER-LIGAND FREE ENERGY PREDICTED BY IDOCK:   -7.49 KCAL/MOL
REMARK 924 INTRA-LIGAND FREE ENERGY PREDICTED BY IDOCK:   -1.01 KCAL/MOL
REMARK 927      BINDING AFFINITY PREDICTED BY RF-SCORE:    0.00 PKD
ROOT
HETATM    1  F   UNL     1     -11.834   6.813  71.610  1.00  0.00    -0.295 F  
HETATM    2  C   UNL     1     -11.475   7.869  72.382  1.00  0.00    -0.376 C  
HETATM    3  O   UNL     1     -10.419   8.559  71.735  1.00  0.00    -0.248 OA 
HETATM    4  F   UNL     1     -10.985   7.358  73.540  1.00  0.00    -0.400 F  
ENDROOT
BRANCH   3   5
HETATM    5  C   UNL     1     -10.811   9.573  70.900  1.00  0.00    -0.337 A  
HETATM    6  C   UNL     1      -9.951   9.873  69.825  1.00  0.00    -0.243 A  
HETATM    7  C   UNL     1     -12.326  11.320  70.181  1.00  0.00    -0.354 A  
HETATM    8  C   UNL     1     -10.276  10.913  68.947  1.00  0.00    -0.213 A  
HETATM    9  C   UNL     1     -12.012  10.275  71.052  1.00  0.00    -0.483 A  
HETATM   10  C   UNL     1     -11.449  11.657  69.146  1.00  0.00    -0.364 A  
BRANCH   6  11
HETATM   11  O   UNL     1      -8.837   9.083  69.715  1.00  0.00    -0.138 OA 
BRANCH  11  12
HETATM   12  C   UNL     1      -7.683   9.454  70.465  1.00  0.00    -0.161 C  
BRANCH  12  13
HETATM   13  C   UNL     1      -6.624   9.890  69.495  1.00  0.00    -0.051 C  
HETATM   14  C   UNL     1      -6.661  11.274  68.896  1.00  0.00    -0.068 C  
HETATM   15  C   UNL     1      -5.586  10.913  69.884  1.00  0.00    -0.060 C  
ENDBRANCH  12  13
ENDBRANCH  11  12
ENDBRANCH   6  11
BRANCH  10  16
HETATM   16  C   UNL     1     -11.757  12.850  68.304  1.00  0.00    -0.350 C  
HETATM   17  O   UNL     1     -12.466  13.742  68.751  1.00  0.00    -0.151 OA 
HETATM   18  H   UNL     1     -10.564  12.055  66.795  1.00  0.00     0.000 HD 
HETATM   19  N   UNL     1     -11.042  12.896  67.118  1.00  0.00    -0.266 N  
BRANCH  19  20
HETATM   20  C   UNL     1     -10.954  14.084  66.338  1.00  0.00    -0.308 A  
HETATM   21  C   UNL     1     -11.739  14.158  65.175  1.00  0.00    -0.361 A  
HETATM   22  C   UNL     1     -11.673  15.299  64.391  1.00  0.00    -0.285 A  
HETATM   23 CL   UNL     1     -12.743  12.845  64.676  1.00  0.00    -0.441 Cl 
HETATM   24  N   UNL     1     -10.909  16.372  64.691  1.00  0.00    -0.717 NA 
HETATM   25  C   UNL     1     -10.184  16.295  65.835  1.00  0.00    -0.364 A  
HETATM   26  C   UNL     1     -10.170  15.193  66.687  1.00  0.00    -0.266 A  
HETATM   27 CL   UNL     1      -9.326  15.332  68.182  1.00  0.00    -0.196 Cl 
ENDBRANCH  19  20
ENDBRANCH  10  16
ENDBRANCH   3   5
TORSDOF 6
ENDMDL
MODEL       65
REMARK 921   NORMALIZED FREE ENERGY PREDICTED BY IDOCK:   -5.31 KCAL/MOL
REMARK 922        TOTAL FREE ENERGY PREDICTED BY IDOCK:   -8.49 KCAL/MOL
REMARK 923 INTER-LIGAND FREE ENERGY PREDICTED BY IDOCK:   -7.27 KCAL/MOL
REMARK 924 INTRA-LIGAND FREE ENERGY PREDICTED BY IDOCK:   -1.22 KCAL/MOL
REMARK 927      BINDING AFFINITY PREDICTED BY RF-SCORE:    0.00 PKD
ROOT
HETATM    1  F   UNL     1     -10.159   5.523  66.159  1.00  0.00    -0.187 F  
HETATM    2  C   UNL     1     -10.252   5.574  67.511  1.00  0.00    -0.199 C  
HETATM    3  O   UNL     1      -9.336   6.545  67.987  1.00  0.00    -0.113 OA 
HETATM    4  F   UNL     1      -9.849   4.364  67.976  1.00  0.00    -0.202 F  
ENDROOT
BRANCH   3   5
HETATM    5  C   UNL     1      -9.845   7.812  68.115  1.00  0.00    -0.167 A  
HETATM    6  C   UNL     1      -9.846   8.363  69.412  1.00  0.00    -0.185 A  
HETATM    7  C   UNL     1     -10.854   9.835  67.249  1.00  0.00    -0.247 A  
HETATM    8  C   UNL     1     -10.375   9.642  69.621  1.00  0.00    -0.245 A  
HETATM    9  C   UNL     1     -10.317   8.564  67.034  1.00  0.00    -0.379 A  
HETATM   10  C   UNL     1     -10.908  10.364  68.542  1.00  0.00    -0.278 A  
BRANCH   6  11
HETATM   11  O   UNL     1      -9.295   7.581  70.392  1.00  0.00    -0.161 OA 
BRANCH  11  12
HETATM   12  C   UNL     1      -9.660   7.854  71.743  1.00  0.00    -0.165 C  
BRANCH  12  13
HETATM   13  C   UNL     1     -10.669   6.827  72.165  1.00  0.00    -0.249 C  
HETATM   14  C   UNL     1     -12.106   6.943  71.724  1.00  0.00    -0.385 C  
HETATM   15  C   UNL     1     -11.240   5.844  71.175  1.00  0.00    -0.281 C  
ENDBRANCH  12  13
ENDBRANCH  11  12
ENDBRANCH   6  11
BRANCH  10  16
HETATM   16  C   UNL     1     -11.591  11.674  68.754  1.00  0.00    -0.313 C  
HETATM   17  O   UNL     1     -12.388  12.084  67.922  1.00  0.00    -0.338 OA 
HETATM   18  H   UNL     1     -10.600  11.862  70.575  1.00  0.00     0.000 HD 
HETATM   19  N   UNL     1     -11.361  12.228  70.004  1.00  0.00    -0.037 N  
BRANCH  19  20
HETATM   20  C   UNL     1     -12.157  13.293  70.513  1.00  0.00    -0.314 A  
HETATM   21  C   UNL     1     -13.126  12.977  71.479  1.00  0.00    -0.310 A  
HETATM   22  C   UNL     1     -13.920  13.991  71.991  1.00  0.00    -0.506 A  
HETATM   23 CL   UNL     1     -13.381  11.353  72.007  1.00  0.00    -0.518 Cl 
HETATM   24  N   UNL     1     -13.804  15.288  71.632  1.00  0.00    -0.483 NA 
HETATM   25  C   UNL     1     -12.841  15.578  70.722  1.00  0.00    -0.458 A  
HETATM   26  C   UNL     1     -11.998  14.635  70.139  1.00  0.00    -0.313 A  
HETATM   27 CL   UNL     1     -10.720  15.200  69.131  1.00  0.00    -0.243 Cl 
ENDBRANCH  19  20
ENDBRANCH  10  16
ENDBRANCH   3   5
TORSDOF 6
ENDMDL
MODEL       66
REMARK 921   NORMALIZED FREE ENERGY PREDICTED BY IDOCK:   -5.31 KCAL/MOL
REMARK 922        TOTAL FREE ENERGY PREDICTED BY IDOCK:   -8.49 KCAL/MOL
REMARK 923 INTER-LIGAND FREE ENERGY PREDICTED BY IDOCK:   -7.42 KCAL/MOL
REMARK 924 INTRA-LIGAND FREE ENERGY PREDICTED BY IDOCK:   -1.07 KCAL/MOL
REMARK 927      BINDING AFFINITY PREDICTED BY RF-SCORE:    0.00 PKD
ROOT
HETATM    1  F   UNL     1      -9.316   8.051  67.928  1.00  0.00    -0.137 F  
HETATM    2  C   UNL     1     -10.202   8.355  66.947  1.00  0.00    -0.313 C  
HETATM    3  O   UNL     1     -11.134   9.293  67.458  1.00  0.00    -0.101 OA 
HETATM    4  F   UNL     1     -10.880   7.212  66.665  1.00  0.00    -0.378 F  
ENDROOT
BRANCH   3   5
HETATM    5  C   UNL     1     -10.797  10.608  67.271  1.00  0.00    -0.287 A  
HETATM    6  C   UNL     1     -11.371  11.539  68.160  1.00  0.00    -0.298 A  
HETATM    7  C   UNL     1      -9.641  12.405  66.131  1.00  0.00    -0.238 A  
HETATM    8  C   UNL     1     -11.092  12.902  68.012  1.00  0.00    -0.283 A  
HETATM    9  C   UNL     1      -9.907  11.043  66.283  1.00  0.00    -0.257 A  
HETATM   10  C   UNL     1     -10.251  13.336  66.976  1.00  0.00    -0.244 A  
BRANCH   6  11
HETATM   11  O   UNL     1     -12.170  11.011  69.141  1.00  0.00    -0.434 OA 
BRANCH  11  12
HETATM   12  C   UNL     1     -11.602  10.839  70.437  1.00  0.00    -0.339 C  
BRANCH  12  13
HETATM   13  C   UNL     1     -11.848   9.421  70.863  1.00  0.00    -0.365 C  
HETATM   14  C   UNL     1     -11.060   8.818  71.998  1.00  0.00    -0.441 C  
HETATM   15  C   UNL     1     -12.524   9.109  72.175  1.00  0.00    -0.436 C  
ENDBRANCH  12  13
ENDBRANCH  11  12
ENDBRANCH   6  11
BRANCH  10  16
HETATM   16  C   UNL     1     -10.036  14.790  66.717  1.00  0.00    -0.256 C  
HETATM   17  O   UNL     1     -10.603  15.329  65.775  1.00  0.00    -0.308 OA 
HETATM   18  H   UNL     1      -8.803  14.876  68.391  1.00  0.00     0.000 HD 
HETATM   19  N   UNL     1      -9.318  15.435  67.711  1.00  0.00    -0.195 N  
BRANCH  19  20
HETATM   20  C   UNL     1      -9.278  16.855  67.810  1.00  0.00    -0.230 A  
HETATM   21  C   UNL     1     -10.179  17.471  68.694  1.00  0.00    -0.373 A  
HETATM   22  C   UNL     1     -10.169  18.852  68.810  1.00  0.00    -0.264 A  
HETATM   23 CL   UNL     1     -11.328  16.554  69.600  1.00  0.00    -0.176 Cl 
HETATM   24  N   UNL     1      -9.318  19.655  68.134  1.00  0.00    -0.343 NA 
HETATM   25  C   UNL     1      -8.433  19.039  67.312  1.00  0.00    -0.277 A  
HETATM   26  C   UNL     1      -8.366  17.662  67.115  1.00  0.00    -0.218 A  
HETATM   27 CL   UNL     1      -7.071  17.038  66.165  1.00  0.00    -0.229 Cl 
ENDBRANCH  19  20
ENDBRANCH  10  16
ENDBRANCH   3   5
TORSDOF 6
ENDMDL
MODEL       67
REMARK 921   NORMALIZED FREE ENERGY PREDICTED BY IDOCK:   -5.30 KCAL/MOL
REMARK 922        TOTAL FREE ENERGY PREDICTED BY IDOCK:   -8.48 KCAL/MOL
REMARK 923 INTER-LIGAND FREE ENERGY PREDICTED BY IDOCK:   -7.88 KCAL/MOL
REMARK 924 INTRA-LIGAND FREE ENERGY PREDICTED BY IDOCK:   -0.61 KCAL/MOL
REMARK 927      BINDING AFFINITY PREDICTED BY RF-SCORE:    0.00 PKD
ROOT
HETATM    1  F   UNL     1      -9.204  17.351  68.159  1.00  0.00    -0.241 F  
HETATM    2  C   UNL     1     -10.551  17.217  68.069  1.00  0.00    -0.374 C  
HETATM    3  O   UNL     1     -10.839  16.159  67.171  1.00  0.00    -0.302 OA 
HETATM    4  F   UNL     1     -11.021  18.365  67.518  1.00  0.00    -0.437 F  
ENDROOT
BRANCH   3   5
HETATM    5  C   UNL     1     -10.966  14.923  67.750  1.00  0.00    -0.293 A  
HETATM    6  C   UNL     1     -10.440  13.832  67.029  1.00  0.00    -0.274 A  
HETATM    7  C   UNL     1     -11.677  13.422  69.511  1.00  0.00    -0.385 A  
HETATM    8  C   UNL     1     -10.557  12.537  67.548  1.00  0.00    -0.238 A  
HETATM    9  C   UNL     1     -11.552  14.716  69.003  1.00  0.00    -0.328 A  
HETATM   10  C   UNL     1     -11.206  12.331  68.775  1.00  0.00    -0.312 A  
BRANCH   6  11
HETATM   11  O   UNL     1      -9.819  14.142  65.847  1.00  0.00    -0.304 OA 
BRANCH  11  12
HETATM   12  C   UNL     1     -10.624  14.205  64.672  1.00  0.00    -0.368 C  
BRANCH  12  13
HETATM   13  C   UNL     1     -11.225  12.848  64.452  1.00  0.00    -0.389 C  
HETATM   14  C   UNL     1     -11.888  12.511  63.140  1.00  0.00    -0.346 C  
HETATM   15  C   UNL     1     -10.586  11.857  63.511  1.00  0.00    -0.507 C  
ENDBRANCH  12  13
ENDBRANCH  11  12
ENDBRANCH   6  11
BRANCH  10  16
HETATM   16  C   UNL     1     -11.457  10.954  69.291  1.00  0.00    -0.302 C  
HETATM   17  O   UNL     1     -12.598  10.606  69.564  1.00  0.00    -0.259 OA 
HETATM   18  H   UNL     1      -9.424  10.545  69.106  1.00  0.00     0.000 HD 
HETATM   19  N   UNL     1     -10.344  10.128  69.247  1.00  0.00    -0.208 N  
BRANCH  19  20
HETATM   20  C   UNL     1     -10.449   8.716  69.392  1.00  0.00    -0.218 A  
HETATM   21  C   UNL     1     -10.672   8.210  70.684  1.00  0.00    -0.224 A  
HETATM   22  C   UNL     1     -10.773   6.839  70.860  1.00  0.00    -0.233 A  
HETATM   23 CL   UNL     1     -10.774   9.249  72.058  1.00  0.00    -0.249 Cl 
HETATM   24  N   UNL     1     -10.694   5.945  69.849  1.00  0.00    -0.305 NA 
HETATM   25  C   UNL     1     -10.512   6.455  68.606  1.00  0.00    -0.223 A  
HETATM   26  C   UNL     1     -10.387   7.813  68.321  1.00  0.00    -0.198 A  
HETATM   27 CL   UNL     1     -10.331   8.295  66.669  1.00  0.00    -0.356 Cl 
ENDBRANCH  19  20
ENDBRANCH  10  16
ENDBRANCH   3   5
TORSDOF 6
ENDMDL
MODEL       68
REMARK 921   NORMALIZED FREE ENERGY PREDICTED BY IDOCK:   -5.29 KCAL/MOL
REMARK 922        TOTAL FREE ENERGY PREDICTED BY IDOCK:   -8.47 KCAL/MOL
REMARK 923 INTER-LIGAND FREE ENERGY PREDICTED BY IDOCK:   -7.06 KCAL/MOL
REMARK 924 INTRA-LIGAND FREE ENERGY PREDICTED BY IDOCK:   -1.41 KCAL/MOL
REMARK 927      BINDING AFFINITY PREDICTED BY RF-SCORE:    0.00 PKD
ROOT
HETATM    1  F   UNL     1     -11.518  11.501  63.794  1.00  0.00    -0.452 F  
HETATM    2  C   UNL     1     -10.319  10.910  64.023  1.00  0.00    -0.349 C  
HETATM    3  O   UNL     1      -9.689  11.573  65.106  1.00  0.00    -0.236 OA 
HETATM    4  F   UNL     1      -9.562  11.120  62.915  1.00  0.00    -0.267 F  
ENDROOT
BRANCH   3   5
HETATM    5  C   UNL     1      -9.949  11.042  66.343  1.00  0.00    -0.222 A  
HETATM    6  C   UNL     1     -10.014  11.951  67.418  1.00  0.00    -0.190 A  
HETATM    7  C   UNL     1     -10.400   9.209  67.860  1.00  0.00    -0.285 A  
HETATM    8  C   UNL     1     -10.250  11.476  68.714  1.00  0.00    -0.204 A  
HETATM    9  C   UNL     1     -10.177   9.680  66.564  1.00  0.00    -0.294 A  
HETATM   10  C   UNL     1     -10.411  10.101  68.936  1.00  0.00    -0.223 A  
BRANCH   6  11
HETATM   11  O   UNL     1      -9.852  13.272  67.092  1.00  0.00    -0.228 OA 
BRANCH  11  12
HETATM   12  C   UNL     1     -10.699  14.222  67.734  1.00  0.00    -0.251 C  
BRANCH  12  13
HETATM   13  C   UNL     1     -11.587  14.829  66.688  1.00  0.00    -0.319 C  
HETATM   14  C   UNL     1     -11.263  14.666  65.224  1.00  0.00    -0.358 C  
HETATM   15  C   UNL     1     -12.457  13.966  65.809  1.00  0.00    -0.530 C  
ENDBRANCH  12  13
ENDBRANCH  11  12
ENDBRANCH   6  11
BRANCH  10  16
HETATM   16  C   UNL     1     -10.537   9.554  70.319  1.00  0.00    -0.266 C  
HETATM   17  O   UNL     1     -11.370  10.022  71.083  1.00  0.00    -0.360 OA 
HETATM   18  H   UNL     1      -9.040   8.176  69.879  1.00  0.00     0.000 HD 
HETATM   19  N   UNL     1      -9.777   8.417  70.542  1.00  0.00    -0.171 N  
BRANCH  19  20
HETATM   20  C   UNL     1      -9.994   7.575  71.670  1.00  0.00    -0.175 A  
HETATM   21  C   UNL     1     -10.969   6.570  71.553  1.00  0.00    -0.255 A  
HETATM   22  C   UNL     1     -11.208   5.737  72.635  1.00  0.00    -0.301 A  
HETATM   23 CL   UNL     1     -11.906   6.381  70.116  1.00  0.00    -0.401 Cl 
HETATM   24  N   UNL     1     -10.537   5.816  73.805  1.00  0.00    -0.267 NA 
HETATM   25  C   UNL     1      -9.576   6.770  73.886  1.00  0.00    -0.230 A  
HETATM   26  C   UNL     1      -9.265   7.663  72.864  1.00  0.00    -0.188 A  
HETATM   27 CL   UNL     1      -7.903   8.698  73.076  1.00  0.00    -0.036 Cl 
ENDBRANCH  19  20
ENDBRANCH  10  16
ENDBRANCH   3   5
TORSDOF 6
ENDMDL
MODEL       69
REMARK 921   NORMALIZED FREE ENERGY PREDICTED BY IDOCK:   -5.27 KCAL/MOL
REMARK 922        TOTAL FREE ENERGY PREDICTED BY IDOCK:   -8.44 KCAL/MOL
REMARK 923 INTER-LIGAND FREE ENERGY PREDICTED BY IDOCK:   -7.26 KCAL/MOL
REMARK 924 INTRA-LIGAND FREE ENERGY PREDICTED BY IDOCK:   -1.18 KCAL/MOL
REMARK 927      BINDING AFFINITY PREDICTED BY RF-SCORE:    0.00 PKD
ROOT
HETATM    1  F   UNL     1      -6.569   6.119  70.263  1.00  0.00    -0.038 F  
HETATM    2  C   UNL     1      -7.872   6.303  70.588  1.00  0.00    -0.107 C  
HETATM    3  O   UNL     1      -8.005   7.567  71.217  1.00  0.00    -0.093 OA 
HETATM    4  F   UNL     1      -8.184   5.352  71.506  1.00  0.00    -0.108 F  
ENDROOT
BRANCH   3   5
HETATM    5  C   UNL     1      -8.287   8.610  70.373  1.00  0.00    -0.130 A  
HETATM    6  C   UNL     1      -9.514   9.273  70.577  1.00  0.00    -0.264 A  
HETATM    7  C   UNL     1      -7.789  10.093  68.525  1.00  0.00    -0.095 A  
HETATM    8  C   UNL     1      -9.879  10.330  69.736  1.00  0.00    -0.201 A  
HETATM    9  C   UNL     1      -7.415   9.046  69.369  1.00  0.00    -0.077 A  
HETATM   10  C   UNL     1      -9.028  10.718  68.690  1.00  0.00    -0.162 A  
BRANCH   6  11
HETATM   11  O   UNL     1     -10.266   8.822  71.631  1.00  0.00    -0.265 OA 
BRANCH  11  12
HETATM   12  C   UNL     1     -11.511   8.194  71.336  1.00  0.00    -0.263 C  
BRANCH  12  13
HETATM   13  C   UNL     1     -12.535   8.728  72.295  1.00  0.00    -0.455 C  
HETATM   14  C   UNL     1     -13.180  10.069  72.053  1.00  0.00    -0.545 C  
HETATM   15  C   UNL     1     -13.991   8.811  71.912  1.00  0.00    -0.493 C  
ENDBRANCH  12  13
ENDBRANCH  11  12
ENDBRANCH   6  11
BRANCH  10  16
HETATM   16  C   UNL     1      -9.447  11.755  67.702  1.00  0.00    -0.180 C  
HETATM   17  O   UNL     1      -8.602  12.461  67.169  1.00  0.00    -0.177 OA 
HETATM   18  H   UNL     1     -11.422  11.140  67.937  1.00  0.00     0.000 HD 
HETATM   19  N   UNL     1     -10.788  11.690  67.358  1.00  0.00    -0.236 N  
BRANCH  19  20
HETATM   20  C   UNL     1     -11.306  12.370  66.219  1.00  0.00    -0.340 A  
HETATM   21  C   UNL     1     -11.929  13.612  66.431  1.00  0.00    -0.426 A  
HETATM   22  C   UNL     1     -12.448  14.297  65.343  1.00  0.00    -0.425 A  
HETATM   23 CL   UNL     1     -12.103  14.279  68.013  1.00  0.00    -0.346 Cl 
HETATM   24  N   UNL     1     -12.372  13.851  64.070  1.00  0.00    -0.683 NA 
HETATM   25  C   UNL     1     -11.737  12.667  63.883  1.00  0.00    -0.457 A  
HETATM   26  C   UNL     1     -11.191  11.895  64.905  1.00  0.00    -0.292 A  
HETATM   27 CL   UNL     1     -10.274  10.503  64.471  1.00  0.00    -0.407 Cl 
ENDBRANCH  19  20
ENDBRANCH  10  16
ENDBRANCH   3   5
TORSDOF 6
ENDMDL
MODEL       70
REMARK 921   NORMALIZED FREE ENERGY PREDICTED BY IDOCK:   -5.26 KCAL/MOL
REMARK 922        TOTAL FREE ENERGY PREDICTED BY IDOCK:   -8.43 KCAL/MOL
REMARK 923 INTER-LIGAND FREE ENERGY PREDICTED BY IDOCK:   -7.33 KCAL/MOL
REMARK 924 INTRA-LIGAND FREE ENERGY PREDICTED BY IDOCK:   -1.11 KCAL/MOL
REMARK 927      BINDING AFFINITY PREDICTED BY RF-SCORE:    0.00 PKD
ROOT
HETATM    1  F   UNL     1     -11.757  13.416  63.552  1.00  0.00    -0.449 F  
HETATM    2  C   UNL     1     -10.840  13.670  64.518  1.00  0.00    -0.406 C  
HETATM    3  O   UNL     1     -11.292  13.091  65.731  1.00  0.00    -0.289 OA 
HETATM    4  F   UNL     1     -10.815  15.017  64.688  1.00  0.00    -0.385 F  
ENDROOT
BRANCH   3   5
HETATM    5  C   UNL     1     -10.865  11.809  65.958  1.00  0.00    -0.296 A  
HETATM    6  C   UNL     1     -11.257  11.220  67.177  1.00  0.00    -0.275 A  
HETATM    7  C   UNL     1      -9.678   9.786  65.358  1.00  0.00    -0.383 A  
HETATM    8  C   UNL     1     -10.835   9.922  67.487  1.00  0.00    -0.307 A  
HETATM    9  C   UNL     1     -10.106  11.076  65.039  1.00  0.00    -0.354 A  
HETATM   10  C   UNL     1     -10.019   9.218  66.589  1.00  0.00    -0.333 A  
BRANCH   6  11
HETATM   11  O   UNL     1     -12.061  11.988  67.978  1.00  0.00    -0.514 OA 
BRANCH  11  12
HETATM   12  C   UNL     1     -11.857  11.915  69.387  1.00  0.00    -0.327 C  
BRANCH  12  13
HETATM   13  C   UNL     1     -11.562  13.301  69.883  1.00  0.00    -0.260 C  
HETATM   14  C   UNL     1     -12.143  14.502  69.181  1.00  0.00    -0.299 C  
HETATM   15  C   UNL     1     -12.628  14.130  70.554  1.00  0.00    -0.410 C  
ENDBRANCH  12  13
ENDBRANCH  11  12
ENDBRANCH   6  11
BRANCH  10  16
HETATM   16  C   UNL     1      -9.452   7.885  66.947  1.00  0.00    -0.191 C  
HETATM   17  O   UNL     1      -8.256   7.778  67.185  1.00  0.00    -0.115 OA 
HETATM   18  H   UNL     1     -11.362   7.069  66.811  1.00  0.00     0.000 HD 
HETATM   19  N   UNL     1     -10.411   6.903  67.139  1.00  0.00    -0.237 N  
BRANCH  19  20
HETATM   20  C   UNL     1     -10.106   5.669  67.782  1.00  0.00    -0.171 A  
HETATM   21  C   UNL     1      -9.695   4.598  66.972  1.00  0.00    -0.195 A  
HETATM   22  C   UNL     1      -9.396   3.382  67.567  1.00  0.00    -0.204 A  
HETATM   23 CL   UNL     1      -9.601   4.746  65.255  1.00  0.00    -0.155 Cl 
HETATM   24  N   UNL     1      -9.452   3.165  68.899  1.00  0.00    -0.158 NA 
HETATM   25  C   UNL     1      -9.818   4.221  69.667  1.00  0.00    -0.174 A  
HETATM   26  C   UNL     1     -10.150   5.480  69.171  1.00  0.00    -0.216 A  
HETATM   27 CL   UNL     1     -10.428   6.751  70.299  1.00  0.00    -0.225 Cl 
ENDBRANCH  19  20
ENDBRANCH  10  16
ENDBRANCH   3   5
TORSDOF 6
ENDMDL
MODEL       71
REMARK 921   NORMALIZED FREE ENERGY PREDICTED BY IDOCK:   -5.26 KCAL/MOL
REMARK 922        TOTAL FREE ENERGY PREDICTED BY IDOCK:   -8.43 KCAL/MOL
REMARK 923 INTER-LIGAND FREE ENERGY PREDICTED BY IDOCK:   -7.31 KCAL/MOL
REMARK 924 INTRA-LIGAND FREE ENERGY PREDICTED BY IDOCK:   -1.12 KCAL/MOL
REMARK 927      BINDING AFFINITY PREDICTED BY RF-SCORE:    0.00 PKD
ROOT
HETATM    1  F   UNL     1      -5.813   8.396  71.682  1.00  0.00    -0.034 F  
HETATM    2  C   UNL     1      -6.956   7.672  71.776  1.00  0.00    -0.062 C  
HETATM    3  O   UNL     1      -7.990   8.522  72.244  1.00  0.00    -0.227 OA 
HETATM    4  F   UNL     1      -6.741   6.724  72.724  1.00  0.00    -0.064 F  
ENDROOT
BRANCH   3   5
HETATM    5  C   UNL     1      -8.716   9.148  71.265  1.00  0.00    -0.086 A  
HETATM    6  C   UNL     1     -10.116   9.160  71.427  1.00  0.00    -0.322 A  
HETATM    7  C   UNL     1      -8.944  10.369  69.186  1.00  0.00    -0.188 A  
HETATM    8  C   UNL     1     -10.922   9.759  70.453  1.00  0.00    -0.371 A  
HETATM    9  C   UNL     1      -8.135   9.783  70.162  1.00  0.00    -0.202 A  
HETATM   10  C   UNL     1     -10.335  10.335  69.317  1.00  0.00    -0.250 A  
BRANCH   6  11
HETATM   11  O   UNL     1     -10.587   8.578  72.576  1.00  0.00    -0.331 OA 
BRANCH  11  12
HETATM   12  C   UNL     1     -11.656   7.644  72.455  1.00  0.00    -0.330 C  
BRANCH  12  13
HETATM   13  C   UNL     1     -11.059   6.287  72.219  1.00  0.00    -0.311 C  
HETATM   14  C   UNL     1     -10.076   5.705  73.203  1.00  0.00    -0.200 C  
HETATM   15  C   UNL     1     -11.449   5.107  73.072  1.00  0.00    -0.349 C  
ENDBRANCH  12  13
ENDBRANCH  11  12
ENDBRANCH   6  11
BRANCH  10  16
HETATM   16  C   UNL     1     -11.173  10.868  68.203  1.00  0.00    -0.301 C  
HETATM   17  O   UNL     1     -12.392  10.773  68.261  1.00  0.00    -0.296 OA 
HETATM   18  H   UNL     1      -9.441  11.517  67.249  1.00  0.00     0.000 HD 
HETATM   19  N   UNL     1     -10.458  11.591  67.261  1.00  0.00    -0.205 N  
BRANCH  19  20
HETATM   20  C   UNL     1     -11.102  12.433  66.310  1.00  0.00    -0.303 A  
HETATM   21  C   UNL     1     -11.131  12.002  64.974  1.00  0.00    -0.316 A  
HETATM   22  C   UNL     1     -11.746  12.801  64.023  1.00  0.00    -0.426 A  
HETATM   23 CL   UNL     1     -10.379  10.528  64.482  1.00  0.00    -0.371 Cl 
HETATM   24  N   UNL     1     -12.350  13.976  64.308  1.00  0.00    -0.653 NA 
HETATM   25  C   UNL     1     -12.340  14.358  65.609  1.00  0.00    -0.337 A  
HETATM   26  C   UNL     1     -11.742  13.636  66.639  1.00  0.00    -0.388 A  
HETATM   27 CL   UNL     1     -11.971  14.184  68.256  1.00  0.00    -0.386 Cl 
ENDBRANCH  19  20
ENDBRANCH  10  16
ENDBRANCH   3   5
TORSDOF 6
ENDMDL
MODEL       72
REMARK 921   NORMALIZED FREE ENERGY PREDICTED BY IDOCK:   -5.26 KCAL/MOL
REMARK 922        TOTAL FREE ENERGY PREDICTED BY IDOCK:   -8.43 KCAL/MOL
REMARK 923 INTER-LIGAND FREE ENERGY PREDICTED BY IDOCK:   -7.36 KCAL/MOL
REMARK 924 INTRA-LIGAND FREE ENERGY PREDICTED BY IDOCK:   -1.07 KCAL/MOL
REMARK 927      BINDING AFFINITY PREDICTED BY RF-SCORE:    0.00 PKD
ROOT
HETATM    1  F   UNL     1     -11.776  11.503  63.329  1.00  0.00    -0.491 F  
HETATM    2  C   UNL     1     -10.466  11.224  63.542  1.00  0.00    -0.395 C  
HETATM    3  O   UNL     1     -10.090  11.761  64.798  1.00  0.00    -0.250 OA 
HETATM    4  F   UNL     1      -9.765  11.883  62.584  1.00  0.00    -0.332 F  
ENDROOT
BRANCH   3   5
HETATM    5  C   UNL     1     -10.228  10.907  65.862  1.00  0.00    -0.257 A  
HETATM    6  C   UNL     1     -10.671  11.475  67.073  1.00  0.00    -0.259 A  
HETATM    7  C   UNL     1     -10.112   8.733  66.919  1.00  0.00    -0.348 A  
HETATM    8  C   UNL     1     -10.810  10.667  68.207  1.00  0.00    -0.287 A  
HETATM    9  C   UNL     1      -9.983   9.533  65.782  1.00  0.00    -0.316 A  
HETATM   10  C   UNL     1     -10.499   9.301  68.135  1.00  0.00    -0.263 A  
BRANCH   6  11
HETATM   11  O   UNL     1     -10.957  12.815  67.033  1.00  0.00    -0.252 OA 
BRANCH  11  12
HETATM   12  C   UNL     1     -11.762  13.353  68.080  1.00  0.00    -0.356 C  
BRANCH  12  13
HETATM   13  C   UNL     1     -11.832  14.840  67.890  1.00  0.00    -0.327 C  
HETATM   14  C   UNL     1     -11.611  15.769  69.057  1.00  0.00    -0.406 C  
HETATM   15  C   UNL     1     -10.590  15.692  67.956  1.00  0.00    -0.271 C  
ENDBRANCH  12  13
ENDBRANCH  11  12
ENDBRANCH   6  11
BRANCH  10  16
HETATM   16  C   UNL     1     -10.515   8.443  69.356  1.00  0.00    -0.217 C  
HETATM   17  O   UNL     1     -10.562   7.226  69.242  1.00  0.00    -0.218 OA 
HETATM   18  H   UNL     1     -10.382  10.158  70.528  1.00  0.00     0.000 HD 
HETATM   19  N   UNL     1     -10.300   9.141  70.534  1.00  0.00    -0.217 N  
BRANCH  19  20
HETATM   20  C   UNL     1      -9.969   8.481  71.751  1.00  0.00    -0.275 A  
HETATM   21  C   UNL     1      -8.615   8.446  72.124  1.00  0.00    -0.192 A  
HETATM   22  C   UNL     1      -8.259   7.806  73.301  1.00  0.00    -0.158 A  
HETATM   23 CL   UNL     1      -7.384   9.137  71.131  1.00  0.00    -0.114 Cl 
HETATM   24  N   UNL     1      -9.147   7.226  74.138  1.00  0.00    -0.229 NA 
HETATM   25  C   UNL     1     -10.452   7.300  73.777  1.00  0.00    -0.288 A  
HETATM   26  C   UNL     1     -10.915   7.908  72.613  1.00  0.00    -0.378 A  
HETATM   27 CL   UNL     1     -12.617   8.058  72.395  1.00  0.00    -0.261 Cl 
ENDBRANCH  19  20
ENDBRANCH  10  16
ENDBRANCH   3   5
TORSDOF 6
ENDMDL
MODEL       73
REMARK 921   NORMALIZED FREE ENERGY PREDICTED BY IDOCK:   -5.25 KCAL/MOL
REMARK 922        TOTAL FREE ENERGY PREDICTED BY IDOCK:   -8.42 KCAL/MOL
REMARK 923 INTER-LIGAND FREE ENERGY PREDICTED BY IDOCK:   -7.21 KCAL/MOL
REMARK 924 INTRA-LIGAND FREE ENERGY PREDICTED BY IDOCK:   -1.21 KCAL/MOL
REMARK 927      BINDING AFFINITY PREDICTED BY RF-SCORE:    0.00 PKD
ROOT
HETATM    1  F   UNL     1      -8.352   5.124  66.682  1.00  0.00    -0.107 F  
HETATM    2  C   UNL     1      -9.704   5.164  66.785  1.00  0.00    -0.165 C  
HETATM    3  O   UNL     1     -10.045   5.890  67.954  1.00  0.00    -0.138 OA 
HETATM    4  F   UNL     1     -10.121   3.884  66.959  1.00  0.00    -0.226 F  
ENDROOT
BRANCH   3   5
HETATM    5  C   UNL     1     -10.230   7.236  67.770  1.00  0.00    -0.195 A  
HETATM    6  C   UNL     1     -10.456   8.006  68.928  1.00  0.00    -0.191 A  
HETATM    7  C   UNL     1     -10.406   9.229  66.406  1.00  0.00    -0.238 A  
HETATM    8  C   UNL     1     -10.679   9.383  68.813  1.00  0.00    -0.200 A  
HETATM    9  C   UNL     1     -10.172   7.857  66.518  1.00  0.00    -0.212 A  
HETATM   10  C   UNL     1     -10.685   9.987  67.547  1.00  0.00    -0.339 A  
BRANCH   6  11
HETATM   11  O   UNL     1     -10.421   7.321  70.115  1.00  0.00    -0.208 OA 
BRANCH  11  12
HETATM   12  C   UNL     1     -11.664   7.024  70.746  1.00  0.00    -0.349 C  
BRANCH  12  13
HETATM   13  C   UNL     1     -11.675   7.701  72.085  1.00  0.00    -0.355 C  
HETATM   14  C   UNL     1     -10.760   7.228  73.187  1.00  0.00    -0.411 C  
HETATM   15  C   UNL     1     -10.519   8.560  72.532  1.00  0.00    -0.303 C  
ENDBRANCH  12  13
ENDBRANCH  11  12
ENDBRANCH   6  11
BRANCH  10  16
HETATM   16  C   UNL     1     -11.043  11.426  67.382  1.00  0.00    -0.289 C  
HETATM   17  O   UNL     1     -11.930  11.746  66.602  1.00  0.00    -0.561 OA 
HETATM   18  H   UNL     1      -9.622  11.915  68.822  1.00  0.00     0.000 HD 
HETATM   19  N   UNL     1     -10.419  12.266  68.292  1.00  0.00    -0.220 N  
BRANCH  19  20
HETATM   20  C   UNL     1     -10.858  13.603  68.506  1.00  0.00    -0.257 A  
HETATM   21  C   UNL     1     -11.708  13.841  69.599  1.00  0.00    -0.318 A  
HETATM   22  C   UNL     1     -12.157  15.132  69.832  1.00  0.00    -0.336 A  
HETATM   23 CL   UNL     1     -12.243  12.561  70.625  1.00  0.00    -0.436 Cl 
HETATM   24  N   UNL     1     -11.804  16.196  69.078  1.00  0.00    -0.277 NA 
HETATM   25  C   UNL     1     -10.956  15.951  68.048  1.00  0.00    -0.336 A  
HETATM   26  C   UNL     1     -10.456  14.693  67.721  1.00  0.00    -0.246 A  
HETATM   27 CL   UNL     1      -9.258  14.590  66.487  1.00  0.00    -0.293 Cl 
ENDBRANCH  19  20
ENDBRANCH  10  16
ENDBRANCH   3   5
TORSDOF 6
ENDMDL
MODEL       74
REMARK 921   NORMALIZED FREE ENERGY PREDICTED BY IDOCK:   -5.24 KCAL/MOL
REMARK 922        TOTAL FREE ENERGY PREDICTED BY IDOCK:   -8.41 KCAL/MOL
REMARK 923 INTER-LIGAND FREE ENERGY PREDICTED BY IDOCK:   -7.40 KCAL/MOL
REMARK 924 INTRA-LIGAND FREE ENERGY PREDICTED BY IDOCK:   -1.01 KCAL/MOL
REMARK 927      BINDING AFFINITY PREDICTED BY RF-SCORE:    0.00 PKD
ROOT
HETATM    1  F   UNL     1     -10.984  15.352  65.297  1.00  0.00    -0.314 F  
HETATM    2  C   UNL     1     -10.906  15.400  66.650  1.00  0.00    -0.302 C  
HETATM    3  O   UNL     1     -12.007  14.688  67.189  1.00  0.00    -0.391 OA 
HETATM    4  F   UNL     1     -11.045  16.704  67.003  1.00  0.00    -0.209 F  
ENDROOT
BRANCH   3   5
HETATM    5  C   UNL     1     -11.777  13.359  67.434  1.00  0.00    -0.373 A  
HETATM    6  C   UNL     1     -11.984  12.916  68.755  1.00  0.00    -0.253 A  
HETATM    7  C   UNL     1     -11.137  11.118  66.778  1.00  0.00    -0.280 A  
HETATM    8  C   UNL     1     -11.744  11.576  69.083  1.00  0.00    -0.395 A  
HETATM    9  C   UNL     1     -11.387  12.450  66.444  1.00  0.00    -0.392 A  
HETATM   10  C   UNL     1     -11.289  10.686  68.099  1.00  0.00    -0.354 A  
BRANCH   6  11
HETATM   11  O   UNL     1     -12.437  13.862  69.637  1.00  0.00    -0.300 OA 
BRANCH  11  12
HETATM   12  C   UNL     1     -12.160  13.665  71.021  1.00  0.00    -0.188 C  
BRANCH  12  13
HETATM   13  C   UNL     1     -13.365  14.104  71.800  1.00  0.00    -0.459 C  
HETATM   14  C   UNL     1     -13.395  15.459  72.460  1.00  0.00    -0.569 C  
HETATM   15  C   UNL     1     -14.280  15.183  71.276  1.00  0.00    -0.527 C  
ENDBRANCH  12  13
ENDBRANCH  11  12
ENDBRANCH   6  11
BRANCH  10  16
HETATM   16  C   UNL     1     -10.904   9.286  68.445  1.00  0.00    -0.076 C  
HETATM   17  O   UNL     1     -10.679   8.480  67.553  1.00  0.00    -0.248 OA 
HETATM   18  H   UNL     1     -10.993   9.793  70.462  1.00  0.00     0.000 HD 
HETATM   19  N   UNL     1     -10.673   9.089  69.797  1.00  0.00    -0.228 N  
BRANCH  19  20
HETATM   20  C   UNL     1     -10.002   7.931  70.285  1.00  0.00    -0.189 A  
HETATM   21  C   UNL     1     -10.789   6.909  70.840  1.00  0.00    -0.244 A  
HETATM   22  C   UNL     1     -10.166   5.771  71.328  1.00  0.00    -0.215 A  
HETATM   23 CL   UNL     1     -12.504   7.057  70.971  1.00  0.00    -0.411 Cl 
HETATM   24  N   UNL     1      -8.831   5.569  71.282  1.00  0.00    -0.134 NA 
HETATM   25  C   UNL     1      -8.092   6.553  70.712  1.00  0.00    -0.120 A  
HETATM   26  C   UNL     1      -8.616   7.738  70.202  1.00  0.00    -0.139 A  
HETATM   27 CL   UNL     1      -7.553   8.801  69.362  1.00  0.00    -0.086 Cl 
ENDBRANCH  19  20
ENDBRANCH  10  16
ENDBRANCH   3   5
TORSDOF 6
ENDMDL
MODEL       75
REMARK 921   NORMALIZED FREE ENERGY PREDICTED BY IDOCK:   -5.23 KCAL/MOL
REMARK 922        TOTAL FREE ENERGY PREDICTED BY IDOCK:   -8.39 KCAL/MOL
REMARK 923 INTER-LIGAND FREE ENERGY PREDICTED BY IDOCK:   -7.23 KCAL/MOL
REMARK 924 INTRA-LIGAND FREE ENERGY PREDICTED BY IDOCK:   -1.16 KCAL/MOL
REMARK 927      BINDING AFFINITY PREDICTED BY RF-SCORE:    0.00 PKD
ROOT
HETATM    1  F   UNL     1     -12.084  15.019  64.188  1.00  0.00    -0.461 F  
HETATM    2  C   UNL     1     -11.113  15.450  65.030  1.00  0.00    -0.418 C  
HETATM    3  O   UNL     1     -11.584  15.328  66.362  1.00  0.00    -0.172 OA 
HETATM    4  F   UNL     1     -10.933  16.771  64.776  1.00  0.00    -0.420 F  
ENDROOT
BRANCH   3   5
HETATM    5  C   UNL     1     -11.294  14.136  66.975  1.00  0.00    -0.332 A  
HETATM    6  C   UNL     1     -11.600  14.042  68.347  1.00  0.00    -0.331 A  
HETATM    7  C   UNL     1     -10.451  11.867  67.003  1.00  0.00    -0.253 A  
HETATM    8  C   UNL     1     -11.308  12.864  69.043  1.00  0.00    -0.341 A  
HETATM    9  C   UNL     1     -10.752  13.036  66.302  1.00  0.00    -0.290 A  
HETATM   10  C   UNL     1     -10.703  11.789  68.376  1.00  0.00    -0.249 A  
BRANCH   6  11
HETATM   11  O   UNL     1     -12.197  15.145  68.901  1.00  0.00    -0.223 OA 
BRANCH  11  12
HETATM   12  C   UNL     1     -11.573  15.735  70.039  1.00  0.00    -0.357 C  
BRANCH  12  13
HETATM   13  C   UNL     1     -12.564  15.725  71.165  1.00  0.00    -0.487 C  
HETATM   14  C   UNL     1     -12.483  14.673  72.243  1.00  0.00    -0.387 C  
HETATM   15  C   UNL     1     -12.153  16.103  72.566  1.00  0.00    -0.644 C  
ENDBRANCH  12  13
ENDBRANCH  11  12
ENDBRANCH   6  11
BRANCH  10  16
HETATM   16  C   UNL     1     -10.265  10.570  69.117  1.00  0.00    -0.224 C  
HETATM   17  O   UNL     1     -10.928  10.161  70.060  1.00  0.00    -0.263 OA 
HETATM   18  H   UNL     1      -8.653  10.392  67.812  1.00  0.00     0.000 HD 
HETATM   19  N   UNL     1      -9.197   9.911  68.528  1.00  0.00    -0.133 N  
BRANCH  19  20
HETATM   20  C   UNL     1      -8.839   8.582  68.893  1.00  0.00    -0.139 A  
HETATM   21  C   UNL     1      -9.416   7.529  68.164  1.00  0.00    -0.143 A  
HETATM   22  C   UNL     1      -9.091   6.223  68.498  1.00  0.00    -0.125 A  
HETATM   23 CL   UNL     1     -10.553   7.821  66.898  1.00  0.00    -0.408 Cl 
HETATM   24  N   UNL     1      -8.223   5.894  69.479  1.00  0.00    -0.112 NA 
HETATM   25  C   UNL     1      -7.651   6.925  70.149  1.00  0.00    -0.099 A  
HETATM   26  C   UNL     1      -7.915   8.270  69.901  1.00  0.00    -0.108 A  
HETATM   27 CL   UNL     1      -6.973   9.450  70.730  1.00  0.00    -0.112 Cl 
ENDBRANCH  19  20
ENDBRANCH  10  16
ENDBRANCH   3   5
TORSDOF 6
ENDMDL
MODEL       76
REMARK 921   NORMALIZED FREE ENERGY PREDICTED BY IDOCK:   -5.21 KCAL/MOL
REMARK 922        TOTAL FREE ENERGY PREDICTED BY IDOCK:   -8.37 KCAL/MOL
REMARK 923 INTER-LIGAND FREE ENERGY PREDICTED BY IDOCK:   -7.58 KCAL/MOL
REMARK 924 INTRA-LIGAND FREE ENERGY PREDICTED BY IDOCK:   -0.79 KCAL/MOL
REMARK 927      BINDING AFFINITY PREDICTED BY RF-SCORE:    0.00 PKD
ROOT
HETATM    1  F   UNL     1     -13.650  12.527  72.168  1.00  0.00    -0.563 F  
HETATM    2  C   UNL     1     -12.683  11.737  71.636  1.00  0.00    -0.251 C  
HETATM    3  O   UNL     1     -12.781  11.796  70.223  1.00  0.00    -0.083 OA 
HETATM    4  F   UNL     1     -12.965  10.465  72.016  1.00  0.00    -0.485 F  
ENDROOT
BRANCH   3   5
HETATM    5  C   UNL     1     -12.020  12.769  69.628  1.00  0.00    -0.288 A  
HETATM    6  C   UNL     1     -11.439  12.443  68.386  1.00  0.00    -0.310 A  
HETATM    7  C   UNL     1     -11.012  14.968  69.526  1.00  0.00    -0.281 A  
HETATM    8  C   UNL     1     -10.629  13.378  67.732  1.00  0.00    -0.252 A  
HETATM    9  C   UNL     1     -11.831  14.042  70.175  1.00  0.00    -0.377 A  
HETATM   10  C   UNL     1     -10.390  14.629  68.321  1.00  0.00    -0.230 A  
BRANCH   6  11
HETATM   11  O   UNL     1     -11.742  11.199  67.895  1.00  0.00    -0.542 OA 
BRANCH  11  12
HETATM   12  C   UNL     1     -10.809  10.148  68.131  1.00  0.00    -0.262 C  
BRANCH  12  13
HETATM   13  C   UNL     1     -10.650   9.376  66.854  1.00  0.00    -0.238 C  
HETATM   14  C   UNL     1      -9.281   8.955  66.383  1.00  0.00    -0.240 C  
HETATM   15  C   UNL     1     -10.258   7.920  66.868  1.00  0.00    -0.380 C  
ENDBRANCH  12  13
ENDBRANCH  11  12
ENDBRANCH   6  11
BRANCH  10  16
HETATM   16  C   UNL     1      -9.431  15.596  67.711  1.00  0.00    -0.208 C  
HETATM   17  O   UNL     1      -8.899  15.331  66.642  1.00  0.00    -0.255 OA 
HETATM   18  H   UNL     1      -9.772  16.892  69.305  1.00  0.00     0.000 HD 
HETATM   19  N   UNL     1      -9.373  16.815  68.369  1.00  0.00    -0.224 N  
BRANCH  19  20
HETATM   20  C   UNL     1      -8.771  17.962  67.777  1.00  0.00    -0.250 A  
HETATM   21  C   UNL     1      -7.523  18.371  68.274  1.00  0.00    -0.280 A  
HETATM   22  C   UNL     1      -6.913  19.487  67.722  1.00  0.00    -0.242 A  
HETATM   23 CL   UNL     1      -6.756  17.548  69.583  1.00  0.00    -0.117 Cl 
HETATM   24  N   UNL     1      -7.440  20.203  66.705  1.00  0.00    -0.269 NA 
HETATM   25  C   UNL     1      -8.629  19.772  66.217  1.00  0.00    -0.364 A  
HETATM   26  C   UNL     1      -9.330  18.672  66.705  1.00  0.00    -0.315 A  
HETATM   27 CL   UNL     1     -10.741  18.166  65.857  1.00  0.00    -0.271 Cl 
ENDBRANCH  19  20
ENDBRANCH  10  16
ENDBRANCH   3   5
TORSDOF 6
ENDMDL
MODEL       77
REMARK 921   NORMALIZED FREE ENERGY PREDICTED BY IDOCK:   -5.17 KCAL/MOL
REMARK 922        TOTAL FREE ENERGY PREDICTED BY IDOCK:   -8.31 KCAL/MOL
REMARK 923 INTER-LIGAND FREE ENERGY PREDICTED BY IDOCK:   -7.26 KCAL/MOL
REMARK 924 INTRA-LIGAND FREE ENERGY PREDICTED BY IDOCK:   -1.06 KCAL/MOL
REMARK 927      BINDING AFFINITY PREDICTED BY RF-SCORE:    0.00 PKD
ROOT
HETATM    1  F   UNL     1     -12.455  14.199  64.134  1.00  0.00    -0.452 F  
HETATM    2  C   UNL     1     -11.423  14.593  64.921  1.00  0.00    -0.401 C  
HETATM    3  O   UNL     1     -11.836  14.520  66.275  1.00  0.00    -0.380 OA 
HETATM    4  F   UNL     1     -11.188  15.899  64.631  1.00  0.00    -0.418 F  
ENDROOT
BRANCH   3   5
HETATM    5  C   UNL     1     -11.579  13.327  66.898  1.00  0.00    -0.364 A  
HETATM    6  C   UNL     1     -11.848  13.266  68.280  1.00  0.00    -0.354 A  
HETATM    7  C   UNL     1     -10.832  11.024  66.939  1.00  0.00    -0.324 A  
HETATM    8  C   UNL     1     -11.585  12.087  68.987  1.00  0.00    -0.370 A  
HETATM    9  C   UNL     1     -11.105  12.194  66.228  1.00  0.00    -0.353 A  
HETATM   10  C   UNL     1     -11.047  10.977  68.319  1.00  0.00    -0.316 A  
BRANCH   6  11
HETATM   11  O   UNL     1     -12.381  14.401  68.834  1.00  0.00    -0.229 OA 
BRANCH  11  12
HETATM   12  C   UNL     1     -12.888  14.316  70.163  1.00  0.00    -0.077 C  
BRANCH  12  13
HETATM   13  C   UNL     1     -12.712  15.658  70.811  1.00  0.00    -0.483 C  
HETATM   14  C   UNL     1     -12.231  15.759  72.236  1.00  0.00    -0.555 C  
HETATM   15  C   UNL     1     -11.339  16.203  71.111  1.00  0.00    -0.368 C  
ENDBRANCH  12  13
ENDBRANCH  11  12
ENDBRANCH   6  11
BRANCH  10  16
HETATM   16  C   UNL     1     -10.639   9.752  69.067  1.00  0.00    -0.219 C  
HETATM   17  O   UNL     1     -11.308   9.370  70.018  1.00  0.00    -0.226 OA 
HETATM   18  H   UNL     1      -9.042   9.516  67.752  1.00  0.00     0.000 HD 
HETATM   19  N   UNL     1      -9.595   9.057  68.476  1.00  0.00    -0.151 N  
BRANCH  19  20
HETATM   20  C   UNL     1      -9.273   7.721  68.849  1.00  0.00    -0.140 A  
HETATM   21  C   UNL     1      -8.301   7.541  69.846  1.00  0.00    -0.133 A  
HETATM   22  C   UNL     1      -7.961   6.253  70.228  1.00  0.00    -0.112 A  
HETATM   23 CL   UNL     1      -7.488   8.881  70.570  1.00  0.00    -0.077 Cl 
HETATM   24  N   UNL     1      -8.532   5.142  69.712  1.00  0.00    -0.095 NA 
HETATM   25  C   UNL     1      -9.492   5.338  68.775  1.00  0.00    -0.128 A  
HETATM   26  C   UNL     1      -9.900   6.587  68.313  1.00  0.00    -0.132 A  
HETATM   27 CL   UNL     1     -11.250   6.658  67.244  1.00  0.00    -0.401 Cl 
ENDBRANCH  19  20
ENDBRANCH  10  16
ENDBRANCH   3   5
TORSDOF 6
ENDMDL
MODEL       78
REMARK 921   NORMALIZED FREE ENERGY PREDICTED BY IDOCK:   -5.15 KCAL/MOL
REMARK 922        TOTAL FREE ENERGY PREDICTED BY IDOCK:   -8.29 KCAL/MOL
REMARK 923 INTER-LIGAND FREE ENERGY PREDICTED BY IDOCK:   -7.31 KCAL/MOL
REMARK 924 INTRA-LIGAND FREE ENERGY PREDICTED BY IDOCK:   -0.98 KCAL/MOL
REMARK 927      BINDING AFFINITY PREDICTED BY RF-SCORE:    0.00 PKD
ROOT
HETATM    1  F   UNL     1     -12.157   6.519  70.110  1.00  0.00    -0.468 F  
HETATM    2  C   UNL     1     -12.211   7.378  71.158  1.00  0.00    -0.324 C  
HETATM    3  O   UNL     1     -11.076   8.226  71.103  1.00  0.00    -0.239 OA 
HETATM    4  F   UNL     1     -12.110   6.627  72.285  1.00  0.00    -0.322 F  
ENDROOT
BRANCH   3   5
HETATM    5  C   UNL     1     -11.256   9.394  70.408  1.00  0.00    -0.262 A  
HETATM    6  C   UNL     1     -10.672   9.462  69.128  1.00  0.00    -0.197 A  
HETATM    7  C   UNL     1     -12.108  11.645  70.143  1.00  0.00    -0.414 A  
HETATM    8  C   UNL     1     -10.793  10.634  68.372  1.00  0.00    -0.282 A  
HETATM    9  C   UNL     1     -12.000  10.474  70.896  1.00  0.00    -0.481 A  
HETATM   10  C   UNL     1     -11.485  11.736  68.896  1.00  0.00    -0.357 A  
BRANCH   6  11
HETATM   11  O   UNL     1     -10.026   8.329  68.707  1.00  0.00    -0.173 OA 
BRANCH  11  12
HETATM   12  C   UNL     1      -8.657   8.447  68.327  1.00  0.00    -0.139 C  
BRANCH  12  13
HETATM   13  C   UNL     1      -8.533   7.998  66.901  1.00  0.00    -0.124 C  
HETATM   14  C   UNL     1      -7.669   6.814  66.546  1.00  0.00    -0.102 C  
HETATM   15  C   UNL     1      -9.165   6.711  66.433  1.00  0.00    -0.180 C  
ENDBRANCH  12  13
ENDBRANCH  11  12
ENDBRANCH   6  11
BRANCH  10  16
HETATM   16  C   UNL     1     -11.522  13.038  68.168  1.00  0.00    -0.319 C  
HETATM   17  O   UNL     1     -12.530  13.364  67.556  1.00  0.00    -0.135 OA 
HETATM   18  H   UNL     1      -9.595  13.439  68.846  1.00  0.00     0.000 HD 
HETATM   19  N   UNL     1     -10.422  13.847  68.412  1.00  0.00    -0.242 N  
BRANCH  19  20
HETATM   20  C   UNL     1     -10.415  15.230  68.074  1.00  0.00    -0.248 A  
HETATM   21  C   UNL     1     -10.175  15.570  66.733  1.00  0.00    -0.280 A  
HETATM   22  C   UNL     1     -10.157  16.909  66.372  1.00  0.00    -0.322 A  
HETATM   23 CL   UNL     1      -9.856  14.367  65.537  1.00  0.00    -0.337 Cl 
HETATM   24  N   UNL     1     -10.383  17.921  67.237  1.00  0.00    -0.357 NA 
HETATM   25  C   UNL     1     -10.646  17.571  68.520  1.00  0.00    -0.312 A  
HETATM   26  C   UNL     1     -10.677  16.260  68.989  1.00  0.00    -0.300 A  
HETATM   27 CL   UNL     1     -11.194  15.988  70.610  1.00  0.00    -0.390 Cl 
ENDBRANCH  19  20
ENDBRANCH  10  16
ENDBRANCH   3   5
TORSDOF 6
ENDMDL
MODEL       79
REMARK 921   NORMALIZED FREE ENERGY PREDICTED BY IDOCK:   -5.15 KCAL/MOL
REMARK 922        TOTAL FREE ENERGY PREDICTED BY IDOCK:   -8.28 KCAL/MOL
REMARK 923 INTER-LIGAND FREE ENERGY PREDICTED BY IDOCK:   -7.17 KCAL/MOL
REMARK 924 INTRA-LIGAND FREE ENERGY PREDICTED BY IDOCK:   -1.11 KCAL/MOL
REMARK 927      BINDING AFFINITY PREDICTED BY RF-SCORE:    0.00 PKD
ROOT
HETATM    1  F   UNL     1     -12.459   5.946  72.382  1.00  0.00    -0.352 F  
HETATM    2  C   UNL     1     -11.113   6.081  72.285  1.00  0.00    -0.278 C  
HETATM    3  O   UNL     1     -10.755   6.046  70.914  1.00  0.00    -0.240 OA 
HETATM    4  F   UNL     1     -10.566   4.991  72.882  1.00  0.00    -0.214 F  
ENDROOT
BRANCH   3   5
HETATM    5  C   UNL     1     -10.712   7.267  70.292  1.00  0.00    -0.236 A  
HETATM    6  C   UNL     1     -10.644   7.256  68.884  1.00  0.00    -0.191 A  
HETATM    7  C   UNL     1     -10.677   9.688  70.279  1.00  0.00    -0.335 A  
HETATM    8  C   UNL     1     -10.570   8.465  68.184  1.00  0.00    -0.175 A  
HETATM    9  C   UNL     1     -10.763   8.484  70.980  1.00  0.00    -0.278 A  
HETATM   10  C   UNL     1     -10.555   9.680  68.886  1.00  0.00    -0.239 A  
BRANCH   6  11
HETATM   11  O   UNL     1     -10.674   6.018  68.296  1.00  0.00    -0.241 OA 
BRANCH  11  12
HETATM   12  C   UNL     1     -10.763   5.961  66.875  1.00  0.00    -0.321 C  
BRANCH  12  13
HETATM   13  C   UNL     1      -9.556   5.229  66.366  1.00  0.00    -0.171 C  
HETATM   14  C   UNL     1      -9.232   3.847  66.874  1.00  0.00    -0.190 C  
HETATM   15  C   UNL     1      -9.697   4.034  65.457  1.00  0.00    -0.194 C  
ENDBRANCH  12  13
ENDBRANCH  11  12
ENDBRANCH   6  11
BRANCH  10  16
HETATM   16  C   UNL     1     -10.351  10.977  68.177  1.00  0.00    -0.182 C  
HETATM   17  O   UNL     1      -9.251  11.513  68.196  1.00  0.00    -0.168 OA 
HETATM   18  H   UNL     1     -12.332  10.906  67.540  1.00  0.00     0.000 HD 
HETATM   19  N   UNL     1     -11.432  11.366  67.401  1.00  0.00    -0.285 N  
BRANCH  19  20
HETATM   20  C   UNL     1     -11.322  12.388  66.415  1.00  0.00    -0.342 A  
HETATM   21  C   UNL     1     -11.595  13.707  66.814  1.00  0.00    -0.364 A  
HETATM   22  C   UNL     1     -11.502  14.724  65.877  1.00  0.00    -0.319 A  
HETATM   23 CL   UNL     1     -12.088  14.082  68.425  1.00  0.00    -0.371 Cl 
HETATM   24  N   UNL     1     -11.136  14.529  64.591  1.00  0.00    -0.372 NA 
HETATM   25  C   UNL     1     -10.845  13.253  64.235  1.00  0.00    -0.392 A  
HETATM   26  C   UNL     1     -10.917  12.159  65.093  1.00  0.00    -0.310 A  
HETATM   27 CL   UNL     1     -10.349  10.637  64.519  1.00  0.00    -0.409 Cl 
ENDBRANCH  19  20
ENDBRANCH  10  16
ENDBRANCH   3   5
TORSDOF 6
ENDMDL
MODEL       80
REMARK 921   NORMALIZED FREE ENERGY PREDICTED BY IDOCK:   -5.13 KCAL/MOL
REMARK 922        TOTAL FREE ENERGY PREDICTED BY IDOCK:   -8.26 KCAL/MOL
REMARK 923 INTER-LIGAND FREE ENERGY PREDICTED BY IDOCK:   -7.23 KCAL/MOL
REMARK 924 INTRA-LIGAND FREE ENERGY PREDICTED BY IDOCK:   -1.02 KCAL/MOL
REMARK 927      BINDING AFFINITY PREDICTED BY RF-SCORE:    0.00 PKD
ROOT
HETATM    1  F   UNL     1     -13.022  13.815  64.971  1.00  0.00    -0.405 F  
HETATM    2  C   UNL     1     -12.395  12.784  64.354  1.00  0.00    -0.424 C  
HETATM    3  O   UNL     1     -11.086  12.671  64.884  1.00  0.00    -0.282 OA 
HETATM    4  F   UNL     1     -12.282  13.123  63.044  1.00  0.00    -0.617 F  
ENDROOT
BRANCH   3   5
HETATM    5  C   UNL     1     -10.963  11.827  65.957  1.00  0.00    -0.306 A  
HETATM    6  C   UNL     1     -10.303  10.604  65.726  1.00  0.00    -0.219 A  
HETATM    7  C   UNL     1     -11.297  11.212  68.275  1.00  0.00    -0.365 A  
HETATM    8  C   UNL     1     -10.164   9.682  66.770  1.00  0.00    -0.308 A  
HETATM    9  C   UNL     1     -11.427  12.139  67.239  1.00  0.00    -0.413 A  
HETATM   10  C   UNL     1     -10.691   9.975  68.036  1.00  0.00    -0.303 A  
BRANCH   6  11
HETATM   11  O   UNL     1      -9.818  10.419  64.457  1.00  0.00    -0.308 OA 
BRANCH  11  12
HETATM   12  C   UNL     1      -8.836   9.404  64.263  1.00  0.00    -0.184 C  
BRANCH  12  13
HETATM   13  C   UNL     1      -7.485  10.028  64.455  1.00  0.00    -0.141 C  
HETATM   14  C   UNL     1      -6.312   9.187  64.893  1.00  0.00    -0.066 C  
HETATM   15  C   UNL     1      -6.354   9.744  63.498  1.00  0.00    -0.116 C  
ENDBRANCH  12  13
ENDBRANCH  11  12
ENDBRANCH   6  11
BRANCH  10  16
HETATM   16  C   UNL     1     -10.671   8.963  69.132  1.00  0.00    -0.143 C  
HETATM   17  O   UNL     1     -10.551   7.776  68.860  1.00  0.00    -0.210 OA 
HETATM   18  H   UNL     1     -10.835  10.505  70.520  1.00  0.00     0.000 HD 
HETATM   19  N   UNL     1     -10.622   9.515  70.403  1.00  0.00    -0.253 N  
BRANCH  19  20
HETATM   20  C   UNL     1     -10.283   8.740  71.548  1.00  0.00    -0.300 A  
HETATM   21  C   UNL     1      -8.919   8.573  71.840  1.00  0.00    -0.231 A  
HETATM   22  C   UNL     1      -8.555   7.820  72.945  1.00  0.00    -0.158 A  
HETATM   23 CL   UNL     1      -7.689   9.243  70.830  1.00  0.00    -0.163 Cl 
HETATM   24  N   UNL     1      -9.443   7.247  73.787  1.00  0.00    -0.246 NA 
HETATM   25  C   UNL     1     -10.755   7.448  73.507  1.00  0.00    -0.296 A  
HETATM   26  C   UNL     1     -11.226   8.177  72.419  1.00  0.00    -0.386 A  
HETATM   27 CL   UNL     1     -12.920   8.472  72.310  1.00  0.00    -0.388 Cl 
ENDBRANCH  19  20
ENDBRANCH  10  16
ENDBRANCH   3   5
TORSDOF 6
ENDMDL
MODEL       81
REMARK 921   NORMALIZED FREE ENERGY PREDICTED BY IDOCK:   -5.12 KCAL/MOL
REMARK 922        TOTAL FREE ENERGY PREDICTED BY IDOCK:   -8.24 KCAL/MOL
REMARK 923 INTER-LIGAND FREE ENERGY PREDICTED BY IDOCK:   -7.09 KCAL/MOL
REMARK 924 INTRA-LIGAND FREE ENERGY PREDICTED BY IDOCK:   -1.16 KCAL/MOL
REMARK 927      BINDING AFFINITY PREDICTED BY RF-SCORE:    0.00 PKD
ROOT
HETATM    1  F   UNL     1      -8.204   4.844  65.404  1.00  0.00    -0.108 F  
HETATM    2  C   UNL     1      -8.993   4.956  66.502  1.00  0.00    -0.112 C  
HETATM    3  O   UNL     1      -8.492   6.009  67.309  1.00  0.00    -0.106 OA 
HETATM    4  F   UNL     1      -8.857   3.800  67.201  1.00  0.00    -0.102 F  
ENDROOT
BRANCH   3   5
HETATM    5  C   UNL     1      -9.031   7.243  67.055  1.00  0.00    -0.130 A  
HETATM    6  C   UNL     1      -9.827   7.805  68.073  1.00  0.00    -0.163 A  
HETATM    7  C   UNL     1      -9.414   9.194  65.673  1.00  0.00    -0.309 A  
HETATM    8  C   UNL     1     -10.430   9.052  67.873  1.00  0.00    -0.291 A  
HETATM    9  C   UNL     1      -8.800   7.956  65.874  1.00  0.00    -0.183 A  
HETATM   10  C   UNL     1     -10.248   9.730  66.658  1.00  0.00    -0.296 A  
BRANCH   6  11
HETATM   11  O   UNL     1      -9.934   7.066  69.223  1.00  0.00    -0.157 OA 
BRANCH  11  12
HETATM   12  C   UNL     1     -11.190   6.453  69.502  1.00  0.00    -0.412 C  
BRANCH  12  13
HETATM   13  C   UNL     1     -11.609   6.868  70.882  1.00  0.00    -0.384 C  
HETATM   14  C   UNL     1     -10.583   7.027  71.975  1.00  0.00    -0.237 C  
HETATM   15  C   UNL     1     -11.277   8.238  71.417  1.00  0.00    -0.304 C  
ENDBRANCH  12  13
ENDBRANCH  11  12
ENDBRANCH   6  11
BRANCH  10  16
HETATM   16  C   UNL     1     -10.978  10.999  66.367  1.00  0.00    -0.137 C  
HETATM   17  O   UNL     1     -11.893  11.354  67.098  1.00  0.00    -0.566 OA 
HETATM   18  H   UNL     1      -9.718  11.317  64.741  1.00  0.00     0.000 HD 
HETATM   19  N   UNL     1     -10.408  11.752  65.353  1.00  0.00    -0.257 N  
BRANCH  19  20
HETATM   20  C   UNL     1     -10.757  13.116  65.141  1.00  0.00    -0.315 A  
HETATM   21  C   UNL     1     -11.780  13.389  64.217  1.00  0.00    -0.412 A  
HETATM   22  C   UNL     1     -12.141  14.707  63.984  1.00  0.00    -0.200 A  
HETATM   23 CL   UNL     1     -12.562  12.129  63.334  1.00  0.00    -0.661 Cl 
HETATM   24  N   UNL     1     -11.579  15.761  64.616  1.00  0.00    -0.295 NA 
HETATM   25  C   UNL     1     -10.618  15.475  65.529  1.00  0.00    -0.396 A  
HETATM   26  C   UNL     1     -10.174  14.189  65.829  1.00  0.00    -0.332 A  
HETATM   27 CL   UNL     1      -9.066  13.996  67.134  1.00  0.00    -0.226 Cl 
ENDBRANCH  19  20
ENDBRANCH  10  16
ENDBRANCH   3   5
TORSDOF 6
ENDMDL
MODEL       82
REMARK 921   NORMALIZED FREE ENERGY PREDICTED BY IDOCK:   -5.11 KCAL/MOL
REMARK 922        TOTAL FREE ENERGY PREDICTED BY IDOCK:   -8.23 KCAL/MOL
REMARK 923 INTER-LIGAND FREE ENERGY PREDICTED BY IDOCK:   -7.32 KCAL/MOL
REMARK 924 INTRA-LIGAND FREE ENERGY PREDICTED BY IDOCK:   -0.91 KCAL/MOL
REMARK 927      BINDING AFFINITY PREDICTED BY RF-SCORE:    0.00 PKD
ROOT
HETATM    1  F   UNL     1     -11.182  14.928  66.919  1.00  0.00    -0.317 F  
HETATM    2  C   UNL     1     -12.172  14.033  66.674  1.00  0.00    -0.428 C  
HETATM    3  O   UNL     1     -11.596  12.741  66.577  1.00  0.00    -0.335 OA 
HETATM    4  F   UNL     1     -12.691  14.346  65.459  1.00  0.00    -0.439 F  
ENDROOT
BRANCH   3   5
HETATM    5  C   UNL     1     -11.540  12.040  67.753  1.00  0.00    -0.330 A  
HETATM    6  C   UNL     1     -11.017  10.733  67.683  1.00  0.00    -0.306 A  
HETATM    7  C   UNL     1     -11.886  11.778  70.135  1.00  0.00    -0.408 A  
HETATM    8  C   UNL     1     -10.953   9.949  68.841  1.00  0.00    -0.214 A  
HETATM    9  C   UNL     1     -11.940  12.567  68.985  1.00  0.00    -0.280 A  
HETATM   10  C   UNL     1     -11.418  10.463  70.060  1.00  0.00    -0.382 A  
BRANCH   6  11
HETATM   11  O   UNL     1     -10.582  10.331  66.447  1.00  0.00    -0.193 OA 
BRANCH  11  12
HETATM   12  C   UNL     1      -9.894   9.085  66.359  1.00  0.00    -0.286 C  
BRANCH  12  13
HETATM   13  C   UNL     1      -8.421   9.370  66.375  1.00  0.00    -0.131 C  
HETATM   14  C   UNL     1      -7.631   9.237  67.652  1.00  0.00    -0.088 C  
HETATM   15  C   UNL     1      -7.414   8.258  66.532  1.00  0.00    -0.081 C  
ENDBRANCH  12  13
ENDBRANCH  11  12
ENDBRANCH   6  11
BRANCH  10  16
HETATM   16  C   UNL     1     -11.480   9.608  71.283  1.00  0.00    -0.392 C  
HETATM   17  O   UNL     1     -12.468   9.649  72.003  1.00  0.00    -0.370 OA 
HETATM   18  H   UNL     1      -9.616   8.823  70.792  1.00  0.00     0.000 HD 
HETATM   19  N   UNL     1     -10.437   8.700  71.383  1.00  0.00    -0.234 N  
BRANCH  19  20
HETATM   20  C   UNL     1     -10.480   7.602  72.288  1.00  0.00    -0.237 A  
HETATM   21  C   UNL     1     -11.368   6.553  71.996  1.00  0.00    -0.285 A  
HETATM   22  C   UNL     1     -11.437   5.471  72.860  1.00  0.00    -0.267 A  
HETATM   23 CL   UNL     1     -12.404   6.602  70.616  1.00  0.00    -0.306 Cl 
HETATM   24  N   UNL     1     -10.677   5.348  73.969  1.00  0.00    -0.265 NA 
HETATM   25  C   UNL     1      -9.802   6.355  74.216  1.00  0.00    -0.302 A  
HETATM   26  C   UNL     1      -9.661   7.489  73.420  1.00  0.00    -0.291 A  
HETATM   27 CL   UNL     1      -8.385   8.587  73.788  1.00  0.00    -0.156 Cl 
ENDBRANCH  19  20
ENDBRANCH  10  16
ENDBRANCH   3   5
TORSDOF 6
ENDMDL
MODEL       83
REMARK 921   NORMALIZED FREE ENERGY PREDICTED BY IDOCK:   -5.11 KCAL/MOL
REMARK 922        TOTAL FREE ENERGY PREDICTED BY IDOCK:   -8.23 KCAL/MOL
REMARK 923 INTER-LIGAND FREE ENERGY PREDICTED BY IDOCK:   -7.31 KCAL/MOL
REMARK 924 INTRA-LIGAND FREE ENERGY PREDICTED BY IDOCK:   -0.92 KCAL/MOL
REMARK 927      BINDING AFFINITY PREDICTED BY RF-SCORE:    0.00 PKD
ROOT
HETATM    1  F   UNL     1     -13.497  14.292  65.563  1.00  0.00    -0.467 F  
HETATM    2  C   UNL     1     -12.418  13.626  65.085  1.00  0.00    -0.449 C  
HETATM    3  O   UNL     1     -11.352  13.773  66.008  1.00  0.00    -0.307 OA 
HETATM    4  F   UNL     1     -12.055  14.246  63.933  1.00  0.00    -0.468 F  
ENDROOT
BRANCH   3   5
HETATM    5  C   UNL     1     -11.270  12.794  66.963  1.00  0.00    -0.292 A  
HETATM    6  C   UNL     1     -10.486  11.667  66.645  1.00  0.00    -0.233 A  
HETATM    7  C   UNL     1     -11.790  11.828  69.122  1.00  0.00    -0.389 A  
HETATM    8  C   UNL     1     -10.378  10.616  67.563  1.00  0.00    -0.254 A  
HETATM    9  C   UNL     1     -11.890  12.884  68.214  1.00  0.00    -0.372 A  
HETATM   10  C   UNL     1     -11.057  10.685  68.789  1.00  0.00    -0.316 A  
BRANCH   6  11
HETATM   11  O   UNL     1      -9.857  11.703  65.428  1.00  0.00    -0.228 OA 
BRANCH  11  12
HETATM   12  C   UNL     1     -10.324  10.816  64.414  1.00  0.00    -0.335 C  
BRANCH  12  13
HETATM   13  C   UNL     1      -9.389  10.919  63.245  1.00  0.00    -0.324 C  
HETATM   14  C   UNL     1      -8.028  10.273  63.297  1.00  0.00    -0.148 C  
HETATM   15  C   UNL     1      -9.085   9.719  62.383  1.00  0.00    -0.300 C  
ENDBRANCH  12  13
ENDBRANCH  11  12
ENDBRANCH   6  11
BRANCH  10  16
HETATM   16  C   UNL     1     -11.064   9.528  69.732  1.00  0.00    -0.191 C  
HETATM   17  O   UNL     1     -12.030   9.343  70.459  1.00  0.00    -0.216 OA 
HETATM   18  H   UNL     1      -9.199   8.960  69.001  1.00  0.00     0.000 HD 
HETATM   19  N   UNL     1     -10.000   8.658  69.555  1.00  0.00    -0.191 N  
BRANCH  19  20
HETATM   20  C   UNL     1      -9.992   7.353  70.126  1.00  0.00    -0.184 A  
HETATM   21  C   UNL     1      -9.527   7.224  71.446  1.00  0.00    -0.160 A  
HETATM   22  C   UNL     1      -9.503   5.966  72.029  1.00  0.00    -0.150 A  
HETATM   23 CL   UNL     1      -8.944   8.582  72.337  1.00  0.00    -0.302 Cl 
HETATM   24  N   UNL     1      -9.926   4.844  71.408  1.00  0.00    -0.189 NA 
HETATM   25  C   UNL     1     -10.402   4.995  70.147  1.00  0.00    -0.236 A  
HETATM   26  C   UNL     1     -10.460   6.208  69.467  1.00  0.00    -0.254 A  
HETATM   27 CL   UNL     1     -11.250   6.245  67.936  1.00  0.00    -0.351 Cl 
ENDBRANCH  19  20
ENDBRANCH  10  16
ENDBRANCH   3   5
TORSDOF 6
ENDMDL
MODEL       84
REMARK 921   NORMALIZED FREE ENERGY PREDICTED BY IDOCK:   -5.11 KCAL/MOL
REMARK 922        TOTAL FREE ENERGY PREDICTED BY IDOCK:   -8.22 KCAL/MOL
REMARK 923 INTER-LIGAND FREE ENERGY PREDICTED BY IDOCK:   -7.08 KCAL/MOL
REMARK 924 INTRA-LIGAND FREE ENERGY PREDICTED BY IDOCK:   -1.14 KCAL/MOL
REMARK 927      BINDING AFFINITY PREDICTED BY RF-SCORE:    0.00 PKD
ROOT
HETATM    1  F   UNL     1     -12.423  13.554  62.837  1.00  0.00    -0.521 F  
HETATM    2  C   UNL     1     -12.336  12.828  63.979  1.00  0.00    -0.411 C  
HETATM    3  O   UNL     1     -10.967  12.685  64.318  1.00  0.00    -0.319 OA 
HETATM    4  F   UNL     1     -12.822  11.593  63.695  1.00  0.00    -0.566 F  
ENDROOT
BRANCH   3   5
HETATM    5  C   UNL     1     -10.468  13.657  65.146  1.00  0.00    -0.374 A  
HETATM    6  C   UNL     1      -9.888  13.219  66.354  1.00  0.00    -0.281 A  
HETATM    7  C   UNL     1      -9.989  15.953  65.744  1.00  0.00    -0.391 A  
HETATM    8  C   UNL     1      -9.382  14.158  67.260  1.00  0.00    -0.225 A  
HETATM    9  C   UNL     1     -10.484  15.020  64.832  1.00  0.00    -0.367 A  
HETATM   10  C   UNL     1      -9.462  15.527  66.967  1.00  0.00    -0.238 A  
BRANCH   6  11
HETATM   11  O   UNL     1      -9.851  11.862  66.539  1.00  0.00    -0.198 OA 
BRANCH  11  12
HETATM   12  C   UNL     1      -8.780  11.327  67.313  1.00  0.00    -0.145 C  
BRANCH  12  13
HETATM   13  C   UNL     1      -8.079  10.295  66.479  1.00  0.00    -0.121 C  
HETATM   14  C   UNL     1      -8.310  10.232  64.991  1.00  0.00    -0.169 C  
HETATM   15  C   UNL     1      -6.979  10.684  65.523  1.00  0.00    -0.050 C  
ENDBRANCH  12  13
ENDBRANCH  11  12
ENDBRANCH   6  11
BRANCH  10  16
HETATM   16  C   UNL     1      -9.047  16.555  67.966  1.00  0.00    -0.209 C  
HETATM   17  O   UNL     1      -9.638  16.637  69.034  1.00  0.00    -0.258 OA 
HETATM   18  H   UNL     1      -7.530  17.156  66.674  1.00  0.00     0.000 HD 
HETATM   19  N   UNL     1      -7.880  17.222  67.629  1.00  0.00    -0.180 N  
BRANCH  19  20
HETATM   20  C   UNL     1      -7.156  17.999  68.578  1.00  0.00    -0.256 A  
HETATM   21  C   UNL     1      -7.472  19.364  68.677  1.00  0.00    -0.350 A  
HETATM   22  C   UNL     1      -6.782  20.149  69.588  1.00  0.00    -0.202 A  
HETATM   23 CL   UNL     1      -8.661  20.094  67.661  1.00  0.00    -0.379 Cl 
HETATM   24  N   UNL     1      -5.827  19.672  70.417  1.00  0.00    -0.262 NA 
HETATM   25  C   UNL     1      -5.561  18.345  70.330  1.00  0.00    -0.231 A  
HETATM   26  C   UNL     1      -6.187  17.472  69.443  1.00  0.00    -0.250 A  
HETATM   27 CL   UNL     1      -5.847  15.789  69.584  1.00  0.00    -0.128 Cl 
ENDBRANCH  19  20
ENDBRANCH  10  16
ENDBRANCH   3   5
TORSDOF 6
ENDMDL
MODEL       85
REMARK 921   NORMALIZED FREE ENERGY PREDICTED BY IDOCK:   -5.04 KCAL/MOL
REMARK 922        TOTAL FREE ENERGY PREDICTED BY IDOCK:   -8.14 KCAL/MOL
REMARK 923 INTER-LIGAND FREE ENERGY PREDICTED BY IDOCK:   -6.92 KCAL/MOL
REMARK 924 INTRA-LIGAND FREE ENERGY PREDICTED BY IDOCK:   -1.22 KCAL/MOL
REMARK 927      BINDING AFFINITY PREDICTED BY RF-SCORE:    0.00 PKD
ROOT
HETATM    1  F   UNL     1     -11.407  14.938  67.484  1.00  0.00    -0.296 F  
HETATM    2  C   UNL     1     -12.264  13.951  67.124  1.00  0.00    -0.318 C  
HETATM    3  O   UNL     1     -11.515  12.775  66.869  1.00  0.00    -0.303 OA 
HETATM    4  F   UNL     1     -12.836  14.338  65.954  1.00  0.00    -0.500 F  
ENDROOT
BRANCH   3   5
HETATM    5  C   UNL     1     -11.347  11.947  67.949  1.00  0.00    -0.291 A  
HETATM    6  C   UNL     1     -10.186  11.148  67.955  1.00  0.00    -0.181 A  
HETATM    7  C   UNL     1     -12.019  10.996  70.071  1.00  0.00    -0.430 A  
HETATM    8  C   UNL     1      -9.962  10.260  69.013  1.00  0.00    -0.223 A  
HETATM    9  C   UNL     1     -12.240  11.892  69.024  1.00  0.00    -0.103 A  
HETATM   10  C   UNL     1     -10.897  10.163  70.055  1.00  0.00    -0.361 A  
BRANCH   6  11
HETATM   11  O   UNL     1      -9.334  11.325  66.896  1.00  0.00    -0.173 OA 
BRANCH  11  12
HETATM   12  C   UNL     1      -8.925  10.167  66.173  1.00  0.00    -0.150 C  
BRANCH  12  13
HETATM   13  C   UNL     1      -9.847  10.006  65.001  1.00  0.00    -0.374 C  
HETATM   14  C   UNL     1     -10.277  11.207  64.197  1.00  0.00    -0.405 C  
HETATM   15  C   UNL     1      -9.350  10.192  63.589  1.00  0.00    -0.336 C  
ENDBRANCH  12  13
ENDBRANCH  11  12
ENDBRANCH   6  11
BRANCH  10  16
HETATM   16  C   UNL     1     -10.749   9.137  71.129  1.00  0.00    -0.310 C  
HETATM   17  O   UNL     1     -11.548   9.109  72.056  1.00  0.00    -0.361 OA 
HETATM   18  H   UNL     1      -9.102   8.361  70.121  1.00  0.00     0.000 HD 
HETATM   19  N   UNL     1      -9.779   8.184  70.862  1.00  0.00    -0.164 N  
BRANCH  19  20
HETATM   20  C   UNL     1      -9.701   6.964  71.593  1.00  0.00    -0.161 A  
HETATM   21  C   UNL     1     -10.271   5.820  71.011  1.00  0.00    -0.217 A  
HETATM   22  C   UNL     1     -10.216   4.618  71.700  1.00  0.00    -0.163 A  
HETATM   23 CL   UNL     1     -11.078   5.886  69.487  1.00  0.00    -0.455 Cl 
HETATM   24  N   UNL     1      -9.619   4.469  72.902  1.00  0.00    -0.130 NA 
HETATM   25  C   UNL     1      -9.045   5.578  73.432  1.00  0.00    -0.129 A  
HETATM   26  C   UNL     1      -9.053   6.834  72.829  1.00  0.00    -0.135 A  
HETATM   27 CL   UNL     1      -8.131   8.092  73.561  1.00  0.00    -0.251 Cl 
ENDBRANCH  19  20
ENDBRANCH  10  16
ENDBRANCH   3   5
TORSDOF 6
ENDMDL
MODEL       86
REMARK 921   NORMALIZED FREE ENERGY PREDICTED BY IDOCK:   -5.03 KCAL/MOL
REMARK 922        TOTAL FREE ENERGY PREDICTED BY IDOCK:   -8.12 KCAL/MOL
REMARK 923 INTER-LIGAND FREE ENERGY PREDICTED BY IDOCK:   -6.94 KCAL/MOL
REMARK 924 INTRA-LIGAND FREE ENERGY PREDICTED BY IDOCK:   -1.18 KCAL/MOL
REMARK 927      BINDING AFFINITY PREDICTED BY RF-SCORE:    0.00 PKD
ROOT
HETATM    1  F   UNL     1      -9.059   9.635  70.823  1.00  0.00    -0.279 F  
HETATM    2  C   UNL     1      -7.939   9.742  70.065  1.00  0.00    -0.184 C  
HETATM    3  O   UNL     1      -8.326   9.866  68.707  1.00  0.00    -0.107 OA 
HETATM    4  F   UNL     1      -7.265   8.571  70.197  1.00  0.00    -0.047 F  
ENDROOT
BRANCH   3   5
HETATM    5  C   UNL     1      -8.494  11.152  68.264  1.00  0.00    -0.145 A  
HETATM    6  C   UNL     1      -9.822  11.604  68.129  1.00  0.00    -0.191 A  
HETATM    7  C   UNL     1      -7.680  13.301  67.501  1.00  0.00    -0.175 A  
HETATM    8  C   UNL     1     -10.069  12.898  67.657  1.00  0.00    -0.221 A  
HETATM    9  C   UNL     1      -7.429  12.015  67.982  1.00  0.00    -0.113 A  
HETATM   10  C   UNL     1      -8.996  13.734  67.313  1.00  0.00    -0.227 A  
BRANCH   6  11
HETATM   11  O   UNL     1     -10.795  10.713  68.500  1.00  0.00    -0.201 OA 
BRANCH  11  12
HETATM   12  C   UNL     1     -11.999  11.239  69.052  1.00  0.00    -0.325 C  
BRANCH  12  13
HETATM   13  C   UNL     1     -11.958  11.023  70.537  1.00  0.00    -0.474 C  
HETATM   14  C   UNL     1     -12.893  11.783  71.444  1.00  0.00    -0.440 C  
HETATM   15  C   UNL     1     -13.075  10.304  71.250  1.00  0.00    -0.492 C  
ENDBRANCH  12  13
ENDBRANCH  11  12
ENDBRANCH   6  11
BRANCH  10  16
HETATM   16  C   UNL     1      -9.230  15.070  66.690  1.00  0.00    -0.276 C  
HETATM   17  O   UNL     1      -9.884  15.154  65.660  1.00  0.00    -0.327 OA 
HETATM   18  H   UNL     1      -8.176  15.951  68.254  1.00  0.00     0.000 HD 
HETATM   19  N   UNL     1      -8.801  16.133  67.470  1.00  0.00    -0.188 N  
BRANCH  19  20
HETATM   20  C   UNL     1      -9.210  17.472  67.207  1.00  0.00    -0.240 A  
HETATM   21  C   UNL     1     -10.414  17.910  67.784  1.00  0.00    -0.400 A  
HETATM   22  C   UNL     1     -10.841  19.206  67.544  1.00  0.00    -0.414 A  
HETATM   23 CL   UNL     1     -11.393  16.859  68.742  1.00  0.00    -0.072 Cl 
HETATM   24  N   UNL     1     -10.152  20.097  66.799  1.00  0.00    -0.454 NA 
HETATM   25  C   UNL     1      -8.976  19.666  66.279  1.00  0.00    -0.375 A  
HETATM   26  C   UNL     1      -8.461  18.383  66.449  1.00  0.00    -0.245 A  
HETATM   27 CL   UNL     1      -6.875  18.059  65.861  1.00  0.00    -0.332 Cl 
ENDBRANCH  19  20
ENDBRANCH  10  16
ENDBRANCH   3   5
TORSDOF 6
ENDMDL
MODEL       87
REMARK 921   NORMALIZED FREE ENERGY PREDICTED BY IDOCK:   -5.02 KCAL/MOL
REMARK 922        TOTAL FREE ENERGY PREDICTED BY IDOCK:   -8.10 KCAL/MOL
REMARK 923 INTER-LIGAND FREE ENERGY PREDICTED BY IDOCK:   -7.31 KCAL/MOL
REMARK 924 INTRA-LIGAND FREE ENERGY PREDICTED BY IDOCK:   -0.79 KCAL/MOL
REMARK 927      BINDING AFFINITY PREDICTED BY RF-SCORE:    0.00 PKD
ROOT
HETATM    1  F   UNL     1      -6.929   7.682  70.768  1.00  0.00    -0.045 F  
HETATM    2  C   UNL     1      -8.248   7.530  70.492  1.00  0.00    -0.118 C  
HETATM    3  O   UNL     1      -8.929   8.710  70.882  1.00  0.00    -0.154 OA 
HETATM    4  F   UNL     1      -8.697   6.516  71.276  1.00  0.00    -0.127 F  
ENDROOT
BRANCH   3   5
HETATM    5  C   UNL     1      -9.050   9.663  69.904  1.00  0.00    -0.225 A  
HETATM    6  C   UNL     1     -10.358   9.968  69.479  1.00  0.00    -0.235 A  
HETATM    7  C   UNL     1      -8.160  11.275  68.332  1.00  0.00    -0.143 A  
HETATM    8  C   UNL     1     -10.556  10.912  68.465  1.00  0.00    -0.219 A  
HETATM    9  C   UNL     1      -7.959  10.343  69.352  1.00  0.00    -0.161 A  
HETATM   10  C   UNL     1      -9.452  11.541  67.871  1.00  0.00    -0.178 A  
BRANCH   6  11
HETATM   11  O   UNL     1     -11.366   9.304  70.130  1.00  0.00    -0.240 OA 
BRANCH  11  12
HETATM   12  C   UNL     1     -12.250  10.073  70.942  1.00  0.00    -0.346 C  
BRANCH  12  13
HETATM   13  C   UNL     1     -12.873   9.150  71.947  1.00  0.00    -0.466 C  
HETATM   14  C   UNL     1     -14.250   8.583  71.711  1.00  0.00    -0.525 C  
HETATM   15  C   UNL     1     -13.048   7.682  71.652  1.00  0.00    -0.392 C  
ENDBRANCH  12  13
ENDBRANCH  11  12
ENDBRANCH   6  11
BRANCH  10  16
HETATM   16  C   UNL     1      -9.623  12.456  66.704  1.00  0.00    -0.229 C  
HETATM   17  O   UNL     1      -9.318  12.073  65.582  1.00  0.00    -0.190 OA 
HETATM   18  H   UNL     1     -10.405  13.897  67.986  1.00  0.00     0.000 HD 
HETATM   19  N   UNL     1     -10.292  13.631  67.008  1.00  0.00    -0.258 N  
BRANCH  19  20
HETATM   20  C   UNL     1     -10.827  14.477  65.995  1.00  0.00    -0.310 A  
HETATM   21  C   UNL     1     -10.240  15.742  65.827  1.00  0.00    -0.370 A  
HETATM   22  C   UNL     1     -10.740  16.591  64.853  1.00  0.00    -0.146 A  
HETATM   23 CL   UNL     1      -8.945  16.279  66.835  1.00  0.00    -0.225 Cl 
HETATM   24  N   UNL     1     -11.757  16.266  64.025  1.00  0.00    -0.975 NA 
HETATM   25  C   UNL     1     -12.288  15.027  64.180  1.00  0.00    -0.142 A  
HETATM   26  C   UNL     1     -11.868  14.103  65.133  1.00  0.00    -0.372 A  
HETATM   27 CL   UNL     1     -12.539  12.517  65.079  1.00  0.00    -0.522 Cl 
ENDBRANCH  19  20
ENDBRANCH  10  16
ENDBRANCH   3   5
TORSDOF 6
ENDMDL
MODEL       88
REMARK 921   NORMALIZED FREE ENERGY PREDICTED BY IDOCK:   -4.99 KCAL/MOL
REMARK 922        TOTAL FREE ENERGY PREDICTED BY IDOCK:   -8.06 KCAL/MOL
REMARK 923 INTER-LIGAND FREE ENERGY PREDICTED BY IDOCK:   -6.89 KCAL/MOL
REMARK 924 INTRA-LIGAND FREE ENERGY PREDICTED BY IDOCK:   -1.17 KCAL/MOL
REMARK 927      BINDING AFFINITY PREDICTED BY RF-SCORE:    0.00 PKD
ROOT
HETATM    1  F   UNL     1      -9.173   6.085  67.313  1.00  0.00    -0.117 F  
HETATM    2  C   UNL     1     -10.232   6.659  66.690  1.00  0.00    -0.138 C  
HETATM    3  O   UNL     1     -10.893   7.505  67.614  1.00  0.00    -0.208 OA 
HETATM    4  F   UNL     1     -11.086   5.654  66.365  1.00  0.00    -0.321 F  
ENDROOT
BRANCH   3   5
HETATM    5  C   UNL     1     -10.462   8.806  67.624  1.00  0.00    -0.244 A  
HETATM    6  C   UNL     1     -10.696   9.540  68.804  1.00  0.00    -0.190 A  
HETATM    7  C   UNL     1      -9.414  10.746  66.622  1.00  0.00    -0.201 A  
HETATM    8  C   UNL     1     -10.306  10.882  68.876  1.00  0.00    -0.222 A  
HETATM    9  C   UNL     1      -9.791   9.403  66.551  1.00  0.00    -0.325 A  
HETATM   10  C   UNL     1      -9.693  11.492  67.770  1.00  0.00    -0.180 A  
BRANCH   6  11
HETATM   11  O   UNL     1     -11.292   8.849  69.827  1.00  0.00    -0.090 OA 
BRANCH  11  12
HETATM   12  C   UNL     1     -10.974   9.235  71.162  1.00  0.00    -0.339 C  
BRANCH  12  13
HETATM   13  C   UNL     1     -12.233   9.730  71.811  1.00  0.00    -0.449 C  
HETATM   14  C   UNL     1     -13.574   9.467  71.173  1.00  0.00    -0.231 C  
HETATM   15  C   UNL     1     -13.205   8.773  72.454  1.00  0.00    -0.441 C  
ENDBRANCH  12  13
ENDBRANCH  11  12
ENDBRANCH   6  11
BRANCH  10  16
HETATM   16  C   UNL     1      -9.381  12.951  67.771  1.00  0.00    -0.203 C  
HETATM   17  O   UNL     1      -8.237  13.328  67.559  1.00  0.00    -0.161 OA 
HETATM   18  H   UNL     1     -11.392  13.351  68.133  1.00  0.00     0.000 HD 
HETATM   19  N   UNL     1     -10.502  13.762  67.852  1.00  0.00    -0.242 N  
BRANCH  19  20
HETATM   20  C   UNL     1     -10.448  15.154  67.553  1.00  0.00    -0.258 A  
HETATM   21  C   UNL     1     -10.343  16.047  68.633  1.00  0.00    -0.241 A  
HETATM   22  C   UNL     1     -10.293  17.408  68.377  1.00  0.00    -0.379 A  
HETATM   23 CL   UNL     1     -10.324  15.492  70.268  1.00  0.00    -0.296 Cl 
HETATM   24  N   UNL     1     -10.314  17.938  67.134  1.00  0.00    -0.358 NA 
HETATM   25  C   UNL     1     -10.381  17.058  66.104  1.00  0.00    -0.319 A  
HETATM   26  C   UNL     1     -10.447  15.675  66.252  1.00  0.00    -0.306 A  
HETATM   27 CL   UNL     1     -10.357  14.701  64.834  1.00  0.00    -0.428 Cl 
ENDBRANCH  19  20
ENDBRANCH  10  16
ENDBRANCH   3   5
TORSDOF 6
ENDMDL
MODEL       89
REMARK 921   NORMALIZED FREE ENERGY PREDICTED BY IDOCK:   -4.99 KCAL/MOL
REMARK 922        TOTAL FREE ENERGY PREDICTED BY IDOCK:   -8.06 KCAL/MOL
REMARK 923 INTER-LIGAND FREE ENERGY PREDICTED BY IDOCK:   -7.04 KCAL/MOL
REMARK 924 INTRA-LIGAND FREE ENERGY PREDICTED BY IDOCK:   -1.02 KCAL/MOL
REMARK 927      BINDING AFFINITY PREDICTED BY RF-SCORE:    0.00 PKD
ROOT
HETATM    1  F   UNL     1      -8.559  10.176  65.852  1.00  0.00    -0.133 F  
HETATM    2  C   UNL     1      -9.825  10.480  66.231  1.00  0.00    -0.217 C  
HETATM    3  O   UNL     1      -9.793  10.953  67.567  1.00  0.00    -0.166 OA 
HETATM    4  F   UNL     1     -10.525   9.316  66.222  1.00  0.00    -0.327 F  
ENDROOT
BRANCH   3   5
HETATM    5  C   UNL     1      -9.652  12.310  67.700  1.00  0.00    -0.191 A  
HETATM    6  C   UNL     1     -10.753  13.009  68.236  1.00  0.00    -0.245 A  
HETATM    7  C   UNL     1      -8.428  14.388  67.495  1.00  0.00    -0.202 A  
HETATM    8  C   UNL     1     -10.689  14.400  68.376  1.00  0.00    -0.250 A  
HETATM    9  C   UNL     1      -8.483  13.000  67.364  1.00  0.00    -0.200 A  
HETATM   10  C   UNL     1      -9.537  15.091  67.975  1.00  0.00    -0.208 A  
BRANCH   6  11
HETATM   11  O   UNL     1     -11.825  12.239  68.604  1.00  0.00    -0.310 OA 
BRANCH  11  12
HETATM   12  C   UNL     1     -12.057  12.048  69.998  1.00  0.00    -0.280 C  
BRANCH  12  13
HETATM   13  C   UNL     1     -12.223  10.576  70.240  1.00  0.00    -0.393 C  
HETATM   14  C   UNL     1     -11.239   9.829  71.104  1.00  0.00    -0.444 C  
HETATM   15  C   UNL     1     -12.643  10.052  71.590  1.00  0.00    -0.524 C  
ENDBRANCH  12  13
ENDBRANCH  11  12
ENDBRANCH   6  11
BRANCH  10  16
HETATM   16  C   UNL     1      -9.487  16.583  67.995  1.00  0.00    -0.222 C  
HETATM   17  O   UNL     1     -10.167  17.202  68.801  1.00  0.00    -0.294 OA 
HETATM   18  H   UNL     1      -8.075  16.527  66.466  1.00  0.00     0.000 HD 
HETATM   19  N   UNL     1      -8.510  17.121  67.172  1.00  0.00    -0.195 N  
BRANCH  19  20
HETATM   20  C   UNL     1      -8.094  18.478  67.285  1.00  0.00    -0.241 A  
HETATM   21  C   UNL     1      -6.850  18.730  67.886  1.00  0.00    -0.213 A  
HETATM   22  C   UNL     1      -6.419  20.041  68.014  1.00  0.00    -0.255 A  
HETATM   23 CL   UNL     1      -5.870  17.452  68.508  1.00  0.00    -0.158 Cl 
HETATM   24  N   UNL     1      -7.120  21.107  67.571  1.00  0.00    -0.451 NA 
HETATM   25  C   UNL     1      -8.303  20.841  66.964  1.00  0.00    -0.087 A  
HETATM   26  C   UNL     1      -8.832  19.564  66.793  1.00  0.00    -0.332 A  
HETATM   27 CL   UNL     1     -10.264  19.397  65.850  1.00  0.00    -0.501 Cl 
ENDBRANCH  19  20
ENDBRANCH  10  16
ENDBRANCH   3   5
TORSDOF 6
ENDMDL
MODEL       90
REMARK 921   NORMALIZED FREE ENERGY PREDICTED BY IDOCK:   -4.98 KCAL/MOL
REMARK 922        TOTAL FREE ENERGY PREDICTED BY IDOCK:   -8.05 KCAL/MOL
REMARK 923 INTER-LIGAND FREE ENERGY PREDICTED BY IDOCK:   -6.85 KCAL/MOL
REMARK 924 INTRA-LIGAND FREE ENERGY PREDICTED BY IDOCK:   -1.20 KCAL/MOL
REMARK 927      BINDING AFFINITY PREDICTED BY RF-SCORE:    0.00 PKD
ROOT
HETATM    1  F   UNL     1      -9.960  18.297  67.787  1.00  0.00    -0.286 F  
HETATM    2  C   UNL     1     -10.501  17.733  66.679  1.00  0.00    -0.300 C  
HETATM    3  O   UNL     1      -9.750  16.576  66.351  1.00  0.00    -0.253 OA 
HETATM    4  F   UNL     1     -10.344  18.626  65.668  1.00  0.00    -0.383 F  
ENDROOT
BRANCH   3   5
HETATM    5  C   UNL     1     -10.205  15.409  66.911  1.00  0.00    -0.273 A  
HETATM    6  C   UNL     1      -9.277  14.673  67.673  1.00  0.00    -0.193 A  
HETATM    7  C   UNL     1     -11.901  13.739  67.351  1.00  0.00    -0.431 A  
HETATM    8  C   UNL     1      -9.664  13.459  68.253  1.00  0.00    -0.226 A  
HETATM    9  C   UNL     1     -11.522  14.956  66.782  1.00  0.00    -0.304 A  
HETATM   10  C   UNL     1     -10.969  12.978  68.063  1.00  0.00    -0.274 A  
BRANCH   6  11
HETATM   11  O   UNL     1      -8.034  15.234  67.804  1.00  0.00    -0.130 OA 
BRANCH  11  12
HETATM   12  C   UNL     1      -6.943  14.367  68.107  1.00  0.00    -0.124 C  
BRANCH  12  13
HETATM   13  C   UNL     1      -5.891  15.177  68.806  1.00  0.00    -0.089 C  
HETATM   14  C   UNL     1      -6.246  16.489  69.459  1.00  0.00    -0.206 C  
HETATM   15  C   UNL     1      -5.877  15.304  70.308  1.00  0.00    -0.141 C  
ENDBRANCH  12  13
ENDBRANCH  11  12
ENDBRANCH   6  11
BRANCH  10  16
HETATM   16  C   UNL     1     -11.373  11.630  68.561  1.00  0.00    -0.274 C  
HETATM   17  O   UNL     1     -12.036  10.892  67.846  1.00  0.00    -0.585 OA 
HETATM   18  H   UNL     1     -10.341  12.007  70.329  1.00  0.00     0.000 HD 
HETATM   19  N   UNL     1     -10.787  11.282  69.768  1.00  0.00    -0.110 N  
BRANCH  19  20
HETATM   20  C   UNL     1     -10.791   9.941  70.248  1.00  0.00    -0.310 A  
HETATM   21  C   UNL     1     -11.806   9.575  71.147  1.00  0.00    -0.358 A  
HETATM   22  C   UNL     1     -11.834   8.278  71.635  1.00  0.00    -0.299 A  
HETATM   23 CL   UNL     1     -12.985  10.711  71.692  1.00  0.00    -0.560 Cl 
HETATM   24  N   UNL     1     -10.949   7.322  71.278  1.00  0.00    -0.240 NA 
HETATM   25  C   UNL     1      -9.997   7.686  70.384  1.00  0.00    -0.188 A  
HETATM   26  C   UNL     1      -9.873   8.963  69.840  1.00  0.00    -0.182 A  
HETATM   27 CL   UNL     1      -8.711   9.205  68.592  1.00  0.00    -0.128 Cl 
ENDBRANCH  19  20
ENDBRANCH  10  16
ENDBRANCH   3   5
TORSDOF 6
ENDMDL
MODEL       91
REMARK 921   NORMALIZED FREE ENERGY PREDICTED BY IDOCK:   -4.97 KCAL/MOL
REMARK 922        TOTAL FREE ENERGY PREDICTED BY IDOCK:   -8.04 KCAL/MOL
REMARK 923 INTER-LIGAND FREE ENERGY PREDICTED BY IDOCK:   -6.77 KCAL/MOL
REMARK 924 INTRA-LIGAND FREE ENERGY PREDICTED BY IDOCK:   -1.26 KCAL/MOL
REMARK 927      BINDING AFFINITY PREDICTED BY RF-SCORE:    0.00 PKD
ROOT
HETATM    1  F   UNL     1     -10.410  15.251  68.226  1.00  0.00    -0.224 F  
HETATM    2  C   UNL     1     -11.580  15.000  68.863  1.00  0.00    -0.326 C  
HETATM    3  O   UNL     1     -12.227  13.922  68.207  1.00  0.00    -0.332 OA 
HETATM    4  F   UNL     1     -12.355  16.103  68.706  1.00  0.00    -0.239 F  
ENDROOT
BRANCH   3   5
HETATM    5  C   UNL     1     -11.933  12.679  68.703  1.00  0.00    -0.223 A  
HETATM    6  C   UNL     1     -11.660  11.671  67.756  1.00  0.00    -0.289 A  
HETATM    7  C   UNL     1     -11.594  11.090  70.498  1.00  0.00    -0.344 A  
HETATM    8  C   UNL     1     -11.378  10.370  68.190  1.00  0.00    -0.284 A  
HETATM    9  C   UNL     1     -11.864  12.391  70.070  1.00  0.00    -0.363 A  
HETATM   10  C   UNL     1     -11.377  10.075  69.562  1.00  0.00    -0.220 A  
BRANCH   6  11
HETATM   11  O   UNL     1     -11.678  12.065  66.444  1.00  0.00    -0.518 OA 
BRANCH  11  12
HETATM   12  C   UNL     1     -10.478  12.608  65.899  1.00  0.00    -0.274 C  
BRANCH  12  13
HETATM   13  C   UNL     1     -10.850  13.458  64.719  1.00  0.00    -0.387 C  
HETATM   14  C   UNL     1     -12.141  14.237  64.718  1.00  0.00    -0.457 C  
HETATM   15  C   UNL     1     -10.828  14.963  64.807  1.00  0.00    -0.382 C  
ENDBRANCH  12  13
ENDBRANCH  11  12
ENDBRANCH   6  11
BRANCH  10  16
HETATM   16  C   UNL     1     -11.204   8.675  70.048  1.00  0.00    -0.094 C  
HETATM   17  O   UNL     1     -12.089   8.148  70.709  1.00  0.00    -0.209 OA 
HETATM   18  H   UNL     1      -9.360   8.599  69.084  1.00  0.00     0.000 HD 
HETATM   19  N   UNL     1     -10.084   8.039  69.535  1.00  0.00    -0.191 N  
BRANCH  19  20
HETATM   20  C   UNL     1      -9.914   6.628  69.621  1.00  0.00    -0.175 A  
HETATM   21  C   UNL     1     -10.292   5.859  68.508  1.00  0.00    -0.214 A  
HETATM   22  C   UNL     1     -10.143   4.482  68.562  1.00  0.00     0.044 A  
HETATM   23 CL   UNL     1     -10.979   6.582  67.099  1.00  0.00    -0.467 Cl 
HETATM   24  N   UNL     1      -9.627   3.824  69.623  1.00  0.00    -0.194 NA 
HETATM   25  C   UNL     1      -9.237   4.587  70.674  1.00  0.00    -0.135 A  
HETATM   26  C   UNL     1      -9.353   5.974  70.727  1.00  0.00    -0.154 A  
HETATM   27 CL   UNL     1      -8.652   6.798  72.068  1.00  0.00    -0.122 Cl 
ENDBRANCH  19  20
ENDBRANCH  10  16
ENDBRANCH   3   5
TORSDOF 6
ENDMDL
MODEL       92
REMARK 921   NORMALIZED FREE ENERGY PREDICTED BY IDOCK:   -4.97 KCAL/MOL
REMARK 922        TOTAL FREE ENERGY PREDICTED BY IDOCK:   -8.03 KCAL/MOL
REMARK 923 INTER-LIGAND FREE ENERGY PREDICTED BY IDOCK:   -6.81 KCAL/MOL
REMARK 924 INTRA-LIGAND FREE ENERGY PREDICTED BY IDOCK:   -1.22 KCAL/MOL
REMARK 927      BINDING AFFINITY PREDICTED BY RF-SCORE:    0.00 PKD
ROOT
HETATM    1  F   UNL     1      -8.690  19.818  68.688  1.00  0.00    -0.369 F  
HETATM    2  C   UNL     1      -9.963  19.430  68.947  1.00  0.00    -0.445 C  
HETATM    3  O   UNL     1     -10.531  18.923  67.751  1.00  0.00    -0.393 OA 
HETATM    4  F   UNL     1     -10.651  20.549  69.288  1.00  0.00    -0.416 F  
ENDROOT
BRANCH   3   5
HETATM    5  C   UNL     1     -10.381  17.574  67.562  1.00  0.00    -0.356 A  
HETATM    6  C   UNL     1      -9.500  17.174  66.537  1.00  0.00    -0.273 A  
HETATM    7  C   UNL     1     -10.851  15.253  68.068  1.00  0.00    -0.288 A  
HETATM    8  C   UNL     1      -9.318  15.812  66.270  1.00  0.00    -0.360 A  
HETATM    9  C   UNL     1     -11.026  16.610  68.344  1.00  0.00    -0.345 A  
HETATM   10  C   UNL     1     -10.020  14.854  67.017  1.00  0.00    -0.240 A  
BRANCH   6  11
HETATM   11  O   UNL     1      -8.858  18.188  65.875  1.00  0.00    -0.500 OA 
BRANCH  11  12
HETATM   12  C   UNL     1      -7.449  18.308  66.052  1.00  0.00    -0.220 C  
BRANCH  12  13
HETATM   13  C   UNL     1      -7.071  19.737  65.790  1.00  0.00    -0.326 C  
HETATM   14  C   UNL     1      -6.067  20.434  66.673  1.00  0.00    -0.221 C  
HETATM   15  C   UNL     1      -5.709  20.096  65.253  1.00  0.00    -0.214 C  
ENDBRANCH  12  13
ENDBRANCH  11  12
ENDBRANCH   6  11
BRANCH  10  16
HETATM   16  C   UNL     1      -9.944  13.404  66.673  1.00  0.00    -0.277 C  
HETATM   17  O   UNL     1     -10.216  13.033  65.540  1.00  0.00    -0.284 OA 
HETATM   18  H   UNL     1      -9.298  13.009  68.613  1.00  0.00     0.000 HD 
HETATM   19  N   UNL     1      -9.389  12.621  67.674  1.00  0.00    -0.184 N  
BRANCH  19  20
HETATM   20  C   UNL     1      -8.944  11.290  67.429  1.00  0.00    -0.144 A  
HETATM   21  C   UNL     1      -7.571  11.096  67.201  1.00  0.00    -0.125 A  
HETATM   22  C   UNL     1      -7.106   9.814  66.955  1.00  0.00    -0.089 A  
HETATM   23 CL   UNL     1      -6.462  12.419  67.173  1.00  0.00    -0.141 Cl 
HETATM   24  N   UNL     1      -7.897   8.719  66.944  1.00  0.00    -0.101 NA 
HETATM   25  C   UNL     1      -9.213   8.923  67.200  1.00  0.00    -0.139 A  
HETATM   26  C   UNL     1      -9.784  10.169  67.448  1.00  0.00    -0.161 A  
HETATM   27 CL   UNL     1     -11.440  10.225  67.921  1.00  0.00    -0.196 Cl 
ENDBRANCH  19  20
ENDBRANCH  10  16
ENDBRANCH   3   5
TORSDOF 6
ENDMDL
MODEL       93
REMARK 921   NORMALIZED FREE ENERGY PREDICTED BY IDOCK:   -4.92 KCAL/MOL
REMARK 922        TOTAL FREE ENERGY PREDICTED BY IDOCK:   -7.97 KCAL/MOL
REMARK 923 INTER-LIGAND FREE ENERGY PREDICTED BY IDOCK:   -6.80 KCAL/MOL
REMARK 924 INTRA-LIGAND FREE ENERGY PREDICTED BY IDOCK:   -1.17 KCAL/MOL
REMARK 927      BINDING AFFINITY PREDICTED BY RF-SCORE:    0.00 PKD
ROOT
HETATM    1  F   UNL     1      -7.997  10.622  64.733  1.00  0.00    -0.151 F  
HETATM    2  C   UNL     1      -9.253  11.030  65.043  1.00  0.00    -0.197 C  
HETATM    3  O   UNL     1      -9.343  11.180  66.450  1.00  0.00    -0.178 OA 
HETATM    4  F   UNL     1     -10.091  10.025  64.681  1.00  0.00    -0.395 F  
ENDROOT
BRANCH   3   5
HETATM    5  C   UNL     1      -9.046  12.432  66.922  1.00  0.00    -0.211 A  
HETATM    6  C   UNL     1     -10.124  13.330  67.050  1.00  0.00    -0.242 A  
HETATM    7  C   UNL     1      -7.528  14.133  67.738  1.00  0.00    -0.174 A  
HETATM    8  C   UNL     1      -9.891  14.634  67.501  1.00  0.00    -0.218 A  
HETATM    9  C   UNL     1      -7.758  12.827  67.299  1.00  0.00    -0.129 A  
HETATM   10  C   UNL     1      -8.586  15.043  67.814  1.00  0.00    -0.165 A  
BRANCH   6  11
HETATM   11  O   UNL     1     -11.358  12.829  66.727  1.00  0.00    -0.282 OA 
BRANCH  11  12
HETATM   12  C   UNL     1     -12.407  13.760  66.475  1.00  0.00    -0.386 C  
BRANCH  12  13
HETATM   13  C   UNL     1     -12.899  13.534  65.075  1.00  0.00    -0.330 C  
HETATM   14  C   UNL     1     -11.978  13.743  63.900  1.00  0.00    -0.414 C  
HETATM   15  C   UNL     1     -12.424  12.354  64.265  1.00  0.00    -0.529 C  
ENDBRANCH  12  13
ENDBRANCH  11  12
ENDBRANCH   6  11
BRANCH  10  16
HETATM   16  C   UNL     1      -8.289  16.460  68.176  1.00  0.00    -0.186 C  
HETATM   17  O   UNL     1      -7.786  16.717  69.261  1.00  0.00    -0.195 OA 
HETATM   18  H   UNL     1      -8.992  17.053  66.308  1.00  0.00     0.000 HD 
HETATM   19  N   UNL     1      -8.470  17.353  67.131  1.00  0.00    -0.207 N  
BRANCH  19  20
HETATM   20  C   UNL     1      -7.948  18.677  67.174  1.00  0.00    -0.242 A  
HETATM   21  C   UNL     1      -6.612  18.863  66.784  1.00  0.00    -0.190 A  
HETATM   22  C   UNL     1      -6.073  20.140  66.819  1.00  0.00    -0.175 A  
HETATM   23 CL   UNL     1      -5.615  17.536  66.309  1.00  0.00    -0.233 Cl 
HETATM   24  N   UNL     1      -6.769  21.237  67.187  1.00  0.00    -0.529 NA 
HETATM   25  C   UNL     1      -8.067  21.042  67.528  1.00  0.00     0.054 A  
HETATM   26  C   UNL     1      -8.702  19.803  67.538  1.00  0.00    -0.330 A  
HETATM   27 CL   UNL     1     -10.398  19.760  67.833  1.00  0.00    -0.563 Cl 
ENDBRANCH  19  20
ENDBRANCH  10  16
ENDBRANCH   3   5
TORSDOF 6
ENDMDL
MODEL       94
REMARK 921   NORMALIZED FREE ENERGY PREDICTED BY IDOCK:   -4.91 KCAL/MOL
REMARK 922        TOTAL FREE ENERGY PREDICTED BY IDOCK:   -7.96 KCAL/MOL
REMARK 923 INTER-LIGAND FREE ENERGY PREDICTED BY IDOCK:   -6.86 KCAL/MOL
REMARK 924 INTRA-LIGAND FREE ENERGY PREDICTED BY IDOCK:   -1.09 KCAL/MOL
REMARK 927      BINDING AFFINITY PREDICTED BY RF-SCORE:    0.00 PKD
ROOT
HETATM    1  F   UNL     1      -6.449  18.605  67.739  1.00  0.00    -0.199 F  
HETATM    2  C   UNL     1      -7.011  18.377  68.952  1.00  0.00    -0.282 C  
HETATM    3  O   UNL     1      -8.408  18.215  68.778  1.00  0.00    -0.289 OA 
HETATM    4  F   UNL     1      -6.815  19.500  69.690  1.00  0.00    -0.346 F  
ENDROOT
BRANCH   3   5
HETATM    5  C   UNL     1      -8.823  16.923  68.578  1.00  0.00    -0.251 A  
HETATM    6  C   UNL     1     -10.037  16.751  67.883  1.00  0.00    -0.284 A  
HETATM    7  C   UNL     1      -8.599  14.522  68.790  1.00  0.00    -0.145 A  
HETATM    8  C   UNL     1     -10.534  15.461  67.666  1.00  0.00    -0.272 A  
HETATM    9  C   UNL     1      -8.093  15.806  68.998  1.00  0.00    -0.224 A  
HETATM   10  C   UNL     1      -9.829  14.349  68.149  1.00  0.00    -0.223 A  
BRANCH   6  11
HETATM   11  O   UNL     1     -10.641  17.901  67.447  1.00  0.00    -0.386 OA 
BRANCH  11  12
HETATM   12  C   UNL     1     -10.529  18.225  66.063  1.00  0.00    -0.361 C  
BRANCH  12  13
HETATM   13  C   UNL     1     -10.310  19.706  65.952  1.00  0.00    -0.584 C  
HETATM   14  C   UNL     1      -9.988  20.523  67.178  1.00  0.00    -0.512 C  
HETATM   15  C   UNL     1      -8.936  20.304  66.127  1.00  0.00    -0.199 C  
ENDBRANCH  12  13
ENDBRANCH  11  12
ENDBRANCH   6  11
BRANCH  10  16
HETATM   16  C   UNL     1     -10.396  12.973  68.044  1.00  0.00    -0.234 C  
HETATM   17  O   UNL     1     -11.594  12.823  67.843  1.00  0.00    -0.307 OA 
HETATM   18  H   UNL     1      -8.482  12.196  68.300  1.00  0.00     0.000 HD 
HETATM   19  N   UNL     1      -9.436  11.973  68.018  1.00  0.00    -0.193 N  
BRANCH  19  20
HETATM   20  C   UNL     1      -9.744  10.643  67.611  1.00  0.00    -0.165 A  
HETATM   21  C   UNL     1     -10.359   9.801  68.553  1.00  0.00    -0.202 A  
HETATM   22  C   UNL     1     -10.667   8.500  68.190  1.00  0.00    -0.042 A  
HETATM   23 CL   UNL     1     -10.693  10.333  70.161  1.00  0.00    -0.341 Cl 
HETATM   24  N   UNL     1     -10.433   7.989  66.961  1.00  0.00    -0.340 NA 
HETATM   25  C   UNL     1      -9.870   8.828  66.056  1.00  0.00    -0.164 A  
HETATM   26  C   UNL     1      -9.512  10.147  66.321  1.00  0.00    -0.180 A  
HETATM   27 CL   UNL     1      -8.965  11.120  65.009  1.00  0.00    -0.135 Cl 
ENDBRANCH  19  20
ENDBRANCH  10  16
ENDBRANCH   3   5
TORSDOF 6
ENDMDL
MODEL       95
REMARK 921   NORMALIZED FREE ENERGY PREDICTED BY IDOCK:   -4.91 KCAL/MOL
REMARK 922        TOTAL FREE ENERGY PREDICTED BY IDOCK:   -7.95 KCAL/MOL
REMARK 923 INTER-LIGAND FREE ENERGY PREDICTED BY IDOCK:   -6.86 KCAL/MOL
REMARK 924 INTRA-LIGAND FREE ENERGY PREDICTED BY IDOCK:   -1.09 KCAL/MOL
REMARK 927      BINDING AFFINITY PREDICTED BY RF-SCORE:    0.00 PKD
ROOT
HETATM    1  F   UNL     1      -9.129   7.741  67.485  1.00  0.00    -0.127 F  
HETATM    2  C   UNL     1     -10.169   8.346  66.859  1.00  0.00    -0.313 C  
HETATM    3  O   UNL     1     -10.754   9.275  67.756  1.00  0.00    -0.259 OA 
HETATM    4  F   UNL     1     -11.089   7.380  66.607  1.00  0.00    -0.372 F  
ENDROOT
BRANCH   3   5
HETATM    5  C   UNL     1     -10.247  10.547  67.689  1.00  0.00    -0.197 A  
HETATM    6  C   UNL     1     -10.972  11.551  68.361  1.00  0.00    -0.221 A  
HETATM    7  C   UNL     1      -8.624  12.194  66.970  1.00  0.00    -0.191 A  
HETATM    8  C   UNL     1     -10.527  12.877  68.313  1.00  0.00    -0.250 A  
HETATM    9  C   UNL     1      -9.058  10.868  67.025  1.00  0.00    -0.158 A  
HETATM   10  C   UNL     1      -9.370  13.201  67.590  1.00  0.00    -0.205 A  
BRANCH   6  11
HETATM   11  O   UNL     1     -12.082  11.128  69.045  1.00  0.00    -0.416 OA 
BRANCH  11  12
HETATM   12  C   UNL     1     -12.373  11.757  70.291  1.00  0.00    -0.240 C  
BRANCH  12  13
HETATM   13  C   UNL     1     -12.301  10.710  71.363  1.00  0.00    -0.455 C  
HETATM   14  C   UNL     1     -12.875   9.336  71.129  1.00  0.00    -0.285 C  
HETATM   15  C   UNL     1     -11.387   9.518  71.228  1.00  0.00    -0.446 C  
ENDBRANCH  12  13
ENDBRANCH  11  12
ENDBRANCH   6  11
BRANCH  10  16
HETATM   16  C   UNL     1      -8.942  14.620  67.416  1.00  0.00    -0.195 C  
HETATM   17  O   UNL     1      -9.003  15.142  66.311  1.00  0.00    -0.289 OA 
HETATM   18  H   UNL     1      -8.542  14.718  69.457  1.00  0.00     0.000 HD 
HETATM   19  N   UNL     1      -8.667  15.271  68.609  1.00  0.00    -0.172 N  
BRANCH  19  20
HETATM   20  C   UNL     1      -8.553  16.689  68.684  1.00  0.00    -0.253 A  
HETATM   21  C   UNL     1      -7.261  17.233  68.772  1.00  0.00    -0.245 A  
HETATM   22  C   UNL     1      -7.117  18.610  68.852  1.00  0.00    -0.293 A  
HETATM   23 CL   UNL     1      -5.858  16.230  68.831  1.00  0.00    -0.121 Cl 
HETATM   24  N   UNL     1      -8.153  19.475  68.825  1.00  0.00    -0.351 NA 
HETATM   25  C   UNL     1      -9.390  18.931  68.706  1.00  0.00    -0.336 A  
HETATM   26  C   UNL     1      -9.646  17.565  68.630  1.00  0.00    -0.303 A  
HETATM   27 CL   UNL     1     -11.261  17.057  68.311  1.00  0.00    -0.169 Cl 
ENDBRANCH  19  20
ENDBRANCH  10  16
ENDBRANCH   3   5
TORSDOF 6
ENDMDL
MODEL       96
REMARK 921   NORMALIZED FREE ENERGY PREDICTED BY IDOCK:   -4.91 KCAL/MOL
REMARK 922        TOTAL FREE ENERGY PREDICTED BY IDOCK:   -7.95 KCAL/MOL
REMARK 923 INTER-LIGAND FREE ENERGY PREDICTED BY IDOCK:   -6.72 KCAL/MOL
REMARK 924 INTRA-LIGAND FREE ENERGY PREDICTED BY IDOCK:   -1.24 KCAL/MOL
REMARK 927      BINDING AFFINITY PREDICTED BY RF-SCORE:    0.00 PKD
ROOT
HETATM    1  F   UNL     1     -11.017  18.339  67.826  1.00  0.00    -0.418 F  
HETATM    2  C   UNL     1     -10.632  17.616  66.745  1.00  0.00    -0.224 C  
HETATM    3  O   UNL     1      -9.630  16.699  67.150  1.00  0.00    -0.234 OA 
HETATM    4  F   UNL     1     -10.064  18.489  65.874  1.00  0.00    -0.345 F  
ENDROOT
BRANCH   3   5
HETATM    5  C   UNL     1     -10.092  15.470  67.544  1.00  0.00    -0.241 A  
HETATM    6  C   UNL     1      -9.118  14.520  67.913  1.00  0.00    -0.191 A  
HETATM    7  C   UNL     1     -11.842  13.860  67.998  1.00  0.00    -0.411 A  
HETATM    8  C   UNL     1      -9.516  13.235  68.301  1.00  0.00    -0.209 A  
HETATM    9  C   UNL     1     -11.450  15.146  67.621  1.00  0.00    -0.319 A  
HETATM   10  C   UNL     1     -10.878  12.898  68.312  1.00  0.00    -0.263 A  
BRANCH   6  11
HETATM   11  O   UNL     1      -7.819  14.953  67.876  1.00  0.00    -0.118 OA 
BRANCH  11  12
HETATM   12  C   UNL     1      -6.794  13.968  67.770  1.00  0.00    -0.175 C  
BRANCH  12  13
HETATM   13  C   UNL     1      -5.789  14.229  68.853  1.00  0.00    -0.086 C  
HETATM   14  C   UNL     1      -5.937  15.426  69.758  1.00  0.00    -0.141 C  
HETATM   15  C   UNL     1      -6.145  14.042  70.307  1.00  0.00    -0.152 C  
ENDBRANCH  12  13
ENDBRANCH  11  12
ENDBRANCH   6  11
BRANCH  10  16
HETATM   16  C   UNL     1     -11.323  11.502  68.598  1.00  0.00    -0.269 C  
HETATM   17  O   UNL     1     -12.507  11.211  68.501  1.00  0.00    -0.452 OA 
HETATM   18  H   UNL     1      -9.341  10.976  68.958  1.00  0.00     0.000 HD 
HETATM   19  N   UNL     1     -10.279  10.611  68.791  1.00  0.00    -0.181 N  
BRANCH  19  20
HETATM   20  C   UNL     1     -10.477   9.201  68.762  1.00  0.00    -0.212 A  
HETATM   21  C   UNL     1     -10.397   8.559  67.516  1.00  0.00    -0.267 A  
HETATM   22  C   UNL     1     -10.590   7.187  67.453  1.00  0.00    -0.302 A  
HETATM   23 CL   UNL     1     -10.111   9.441  66.060  1.00  0.00    -0.353 Cl 
HETATM   24  N   UNL     1     -10.831   6.414  68.534  1.00  0.00    -0.289 NA 
HETATM   25  C   UNL     1     -10.872   7.048  69.732  1.00  0.00    -0.248 A  
HETATM   26  C   UNL     1     -10.702   8.420  69.904  1.00  0.00    -0.227 A  
HETATM   27 CL   UNL     1     -10.616   9.033  71.512  1.00  0.00    -0.390 Cl 
ENDBRANCH  19  20
ENDBRANCH  10  16
ENDBRANCH   3   5
TORSDOF 6
ENDMDL
MODEL       97
REMARK 921   NORMALIZED FREE ENERGY PREDICTED BY IDOCK:   -4.88 KCAL/MOL
REMARK 922        TOTAL FREE ENERGY PREDICTED BY IDOCK:   -7.92 KCAL/MOL
REMARK 923 INTER-LIGAND FREE ENERGY PREDICTED BY IDOCK:   -6.69 KCAL/MOL
REMARK 924 INTRA-LIGAND FREE ENERGY PREDICTED BY IDOCK:   -1.22 KCAL/MOL
REMARK 927      BINDING AFFINITY PREDICTED BY RF-SCORE:    0.00 PKD
ROOT
HETATM    1  F   UNL     1      -6.596   6.103  69.150  1.00  0.00    -0.039 F  
HETATM    2  C   UNL     1      -7.841   6.315  69.644  1.00  0.00    -0.107 C  
HETATM    3  O   UNL     1      -7.841   7.541  70.355  1.00  0.00    -0.093 OA 
HETATM    4  F   UNL     1      -8.081   5.321  70.537  1.00  0.00    -0.093 F  
ENDROOT
BRANCH   3   5
HETATM    5  C   UNL     1      -8.176   8.644  69.612  1.00  0.00    -0.114 A  
HETATM    6  C   UNL     1      -9.357   9.318  69.983  1.00  0.00    -0.209 A  
HETATM    7  C   UNL     1      -7.825  10.236  67.822  1.00  0.00    -0.101 A  
HETATM    8  C   UNL     1      -9.775  10.437  69.254  1.00  0.00    -0.231 A  
HETATM    9  C   UNL     1      -7.398   9.127  68.555  1.00  0.00    -0.077 A  
HETATM   10  C   UNL     1      -9.023  10.875  68.153  1.00  0.00    -0.144 A  
BRANCH   6  11
HETATM   11  O   UNL     1     -10.011   8.815  71.077  1.00  0.00    -0.197 OA 
BRANCH  11  12
HETATM   12  C   UNL     1     -11.403   9.098  71.206  1.00  0.00    -0.336 C  
BRANCH  12  13
HETATM   13  C   UNL     1     -12.152   7.806  71.051  1.00  0.00    -0.264 C  
HETATM   14  C   UNL     1     -11.445   6.570  70.555  1.00  0.00    -0.448 C  
HETATM   15  C   UNL     1     -11.906   6.647  71.984  1.00  0.00    -0.365 C  
ENDBRANCH  12  13
ENDBRANCH  11  12
ENDBRANCH   6  11
BRANCH  10  16
HETATM   16  C   UNL     1      -9.509  11.984  67.281  1.00  0.00    -0.181 C  
HETATM   17  O   UNL     1      -8.738  12.870  66.939  1.00  0.00    -0.209 OA 
HETATM   18  H   UNL     1     -11.385  11.082  67.228  1.00  0.00     0.000 HD 
HETATM   19  N   UNL     1     -10.795  11.794  66.798  1.00  0.00    -0.257 N  
BRANCH  19  20
HETATM   20  C   UNL     1     -11.315  12.563  65.718  1.00  0.00    -0.336 A  
HETATM   21  C   UNL     1     -11.193  12.031  64.423  1.00  0.00    -0.344 A  
HETATM   22  C   UNL     1     -11.685  12.757  63.350  1.00  0.00    -0.488 A  
HETATM   23 CL   UNL     1     -10.405  10.522  64.135  1.00  0.00    -0.305 Cl 
HETATM   24  N   UNL     1     -12.305  13.951  63.474  1.00  0.00    -0.765 NA 
HETATM   25  C   UNL     1     -12.443  14.431  64.735  1.00  0.00    -0.357 A  
HETATM   26  C   UNL     1     -11.976  13.788  65.879  1.00  0.00    -0.406 A  
HETATM   27 CL   UNL     1     -12.385  14.458  67.412  1.00  0.00    -0.228 Cl 
ENDBRANCH  19  20
ENDBRANCH  10  16
ENDBRANCH   3   5
TORSDOF 6
ENDMDL
MODEL       98
REMARK 921   NORMALIZED FREE ENERGY PREDICTED BY IDOCK:   -4.88 KCAL/MOL
REMARK 922        TOTAL FREE ENERGY PREDICTED BY IDOCK:   -7.91 KCAL/MOL
REMARK 923 INTER-LIGAND FREE ENERGY PREDICTED BY IDOCK:   -6.64 KCAL/MOL
REMARK 924 INTRA-LIGAND FREE ENERGY PREDICTED BY IDOCK:   -1.27 KCAL/MOL
REMARK 927      BINDING AFFINITY PREDICTED BY RF-SCORE:    0.00 PKD
ROOT
HETATM    1  F   UNL     1      -7.621  16.776  68.740  1.00  0.00    -0.191 F  
HETATM    2  C   UNL     1      -8.937  16.532  68.955  1.00  0.00    -0.225 C  
HETATM    3  O   UNL     1      -9.425  15.728  67.895  1.00  0.00    -0.210 OA 
HETATM    4  F   UNL     1      -9.573  17.730  68.890  1.00  0.00    -0.285 F  
ENDROOT
BRANCH   3   5
HETATM    5  C   UNL     1      -9.355  14.376  68.111  1.00  0.00    -0.203 A  
HETATM    6  C   UNL     1     -10.538  13.744  68.544  1.00  0.00    -0.253 A  
HETATM    7  C   UNL     1      -8.194  12.252  68.170  1.00  0.00    -0.168 A  
HETATM    8  C   UNL     1     -10.533  12.370  68.808  1.00  0.00    -0.179 A  
HETATM    9  C   UNL     1      -8.198  13.620  67.893  1.00  0.00    -0.171 A  
HETATM   10  C   UNL     1      -9.351  11.632  68.651  1.00  0.00    -0.120 A  
BRANCH   6  11
HETATM   11  O   UNL     1     -11.638  14.554  68.656  1.00  0.00    -0.283 OA 
BRANCH  11  12
HETATM   12  C   UNL     1     -12.473  14.382  69.799  1.00  0.00    -0.217 C  
BRANCH  12  13
HETATM   13  C   UNL     1     -12.300  15.584  70.681  1.00  0.00    -0.462 C  
HETATM   14  C   UNL     1     -13.078  15.705  71.967  1.00  0.00    -0.541 C  
HETATM   15  C   UNL     1     -11.593  15.480  72.008  1.00  0.00    -0.542 C  
ENDBRANCH  12  13
ENDBRANCH  11  12
ENDBRANCH   6  11
BRANCH  10  16
HETATM   16  C   UNL     1      -9.283  10.194  69.046  1.00  0.00    -0.185 C  
HETATM   17  O   UNL     1      -8.243   9.738  69.503  1.00  0.00    -0.114 OA 
HETATM   18  H   UNL     1     -11.283   9.983  68.510  1.00  0.00     0.000 HD 
HETATM   19  N   UNL     1     -10.507   9.545  69.005  1.00  0.00    -0.208 N  
BRANCH  19  20
HETATM   20  C   UNL     1     -10.712   8.284  69.634  1.00  0.00    -0.194 A  
HETATM   21  C   UNL     1     -11.286   8.282  70.916  1.00  0.00    -0.268 A  
HETATM   22  C   UNL     1     -11.494   7.071  71.558  1.00  0.00    -0.271 A  
HETATM   23 CL   UNL     1     -11.693   9.751  71.727  1.00  0.00    -0.384 Cl 
HETATM   24  N   UNL     1     -11.197   5.872  71.011  1.00  0.00    -0.254 NA 
HETATM   25  C   UNL     1     -10.675   5.893  69.759  1.00  0.00    -0.340 A  
HETATM   26  C   UNL     1     -10.416   7.052  69.032  1.00  0.00    -0.207 A  
HETATM   27 CL   UNL     1      -9.910   6.889  67.394  1.00  0.00    -0.169 Cl 
ENDBRANCH  19  20
ENDBRANCH  10  16
ENDBRANCH   3   5
TORSDOF 6
ENDMDL
MODEL       99
REMARK 921   NORMALIZED FREE ENERGY PREDICTED BY IDOCK:   -4.87 KCAL/MOL
REMARK 922        TOTAL FREE ENERGY PREDICTED BY IDOCK:   -7.90 KCAL/MOL
REMARK 923 INTER-LIGAND FREE ENERGY PREDICTED BY IDOCK:   -6.89 KCAL/MOL
REMARK 924 INTRA-LIGAND FREE ENERGY PREDICTED BY IDOCK:   -1.01 KCAL/MOL
REMARK 927      BINDING AFFINITY PREDICTED BY RF-SCORE:    0.00 PKD
ROOT
HETATM    1  F   UNL     1     -12.283  15.097  72.111  1.00  0.00    -0.346 F  
HETATM    2  C   UNL     1     -13.234  14.436  71.405  1.00  0.00    -0.348 C  
HETATM    3  O   UNL     1     -12.784  14.293  70.068  1.00  0.00    -0.297 OA 
HETATM    4  F   UNL     1     -14.333  15.233  71.388  1.00  0.00    -0.513 F  
ENDROOT
BRANCH   3   5
HETATM    5  C   UNL     1     -12.088  13.141  69.808  1.00  0.00    -0.270 A  
HETATM    6  C   UNL     1     -11.157  13.192  68.752  1.00  0.00    -0.269 A  
HETATM    7  C   UNL     1     -11.524  10.820  70.200  1.00  0.00    -0.415 A  
HETATM    8  C   UNL     1     -10.429  12.045  68.413  1.00  0.00    -0.231 A  
HETATM    9  C   UNL     1     -12.242  11.965  70.549  1.00  0.00    -0.426 A  
HETATM   10  C   UNL     1     -10.638  10.851  69.119  1.00  0.00    -0.253 A  
BRANCH   6  11
HETATM   11  O   UNL     1     -11.022  14.408  68.134  1.00  0.00    -0.243 OA 
BRANCH  11  12
HETATM   12  C   UNL     1      -9.710  14.953  68.021  1.00  0.00    -0.212 C  
BRANCH  12  13
HETATM   13  C   UNL     1      -9.468  15.277  66.576  1.00  0.00    -0.308 C  
HETATM   14  C   UNL     1     -10.088  16.504  65.955  1.00  0.00    -0.368 C  
HETATM   15  C   UNL     1      -8.602  16.445  66.175  1.00  0.00    -0.343 C  
ENDBRANCH  12  13
ENDBRANCH  11  12
ENDBRANCH   6  11
BRANCH  10  16
HETATM   16  C   UNL     1      -9.972   9.582  68.700  1.00  0.00    -0.167 C  
HETATM   17  O   UNL     1      -8.875   9.293  69.157  1.00  0.00    -0.134 OA 
HETATM   18  H   UNL     1     -11.629   9.136  67.521  1.00  0.00     0.000 HD 
HETATM   19  N   UNL     1     -10.778   8.755  67.933  1.00  0.00    -0.163 N  
BRANCH  19  20
HETATM   20  C   UNL     1     -10.451   7.388  67.704  1.00  0.00    -0.241 A  
HETATM   21  C   UNL     1      -9.570   7.098  66.649  1.00  0.00    -0.170 A  
HETATM   22  C   UNL     1      -9.235   5.777  66.396  1.00  0.00    -0.151 A  
HETATM   23 CL   UNL     1      -8.935   8.341  65.633  1.00  0.00    -0.191 Cl 
HETATM   24  N   UNL     1      -9.690   4.736  67.127  1.00  0.00    -0.170 NA 
HETATM   25  C   UNL     1     -10.513   5.039  68.162  1.00  0.00     0.052 A  
HETATM   26  C   UNL     1     -10.919   6.329  68.494  1.00  0.00    -0.340 A  
HETATM   27 CL   UNL     1     -11.829   6.547  69.941  1.00  0.00    -0.368 Cl 
ENDBRANCH  19  20
ENDBRANCH  10  16
ENDBRANCH   3   5
TORSDOF 6
ENDMDL
MODEL      100
REMARK 921   NORMALIZED FREE ENERGY PREDICTED BY IDOCK:   -4.84 KCAL/MOL
REMARK 922        TOTAL FREE ENERGY PREDICTED BY IDOCK:   -7.87 KCAL/MOL
REMARK 923 INTER-LIGAND FREE ENERGY PREDICTED BY IDOCK:   -6.50 KCAL/MOL
REMARK 924 INTRA-LIGAND FREE ENERGY PREDICTED BY IDOCK:   -1.37 KCAL/MOL
REMARK 927      BINDING AFFINITY PREDICTED BY RF-SCORE:    0.00 PKD
ROOT
HETATM    1  F   UNL     1      -6.549  20.384  66.181  1.00  0.00    -0.213 F  
HETATM    2  C   UNL     1      -5.809  19.969  67.238  1.00  0.00    -0.171 C  
HETATM    3  O   UNL     1      -6.681  19.418  68.210  1.00  0.00    -0.244 OA 
HETATM    4  F   UNL     1      -5.239  21.078  67.776  1.00  0.00    -0.213 F  
ENDROOT
BRANCH   3   5
HETATM    5  C   UNL     1      -6.897  18.069  68.100  1.00  0.00    -0.210 A  
HETATM    6  C   UNL     1      -8.197  17.612  68.397  1.00  0.00    -0.289 A  
HETATM    7  C   UNL     1      -6.201  15.797  67.634  1.00  0.00    -0.185 A  
HETATM    8  C   UNL     1      -8.483  16.244  68.331  1.00  0.00    -0.195 A  
HETATM    9  C   UNL     1      -5.915  17.163  67.687  1.00  0.00    -0.147 A  
HETATM   10  C   UNL     1      -7.473  15.335  67.980  1.00  0.00    -0.129 A  
BRANCH   6  11
HETATM   11  O   UNL     1      -9.110  18.582  68.720  1.00  0.00    -0.318 OA 
BRANCH  11  12
HETATM   12  C   UNL     1     -10.452  18.404  68.274  1.00  0.00    -0.299 C  
BRANCH  12  13
HETATM   13  C   UNL     1     -10.784  19.536  67.347  1.00  0.00    -0.589 C  
HETATM   14  C   UNL     1      -9.751  20.587  67.025  1.00  0.00    -0.548 C  
HETATM   15  C   UNL     1     -10.184  19.613  65.965  1.00  0.00    -0.587 C  
ENDBRANCH  12  13
ENDBRANCH  11  12
ENDBRANCH   6  11
BRANCH  10  16
HETATM   16  C   UNL     1      -7.714  13.862  68.024  1.00  0.00    -0.151 C  
HETATM   17  O   UNL     1      -7.088  13.168  68.813  1.00  0.00    -0.100 OA 
HETATM   18  H   UNL     1      -9.167  14.086  66.550  1.00  0.00     0.000 HD 
HETATM   19  N   UNL     1      -8.785  13.448  67.248  1.00  0.00    -0.209 N  
BRANCH  19  20
HETATM   20  C   UNL     1      -9.367  12.156  67.396  1.00  0.00    -0.181 A  
HETATM   21  C   UNL     1     -10.639  12.081  67.989  1.00  0.00    -0.208 A  
HETATM   22  C   UNL     1     -11.231  10.838  68.152  1.00  0.00    -0.302 A  
HETATM   23 CL   UNL     1     -11.457  13.490  68.559  1.00  0.00    -0.321 Cl 
HETATM   24  N   UNL     1     -10.665   9.679  67.750  1.00  0.00    -0.267 NA 
HETATM   25  C   UNL     1      -9.453   9.777  67.150  1.00  0.00    -0.154 A  
HETATM   26  C   UNL     1      -8.767  10.972  66.947  1.00  0.00    -0.148 A  
HETATM   27 CL   UNL     1      -7.317  10.930  66.018  1.00  0.00    -0.120 Cl 
ENDBRANCH  19  20
ENDBRANCH  10  16
ENDBRANCH   3   5
TORSDOF 6
ENDMDL
MODEL      101
REMARK 921   NORMALIZED FREE ENERGY PREDICTED BY IDOCK:   -4.83 KCAL/MOL
REMARK 922        TOTAL FREE ENERGY PREDICTED BY IDOCK:   -7.85 KCAL/MOL
REMARK 923 INTER-LIGAND FREE ENERGY PREDICTED BY IDOCK:   -6.62 KCAL/MOL
REMARK 924 INTRA-LIGAND FREE ENERGY PREDICTED BY IDOCK:   -1.23 KCAL/MOL
REMARK 927      BINDING AFFINITY PREDICTED BY RF-SCORE:    0.00 PKD
ROOT
HETATM    1  F   UNL     1     -10.341   4.980  69.862  1.00  0.00    -0.308 F  
HETATM    2  C   UNL     1      -9.718   5.978  70.537  1.00  0.00    -0.174 C  
HETATM    3  O   UNL     1      -8.835   6.640  69.648  1.00  0.00    -0.141 OA 
HETATM    4  F   UNL     1      -8.967   5.387  71.502  1.00  0.00    -0.130 F  
ENDROOT
BRANCH   3   5
HETATM    5  C   UNL     1      -9.373   7.711  68.983  1.00  0.00    -0.146 A  
HETATM    6  C   UNL     1      -9.201   8.976  69.581  1.00  0.00    -0.159 A  
HETATM    7  C   UNL     1     -10.591   8.735  67.159  1.00  0.00    -0.303 A  
HETATM    8  C   UNL     1      -9.746  10.111  68.971  1.00  0.00    -0.212 A  
HETATM    9  C   UNL     1     -10.038   7.602  67.758  1.00  0.00    -0.237 A  
HETATM   10  C   UNL     1     -10.469   9.983  67.775  1.00  0.00    -0.282 A  
BRANCH   6  11
HETATM   11  O   UNL     1      -8.472   8.992  70.742  1.00  0.00    -0.165 OA 
BRANCH  11  12
HETATM   12  C   UNL     1      -7.117   9.430  70.668  1.00  0.00    -0.124 C  
BRANCH  12  13
HETATM   13  C   UNL     1      -6.362   8.783  71.791  1.00  0.00    -0.074 C  
HETATM   14  C   UNL     1      -7.077   7.903  72.785  1.00  0.00    -0.098 C  
HETATM   15  C   UNL     1      -6.113   7.295  71.806  1.00  0.00    -0.037 C  
ENDBRANCH  12  13
ENDBRANCH  11  12
ENDBRANCH   6  11
BRANCH  10  16
HETATM   16  C   UNL     1     -11.169  11.155  67.170  1.00  0.00    -0.249 C  
HETATM   17  O   UNL     1     -12.158  11.621  67.718  1.00  0.00    -0.613 OA 
HETATM   18  H   UNL     1      -9.742  11.185  65.654  1.00  0.00     0.000 HD 
HETATM   19  N   UNL     1     -10.495  11.713  66.095  1.00  0.00    -0.239 N  
BRANCH  19  20
HETATM   20  C   UNL     1     -10.824  13.002  65.587  1.00  0.00    -0.273 A  
HETATM   21  C   UNL     1     -10.073  14.095  66.052  1.00  0.00    -0.316 A  
HETATM   22  C   UNL     1     -10.372  15.364  65.581  1.00  0.00    -0.372 A  
HETATM   23 CL   UNL     1      -8.824  13.901  67.227  1.00  0.00    -0.213 Cl 
HETATM   24  N   UNL     1     -11.338  15.618  64.672  1.00  0.00    -0.406 NA 
HETATM   25  C   UNL     1     -12.029  14.546  64.210  1.00  0.00    -0.397 A  
HETATM   26  C   UNL     1     -11.817  13.233  64.625  1.00  0.00    -0.378 A  
HETATM   27 CL   UNL     1     -12.668  11.976  63.811  1.00  0.00    -0.575 Cl 
ENDBRANCH  19  20
ENDBRANCH  10  16
ENDBRANCH   3   5
TORSDOF 6
ENDMDL
MODEL      102
REMARK 921   NORMALIZED FREE ENERGY PREDICTED BY IDOCK:   -4.81 KCAL/MOL
REMARK 922        TOTAL FREE ENERGY PREDICTED BY IDOCK:   -7.83 KCAL/MOL
REMARK 923 INTER-LIGAND FREE ENERGY PREDICTED BY IDOCK:   -6.86 KCAL/MOL
REMARK 924 INTRA-LIGAND FREE ENERGY PREDICTED BY IDOCK:   -0.97 KCAL/MOL
REMARK 927      BINDING AFFINITY PREDICTED BY RF-SCORE:    0.00 PKD
ROOT
HETATM    1  F   UNL     1     -12.514  11.907  72.006  1.00  0.00    -0.213 F  
HETATM    2  C   UNL     1     -12.161  11.102  70.973  1.00  0.00    -0.333 C  
HETATM    3  O   UNL     1     -12.545  11.730  69.762  1.00  0.00    -0.033 OA 
HETATM    4  F   UNL     1     -12.893   9.964  71.098  1.00  0.00    -0.361 F  
ENDROOT
BRANCH   3   5
HETATM    5  C   UNL     1     -11.587  12.527  69.191  1.00  0.00    -0.320 A  
HETATM    6  C   UNL     1     -11.697  13.912  69.427  1.00  0.00    -0.315 A  
HETATM    7  C   UNL     1      -9.604  12.907  67.855  1.00  0.00    -0.215 A  
HETATM    8  C   UNL     1     -10.768  14.789  68.854  1.00  0.00    -0.253 A  
HETATM    9  C   UNL     1     -10.521  12.029  68.435  1.00  0.00    -0.231 A  
HETATM   10  C   UNL     1      -9.740  14.286  68.042  1.00  0.00    -0.223 A  
BRANCH   6  11
HETATM   11  O   UNL     1     -12.730  14.298  70.240  1.00  0.00    -0.345 OA 
BRANCH  11  12
HETATM   12  C   UNL     1     -12.528  15.436  71.074  1.00  0.00    -0.411 C  
BRANCH  12  13
HETATM   13  C   UNL     1     -13.512  15.360  72.205  1.00  0.00    -0.570 C  
HETATM   14  C   UNL     1     -13.229  14.491  73.404  1.00  0.00    -0.143 C  
HETATM   15  C   UNL     1     -13.210  15.987  73.542  1.00  0.00    -0.596 C  
ENDBRANCH  12  13
ENDBRANCH  11  12
ENDBRANCH   6  11
BRANCH  10  16
HETATM   16  C   UNL     1      -8.814  15.204  67.317  1.00  0.00    -0.200 C  
HETATM   17  O   UNL     1      -8.331  14.858  66.247  1.00  0.00     0.095 OA 
HETATM   18  H   UNL     1      -9.082  16.616  68.822  1.00  0.00     0.000 HD 
HETATM   19  N   UNL     1      -8.727  16.469  67.877  1.00  0.00    -0.186 N  
BRANCH  19  20
HETATM   20  C   UNL     1      -8.157  17.567  67.173  1.00  0.00    -0.210 A  
HETATM   21  C   UNL     1      -9.023  18.589  66.752  1.00  0.00    -0.293 A  
HETATM   22  C   UNL     1      -8.500  19.670  66.060  1.00  0.00    -0.265 A  
HETATM   23 CL   UNL     1     -10.725  18.507  67.034  1.00  0.00    -0.410 Cl 
HETATM   24  N   UNL     1      -7.187  19.818  65.781  1.00  0.00    -0.309 NA 
HETATM   25  C   UNL     1      -6.362  18.837  66.225  1.00  0.00    -0.185 A  
HETATM   26  C   UNL     1      -6.785  17.706  66.919  1.00  0.00    -0.177 A  
HETATM   27 CL   UNL     1      -5.585  16.646  67.555  1.00  0.00    -0.157 Cl 
ENDBRANCH  19  20
ENDBRANCH  10  16
ENDBRANCH   3   5
TORSDOF 6
ENDMDL
MODEL      103
REMARK 921   NORMALIZED FREE ENERGY PREDICTED BY IDOCK:   -4.80 KCAL/MOL
REMARK 922        TOTAL FREE ENERGY PREDICTED BY IDOCK:   -7.80 KCAL/MOL
REMARK 923 INTER-LIGAND FREE ENERGY PREDICTED BY IDOCK:   -7.06 KCAL/MOL
REMARK 924 INTRA-LIGAND FREE ENERGY PREDICTED BY IDOCK:   -0.74 KCAL/MOL
REMARK 927      BINDING AFFINITY PREDICTED BY RF-SCORE:    0.00 PKD
ROOT
HETATM    1  F   UNL     1      -8.598  19.842  68.769  1.00  0.00    -0.370 F  
HETATM    2  C   UNL     1      -9.839  19.343  68.992  1.00  0.00    -0.419 C  
HETATM    3  O   UNL     1     -10.271  18.673  67.820  1.00  0.00    -0.347 OA 
HETATM    4  F   UNL     1     -10.659  20.408  69.184  1.00  0.00    -0.470 F  
ENDROOT
BRANCH   3   5
HETATM    5  C   UNL     1      -9.972  17.336  67.771  1.00  0.00    -0.301 A  
HETATM    6  C   UNL     1      -9.072  16.927  66.766  1.00  0.00    -0.245 A  
HETATM    7  C   UNL     1     -10.164  15.046  68.535  1.00  0.00    -0.227 A  
HETATM    8  C   UNL     1      -8.741  15.573  66.641  1.00  0.00    -0.326 A  
HETATM    9  C   UNL     1     -10.487  16.398  68.672  1.00  0.00    -0.293 A  
HETATM   10  C   UNL     1      -9.314  14.630  67.507  1.00  0.00    -0.195 A  
BRANCH   6  11
HETATM   11  O   UNL     1      -8.563  17.928  65.980  1.00  0.00    -0.494 OA 
BRANCH  11  12
HETATM   12  C   UNL     1      -7.384  18.591  66.430  1.00  0.00    -0.247 C  
BRANCH  12  13
HETATM   13  C   UNL     1      -6.972  19.569  65.369  1.00  0.00    -0.245 C  
HETATM   14  C   UNL     1      -6.128  20.767  65.723  1.00  0.00    -0.272 C  
HETATM   15  C   UNL     1      -5.540  19.653  64.903  1.00  0.00    -0.227 C  
ENDBRANCH  12  13
ENDBRANCH  11  12
ENDBRANCH   6  11
BRANCH  10  16
HETATM   16  C   UNL     1      -9.079  13.168  67.317  1.00  0.00    -0.217 C  
HETATM   17  O   UNL     1      -7.951  12.712  67.447  1.00  0.00    -0.160 OA 
HETATM   18  H   UNL     1     -11.116  12.917  66.969  1.00  0.00     0.000 HD 
HETATM   19  N   UNL     1     -10.243  12.430  67.171  1.00  0.00    -0.215 N  
BRANCH  19  20
HETATM   20  C   UNL     1     -10.255  11.011  67.294  1.00  0.00    -0.199 A  
HETATM   21  C   UNL     1     -10.847  10.463  68.444  1.00  0.00    -0.245 A  
HETATM   22  C   UNL     1     -10.870   9.086  68.596  1.00  0.00    -0.017 A  
HETATM   23 CL   UNL     1     -11.501  11.464  69.690  1.00  0.00    -0.358 Cl 
HETATM   24  N   UNL     1     -10.374   8.222  67.684  1.00  0.00    -0.237 NA 
HETATM   25  C   UNL     1      -9.837   8.769  66.565  1.00  0.00    -0.279 A  
HETATM   26  C   UNL     1      -9.754  10.138  66.319  1.00  0.00    -0.218 A  
HETATM   27 CL   UNL     1      -9.196  10.653  64.772  1.00  0.00    -0.235 Cl 
ENDBRANCH  19  20
ENDBRANCH  10  16
ENDBRANCH   3   5
TORSDOF 6
ENDMDL
MODEL      104
REMARK 921   NORMALIZED FREE ENERGY PREDICTED BY IDOCK:   -4.78 KCAL/MOL
REMARK 922        TOTAL FREE ENERGY PREDICTED BY IDOCK:   -7.79 KCAL/MOL
REMARK 923 INTER-LIGAND FREE ENERGY PREDICTED BY IDOCK:   -6.65 KCAL/MOL
REMARK 924 INTRA-LIGAND FREE ENERGY PREDICTED BY IDOCK:   -1.14 KCAL/MOL
REMARK 927      BINDING AFFINITY PREDICTED BY RF-SCORE:    0.00 PKD
ROOT
HETATM    1  F   UNL     1      -7.689  15.988  68.644  1.00  0.00    -0.143 F  
HETATM    2  C   UNL     1      -8.619  15.815  67.672  1.00  0.00    -0.163 C  
HETATM    3  O   UNL     1      -8.241  14.700  66.882  1.00  0.00    -0.190 OA 
HETATM    4  F   UNL     1      -8.568  16.917  66.881  1.00  0.00    -0.193 F  
ENDROOT
BRANCH   3   5
HETATM    5  C   UNL     1      -8.751  13.496  67.292  1.00  0.00    -0.225 A  
HETATM    6  C   UNL     1      -9.814  12.970  66.531  1.00  0.00    -0.263 A  
HETATM    7  C   UNL     1      -8.847  11.575  68.763  1.00  0.00    -0.047 A  
HETATM    8  C   UNL     1     -10.402  11.756  66.908  1.00  0.00    -0.247 A  
HETATM    9  C   UNL     1      -8.250  12.779  68.384  1.00  0.00    -0.128 A  
HETATM   10  C   UNL     1      -9.937  11.077  68.044  1.00  0.00    -0.188 A  
BRANCH   6  11
HETATM   11  O   UNL     1     -10.186  13.707  65.438  1.00  0.00    -0.310 OA 
BRANCH  11  12
HETATM   12  C   UNL     1     -11.579  13.926  65.228  1.00  0.00    -0.327 C  
BRANCH  12  13
HETATM   13  C   UNL     1     -11.929  13.405  63.865  1.00  0.00    -0.520 C  
HETATM   14  C   UNL     1     -11.120  12.295  63.243  1.00  0.00    -0.389 C  
HETATM   15  C   UNL     1     -12.532  12.034  63.688  1.00  0.00    -0.637 C  
ENDBRANCH  12  13
ENDBRANCH  11  12
ENDBRANCH   6  11
BRANCH  10  16
HETATM   16  C   UNL     1     -10.624   9.849  68.541  1.00  0.00    -0.217 C  
HETATM   17  O   UNL     1     -11.028   9.013  67.744  1.00  0.00    -0.141 OA 
HETATM   18  H   UNL     1     -10.318  10.505  70.493  1.00  0.00     0.000 HD 
HETATM   19  N   UNL     1     -10.580   9.704  69.919  1.00  0.00    -0.231 N  
BRANCH  19  20
HETATM   20  C   UNL     1     -10.892   8.469  70.556  1.00  0.00    -0.228 A  
HETATM   21  C   UNL     1     -12.142   8.360  71.187  1.00  0.00    -0.249 A  
HETATM   22  C   UNL     1     -12.474   7.173  71.821  1.00  0.00    -0.350 A  
HETATM   23 CL   UNL     1     -13.251   9.682  71.233  1.00  0.00    -0.437 Cl 
HETATM   24  N   UNL     1     -11.669   6.088  71.850  1.00  0.00    -0.271 NA 
HETATM   25  C   UNL     1     -10.481   6.202  71.206  1.00  0.00    -0.224 A  
HETATM   26  C   UNL     1     -10.046   7.350  70.550  1.00  0.00    -0.191 A  
HETATM   27 CL   UNL     1      -8.584   7.265  69.642  1.00  0.00    -0.137 Cl 
ENDBRANCH  19  20
ENDBRANCH  10  16
ENDBRANCH   3   5
TORSDOF 6
ENDMDL
MODEL      105
REMARK 921   NORMALIZED FREE ENERGY PREDICTED BY IDOCK:   -4.76 KCAL/MOL
REMARK 922        TOTAL FREE ENERGY PREDICTED BY IDOCK:   -7.76 KCAL/MOL
REMARK 923 INTER-LIGAND FREE ENERGY PREDICTED BY IDOCK:   -6.50 KCAL/MOL
REMARK 924 INTRA-LIGAND FREE ENERGY PREDICTED BY IDOCK:   -1.25 KCAL/MOL
REMARK 927      BINDING AFFINITY PREDICTED BY RF-SCORE:    0.00 PKD
ROOT
HETATM    1  F   UNL     1      -9.771   7.226  68.470  1.00  0.00    -0.145 F  
HETATM    2  C   UNL     1      -9.897   7.581  67.168  1.00  0.00    -0.201 C  
HETATM    3  O   UNL     1     -10.940   8.536  67.061  1.00  0.00    -0.095 OA 
HETATM    4  F   UNL     1     -10.286   6.468  66.495  1.00  0.00    -0.249 F  
ENDROOT
BRANCH   3   5
HETATM    5  C   UNL     1     -10.543   9.844  67.161  1.00  0.00    -0.228 A  
HETATM    6  C   UNL     1     -10.923  10.530  68.333  1.00  0.00    -0.261 A  
HETATM    7  C   UNL     1      -9.439  11.839  66.346  1.00  0.00    -0.234 A  
HETATM    8  C   UNL     1     -10.575  11.876  68.492  1.00  0.00    -0.245 A  
HETATM    9  C   UNL     1      -9.774  10.493  66.189  1.00  0.00    -0.259 A  
HETATM   10  C   UNL     1      -9.860  12.538  67.482  1.00  0.00    -0.198 A  
BRANCH   6  11
HETATM   11  O   UNL     1     -11.610   9.790  69.260  1.00  0.00    -0.018 OA 
BRANCH  11  12
HETATM   12  C   UNL     1     -11.286   9.984  70.635  1.00  0.00    -0.350 C  
BRANCH  12  13
HETATM   13  C   UNL     1     -10.999   8.639  71.235  1.00  0.00    -0.333 C  
HETATM   14  C   UNL     1     -11.822   8.127  72.390  1.00  0.00    -0.448 C  
HETATM   15  C   UNL     1     -11.944   7.481  71.038  1.00  0.00    -0.317 C  
ENDBRANCH  12  13
ENDBRANCH  11  12
ENDBRANCH   6  11
BRANCH  10  16
HETATM   16  C   UNL     1      -9.585  14.002  67.566  1.00  0.00    -0.228 C  
HETATM   17  O   UNL     1      -8.430  14.400  67.632  1.00  0.00    -0.162 OA 
HETATM   18  H   UNL     1     -11.632  14.363  67.446  1.00  0.00     0.000 HD 
HETATM   19  N   UNL     1     -10.709  14.793  67.385  1.00  0.00    -0.275 N  
BRANCH  19  20
HETATM   20  C   UNL     1     -10.613  16.188  67.117  1.00  0.00    -0.294 A  
HETATM   21  C   UNL     1     -10.646  16.596  65.773  1.00  0.00    -0.268 A  
HETATM   22  C   UNL     1     -10.549  17.947  65.479  1.00  0.00    -0.014 A  
HETATM   23 CL   UNL     1     -10.755  15.454  64.483  1.00  0.00    -0.198 Cl 
HETATM   24  N   UNL     1     -10.448  18.914  66.417  1.00  0.00    -0.428 NA 
HETATM   25  C   UNL     1     -10.452  18.502  67.710  1.00  0.00    -0.408 A  
HETATM   26  C   UNL     1     -10.533  17.172  68.113  1.00  0.00    -0.366 A  
HETATM   27 CL   UNL     1     -10.696  16.841  69.796  1.00  0.00    -0.281 Cl 
ENDBRANCH  19  20
ENDBRANCH  10  16
ENDBRANCH   3   5
TORSDOF 6
ENDMDL
MODEL      106
REMARK 921   NORMALIZED FREE ENERGY PREDICTED BY IDOCK:   -4.76 KCAL/MOL
REMARK 922        TOTAL FREE ENERGY PREDICTED BY IDOCK:   -7.75 KCAL/MOL
REMARK 923 INTER-LIGAND FREE ENERGY PREDICTED BY IDOCK:   -6.53 KCAL/MOL
REMARK 924 INTRA-LIGAND FREE ENERGY PREDICTED BY IDOCK:   -1.22 KCAL/MOL
REMARK 927      BINDING AFFINITY PREDICTED BY RF-SCORE:    0.00 PKD
ROOT
HETATM    1  F   UNL     1     -10.972   5.042  71.826  1.00  0.00    -0.252 F  
HETATM    2  C   UNL     1     -11.311   6.019  72.703  1.00  0.00    -0.277 C  
HETATM    3  O   UNL     1     -10.353   7.060  72.609  1.00  0.00    -0.192 OA 
HETATM    4  F   UNL     1     -11.215   5.481  73.945  1.00  0.00    -0.262 F  
ENDROOT
BRANCH   3   5
HETATM    5  C   UNL     1     -10.656   8.051  71.712  1.00  0.00    -0.238 A  
HETATM    6  C   UNL     1     -10.016   7.982  70.458  1.00  0.00    -0.190 A  
HETATM    7  C   UNL     1     -11.799  10.070  71.023  1.00  0.00    -0.476 A  
HETATM    8  C   UNL     1     -10.257   8.975  69.501  1.00  0.00    -0.205 A  
HETATM    9  C   UNL     1     -11.570   9.076  71.975  1.00  0.00    -0.413 A  
HETATM   10  C   UNL     1     -11.126  10.036  69.799  1.00  0.00    -0.319 A  
BRANCH   6  11
HETATM   11  O   UNL     1      -9.195   6.902  70.266  1.00  0.00    -0.155 OA 
BRANCH  11  12
HETATM   12  C   UNL     1      -9.125   6.347  68.955  1.00  0.00    -0.129 C  
BRANCH  12  13
HETATM   13  C   UNL     1      -7.693   6.396  68.509  1.00  0.00    -0.104 C  
HETATM   14  C   UNL     1      -7.332   6.970  67.163  1.00  0.00    -0.090 C  
HETATM   15  C   UNL     1      -6.950   7.705  68.417  1.00  0.00    -0.072 C  
ENDBRANCH  12  13
ENDBRANCH  11  12
ENDBRANCH   6  11
BRANCH  10  16
HETATM   16  C   UNL     1     -11.305  11.174  68.849  1.00  0.00    -0.278 C  
HETATM   17  O   UNL     1     -12.282  11.202  68.113  1.00  0.00    -0.612 OA 
HETATM   18  H   UNL     1      -9.559  12.030  69.592  1.00  0.00     0.000 HD 
HETATM   19  N   UNL     1     -10.392  12.201  69.029  1.00  0.00    -0.062 N  
BRANCH  19  20
HETATM   20  C   UNL     1     -10.583  13.488  68.451  1.00  0.00    -0.248 A  
HETATM   21  C   UNL     1      -9.982  13.738  67.206  1.00  0.00    -0.239 A  
HETATM   22  C   UNL     1     -10.145  14.983  66.619  1.00  0.00    -0.261 A  
HETATM   23 CL   UNL     1      -9.008  12.551  66.417  1.00  0.00    -0.134 Cl 
HETATM   24  N   UNL     1     -10.877  15.979  67.164  1.00  0.00    -0.283 NA 
HETATM   25  C   UNL     1     -11.477  15.707  68.349  1.00  0.00    -0.369 A  
HETATM   26  C   UNL     1     -11.369  14.496  69.028  1.00  0.00    -0.272 A  
HETATM   27 CL   UNL     1     -12.334  14.264  70.436  1.00  0.00    -0.396 Cl 
ENDBRANCH  19  20
ENDBRANCH  10  16
ENDBRANCH   3   5
TORSDOF 6
ENDMDL
MODEL      107
REMARK 921   NORMALIZED FREE ENERGY PREDICTED BY IDOCK:   -4.75 KCAL/MOL
REMARK 922        TOTAL FREE ENERGY PREDICTED BY IDOCK:   -7.75 KCAL/MOL
REMARK 923 INTER-LIGAND FREE ENERGY PREDICTED BY IDOCK:   -6.69 KCAL/MOL
REMARK 924 INTRA-LIGAND FREE ENERGY PREDICTED BY IDOCK:   -1.06 KCAL/MOL
REMARK 927      BINDING AFFINITY PREDICTED BY RF-SCORE:    0.00 PKD
ROOT
HETATM    1  F   UNL     1     -10.690  16.824  65.870  1.00  0.00    -0.323 F  
HETATM    2  C   UNL     1     -11.235  15.840  65.113  1.00  0.00    -0.248 C  
HETATM    3  O   UNL     1     -10.262  14.827  64.922  1.00  0.00    -0.388 OA 
HETATM    4  F   UNL     1     -11.506  16.386  63.899  1.00  0.00    -0.381 F  
ENDROOT
BRANCH   3   5
HETATM    5  C   UNL     1     -10.275  13.825  65.857  1.00  0.00    -0.313 A  
HETATM    6  C   UNL     1      -9.303  13.899  66.875  1.00  0.00    -0.258 A  
HETATM    7  C   UNL     1     -11.134  11.777  66.822  1.00  0.00    -0.360 A  
HETATM    8  C   UNL     1      -9.240  12.896  67.848  1.00  0.00    -0.208 A  
HETATM    9  C   UNL     1     -11.207  12.782  65.856  1.00  0.00    -0.334 A  
HETATM   10  C   UNL     1     -10.137  11.818  67.801  1.00  0.00    -0.199 A  
BRANCH   6  11
HETATM   11  O   UNL     1      -8.482  14.996  66.835  1.00  0.00    -0.224 OA 
BRANCH  11  12
HETATM   12  C   UNL     1      -8.523  15.895  67.940  1.00  0.00    -0.161 C  
BRANCH  12  13
HETATM   13  C   UNL     1      -7.111  16.140  68.388  1.00  0.00    -0.130 C  
HETATM   14  C   UNL     1      -5.953  15.593  67.593  1.00  0.00    -0.159 C  
HETATM   15  C   UNL     1      -6.205  17.075  67.628  1.00  0.00    -0.165 C  
ENDBRANCH  12  13
ENDBRANCH  11  12
ENDBRANCH   6  11
BRANCH  10  16
HETATM   16  C   UNL     1     -10.014  10.672  68.748  1.00  0.00    -0.193 C  
HETATM   17  O   UNL     1      -8.966  10.496  69.356  1.00  0.00    -0.170 OA 
HETATM   18  H   UNL     1     -11.988  10.157  68.335  1.00  0.00     0.000 HD 
HETATM   19  N   UNL     1     -11.205   9.999  68.970  1.00  0.00    -0.177 N  
BRANCH  19  20
HETATM   20  C   UNL     1     -11.368   9.095  70.058  1.00  0.00    -0.090 A  
HETATM   21  C   UNL     1     -12.096   9.544  71.173  1.00  0.00    -0.347 A  
HETATM   22  C   UNL     1     -12.268   8.689  72.251  1.00  0.00    -0.378 A  
HETATM   23 CL   UNL     1     -12.736  11.145  71.251  1.00  0.00    -0.524 Cl 
HETATM   24  N   UNL     1     -11.795   7.425  72.288  1.00  0.00    -0.287 NA 
HETATM   25  C   UNL     1     -11.124   6.999  71.188  1.00  0.00    -0.258 A  
HETATM   26  C   UNL     1     -10.887   7.779  70.059  1.00  0.00    -0.241 A  
HETATM   27 CL   UNL     1     -10.167   7.025  68.688  1.00  0.00    -0.172 Cl 
ENDBRANCH  19  20
ENDBRANCH  10  16
ENDBRANCH   3   5
TORSDOF 6
ENDMDL
MODEL      108
REMARK 921   NORMALIZED FREE ENERGY PREDICTED BY IDOCK:   -4.74 KCAL/MOL
REMARK 922        TOTAL FREE ENERGY PREDICTED BY IDOCK:   -7.73 KCAL/MOL
REMARK 923 INTER-LIGAND FREE ENERGY PREDICTED BY IDOCK:   -6.57 KCAL/MOL
REMARK 924 INTRA-LIGAND FREE ENERGY PREDICTED BY IDOCK:   -1.16 KCAL/MOL
REMARK 927      BINDING AFFINITY PREDICTED BY RF-SCORE:    0.00 PKD
ROOT
HETATM    1  F   UNL     1      -9.153   3.161  73.171  1.00  0.00    -0.087 F  
HETATM    2  C   UNL     1     -10.433   3.175  72.721  1.00  0.00    -0.128 C  
HETATM    3  O   UNL     1     -10.848   4.524  72.586  1.00  0.00    -0.187 OA 
HETATM    4  F   UNL     1     -11.194   2.605  73.691  1.00  0.00    -0.260 F  
ENDROOT
BRANCH   3   5
HETATM    5  C   UNL     1     -10.630   5.078  71.351  1.00  0.00    -0.091 A  
HETATM    6  C   UNL     1     -11.274   6.304  71.088  1.00  0.00    -0.305 A  
HETATM    7  C   UNL     1      -9.652   5.112  69.137  1.00  0.00    -0.207 A  
HETATM    8  C   UNL     1     -11.118   6.915  69.838  1.00  0.00    -0.333 A  
HETATM    9  C   UNL     1      -9.795   4.506  70.386  1.00  0.00    -0.302 A  
HETATM   10  C   UNL     1     -10.332   6.300  68.853  1.00  0.00    -0.246 A  
BRANCH   6  11
HETATM   11  O   UNL     1     -12.011   6.823  72.120  1.00  0.00    -0.299 OA 
BRANCH  11  12
HETATM   12  C   UNL     1     -13.204   7.531  71.793  1.00  0.00    -0.316 C  
BRANCH  12  13
HETATM   13  C   UNL     1     -13.013   8.966  72.188  1.00  0.00    -0.473 C  
HETATM   14  C   UNL     1     -11.923   9.793  71.553  1.00  0.00    -0.488 C  
HETATM   15  C   UNL     1     -13.364  10.087  71.242  1.00  0.00    -0.410 C  
ENDBRANCH  12  13
ENDBRANCH  11  12
ENDBRANCH   6  11
BRANCH  10  16
HETATM   16  C   UNL     1     -10.249   6.862  67.472  1.00  0.00    -0.194 C  
HETATM   17  O   UNL     1     -11.030   6.477  66.613  1.00  0.00    -0.293 OA 
HETATM   18  H   UNL     1      -8.690   8.091  68.098  1.00  0.00     0.000 HD 
HETATM   19  N   UNL     1      -9.366   7.924  67.353  1.00  0.00    -0.139 N  
BRANCH  19  20
HETATM   20  C   UNL     1      -9.375   8.787  66.220  1.00  0.00    -0.222 A  
HETATM   21  C   UNL     1     -10.128   9.969  66.310  1.00  0.00    -0.243 A  
HETATM   22  C   UNL     1     -10.162  10.828  65.223  1.00  0.00    -0.285 A  
HETATM   23 CL   UNL     1     -11.047  10.352  67.720  1.00  0.00    -0.370 Cl 
HETATM   24  N   UNL     1      -9.487  10.609  64.073  1.00  0.00    -0.259 NA 
HETATM   25  C   UNL     1      -8.739   9.479  64.019  1.00  0.00    -0.216 A  
HETATM   26  C   UNL     1      -8.645   8.546  65.048  1.00  0.00    -0.135 A  
HETATM   27 CL   UNL     1      -7.518   7.255  64.874  1.00  0.00    -0.084 Cl 
ENDBRANCH  19  20
ENDBRANCH  10  16
ENDBRANCH   3   5
TORSDOF 6
ENDMDL
MODEL      109
REMARK 921   NORMALIZED FREE ENERGY PREDICTED BY IDOCK:   -4.72 KCAL/MOL
REMARK 922        TOTAL FREE ENERGY PREDICTED BY IDOCK:   -7.70 KCAL/MOL
REMARK 923 INTER-LIGAND FREE ENERGY PREDICTED BY IDOCK:   -6.76 KCAL/MOL
REMARK 924 INTRA-LIGAND FREE ENERGY PREDICTED BY IDOCK:   -0.94 KCAL/MOL
REMARK 927      BINDING AFFINITY PREDICTED BY RF-SCORE:    0.00 PKD
ROOT
HETATM    1  F   UNL     1     -12.797  14.407  72.341  1.00  0.00    -0.361 F  
HETATM    2  C   UNL     1     -13.489  14.304  71.180  1.00  0.00    -0.273 C  
HETATM    3  O   UNL     1     -12.578  14.419  70.101  1.00  0.00    -0.345 OA 
HETATM    4  F   UNL     1     -14.326  15.372  71.128  1.00  0.00    -0.544 F  
ENDROOT
BRANCH   3   5
HETATM    5  C   UNL     1     -12.057  13.234  69.650  1.00  0.00    -0.270 A  
HETATM    6  C   UNL     1     -11.596  13.213  68.318  1.00  0.00    -0.335 A  
HETATM    7  C   UNL     1     -11.433  10.909  69.907  1.00  0.00    -0.402 A  
HETATM    8  C   UNL     1     -11.076  12.029  67.783  1.00  0.00    -0.303 A  
HETATM    9  C   UNL     1     -11.941  12.091  70.448  1.00  0.00    -0.379 A  
HETATM   10  C   UNL     1     -11.025  10.869  68.570  1.00  0.00    -0.278 A  
BRANCH   6  11
HETATM   11  O   UNL     1     -11.683  14.400  67.640  1.00  0.00    -0.355 OA 
BRANCH  11  12
HETATM   12  C   UNL     1     -11.576  14.361  66.219  1.00  0.00    -0.372 C  
BRANCH  12  13
HETATM   13  C   UNL     1     -10.192  14.806  65.848  1.00  0.00    -0.331 C  
HETATM   14  C   UNL     1      -9.800  16.257  65.966  1.00  0.00    -0.371 C  
HETATM   15  C   UNL     1      -9.205  15.242  66.902  1.00  0.00    -0.255 C  
ENDBRANCH  12  13
ENDBRANCH  11  12
ENDBRANCH   6  11
BRANCH  10  16
HETATM   16  C   UNL     1     -10.594   9.563  67.990  1.00  0.00    -0.230 C  
HETATM   17  O   UNL     1     -10.915   9.271  66.846  1.00  0.00    -0.067 OA 
HETATM   18  H   UNL     1      -9.584   9.143  69.761  1.00  0.00     0.000 HD 
HETATM   19  N   UNL     1      -9.699   8.865  68.787  1.00  0.00    -0.161 N  
BRANCH  19  20
HETATM   20  C   UNL     1      -8.938   7.772  68.284  1.00  0.00    -0.131 A  
HETATM   21  C   UNL     1      -9.477   6.483  68.430  1.00  0.00    -0.120 A  
HETATM   22  C   UNL     1      -8.758   5.397  67.956  1.00  0.00    -0.106 A  
HETATM   23 CL   UNL     1     -10.985   6.217  69.227  1.00  0.00    -0.396 Cl 
HETATM   24  N   UNL     1      -7.565   5.502  67.331  1.00  0.00    -0.088 NA 
HETATM   25  C   UNL     1      -7.078   6.758  67.170  1.00  0.00    -0.079 A  
HETATM   26  C   UNL     1      -7.713   7.913  67.618  1.00  0.00    -0.117 A  
HETATM   27 CL   UNL     1      -7.035   9.435  67.179  1.00  0.00    -0.084 Cl 
ENDBRANCH  19  20
ENDBRANCH  10  16
ENDBRANCH   3   5
TORSDOF 6
ENDMDL
MODEL      110
REMARK 921   NORMALIZED FREE ENERGY PREDICTED BY IDOCK:   -4.72 KCAL/MOL
REMARK 922        TOTAL FREE ENERGY PREDICTED BY IDOCK:   -7.70 KCAL/MOL
REMARK 923 INTER-LIGAND FREE ENERGY PREDICTED BY IDOCK:   -6.38 KCAL/MOL
REMARK 924 INTRA-LIGAND FREE ENERGY PREDICTED BY IDOCK:   -1.32 KCAL/MOL
REMARK 927      BINDING AFFINITY PREDICTED BY RF-SCORE:    0.00 PKD
ROOT
HETATM    1  F   UNL     1     -10.227   4.603  68.485  1.00  0.00    -0.212 F  
HETATM    2  C   UNL     1     -10.144   5.362  69.606  1.00  0.00    -0.249 C  
HETATM    3  O   UNL     1      -9.226   6.416  69.369  1.00  0.00    -0.142 OA 
HETATM    4  F   UNL     1      -9.621   4.570  70.577  1.00  0.00    -0.200 F  
ENDROOT
BRANCH   3   5
HETATM    5  C   UNL     1      -9.780   7.571  68.880  1.00  0.00    -0.151 A  
HETATM    6  C   UNL     1      -9.402   7.949  67.576  1.00  0.00    -0.143 A  
HETATM    7  C   UNL     1     -11.193   9.530  69.044  1.00  0.00     0.026 A  
HETATM    8  C   UNL     1      -9.908   9.131  67.023  1.00  0.00    -0.267 A  
HETATM    9  C   UNL     1     -10.700   8.346  69.594  1.00  0.00    -0.201 A  
HETATM   10  C   UNL     1     -10.779   9.936  67.772  1.00  0.00    -0.332 A  
BRANCH   6  11
HETATM   11  O   UNL     1      -8.555   7.088  66.929  1.00  0.00    -0.116 OA 
BRANCH  11  12
HETATM   12  C   UNL     1      -8.577   7.083  65.503  1.00  0.00    -0.081 C  
BRANCH  12  13
HETATM   13  C   UNL     1      -8.399   5.665  65.045  1.00  0.00    -0.146 C  
HETATM   14  C   UNL     1      -8.059   4.580  66.035  1.00  0.00    -0.103 C  
HETATM   15  C   UNL     1      -9.415   4.604  65.385  1.00  0.00    -0.176 C  
ENDBRANCH  12  13
ENDBRANCH  11  12
ENDBRANCH   6  11
BRANCH  10  16
HETATM   16  C   UNL     1     -11.234  11.262  67.259  1.00  0.00    -0.296 C  
HETATM   17  O   UNL     1     -12.080  11.895  67.876  1.00  0.00    -0.558 OA 
HETATM   18  H   UNL     1      -9.890  11.079  65.680  1.00  0.00     0.000 HD 
HETATM   19  N   UNL     1     -10.496  11.727  66.181  1.00  0.00    -0.237 N  
BRANCH  19  20
HETATM   20  C   UNL     1     -10.561  13.084  65.754  1.00  0.00    -0.277 A  
HETATM   21  C   UNL     1      -9.630  13.983  66.301  1.00  0.00    -0.265 A  
HETATM   22  C   UNL     1      -9.670  15.312  65.910  1.00  0.00    -0.355 A  
HETATM   23 CL   UNL     1      -8.473  13.482  67.480  1.00  0.00    -0.180 Cl 
HETATM   24  N   UNL     1     -10.545  15.801  65.004  1.00  0.00    -0.513 NA 
HETATM   25  C   UNL     1     -11.413  14.911  64.463  1.00  0.00    -0.325 A  
HETATM   26  C   UNL     1     -11.465  13.559  64.793  1.00  0.00    -0.346 A  
HETATM   27 CL   UNL     1     -12.516  12.540  63.886  1.00  0.00    -0.535 Cl 
ENDBRANCH  19  20
ENDBRANCH  10  16
ENDBRANCH   3   5
TORSDOF 6
ENDMDL
MODEL      111
REMARK 921   NORMALIZED FREE ENERGY PREDICTED BY IDOCK:   -4.70 KCAL/MOL
REMARK 922        TOTAL FREE ENERGY PREDICTED BY IDOCK:   -7.67 KCAL/MOL
REMARK 923 INTER-LIGAND FREE ENERGY PREDICTED BY IDOCK:   -6.68 KCAL/MOL
REMARK 924 INTRA-LIGAND FREE ENERGY PREDICTED BY IDOCK:   -0.99 KCAL/MOL
REMARK 927      BINDING AFFINITY PREDICTED BY RF-SCORE:    0.00 PKD
ROOT
HETATM    1  F   UNL     1     -10.676   8.566  68.017  1.00  0.00    -0.264 F  
HETATM    2  C   UNL     1      -9.833   8.784  66.978  1.00  0.00    -0.216 C  
HETATM    3  O   UNL     1     -10.523   9.524  65.986  1.00  0.00    -0.146 OA 
HETATM    4  F   UNL     1      -9.536   7.567  66.453  1.00  0.00    -0.204 F  
ENDROOT
BRANCH   3   5
HETATM    5  C   UNL     1     -10.409  10.886  66.091  1.00  0.00    -0.248 A  
HETATM    6  C   UNL     1     -10.429  11.615  64.885  1.00  0.00    -0.288 A  
HETATM    7  C   UNL     1     -10.158  12.946  67.338  1.00  0.00    -0.223 A  
HETATM    8  C   UNL     1     -10.291  13.008  64.915  1.00  0.00    -0.343 A  
HETATM    9  C   UNL     1     -10.308  11.558  67.314  1.00  0.00    -0.236 A  
HETATM   10  C   UNL     1     -10.124  13.668  66.142  1.00  0.00    -0.311 A  
BRANCH   6  11
HETATM   11  O   UNL     1     -10.607  10.876  63.745  1.00  0.00    -0.341 OA 
BRANCH  11  12
HETATM   12  C   UNL     1      -9.548  10.865  62.790  1.00  0.00    -0.308 C  
BRANCH  12  13
HETATM   13  C   UNL     1      -8.491   9.922  63.285  1.00  0.00    -0.180 C  
HETATM   14  C   UNL     1      -8.023   8.779  62.419  1.00  0.00    -0.145 C  
HETATM   15  C   UNL     1      -7.102   9.933  62.699  1.00  0.00    -0.119 C  
ENDBRANCH  12  13
ENDBRANCH  11  12
ENDBRANCH   6  11
BRANCH  10  16
HETATM   16  C   UNL     1      -9.848  15.134  66.196  1.00  0.00    -0.300 C  
HETATM   17  O   UNL     1     -10.467  15.895  65.465  1.00  0.00    -0.359 OA 
HETATM   18  H   UNL     1      -8.460  14.787  67.708  1.00  0.00     0.000 HD 
HETATM   19  N   UNL     1      -9.003  15.506  67.230  1.00  0.00    -0.194 N  
BRANCH  19  20
HETATM   20  C   UNL     1      -8.869  16.862  67.642  1.00  0.00    -0.214 A  
HETATM   21  C   UNL     1      -9.831  17.369  68.532  1.00  0.00    -0.320 A  
HETATM   22  C   UNL     1      -9.732  18.687  68.949  1.00  0.00    -0.322 A  
HETATM   23 CL   UNL     1     -11.154  16.405  69.079  1.00  0.00    -0.325 Cl 
HETATM   24  N   UNL     1      -8.741  19.522  68.566  1.00  0.00    -0.359 NA 
HETATM   25  C   UNL     1      -7.804  19.004  67.734  1.00  0.00    -0.251 A  
HETATM   26  C   UNL     1      -7.815  17.699  67.248  1.00  0.00    -0.205 A  
HETATM   27 CL   UNL     1      -6.457  17.158  66.336  1.00  0.00    -0.261 Cl 
ENDBRANCH  19  20
ENDBRANCH  10  16
ENDBRANCH   3   5
TORSDOF 6
ENDMDL
MODEL      112
REMARK 921   NORMALIZED FREE ENERGY PREDICTED BY IDOCK:   -4.69 KCAL/MOL
REMARK 922        TOTAL FREE ENERGY PREDICTED BY IDOCK:   -7.66 KCAL/MOL
REMARK 923 INTER-LIGAND FREE ENERGY PREDICTED BY IDOCK:   -6.58 KCAL/MOL
REMARK 924 INTRA-LIGAND FREE ENERGY PREDICTED BY IDOCK:   -1.08 KCAL/MOL
REMARK 927      BINDING AFFINITY PREDICTED BY RF-SCORE:    0.00 PKD
ROOT
HETATM    1  F   UNL     1     -12.543  13.762  72.916  1.00  0.00    -0.307 F  
HETATM    2  C   UNL     1     -13.400  13.371  71.941  1.00  0.00    -0.451 C  
HETATM    3  O   UNL     1     -12.706  13.372  70.705  1.00  0.00    -0.264 OA 
HETATM    4  F   UNL     1     -14.371  14.318  71.871  1.00  0.00    -0.478 F  
ENDROOT
BRANCH   3   5
HETATM    5  C   UNL     1     -12.113  12.183  70.369  1.00  0.00    -0.309 A  
HETATM    6  C   UNL     1     -11.334  12.177  69.195  1.00  0.00    -0.276 A  
HETATM    7  C   UNL     1     -11.620   9.838  70.714  1.00  0.00    -0.417 A  
HETATM    8  C   UNL     1     -10.720  10.990  68.776  1.00  0.00    -0.240 A  
HETATM    9  C   UNL     1     -12.224  11.022  71.141  1.00  0.00    -0.415 A  
HETATM   10  C   UNL     1     -10.891   9.814  69.521  1.00  0.00    -0.264 A  
BRANCH   6  11
HETATM   11  O   UNL     1     -11.223  13.379  68.546  1.00  0.00    -0.252 OA 
BRANCH  11  12
HETATM   12  C   UNL     1     -12.134  13.645  67.483  1.00  0.00    -0.316 C  
BRANCH  12  13
HETATM   13  C   UNL     1     -11.414  13.405  66.188  1.00  0.00    -0.354 C  
HETATM   14  C   UNL     1     -11.101  14.555  65.265  1.00  0.00    -0.355 C  
HETATM   15  C   UNL     1      -9.988  13.858  65.995  1.00  0.00    -0.325 C  
ENDBRANCH  12  13
ENDBRANCH  11  12
ENDBRANCH   6  11
BRANCH  10  16
HETATM   16  C   UNL     1     -10.355   8.509  69.034  1.00  0.00    -0.216 C  
HETATM   17  O   UNL     1     -11.019   7.491  69.169  1.00  0.00    -0.138 OA 
HETATM   18  H   UNL     1      -8.659   9.499  68.341  1.00  0.00     0.000 HD 
HETATM   19  N   UNL     1      -9.183   8.625  68.301  1.00  0.00    -0.138 N  
BRANCH  19  20
HETATM   20  C   UNL     1      -8.691   7.559  67.496  1.00  0.00    -0.125 A  
HETATM   21  C   UNL     1      -8.785   7.702  66.101  1.00  0.00    -0.156 A  
HETATM   22  C   UNL     1      -8.319   6.680  65.289  1.00  0.00    -0.111 A  
HETATM   23 CL   UNL     1      -9.507   9.094  65.380  1.00  0.00    -0.285 Cl 
HETATM   24  N   UNL     1      -7.750   5.548  65.759  1.00  0.00    -0.086 NA 
HETATM   25  C   UNL     1      -7.638   5.445  67.107  1.00  0.00    -0.092 A  
HETATM   26  C   UNL     1      -8.083   6.406  68.011  1.00  0.00    -0.116 A  
HETATM   27 CL   UNL     1      -7.709   6.189  69.679  1.00  0.00    -0.096 Cl 
ENDBRANCH  19  20
ENDBRANCH  10  16
ENDBRANCH   3   5
TORSDOF 6
ENDMDL
MODEL      113
REMARK 921   NORMALIZED FREE ENERGY PREDICTED BY IDOCK:   -4.65 KCAL/MOL
REMARK 922        TOTAL FREE ENERGY PREDICTED BY IDOCK:   -7.61 KCAL/MOL
REMARK 923 INTER-LIGAND FREE ENERGY PREDICTED BY IDOCK:   -6.40 KCAL/MOL
REMARK 924 INTRA-LIGAND FREE ENERGY PREDICTED BY IDOCK:   -1.21 KCAL/MOL
REMARK 927      BINDING AFFINITY PREDICTED BY RF-SCORE:    0.00 PKD
ROOT
HETATM    1  F   UNL     1     -11.415   4.851  72.515  1.00  0.00    -0.238 F  
HETATM    2  C   UNL     1     -11.044   5.930  73.248  1.00  0.00    -0.178 C  
HETATM    3  O   UNL     1      -9.959   6.566  72.596  1.00  0.00    -0.170 OA 
HETATM    4  F   UNL     1     -10.592   5.458  74.438  1.00  0.00    -0.276 F  
ENDROOT
BRANCH   3   5
HETATM    5  C   UNL     1     -10.309   7.552  71.709  1.00  0.00    -0.192 A  
HETATM    6  C   UNL     1     -10.167   7.249  70.341  1.00  0.00    -0.194 A  
HETATM    7  C   UNL     1     -11.115   9.763  71.141  1.00  0.00    -0.414 A  
HETATM    8  C   UNL     1     -10.481   8.217  69.380  1.00  0.00    -0.223 A  
HETATM    9  C   UNL     1     -10.814   8.796  72.102  1.00  0.00    -0.400 A  
HETATM   10  C   UNL     1     -10.925   9.485  69.784  1.00  0.00    -0.245 A  
BRANCH   6  11
HETATM   11  O   UNL     1      -9.735   5.980  70.053  1.00  0.00    -0.160 OA 
BRANCH  11  12
HETATM   12  C   UNL     1      -9.118   5.761  68.787  1.00  0.00    -0.115 C  
BRANCH  12  13
HETATM   13  C   UNL     1     -10.032   4.894  67.972  1.00  0.00    -0.175 C  
HETATM   14  C   UNL     1     -10.629   5.412  66.687  1.00  0.00    -0.359 C  
HETATM   15  C   UNL     1      -9.589   4.327  66.646  1.00  0.00    -0.218 C  
ENDBRANCH  12  13
ENDBRANCH  11  12
ENDBRANCH   6  11
BRANCH  10  16
HETATM   16  C   UNL     1     -11.146  10.576  68.790  1.00  0.00    -0.265 C  
HETATM   17  O   UNL     1     -12.042  10.473  67.964  1.00  0.00    -0.224 OA 
HETATM   18  H   UNL     1      -9.596  11.652  69.671  1.00  0.00     0.000 HD 
HETATM   19  N   UNL     1     -10.385  11.710  69.027  1.00  0.00    -0.147 N  
BRANCH  19  20
HETATM   20  C   UNL     1     -10.673  12.955  68.397  1.00  0.00    -0.255 A  
HETATM   21  C   UNL     1     -11.455  13.878  69.109  1.00  0.00    -0.299 A  
HETATM   22  C   UNL     1     -11.757  15.097  68.522  1.00  0.00    -0.325 A  
HETATM   23 CL   UNL     1     -12.087  13.513  70.674  1.00  0.00    -0.411 Cl 
HETATM   24  N   UNL     1     -11.320  15.469  67.299  1.00  0.00    -0.232 NA 
HETATM   25  C   UNL     1     -10.538  14.577  66.642  1.00  0.00    -0.283 A  
HETATM   26  C   UNL     1     -10.185  13.324  67.136  1.00  0.00    -0.246 A  
HETATM   27 CL   UNL     1      -9.047  12.388  66.242  1.00  0.00    -0.154 Cl 
ENDBRANCH  19  20
ENDBRANCH  10  16
ENDBRANCH   3   5
TORSDOF 6
ENDMDL
MODEL      114
REMARK 921   NORMALIZED FREE ENERGY PREDICTED BY IDOCK:   -4.64 KCAL/MOL
REMARK 922        TOTAL FREE ENERGY PREDICTED BY IDOCK:   -7.59 KCAL/MOL
REMARK 923 INTER-LIGAND FREE ENERGY PREDICTED BY IDOCK:   -6.63 KCAL/MOL
REMARK 924 INTRA-LIGAND FREE ENERGY PREDICTED BY IDOCK:   -0.96 KCAL/MOL
REMARK 927      BINDING AFFINITY PREDICTED BY RF-SCORE:    0.00 PKD
ROOT
HETATM    1  F   UNL     1     -13.058  14.262  65.663  1.00  0.00    -0.538 F  
HETATM    2  C   UNL     1     -12.314  13.780  64.637  1.00  0.00    -0.372 C  
HETATM    3  O   UNL     1     -10.974  13.640  65.079  1.00  0.00    -0.314 OA 
HETATM    4  F   UNL     1     -12.330  14.727  63.664  1.00  0.00    -0.348 F  
ENDROOT
BRANCH   3   5
HETATM    5  C   UNL     1     -10.660  12.414  65.605  1.00  0.00    -0.265 A  
HETATM    6  C   UNL     1     -10.515  12.347  67.005  1.00  0.00    -0.220 A  
HETATM    7  C   UNL     1     -10.159  10.051  65.436  1.00  0.00    -0.317 A  
HETATM    8  C   UNL     1     -10.169  11.133  67.609  1.00  0.00    -0.208 A  
HETATM    9  C   UNL     1     -10.515  11.258  64.831  1.00  0.00    -0.375 A  
HETATM   10  C   UNL     1      -9.960   9.993  66.818  1.00  0.00    -0.267 A  
BRANCH   6  11
HETATM   11  O   UNL     1     -10.749  13.514  67.685  1.00  0.00    -0.244 OA 
BRANCH  11  12
HETATM   12  C   UNL     1      -9.652  14.406  67.869  1.00  0.00    -0.219 C  
BRANCH  12  13
HETATM   13  C   UNL     1     -10.167  15.807  67.716  1.00  0.00    -0.251 C  
HETATM   14  C   UNL     1     -10.607  16.595  68.924  1.00  0.00    -0.337 C  
HETATM   15  C   UNL     1      -9.358  16.989  68.187  1.00  0.00    -0.254 C  
ENDBRANCH  12  13
ENDBRANCH  11  12
ENDBRANCH   6  11
BRANCH  10  16
HETATM   16  C   UNL     1      -9.469   8.718  67.420  1.00  0.00    -0.146 C  
HETATM   17  O   UNL     1      -8.276   8.447  67.378  1.00  0.00    -0.118 OA 
HETATM   18  H   UNL     1     -11.415   8.284  68.016  1.00  0.00     0.000 HD 
HETATM   19  N   UNL     1     -10.435   8.029  68.136  1.00  0.00    -0.194 N  
BRANCH  19  20
HETATM   20  C   UNL     1     -10.099   6.976  69.033  1.00  0.00    -0.180 A  
HETATM   21  C   UNL     1     -10.052   5.671  68.515  1.00  0.00    -0.182 A  
HETATM   22  C   UNL     1      -9.733   4.622  69.363  1.00  0.00    -0.202 A  
HETATM   23 CL   UNL     1     -10.429   5.338  66.863  1.00  0.00    -0.304 Cl 
HETATM   24  N   UNL     1      -9.435   4.780  70.672  1.00  0.00    -0.157 NA 
HETATM   25  C   UNL     1      -9.452   6.051  71.145  1.00  0.00    -0.164 A  
HETATM   26  C   UNL     1      -9.770   7.172  70.382  1.00  0.00    -0.176 A  
HETATM   27 CL   UNL     1      -9.579   8.726  71.100  1.00  0.00    -0.278 Cl 
ENDBRANCH  19  20
ENDBRANCH  10  16
ENDBRANCH   3   5
TORSDOF 6
ENDMDL
MODEL      115
REMARK 921   NORMALIZED FREE ENERGY PREDICTED BY IDOCK:   -4.63 KCAL/MOL
REMARK 922        TOTAL FREE ENERGY PREDICTED BY IDOCK:   -7.58 KCAL/MOL
REMARK 923 INTER-LIGAND FREE ENERGY PREDICTED BY IDOCK:   -6.67 KCAL/MOL
REMARK 924 INTRA-LIGAND FREE ENERGY PREDICTED BY IDOCK:   -0.91 KCAL/MOL
REMARK 927      BINDING AFFINITY PREDICTED BY RF-SCORE:    0.00 PKD
ROOT
HETATM    1  F   UNL     1     -11.071  15.303  64.968  1.00  0.00    -0.340 F  
HETATM    2  C   UNL     1      -9.986  15.146  65.766  1.00  0.00    -0.345 C  
HETATM    3  O   UNL     1     -10.418  14.639  67.017  1.00  0.00    -0.264 OA 
HETATM    4  F   UNL     1      -9.474  16.386  65.978  1.00  0.00    -0.291 F  
ENDROOT
BRANCH   3   5
HETATM    5  C   UNL     1     -10.428  13.271  67.119  1.00  0.00    -0.248 A  
HETATM    6  C   UNL     1     -10.924  12.732  68.322  1.00  0.00    -0.252 A  
HETATM    7  C   UNL     1     -10.012  11.037  66.284  1.00  0.00    -0.269 A  
HETATM    8  C   UNL     1     -10.940  11.345  68.506  1.00  0.00    -0.267 A  
HETATM    9  C   UNL     1     -10.006  12.420  66.092  1.00  0.00    -0.267 A  
HETATM   10  C   UNL     1     -10.453  10.500  67.497  1.00  0.00    -0.284 A  
BRANCH   6  11
HETATM   11  O   UNL     1     -11.383  13.642  69.239  1.00  0.00    -0.260 OA 
BRANCH  11  12
HETATM   12  C   UNL     1     -12.176  13.155  70.318  1.00  0.00    -0.306 C  
BRANCH  12  13
HETATM   13  C   UNL     1     -12.541  14.322  71.187  1.00  0.00    -0.432 C  
HETATM   14  C   UNL     1     -13.986  14.698  71.394  1.00  0.00    -0.470 C  
HETATM   15  C   UNL     1     -13.193  14.119  72.531  1.00  0.00    -0.596 C  
ENDBRANCH  12  13
ENDBRANCH  11  12
ENDBRANCH   6  11
BRANCH  10  16
HETATM   16  C   UNL     1     -10.340   9.028  67.713  1.00  0.00    -0.246 C  
HETATM   17  O   UNL     1     -10.888   8.256  66.938  1.00  0.00    -0.228 OA 
HETATM   18  H   UNL     1      -9.133   9.394  69.369  1.00  0.00     0.000 HD 
HETATM   19  N   UNL     1      -9.451   8.677  68.717  1.00  0.00    -0.142 N  
BRANCH  19  20
HETATM   20  C   UNL     1      -8.969   7.345  68.865  1.00  0.00    -0.130 A  
HETATM   21  C   UNL     1      -7.617   7.107  68.570  1.00  0.00    -0.115 A  
HETATM   22  C   UNL     1      -7.118   5.820  68.699  1.00  0.00    -0.077 A  
HETATM   23 CL   UNL     1      -6.578   8.365  68.007  1.00  0.00    -0.057 Cl 
HETATM   24  N   UNL     1      -7.855   4.769  69.119  1.00  0.00    -0.071 NA 
HETATM   25  C   UNL     1      -9.150   5.026  69.431  1.00  0.00    -0.103 A  
HETATM   26  C   UNL     1      -9.752   6.278  69.327  1.00  0.00    -0.136 A  
HETATM   27 CL   UNL     1     -11.357   6.460  69.925  1.00  0.00    -0.476 Cl 
ENDBRANCH  19  20
ENDBRANCH  10  16
ENDBRANCH   3   5
TORSDOF 6
ENDMDL
MODEL      116
REMARK 921   NORMALIZED FREE ENERGY PREDICTED BY IDOCK:   -4.61 KCAL/MOL
REMARK 922        TOTAL FREE ENERGY PREDICTED BY IDOCK:   -7.55 KCAL/MOL
REMARK 923 INTER-LIGAND FREE ENERGY PREDICTED BY IDOCK:   -6.50 KCAL/MOL
REMARK 924 INTRA-LIGAND FREE ENERGY PREDICTED BY IDOCK:   -1.05 KCAL/MOL
REMARK 927      BINDING AFFINITY PREDICTED BY RF-SCORE:    0.00 PKD
ROOT
HETATM    1  F   UNL     1     -10.233  14.455  67.305  1.00  0.00    -0.245 F  
HETATM    2  C   UNL     1     -11.296  14.220  68.114  1.00  0.00    -0.288 C  
HETATM    3  O   UNL     1     -12.014  13.111  67.602  1.00  0.00    -0.357 OA 
HETATM    4  F   UNL     1     -12.102  15.310  68.026  1.00  0.00    -0.323 F  
ENDROOT
BRANCH   3   5
HETATM    5  C   UNL     1     -11.634  11.891  68.099  1.00  0.00    -0.334 A  
HETATM    6  C   UNL     1     -10.916  11.050  67.225  1.00  0.00    -0.297 A  
HETATM    7  C   UNL     1     -11.508  10.206  69.833  1.00  0.00    -0.317 A  
HETATM    8  C   UNL     1     -10.518   9.780  67.658  1.00  0.00    -0.305 A  
HETATM    9  C   UNL     1     -11.896  11.478  69.410  1.00  0.00    -0.417 A  
HETATM   10  C   UNL     1     -10.843   9.348  68.952  1.00  0.00    -0.151 A  
BRANCH   6  11
HETATM   11  O   UNL     1     -10.643  11.571  65.988  1.00  0.00    -0.247 OA 
BRANCH  11  12
HETATM   12  C   UNL     1     -10.580  10.667  64.887  1.00  0.00    -0.122 C  
BRANCH  12  13
HETATM   13  C   UNL     1     -11.060  11.394  63.665  1.00  0.00    -0.411 C  
HETATM   14  C   UNL     1     -12.423  12.038  63.647  1.00  0.00    -0.637 C  
HETATM   15  C   UNL     1     -11.189  12.897  63.654  1.00  0.00    -0.418 C  
ENDBRANCH  12  13
ENDBRANCH  11  12
ENDBRANCH   6  11
BRANCH  10  16
HETATM   16  C   UNL     1     -10.544   7.955  69.397  1.00  0.00    -0.205 C  
HETATM   17  O   UNL     1     -10.841   7.011  68.678  1.00  0.00    -0.204 OA 
HETATM   18  H   UNL     1      -9.677   8.725  71.126  1.00  0.00     0.000 HD 
HETATM   19  N   UNL     1      -9.778   7.889  70.551  1.00  0.00    -0.174 N  
BRANCH  19  20
HETATM   20  C   UNL     1      -9.129   6.688  70.956  1.00  0.00    -0.156 A  
HETATM   21  C   UNL     1      -7.915   6.362  70.330  1.00  0.00    -0.112 A  
HETATM   22  C   UNL     1      -7.260   5.197  70.699  1.00  0.00    -0.067 A  
HETATM   23 CL   UNL     1      -7.245   7.351  69.083  1.00  0.00    -0.082 Cl 
HETATM   24  N   UNL     1      -7.710   4.354  71.653  1.00  0.00    -0.076 NA 
HETATM   25  C   UNL     1      -8.867   4.704  72.269  1.00  0.00    -0.122 A  
HETATM   26  C   UNL     1      -9.608   5.844  71.968  1.00  0.00    -0.149 A  
HETATM   27 CL   UNL     1     -10.962   6.221  72.964  1.00  0.00    -0.278 Cl 
ENDBRANCH  19  20
ENDBRANCH  10  16
ENDBRANCH   3   5
TORSDOF 6
ENDMDL
MODEL      117
REMARK 921   NORMALIZED FREE ENERGY PREDICTED BY IDOCK:   -4.58 KCAL/MOL
REMARK 922        TOTAL FREE ENERGY PREDICTED BY IDOCK:   -7.51 KCAL/MOL
REMARK 923 INTER-LIGAND FREE ENERGY PREDICTED BY IDOCK:   -6.39 KCAL/MOL
REMARK 924 INTRA-LIGAND FREE ENERGY PREDICTED BY IDOCK:   -1.12 KCAL/MOL
REMARK 927      BINDING AFFINITY PREDICTED BY RF-SCORE:    0.00 PKD
ROOT
HETATM    1  F   UNL     1     -11.778  14.730  66.911  1.00  0.00    -0.355 F  
HETATM    2  C   UNL     1     -12.401  13.617  66.451  1.00  0.00    -0.389 C  
HETATM    3  O   UNL     1     -11.419  12.628  66.187  1.00  0.00    -0.324 OA 
HETATM    4  F   UNL     1     -12.977  13.951  65.268  1.00  0.00    -0.485 F  
ENDROOT
BRANCH   3   5
HETATM    5  C   UNL     1     -11.144  11.787  67.234  1.00  0.00    -0.287 A  
HETATM    6  C   UNL     1     -10.115  10.846  67.033  1.00  0.00    -0.205 A  
HETATM    7  C   UNL     1     -11.495  10.932  69.472  1.00  0.00    -0.372 A  
HETATM    8  C   UNL     1      -9.797   9.938  68.050  1.00  0.00    -0.170 A  
HETATM    9  C   UNL     1     -11.806  11.848  68.465  1.00  0.00    -0.357 A  
HETATM   10  C   UNL     1     -10.511   9.963  69.257  1.00  0.00    -0.240 A  
BRANCH   6  11
HETATM   11  O   UNL     1      -9.475  10.913  65.823  1.00  0.00    -0.193 OA 
BRANCH  11  12
HETATM   12  C   UNL     1      -9.596   9.795  64.947  1.00  0.00    -0.246 C  
BRANCH  12  13
HETATM   13  C   UNL     1      -8.225   9.221  64.739  1.00  0.00    -0.149 C  
HETATM   14  C   UNL     1      -8.034   7.732  64.605  1.00  0.00    -0.136 C  
HETATM   15  C   UNL     1      -7.824   8.624  63.413  1.00  0.00    -0.151 C  
ENDBRANCH  12  13
ENDBRANCH  11  12
ENDBRANCH   6  11
BRANCH  10  16
HETATM   16  C   UNL     1     -10.282   8.928  70.308  1.00  0.00    -0.201 C  
HETATM   17  O   UNL     1      -9.797   9.252  71.384  1.00  0.00    -0.295 OA 
HETATM   18  H   UNL     1     -11.106   7.498  69.039  1.00  0.00     0.000 HD 
HETATM   19  N   UNL     1     -10.820   7.688  69.999  1.00  0.00    -0.248 N  
BRANCH  19  20
HETATM   20  C   UNL     1     -10.986   6.673  70.984  1.00  0.00    -0.259 A  
HETATM   21  C   UNL     1      -9.930   5.763  71.163  1.00  0.00    -0.192 A  
HETATM   22  C   UNL     1     -10.062   4.760  72.110  1.00  0.00    -0.191 A  
HETATM   23 CL   UNL     1      -8.498   5.838  70.202  1.00  0.00    -0.119 Cl 
HETATM   24  N   UNL     1     -11.147   4.613  72.901  1.00  0.00    -0.216 NA 
HETATM   25  C   UNL     1     -12.141   5.521  72.736  1.00  0.00     0.066 A  
HETATM   26  C   UNL     1     -12.114   6.559  71.808  1.00  0.00    -0.342 A  
HETATM   27 CL   UNL     1     -13.387   7.720  71.849  1.00  0.00    -0.332 Cl 
ENDBRANCH  19  20
ENDBRANCH  10  16
ENDBRANCH   3   5
TORSDOF 6
ENDMDL
MODEL      118
REMARK 921   NORMALIZED FREE ENERGY PREDICTED BY IDOCK:   -4.57 KCAL/MOL
REMARK 922        TOTAL FREE ENERGY PREDICTED BY IDOCK:   -7.50 KCAL/MOL
REMARK 923 INTER-LIGAND FREE ENERGY PREDICTED BY IDOCK:   -6.53 KCAL/MOL
REMARK 924 INTRA-LIGAND FREE ENERGY PREDICTED BY IDOCK:   -0.97 KCAL/MOL
REMARK 927      BINDING AFFINITY PREDICTED BY RF-SCORE:    0.00 PKD
ROOT
HETATM    1  F   UNL     1     -12.103  14.456  71.883  1.00  0.00    -0.370 F  
HETATM    2  C   UNL     1     -12.956  13.978  70.943  1.00  0.00    -0.277 C  
HETATM    3  O   UNL     1     -12.552  14.469  69.677  1.00  0.00    -0.242 OA 
HETATM    4  F   UNL     1     -14.177  14.504  71.220  1.00  0.00    -0.443 F  
ENDROOT
BRANCH   3   5
HETATM    5  C   UNL     1     -11.679  13.664  68.992  1.00  0.00    -0.333 A  
HETATM    6  C   UNL     1     -10.970  14.262  67.931  1.00  0.00    -0.267 A  
HETATM    7  C   UNL     1     -10.572  11.557  68.549  1.00  0.00    -0.236 A  
HETATM    8  C   UNL     1     -10.081  13.494  67.171  1.00  0.00    -0.245 A  
HETATM    9  C   UNL     1     -11.451  12.323  69.317  1.00  0.00    -0.352 A  
HETATM   10  C   UNL     1      -9.908  12.132  67.462  1.00  0.00    -0.193 A  
BRANCH   6  11
HETATM   11  O   UNL     1     -11.205  15.598  67.736  1.00  0.00    -0.329 OA 
BRANCH  11  12
HETATM   12  C   UNL     1     -10.318  16.525  68.358  1.00  0.00    -0.294 C  
BRANCH  12  13
HETATM   13  C   UNL     1     -10.089  17.658  67.401  1.00  0.00    -0.331 C  
HETATM   14  C   UNL     1     -10.537  19.055  67.751  1.00  0.00    -0.488 C  
HETATM   15  C   UNL     1      -9.070  18.731  67.695  1.00  0.00    -0.304 C  
ENDBRANCH  12  13
ENDBRANCH  11  12
ENDBRANCH   6  11
BRANCH  10  16
HETATM   16  C   UNL     1      -9.065  11.260  66.593  1.00  0.00    -0.179 C  
HETATM   17  O   UNL     1      -7.851  11.407  66.580  1.00  0.00    -0.153 OA 
HETATM   18  H   UNL     1     -10.784  10.257  65.984  1.00  0.00     0.000 HD 
HETATM   19  N   UNL     1      -9.765  10.224  65.994  1.00  0.00    -0.204 N  
BRANCH  19  20
HETATM   20  C   UNL     1      -9.102   9.116  65.394  1.00  0.00    -0.214 A  
HETATM   21  C   UNL     1      -9.041   7.919  66.128  1.00  0.00    -0.163 A  
HETATM   22  C   UNL     1      -8.399   6.823  65.573  1.00  0.00    -0.142 A  
HETATM   23 CL   UNL     1      -9.703   7.798  67.717  1.00  0.00    -0.174 Cl 
HETATM   24  N   UNL     1      -7.840   6.825  64.343  1.00  0.00    -0.113 NA 
HETATM   25  C   UNL     1      -7.939   7.979  63.637  1.00  0.00    -0.130 A  
HETATM   26  C   UNL     1      -8.552   9.138  64.105  1.00  0.00    -0.170 A  
HETATM   27 CL   UNL     1      -8.737  10.458  63.012  1.00  0.00    -0.185 Cl 
ENDBRANCH  19  20
ENDBRANCH  10  16
ENDBRANCH   3   5
TORSDOF 6
ENDMDL
MODEL      119
REMARK 921   NORMALIZED FREE ENERGY PREDICTED BY IDOCK:   -4.55 KCAL/MOL
REMARK 922        TOTAL FREE ENERGY PREDICTED BY IDOCK:   -7.47 KCAL/MOL
REMARK 923 INTER-LIGAND FREE ENERGY PREDICTED BY IDOCK:   -6.61 KCAL/MOL
REMARK 924 INTRA-LIGAND FREE ENERGY PREDICTED BY IDOCK:   -0.85 KCAL/MOL
REMARK 927      BINDING AFFINITY PREDICTED BY RF-SCORE:    0.00 PKD
ROOT
HETATM    1  F   UNL     1     -12.640  13.487  65.665  1.00  0.00    -0.445 F  
HETATM    2  C   UNL     1     -11.313  13.530  65.390  1.00  0.00    -0.289 C  
HETATM    3  O   UNL     1     -10.603  13.064  66.525  1.00  0.00    -0.277 OA 
HETATM    4  F   UNL     1     -10.993  14.837  65.210  1.00  0.00    -0.301 F  
ENDROOT
BRANCH   3   5
HETATM    5  C   UNL     1     -10.342  11.719  66.537  1.00  0.00    -0.223 A  
HETATM    6  C   UNL     1     -10.313  11.093  67.799  1.00  0.00    -0.187 A  
HETATM    7  C   UNL     1      -9.846   9.602  65.472  1.00  0.00    -0.352 A  
HETATM    8  C   UNL     1     -10.028   9.726  67.889  1.00  0.00    -0.196 A  
HETATM    9  C   UNL     1     -10.143  10.962  65.377  1.00  0.00    -0.336 A  
HETATM   10  C   UNL     1      -9.763   8.989  66.725  1.00  0.00    -0.279 A  
BRANCH   6  11
HETATM   11  O   UNL     1     -10.594  11.900  68.870  1.00  0.00    -0.217 OA 
BRANCH  11  12
HETATM   12  C   UNL     1     -11.965  12.115  69.197  1.00  0.00    -0.255 C  
BRANCH  12  13
HETATM   13  C   UNL     1     -12.462  10.899  69.922  1.00  0.00    -0.292 C  
HETATM   14  C   UNL     1     -11.633  10.267  71.011  1.00  0.00    -0.430 C  
HETATM   15  C   UNL     1     -12.910  10.979  71.360  1.00  0.00    -0.548 C  
ENDBRANCH  12  13
ENDBRANCH  11  12
ENDBRANCH   6  11
BRANCH  10  16
HETATM   16  C   UNL     1      -9.333   7.561  66.799  1.00  0.00    -0.165 C  
HETATM   17  O   UNL     1      -8.174   7.262  66.543  1.00  0.00    -0.110 OA 
HETATM   18  H   UNL     1     -11.254   7.045  67.411  1.00  0.00     0.000 HD 
HETATM   19  N   UNL     1     -10.292   6.715  67.333  1.00  0.00    -0.189 N  
BRANCH  19  20
HETATM   20  C   UNL     1      -9.973   5.400  67.775  1.00  0.00    -0.161 A  
HETATM   21  C   UNL     1     -10.012   5.151  69.157  1.00  0.00    -0.203 A  
HETATM   22  C   UNL     1      -9.702   3.881  69.620  1.00  0.00    -0.138 A  
HETATM   23 CL   UNL     1     -10.388   6.397  70.290  1.00  0.00    -0.237 Cl 
HETATM   24  N   UNL     1      -9.384   2.846  68.812  1.00  0.00    -0.175 NA 
HETATM   25  C   UNL     1      -9.385   3.098  67.480  1.00  0.00    -0.198 A  
HETATM   26  C   UNL     1      -9.670   4.337  66.912  1.00  0.00    -0.214 A  
HETATM   27 CL   UNL     1      -9.791   4.437  65.196  1.00  0.00    -0.197 Cl 
ENDBRANCH  19  20
ENDBRANCH  10  16
ENDBRANCH   3   5
TORSDOF 6
ENDMDL
MODEL      120
REMARK 921   NORMALIZED FREE ENERGY PREDICTED BY IDOCK:   -4.55 KCAL/MOL
REMARK 922        TOTAL FREE ENERGY PREDICTED BY IDOCK:   -7.46 KCAL/MOL
REMARK 923 INTER-LIGAND FREE ENERGY PREDICTED BY IDOCK:   -6.16 KCAL/MOL
REMARK 924 INTRA-LIGAND FREE ENERGY PREDICTED BY IDOCK:   -1.30 KCAL/MOL
REMARK 927      BINDING AFFINITY PREDICTED BY RF-SCORE:    0.00 PKD
ROOT
HETATM    1  F   UNL     1     -13.127  14.342  65.663  1.00  0.00    -0.538 F  
HETATM    2  C   UNL     1     -12.381  14.246  64.535  1.00  0.00    -0.410 C  
HETATM    3  O   UNL     1     -11.018  14.121  64.906  1.00  0.00    -0.355 OA 
HETATM    4  F   UNL     1     -12.521  15.423  63.872  1.00  0.00    -0.427 F  
ENDROOT
BRANCH   3   5
HETATM    5  C   UNL     1     -10.572  12.834  65.058  1.00  0.00    -0.308 A  
HETATM    6  C   UNL     1      -9.760  12.576  66.180  1.00  0.00    -0.254 A  
HETATM    7  C   UNL     1     -10.387  10.515  64.386  1.00  0.00    -0.244 A  
HETATM    8  C   UNL     1      -9.247  11.290  66.384  1.00  0.00    -0.206 A  
HETATM    9  C   UNL     1     -10.910  11.794  64.185  1.00  0.00    -0.418 A  
HETATM   10  C   UNL     1      -9.536  10.268  65.468  1.00  0.00    -0.299 A  
BRANCH   6  11
HETATM   11  O   UNL     1      -9.546  13.640  67.017  1.00  0.00    -0.235 OA 
BRANCH  11  12
HETATM   12  C   UNL     1      -9.884  13.480  68.393  1.00  0.00    -0.225 C  
BRANCH  12  13
HETATM   13  C   UNL     1     -10.466  14.775  68.879  1.00  0.00    -0.249 C  
HETATM   14  C   UNL     1     -10.826  15.864  67.900  1.00  0.00    -0.327 C  
HETATM   15  C   UNL     1     -11.912  15.120  68.628  1.00  0.00    -0.270 C  
ENDBRANCH  12  13
ENDBRANCH  11  12
ENDBRANCH   6  11
BRANCH  10  16
HETATM   16  C   UNL     1      -8.903   8.922  65.590  1.00  0.00    -0.191 C  
HETATM   17  O   UNL     1      -8.098   8.551  64.747  1.00  0.00    -0.135 OA 
HETATM   18  H   UNL     1      -9.947   8.625  67.366  1.00  0.00     0.000 HD 
HETATM   19  N   UNL     1      -9.184   8.279  66.785  1.00  0.00    -0.159 N  
BRANCH  19  20
HETATM   20  C   UNL     1      -8.438   7.149  67.226  1.00  0.00    -0.122 A  
HETATM   21  C   UNL     1      -7.205   7.389  67.854  1.00  0.00    -0.091 A  
HETATM   22  C   UNL     1      -6.452   6.310  68.290  1.00  0.00    -0.053 A  
HETATM   23 CL   UNL     1      -6.586   8.988  68.053  1.00  0.00    -0.060 Cl 
HETATM   24  N   UNL     1      -6.845   5.023  68.168  1.00  0.00    -0.055 NA 
HETATM   25  C   UNL     1      -8.053   4.814  67.589  1.00  0.00    -0.097 A  
HETATM   26  C   UNL     1      -8.882   5.824  67.108  1.00  0.00    -0.107 A  
HETATM   27 CL   UNL     1     -10.456   5.391  66.556  1.00  0.00    -0.327 Cl 
ENDBRANCH  19  20
ENDBRANCH  10  16
ENDBRANCH   3   5
TORSDOF 6
ENDMDL
MODEL      121
REMARK 921   NORMALIZED FREE ENERGY PREDICTED BY IDOCK:   -4.53 KCAL/MOL
REMARK 922        TOTAL FREE ENERGY PREDICTED BY IDOCK:   -7.45 KCAL/MOL
REMARK 923 INTER-LIGAND FREE ENERGY PREDICTED BY IDOCK:   -6.70 KCAL/MOL
REMARK 924 INTRA-LIGAND FREE ENERGY PREDICTED BY IDOCK:   -0.75 KCAL/MOL
REMARK 927      BINDING AFFINITY PREDICTED BY RF-SCORE:    0.00 PKD
ROOT
HETATM    1  F   UNL     1     -13.482  10.968  70.768  1.00  0.00    -0.196 F  
HETATM    2  C   UNL     1     -12.127  10.917  70.733  1.00  0.00    -0.368 C  
HETATM    3  O   UNL     1     -11.701  11.179  69.407  1.00  0.00    -0.273 OA 
HETATM    4  F   UNL     1     -11.777   9.640  71.035  1.00  0.00    -0.314 F  
ENDROOT
BRANCH   3   5
HETATM    5  C   UNL     1     -11.449  12.497  69.127  1.00  0.00    -0.305 A  
HETATM    6  C   UNL     1     -10.660  12.760  67.989  1.00  0.00    -0.226 A  
HETATM    7  C   UNL     1     -11.624  14.873  69.559  1.00  0.00    -0.333 A  
HETATM    8  C   UNL     1     -10.341  14.081  67.657  1.00  0.00    -0.242 A  
HETATM    9  C   UNL     1     -11.955  13.557  69.887  1.00  0.00    -0.416 A  
HETATM   10  C   UNL     1     -10.798  15.135  68.463  1.00  0.00    -0.247 A  
BRANCH   6  11
HETATM   11  O   UNL     1     -10.273  11.662  67.266  1.00  0.00    -0.197 OA 
BRANCH  11  12
HETATM   12  C   UNL     1      -9.180  11.814  66.363  1.00  0.00    -0.217 C  
BRANCH  12  13
HETATM   13  C   UNL     1      -8.491  10.487  66.246  1.00  0.00    -0.150 C  
HETATM   14  C   UNL     1      -8.999   9.292  67.012  1.00  0.00    -0.142 C  
HETATM   15  C   UNL     1      -9.136   9.335  65.516  1.00  0.00    -0.275 C  
ENDBRANCH  12  13
ENDBRANCH  11  12
ENDBRANCH   6  11
BRANCH  10  16
HETATM   16  C   UNL     1     -10.369  16.541  68.207  1.00  0.00    -0.293 C  
HETATM   17  O   UNL     1     -10.866  17.454  68.852  1.00  0.00    -0.216 OA 
HETATM   18  H   UNL     1      -9.022  15.841  66.783  1.00  0.00     0.000 HD 
HETATM   19  N   UNL     1      -9.288  16.649  67.346  1.00  0.00    -0.221 N  
BRANCH  19  20
HETATM   20  C   UNL     1      -8.540  17.854  67.223  1.00  0.00    -0.237 A  
HETATM   21  C   UNL     1      -9.134  18.920  66.526  1.00  0.00    -0.327 A  
HETATM   22  C   UNL     1      -8.429  20.105  66.385  1.00  0.00    -0.239 A  
HETATM   23 CL   UNL     1     -10.694  18.771  65.803  1.00  0.00    -0.410 Cl 
HETATM   24  N   UNL     1      -7.199  20.313  66.904  1.00  0.00    -0.258 NA 
HETATM   25  C   UNL     1      -6.658  19.284  67.602  1.00  0.00    -0.210 A  
HETATM   26  C   UNL     1      -7.274  18.050  67.793  1.00  0.00    -0.211 A  
HETATM   27 CL   UNL     1      -6.517  16.917  68.848  1.00  0.00    -0.174 Cl 
ENDBRANCH  19  20
ENDBRANCH  10  16
ENDBRANCH   3   5
TORSDOF 6
ENDMDL
MODEL      122
REMARK 921   NORMALIZED FREE ENERGY PREDICTED BY IDOCK:   -4.51 KCAL/MOL
REMARK 922        TOTAL FREE ENERGY PREDICTED BY IDOCK:   -7.41 KCAL/MOL
REMARK 923 INTER-LIGAND FREE ENERGY PREDICTED BY IDOCK:   -6.28 KCAL/MOL
REMARK 924 INTRA-LIGAND FREE ENERGY PREDICTED BY IDOCK:   -1.13 KCAL/MOL
REMARK 927      BINDING AFFINITY PREDICTED BY RF-SCORE:    0.00 PKD
ROOT
HETATM    1  F   UNL     1     -10.286  14.375  68.780  1.00  0.00    -0.219 F  
HETATM    2  C   UNL     1     -11.561  13.929  68.653  1.00  0.00    -0.328 C  
HETATM    3  O   UNL     1     -11.534  12.667  68.008  1.00  0.00    -0.274 OA 
HETATM    4  F   UNL     1     -12.200  14.800  67.831  1.00  0.00    -0.332 F  
ENDROOT
BRANCH   3   5
HETATM    5  C   UNL     1     -11.462  11.586  68.847  1.00  0.00    -0.289 A  
HETATM    6  C   UNL     1     -10.737  10.471  68.378  1.00  0.00    -0.224 A  
HETATM    7  C   UNL     1     -11.950  10.408  70.905  1.00  0.00    -0.478 A  
HETATM    8  C   UNL     1     -10.644   9.322  69.171  1.00  0.00    -0.228 A  
HETATM    9  C   UNL     1     -12.035  11.561  70.122  1.00  0.00    -0.452 A  
HETATM   10  C   UNL     1     -11.279   9.281  70.422  1.00  0.00    -0.290 A  
BRANCH   6  11
HETATM   11  O   UNL     1     -10.149  10.617  67.149  1.00  0.00    -0.191 OA 
BRANCH  11  12
HETATM   12  C   UNL     1     -10.523   9.702  66.122  1.00  0.00    -0.041 C  
BRANCH  12  13
HETATM   13  C   UNL     1      -9.272   9.262  65.419  1.00  0.00    -0.284 C  
HETATM   14  C   UNL     1      -8.918   9.827  64.067  1.00  0.00    -0.275 C  
HETATM   15  C   UNL     1      -8.094  10.191  65.271  1.00  0.00    -0.151 C  
ENDBRANCH  12  13
ENDBRANCH  11  12
ENDBRANCH   6  11
BRANCH  10  16
HETATM   16  C   UNL     1     -11.303   8.029  71.233  1.00  0.00    -0.264 C  
HETATM   17  O   UNL     1     -12.374   7.564  71.601  1.00  0.00    -0.306 OA 
HETATM   18  H   UNL     1      -9.228   7.934  71.095  1.00  0.00     0.000 HD 
HETATM   19  N   UNL     1     -10.067   7.411  71.345  1.00  0.00    -0.187 N  
BRANCH  19  20
HETATM   20  C   UNL     1      -9.935   6.068  71.798  1.00  0.00    -0.170 A  
HETATM   21  C   UNL     1      -9.771   5.860  73.178  1.00  0.00    -0.158 A  
HETATM   22  C   UNL     1      -9.635   4.564  73.651  1.00  0.00    -0.123 A  
HETATM   23 CL   UNL     1      -9.688   7.180  74.288  1.00  0.00    -0.264 Cl 
HETATM   24  N   UNL     1      -9.675   3.470  72.860  1.00  0.00    -0.129 NA 
HETATM   25  C   UNL     1      -9.867   3.689  71.536  1.00  0.00    -0.157 A  
HETATM   26  C   UNL     1     -10.004   4.948  70.957  1.00  0.00    -0.212 A  
HETATM   27 CL   UNL     1     -10.411   5.035  69.285  1.00  0.00    -0.254 Cl 
ENDBRANCH  19  20
ENDBRANCH  10  16
ENDBRANCH   3   5
TORSDOF 6
ENDMDL
MODEL      123
REMARK 921   NORMALIZED FREE ENERGY PREDICTED BY IDOCK:   -4.50 KCAL/MOL
REMARK 922        TOTAL FREE ENERGY PREDICTED BY IDOCK:   -7.40 KCAL/MOL
REMARK 923 INTER-LIGAND FREE ENERGY PREDICTED BY IDOCK:   -6.01 KCAL/MOL
REMARK 924 INTRA-LIGAND FREE ENERGY PREDICTED BY IDOCK:   -1.38 KCAL/MOL
REMARK 927      BINDING AFFINITY PREDICTED BY RF-SCORE:    0.00 PKD
ROOT
HETATM    1  F   UNL     1      -9.302   4.140  67.268  1.00  0.00    -0.138 F  
HETATM    2  C   UNL     1      -8.631   4.996  68.078  1.00  0.00    -0.103 C  
HETATM    3  O   UNL     1      -8.021   5.991  67.274  1.00  0.00    -0.101 OA 
HETATM    4  F   UNL     1      -7.640   4.279  68.669  1.00  0.00    -0.061 F  
ENDROOT
BRANCH   3   5
HETATM    5  C   UNL     1      -8.778   7.115  67.065  1.00  0.00    -0.123 A  
HETATM    6  C   UNL     1      -8.462   7.886  65.929  1.00  0.00    -0.138 A  
HETATM    7  C   UNL     1     -10.541   8.672  67.638  1.00  0.00    -0.272 A  
HETATM    8  C   UNL     1      -9.176   9.061  65.668  1.00  0.00    -0.288 A  
HETATM    9  C   UNL     1      -9.839   7.494  67.895  1.00  0.00    -0.185 A  
HETATM   10  C   UNL     1     -10.195   9.469  66.543  1.00  0.00    -0.307 A  
BRANCH   6  11
HETATM   11  O   UNL     1      -7.457   7.396  65.137  1.00  0.00    -0.076 OA 
BRANCH  11  12
HETATM   12  C   UNL     1      -7.741   7.197  63.754  1.00  0.00    -0.119 C  
BRANCH  12  13
HETATM   13  C   UNL     1      -7.389   5.779  63.411  1.00  0.00    -0.062 C  
HETATM   14  C   UNL     1      -6.514   4.966  64.331  1.00  0.00    -0.038 C  
HETATM   15  C   UNL     1      -7.970   4.623  64.186  1.00  0.00    -0.098 C  
ENDBRANCH  12  13
ENDBRANCH  11  12
ENDBRANCH   6  11
BRANCH  10  16
HETATM   16  C   UNL     1     -10.887  10.779  66.360  1.00  0.00    -0.104 C  
HETATM   17  O   UNL     1     -11.649  11.188  67.225  1.00  0.00    -0.514 OA 
HETATM   18  H   UNL     1      -9.890  11.020  64.549  1.00  0.00     0.000 HD 
HETATM   19  N   UNL     1     -10.445  11.496  65.260  1.00  0.00    -0.273 N  
BRANCH  19  20
HETATM   20  C   UNL     1     -10.744  12.879  65.093  1.00  0.00    -0.305 A  
HETATM   21  C   UNL     1     -11.833  13.214  64.273  1.00  0.00    -0.406 A  
HETATM   22  C   UNL     1     -12.147  14.551  64.086  1.00  0.00    -0.350 A  
HETATM   23 CL   UNL     1     -12.757  12.006  63.457  1.00  0.00    -0.648 Cl 
HETATM   24  N   UNL     1     -11.477  15.568  64.671  1.00  0.00    -0.382 NA 
HETATM   25  C   UNL     1     -10.449  15.222  65.486  1.00  0.00    -0.374 A  
HETATM   26  C   UNL     1     -10.045  13.912  65.733  1.00  0.00    -0.320 A  
HETATM   27 CL   UNL     1      -8.830  13.647  66.926  1.00  0.00    -0.228 Cl 
ENDBRANCH  19  20
ENDBRANCH  10  16
ENDBRANCH   3   5
TORSDOF 6
ENDMDL
MODEL      124
REMARK 921   NORMALIZED FREE ENERGY PREDICTED BY IDOCK:   -4.48 KCAL/MOL
REMARK 922        TOTAL FREE ENERGY PREDICTED BY IDOCK:   -7.38 KCAL/MOL
REMARK 923 INTER-LIGAND FREE ENERGY PREDICTED BY IDOCK:   -6.50 KCAL/MOL
REMARK 924 INTRA-LIGAND FREE ENERGY PREDICTED BY IDOCK:   -0.88 KCAL/MOL
REMARK 927      BINDING AFFINITY PREDICTED BY RF-SCORE:    0.00 PKD
ROOT
HETATM    1  F   UNL     1     -13.163  13.967  65.578  1.00  0.00    -0.533 F  
HETATM    2  C   UNL     1     -12.083  14.130  64.773  1.00  0.00    -0.441 C  
HETATM    3  O   UNL     1     -10.917  13.817  65.515  1.00  0.00    -0.291 OA 
HETATM    4  F   UNL     1     -12.029  15.449  64.456  1.00  0.00    -0.396 F  
ENDROOT
BRANCH   3   5
HETATM    5  C   UNL     1     -10.513  12.509  65.439  1.00  0.00    -0.282 A  
HETATM    6  C   UNL     1     -10.244  11.860  66.661  1.00  0.00    -0.208 A  
HETATM    7  C   UNL     1      -9.939  10.489  64.235  1.00  0.00    -0.398 A  
HETATM    8  C   UNL     1      -9.802  10.532  66.658  1.00  0.00    -0.246 A  
HETATM    9  C   UNL     1     -10.392  11.809  64.234  1.00  0.00    -0.359 A  
HETATM   10  C   UNL     1      -9.619   9.858  65.441  1.00  0.00    -0.350 A  
BRANCH   6  11
HETATM   11  O   UNL     1     -10.462  12.603  67.791  1.00  0.00    -0.215 OA 
BRANCH  11  12
HETATM   12  C   UNL     1     -11.748  12.519  68.402  1.00  0.00    -0.328 C  
BRANCH  12  13
HETATM   13  C   UNL     1     -11.910  11.130  68.945  1.00  0.00    -0.406 C  
HETATM   14  C   UNL     1     -10.973  10.610  70.005  1.00  0.00    -0.325 C  
HETATM   15  C   UNL     1     -12.408  10.896  70.349  1.00  0.00    -0.436 C  
ENDBRANCH  12  13
ENDBRANCH  11  12
ENDBRANCH   6  11
BRANCH  10  16
HETATM   16  C   UNL     1      -9.030   8.488  65.400  1.00  0.00    -0.099 C  
HETATM   17  O   UNL     1      -8.404   8.125  64.413  1.00  0.00    -0.134 OA 
HETATM   18  H   UNL     1      -9.750   8.153  67.324  1.00  0.00     0.000 HD 
HETATM   19  N   UNL     1      -9.118   7.806  66.604  1.00  0.00    -0.152 N  
BRANCH  19  20
HETATM   20  C   UNL     1      -8.352   6.634  66.862  1.00  0.00    -0.114 A  
HETATM   21  C   UNL     1      -9.001   5.393  66.748  1.00  0.00    -0.112 A  
HETATM   22  C   UNL     1      -8.284   4.234  66.998  1.00  0.00    -0.101 A  
HETATM   23 CL   UNL     1     -10.678   5.283  66.351  1.00  0.00    -0.352 Cl 
HETATM   24  N   UNL     1      -6.974   4.219  67.327  1.00  0.00    -0.062 NA 
HETATM   25  C   UNL     1      -6.357   5.424  67.399  1.00  0.00    -0.039 A  
HETATM   26  C   UNL     1      -6.986   6.647  67.178  1.00  0.00    -0.071 A  
HETATM   27 CL   UNL     1      -6.012   8.068  67.145  1.00  0.00    -0.048 Cl 
ENDBRANCH  19  20
ENDBRANCH  10  16
ENDBRANCH   3   5
TORSDOF 6
ENDMDL
MODEL      125
REMARK 921   NORMALIZED FREE ENERGY PREDICTED BY IDOCK:   -4.47 KCAL/MOL
REMARK 922        TOTAL FREE ENERGY PREDICTED BY IDOCK:   -7.36 KCAL/MOL
REMARK 923 INTER-LIGAND FREE ENERGY PREDICTED BY IDOCK:   -6.18 KCAL/MOL
REMARK 924 INTRA-LIGAND FREE ENERGY PREDICTED BY IDOCK:   -1.18 KCAL/MOL
REMARK 927      BINDING AFFINITY PREDICTED BY RF-SCORE:    0.00 PKD
ROOT
HETATM    1  F   UNL     1      -6.364   9.077  73.494  1.00  0.00    -0.102 F  
HETATM    2  C   UNL     1      -6.452   8.253  72.421  1.00  0.00    -0.083 C  
HETATM    3  O   UNL     1      -7.802   8.219  71.989  1.00  0.00    -0.112 OA 
HETATM    4  F   UNL     1      -6.127   7.009  72.856  1.00  0.00    -0.053 F  
ENDROOT
BRANCH   3   5
HETATM    5  C   UNL     1      -8.131   9.149  71.037  1.00  0.00    -0.134 A  
HETATM    6  C   UNL     1      -9.480   9.184  70.630  1.00  0.00    -0.261 A  
HETATM    7  C   UNL     1      -7.618  10.949  69.502  1.00  0.00    -0.057 A  
HETATM    8  C   UNL     1      -9.884  10.091  69.643  1.00  0.00    -0.261 A  
HETATM    9  C   UNL     1      -7.214  10.055  70.495  1.00  0.00    -0.048 A  
HETATM   10  C   UNL     1      -8.943  10.951  69.057  1.00  0.00    -0.104 A  
BRANCH   6  11
HETATM   11  O   UNL     1     -10.319   8.310  71.271  1.00  0.00    -0.195 OA 
BRANCH  11  12
HETATM   12  C   UNL     1     -11.212   8.841  72.247  1.00  0.00    -0.273 C  
BRANCH  12  13
HETATM   13  C   UNL     1     -12.597   8.376  71.906  1.00  0.00    -0.389 C  
HETATM   14  C   UNL     1     -13.796   8.990  72.583  1.00  0.00    -0.414 C  
HETATM   15  C   UNL     1     -13.543   9.253  71.125  1.00  0.00    -0.196 C  
ENDBRANCH  12  13
ENDBRANCH  11  12
ENDBRANCH   6  11
BRANCH  10  16
HETATM   16  C   UNL     1      -9.316  11.838  67.916  1.00  0.00    -0.184 C  
HETATM   17  O   UNL     1      -8.560  12.736  67.573  1.00  0.00    -0.165 OA 
HETATM   18  H   UNL     1     -11.063  10.732  67.668  1.00  0.00     0.000 HD 
HETATM   19  N   UNL     1     -10.451  11.425  67.236  1.00  0.00    -0.198 N  
BRANCH  19  20
HETATM   20  C   UNL     1     -10.787  11.939  65.951  1.00  0.00    -0.297 A  
HETATM   21  C   UNL     1     -10.369  11.207  64.827  1.00  0.00    -0.325 A  
HETATM   22  C   UNL     1     -10.676  11.684  63.563  1.00  0.00    -0.428 A  
HETATM   23 CL   UNL     1      -9.444   9.759  64.984  1.00  0.00    -0.331 Cl 
HETATM   24  N   UNL     1     -11.384  12.813  63.338  1.00  0.00    -0.432 NA 
HETATM   25  C   UNL     1     -11.808  13.487  64.436  1.00  0.00    -0.414 A  
HETATM   26  C   UNL     1     -11.545  13.102  65.748  1.00  0.00    -0.347 A  
HETATM   27 CL   UNL     1     -12.302  13.981  67.021  1.00  0.00    -0.373 Cl 
ENDBRANCH  19  20
ENDBRANCH  10  16
ENDBRANCH   3   5
TORSDOF 6
ENDMDL
MODEL      126
REMARK 921   NORMALIZED FREE ENERGY PREDICTED BY IDOCK:   -4.44 KCAL/MOL
REMARK 922        TOTAL FREE ENERGY PREDICTED BY IDOCK:   -7.32 KCAL/MOL
REMARK 923 INTER-LIGAND FREE ENERGY PREDICTED BY IDOCK:   -6.21 KCAL/MOL
REMARK 924 INTRA-LIGAND FREE ENERGY PREDICTED BY IDOCK:   -1.11 KCAL/MOL
REMARK 927      BINDING AFFINITY PREDICTED BY RF-SCORE:    0.00 PKD
ROOT
HETATM    1  F   UNL     1     -11.607   5.747  69.708  1.00  0.00    -0.389 F  
HETATM    2  C   UNL     1     -10.992   6.488  70.663  1.00  0.00    -0.287 C  
HETATM    3  O   UNL     1      -9.700   6.838  70.197  1.00  0.00    -0.167 OA 
HETATM    4  F   UNL     1     -10.836   5.682  71.744  1.00  0.00    -0.276 F  
ENDROOT
BRANCH   3   5
HETATM    5  C   UNL     1      -9.627   8.030  69.523  1.00  0.00    -0.164 A  
HETATM    6  C   UNL     1      -9.482   7.954  68.123  1.00  0.00    -0.147 A  
HETATM    7  C   UNL     1      -9.600  10.448  69.400  1.00  0.00    -0.213 A  
HETATM    8  C   UNL     1      -9.376   9.131  67.373  1.00  0.00    -0.161 A  
HETATM    9  C   UNL     1      -9.719   9.277  70.151  1.00  0.00    -0.252 A  
HETATM   10  C   UNL     1      -9.403  10.377  68.018  1.00  0.00    -0.145 A  
BRANCH   6  11
HETATM   11  O   UNL     1      -9.476   6.691  67.592  1.00  0.00    -0.125 OA 
BRANCH  11  12
HETATM   12  C   UNL     1     -10.202   6.476  66.384  1.00  0.00     0.031 C  
BRANCH  12  13
HETATM   13  C   UNL     1     -10.368   4.996  66.203  1.00  0.00    -0.309 C  
HETATM   14  C   UNL     1      -9.660   4.280  65.080  1.00  0.00    -0.185 C  
HETATM   15  C   UNL     1      -9.238   4.043  66.504  1.00  0.00    -0.171 C  
ENDBRANCH  12  13
ENDBRANCH  11  12
ENDBRANCH   6  11
BRANCH  10  16
HETATM   16  C   UNL     1      -9.165  11.641  67.261  1.00  0.00    -0.170 C  
HETATM   17  O   UNL     1      -8.316  11.671  66.381  1.00  0.00    -0.162 OA 
HETATM   18  H   UNL     1     -10.681  12.549  68.361  1.00  0.00     0.000 HD 
HETATM   19  N   UNL     1     -10.086  12.640  67.538  1.00  0.00    -0.210 N  
BRANCH  19  20
HETATM   20  C   UNL     1     -10.224  13.787  66.707  1.00  0.00    -0.268 A  
HETATM   21  C   UNL     1     -11.099  13.696  65.612  1.00  0.00    -0.294 A  
HETATM   22  C   UNL     1     -11.252  14.794  64.780  1.00  0.00    -0.385 A  
HETATM   23 CL   UNL     1     -11.948  12.237  65.251  1.00  0.00    -0.429 Cl 
HETATM   24  N   UNL     1     -10.622  15.974  64.972  1.00  0.00    -0.606 NA 
HETATM   25  C   UNL     1      -9.807  16.053  66.054  1.00  0.00    -0.337 A  
HETATM   26  C   UNL     1      -9.575  15.007  66.944  1.00  0.00    -0.239 A  
HETATM   27 CL   UNL     1      -8.645  15.334  68.357  1.00  0.00    -0.155 Cl 
ENDBRANCH  19  20
ENDBRANCH  10  16
ENDBRANCH   3   5
TORSDOF 6
ENDMDL
MODEL      127
REMARK 921   NORMALIZED FREE ENERGY PREDICTED BY IDOCK:   -4.44 KCAL/MOL
REMARK 922        TOTAL FREE ENERGY PREDICTED BY IDOCK:   -7.32 KCAL/MOL
REMARK 923 INTER-LIGAND FREE ENERGY PREDICTED BY IDOCK:   -6.10 KCAL/MOL
REMARK 924 INTRA-LIGAND FREE ENERGY PREDICTED BY IDOCK:   -1.23 KCAL/MOL
REMARK 927      BINDING AFFINITY PREDICTED BY RF-SCORE:    0.00 PKD
ROOT
HETATM    1  F   UNL     1      -5.317  18.704  68.067  1.00  0.00    -0.164 F  
HETATM    2  C   UNL     1      -6.000  18.523  69.224  1.00  0.00    -0.239 C  
HETATM    3  O   UNL     1      -7.388  18.553  68.936  1.00  0.00    -0.290 OA 
HETATM    4  F   UNL     1      -5.720  19.591  70.015  1.00  0.00    -0.235 F  
ENDROOT
BRANCH   3   5
HETATM    5  C   UNL     1      -7.951  17.334  68.659  1.00  0.00    -0.267 A  
HETATM    6  C   UNL     1      -9.341  17.319  68.429  1.00  0.00    -0.275 A  
HETATM    7  C   UNL     1      -7.865  14.939  68.317  1.00  0.00    -0.122 A  
HETATM    8  C   UNL     1      -9.988  16.106  68.165  1.00  0.00    -0.230 A  
HETATM    9  C   UNL     1      -7.215  16.148  68.568  1.00  0.00    -0.144 A  
HETATM   10  C   UNL     1      -9.251  14.912  68.142  1.00  0.00    -0.186 A  
BRANCH   6  11
HETATM   11  O   UNL     1      -9.964  18.540  68.465  1.00  0.00    -0.351 OA 
BRANCH  11  12
HETATM   12  C   UNL     1     -10.909  18.833  67.439  1.00  0.00    -0.348 C  
BRANCH  12  13
HETATM   13  C   UNL     1     -10.343  19.935  66.592  1.00  0.00    -0.608 C  
HETATM   14  C   UNL     1      -9.210  20.787  67.106  1.00  0.00    -0.354 C  
HETATM   15  C   UNL     1      -8.969  19.819  65.981  1.00  0.00    -0.302 C  
ENDBRANCH  12  13
ENDBRANCH  11  12
ENDBRANCH   6  11
BRANCH  10  16
HETATM   16  C   UNL     1      -9.930  13.592  67.990  1.00  0.00    -0.248 C  
HETATM   17  O   UNL     1     -10.767  13.437  67.111  1.00  0.00    -0.261 OA 
HETATM   18  H   UNL     1      -8.779  12.852  69.558  1.00  0.00     0.000 HD 
HETATM   19  N   UNL     1      -9.396  12.593  68.789  1.00  0.00     0.047 N  
BRANCH  19  20
HETATM   20  C   UNL     1      -9.685  11.216  68.568  1.00  0.00    -0.196 A  
HETATM   21  C   UNL     1      -8.853  10.512  67.682  1.00  0.00    -0.131 A  
HETATM   22  C   UNL     1      -9.110   9.172  67.441  1.00  0.00    -0.127 A  
HETATM   23 CL   UNL     1      -7.551  11.287  66.853  1.00  0.00    -0.142 Cl 
HETATM   24  N   UNL     1     -10.111   8.482  68.031  1.00  0.00    -0.191 NA 
HETATM   25  C   UNL     1     -10.882   9.171  68.908  1.00  0.00    -0.070 A  
HETATM   26  C   UNL     1     -10.716  10.520  69.213  1.00  0.00    -0.234 A  
HETATM   27 CL   UNL     1     -11.677  11.192  70.475  1.00  0.00    -0.428 Cl 
ENDBRANCH  19  20
ENDBRANCH  10  16
ENDBRANCH   3   5
TORSDOF 6
ENDMDL
MODEL      128
REMARK 921   NORMALIZED FREE ENERGY PREDICTED BY IDOCK:   -4.43 KCAL/MOL
REMARK 922        TOTAL FREE ENERGY PREDICTED BY IDOCK:   -7.31 KCAL/MOL
REMARK 923 INTER-LIGAND FREE ENERGY PREDICTED BY IDOCK:   -6.33 KCAL/MOL
REMARK 924 INTRA-LIGAND FREE ENERGY PREDICTED BY IDOCK:   -0.98 KCAL/MOL
REMARK 927      BINDING AFFINITY PREDICTED BY RF-SCORE:    0.00 PKD
ROOT
HETATM    1  F   UNL     1      -8.991   4.847  66.531  1.00  0.00    -0.113 F  
HETATM    2  C   UNL     1      -9.818   5.147  67.563  1.00  0.00    -0.162 C  
HETATM    3  O   UNL     1      -9.210   6.160  68.347  1.00  0.00    -0.113 OA 
HETATM    4  F   UNL     1      -9.908   4.030  68.330  1.00  0.00    -0.213 F  
ENDROOT
BRANCH   3   5
HETATM    5  C   UNL     1      -9.533   7.444  67.991  1.00  0.00    -0.141 A  
HETATM    6  C   UNL     1      -9.849   8.329  69.041  1.00  0.00    -0.176 A  
HETATM    7  C   UNL     1      -9.903   9.214  66.382  1.00  0.00    -0.350 A  
HETATM    8  C   UNL     1     -10.213   9.648  68.750  1.00  0.00    -0.213 A  
HETATM    9  C   UNL     1      -9.528   7.900  66.669  1.00  0.00    -0.270 A  
HETATM   10  C   UNL     1     -10.270  10.080  67.416  1.00  0.00    -0.269 A  
BRANCH   6  11
HETATM   11  O   UNL     1      -9.753   7.810  70.306  1.00  0.00    -0.179 OA 
BRANCH  11  12
HETATM   12  C   UNL     1      -9.521   8.719  71.380  1.00  0.00    -0.259 C  
BRANCH  12  13
HETATM   13  C   UNL     1      -8.071   8.625  71.758  1.00  0.00    -0.170 C  
HETATM   14  C   UNL     1      -7.113   7.826  70.911  1.00  0.00    -0.053 C  
HETATM   15  C   UNL     1      -7.009   9.325  70.949  1.00  0.00    -0.107 C  
ENDBRANCH  12  13
ENDBRANCH  11  12
ENDBRANCH   6  11
BRANCH  10  16
HETATM   16  C   UNL     1     -10.775  11.440  67.068  1.00  0.00    -0.261 C  
HETATM   17  O   UNL     1     -11.484  12.046  67.860  1.00  0.00    -0.284 OA 
HETATM   18  H   UNL     1      -9.734  11.334  65.268  1.00  0.00     0.000 HD 
HETATM   19  N   UNL     1     -10.227  11.959  65.905  1.00  0.00    -0.228 N  
BRANCH  19  20
HETATM   20  C   UNL     1     -10.333  13.341  65.575  1.00  0.00    -0.291 A  
HETATM   21  C   UNL     1     -11.248  13.701  64.572  1.00  0.00    -0.382 A  
HETATM   22  C   UNL     1     -11.371  15.037  64.223  1.00  0.00    -0.073 A  
HETATM   23 CL   UNL     1     -12.184  12.517  63.733  1.00  0.00    -0.576 Cl 
HETATM   24  N   UNL     1     -10.674  16.033  64.812  1.00  0.00    -0.621 NA 
HETATM   25  C   UNL     1      -9.820  15.668  65.801  1.00  0.00    -0.351 A  
HETATM   26  C   UNL     1      -9.614  14.356  66.220  1.00  0.00    -0.298 A  
HETATM   27 CL   UNL     1      -8.620  14.091  67.603  1.00  0.00    -0.175 Cl 
ENDBRANCH  19  20
ENDBRANCH  10  16
ENDBRANCH   3   5
TORSDOF 6
ENDMDL
MODEL      129
REMARK 921   NORMALIZED FREE ENERGY PREDICTED BY IDOCK:   -4.43 KCAL/MOL
REMARK 922        TOTAL FREE ENERGY PREDICTED BY IDOCK:   -7.30 KCAL/MOL
REMARK 923 INTER-LIGAND FREE ENERGY PREDICTED BY IDOCK:   -6.39 KCAL/MOL
REMARK 924 INTRA-LIGAND FREE ENERGY PREDICTED BY IDOCK:   -0.91 KCAL/MOL
REMARK 927      BINDING AFFINITY PREDICTED BY RF-SCORE:    0.00 PKD
ROOT
HETATM    1  F   UNL     1     -13.084  11.729  63.523  1.00  0.00    -0.634 F  
HETATM    2  C   UNL     1     -11.997  12.485  63.816  1.00  0.00    -0.517 C  
HETATM    3  O   UNL     1     -12.001  12.758  65.207  1.00  0.00    -0.377 OA 
HETATM    4  F   UNL     1     -12.153  13.665  63.163  1.00  0.00    -0.507 F  
ENDROOT
BRANCH   3   5
HETATM    5  C   UNL     1     -11.319  11.854  65.980  1.00  0.00    -0.316 A  
HETATM    6  C   UNL     1     -11.309  12.092  67.368  1.00  0.00    -0.326 A  
HETATM    7  C   UNL     1      -9.977   9.866  66.307  1.00  0.00    -0.322 A  
HETATM    8  C   UNL     1     -10.610  11.225  68.216  1.00  0.00    -0.228 A  
HETATM    9  C   UNL     1     -10.682  10.722  65.460  1.00  0.00    -0.145 A  
HETATM   10  C   UNL     1      -9.918  10.129  67.678  1.00  0.00    -0.216 A  
BRANCH   6  11
HETATM   11  O   UNL     1     -12.023  13.183  67.791  1.00  0.00    -0.350 OA 
BRANCH  11  12
HETATM   12  C   UNL     1     -11.373  14.103  68.665  1.00  0.00    -0.277 C  
BRANCH  12  13
HETATM   13  C   UNL     1     -11.747  15.491  68.234  1.00  0.00    -0.287 C  
HETATM   14  C   UNL     1     -11.176  16.691  68.946  1.00  0.00    -0.200 C  
HETATM   15  C   UNL     1     -10.751  16.384  67.537  1.00  0.00    -0.298 C  
ENDBRANCH  12  13
ENDBRANCH  11  12
ENDBRANCH   6  11
BRANCH  10  16
HETATM   16  C   UNL     1      -9.063   9.261  68.540  1.00  0.00    -0.132 C  
HETATM   17  O   UNL     1      -8.325   8.432  68.025  1.00  0.00    -0.125 OA 
HETATM   18  H   UNL     1      -9.802  10.248  70.217  1.00  0.00     0.000 HD 
HETATM   19  N   UNL     1      -9.075   9.617  69.880  1.00  0.00    -0.211 N  
BRANCH  19  20
HETATM   20  C   UNL     1      -8.103   9.128  70.798  1.00  0.00    -0.174 A  
HETATM   21  C   UNL     1      -6.822   9.704  70.757  1.00  0.00    -0.086 A  
HETATM   22  C   UNL     1      -5.852   9.247  71.635  1.00  0.00    -0.070 A  
HETATM   23 CL   UNL     1      -6.418  10.930  69.611  1.00  0.00    -0.098 Cl 
HETATM   24  N   UNL     1      -6.069   8.284  72.557  1.00  0.00    -0.061 NA 
HETATM   25  C   UNL     1      -7.321   7.764  72.603  1.00  0.00    -0.086 A  
HETATM   26  C   UNL     1      -8.364   8.144  71.762  1.00  0.00    -0.142 A  
HETATM   27 CL   UNL     1      -9.932   7.502  72.071  1.00  0.00    -0.202 Cl 
ENDBRANCH  19  20
ENDBRANCH  10  16
ENDBRANCH   3   5
TORSDOF 6
ENDMDL
MODEL      130
REMARK 921   NORMALIZED FREE ENERGY PREDICTED BY IDOCK:   -4.42 KCAL/MOL
REMARK 922        TOTAL FREE ENERGY PREDICTED BY IDOCK:   -7.30 KCAL/MOL
REMARK 923 INTER-LIGAND FREE ENERGY PREDICTED BY IDOCK:   -6.33 KCAL/MOL
REMARK 924 INTRA-LIGAND FREE ENERGY PREDICTED BY IDOCK:   -0.97 KCAL/MOL
REMARK 927      BINDING AFFINITY PREDICTED BY RF-SCORE:    0.00 PKD
ROOT
HETATM    1  F   UNL     1      -9.003   5.707  68.111  1.00  0.00    -0.113 F  
HETATM    2  C   UNL     1     -10.157   6.230  67.627  1.00  0.00    -0.150 C  
HETATM    3  O   UNL     1     -10.722   7.067  68.622  1.00  0.00    -0.215 OA 
HETATM    4  F   UNL     1     -11.006   5.190  67.432  1.00  0.00    -0.186 F  
ENDROOT
BRANCH   3   5
HETATM    5  C   UNL     1     -10.345   8.384  68.558  1.00  0.00    -0.200 A  
HETATM    6  C   UNL     1     -10.635   9.178  69.685  1.00  0.00    -0.228 A  
HETATM    7  C   UNL     1      -9.355  10.300  67.457  1.00  0.00    -0.164 A  
HETATM    8  C   UNL     1     -10.301  10.537  69.680  1.00  0.00    -0.231 A  
HETATM    9  C   UNL     1      -9.675   8.941  67.463  1.00  0.00    -0.216 A  
HETATM   10  C   UNL     1      -9.690  11.103  68.551  1.00  0.00    -0.196 A  
BRANCH   6  11
HETATM   11  O   UNL     1     -11.224   8.527  70.737  1.00  0.00    -0.251 OA 
BRANCH  11  12
HETATM   12  C   UNL     1     -10.510   8.477  71.970  1.00  0.00    -0.336 C  
BRANCH  12  13
HETATM   13  C   UNL     1     -11.140   7.416  72.825  1.00  0.00    -0.394 C  
HETATM   14  C   UNL     1     -11.593   6.114  72.214  1.00  0.00    -0.362 C  
HETATM   15  C   UNL     1     -10.408   6.135  73.139  1.00  0.00    -0.235 C  
ENDBRANCH  12  13
ENDBRANCH  11  12
ENDBRANCH   6  11
BRANCH  10  16
HETATM   16  C   UNL     1      -9.438  12.572  68.467  1.00  0.00    -0.097 C  
HETATM   17  O   UNL     1      -8.307  12.982  68.242  1.00  0.00    -0.159 OA 
HETATM   18  H   UNL     1     -11.467  12.908  68.787  1.00  0.00     0.000 HD 
HETATM   19  N   UNL     1     -10.592  13.339  68.489  1.00  0.00    -0.253 N  
BRANCH  19  20
HETATM   20  C   UNL     1     -10.591  14.711  68.108  1.00  0.00    -0.237 A  
HETATM   21  C   UNL     1     -10.621  15.005  66.735  1.00  0.00    -0.301 A  
HETATM   22  C   UNL     1     -10.616  16.330  66.331  1.00  0.00    -0.253 A  
HETATM   23 CL   UNL     1     -10.615  13.756  65.542  1.00  0.00    -0.297 Cl 
HETATM   24  N   UNL     1     -10.609  17.375  67.187  1.00  0.00    -0.306 NA 
HETATM   25  C   UNL     1     -10.615  17.071  68.509  1.00  0.00    -0.370 A  
HETATM   26  C   UNL     1     -10.608  15.776  69.020  1.00  0.00    -0.232 A  
HETATM   27 CL   UNL     1     -10.787  15.572  70.721  1.00  0.00    -0.351 Cl 
ENDBRANCH  19  20
ENDBRANCH  10  16
ENDBRANCH   3   5
TORSDOF 6
ENDMDL
MODEL      131
REMARK 921   NORMALIZED FREE ENERGY PREDICTED BY IDOCK:   -4.42 KCAL/MOL
REMARK 922        TOTAL FREE ENERGY PREDICTED BY IDOCK:   -7.29 KCAL/MOL
REMARK 923 INTER-LIGAND FREE ENERGY PREDICTED BY IDOCK:   -6.02 KCAL/MOL
REMARK 924 INTRA-LIGAND FREE ENERGY PREDICTED BY IDOCK:   -1.28 KCAL/MOL
REMARK 927      BINDING AFFINITY PREDICTED BY RF-SCORE:    0.00 PKD
ROOT
HETATM    1  F   UNL     1     -13.274  14.296  65.691  1.00  0.00    -0.551 F  
HETATM    2  C   UNL     1     -12.365  14.088  64.707  1.00  0.00    -0.413 C  
HETATM    3  O   UNL     1     -11.068  14.114  65.279  1.00  0.00    -0.307 OA 
HETATM    4  F   UNL     1     -12.461  15.142  63.856  1.00  0.00    -0.451 F  
ENDROOT
BRANCH   3   5
HETATM    5  C   UNL     1     -10.589  12.897  65.690  1.00  0.00    -0.277 A  
HETATM    6  C   UNL     1      -9.693  12.907  66.778  1.00  0.00    -0.246 A  
HETATM    7  C   UNL     1     -10.411  10.486  65.560  1.00  0.00    -0.287 A  
HETATM    8  C   UNL     1      -9.144  11.703  67.235  1.00  0.00    -0.167 A  
HETATM    9  C   UNL     1     -10.970  11.683  65.109  1.00  0.00    -0.326 A  
HETATM   10  C   UNL     1      -9.480  10.497  66.602  1.00  0.00    -0.199 A  
BRANCH   6  11
HETATM   11  O   UNL     1      -9.438  14.136  67.329  1.00  0.00    -0.215 OA 
BRANCH  11  12
HETATM   12  C   UNL     1      -9.375  14.225  68.750  1.00  0.00    -0.119 C  
BRANCH  12  13
HETATM   13  C   UNL     1     -10.436  15.187  69.199  1.00  0.00    -0.252 C  
HETATM   14  C   UNL     1     -11.795  15.182  68.546  1.00  0.00    -0.307 C  
HETATM   15  C   UNL     1     -11.645  14.710  69.965  1.00  0.00    -0.335 C  
ENDBRANCH  12  13
ENDBRANCH  11  12
ENDBRANCH   6  11
BRANCH  10  16
HETATM   16  C   UNL     1      -8.815   9.216  66.984  1.00  0.00    -0.123 C  
HETATM   17  O   UNL     1      -8.367   9.078  68.114  1.00  0.00    -0.119 OA 
HETATM   18  H   UNL     1      -9.226   8.471  65.084  1.00  0.00     0.000 HD 
HETATM   19  N   UNL     1      -8.931   8.220  66.027  1.00  0.00    -0.177 N  
BRANCH  19  20
HETATM   20  C   UNL     1      -8.648   6.856  66.323  1.00  0.00    -0.136 A  
HETATM   21  C   UNL     1      -7.343   6.395  66.083  1.00  0.00    -0.080 A  
HETATM   22  C   UNL     1      -7.037   5.071  66.356  1.00  0.00    -0.072 A  
HETATM   23 CL   UNL     1      -6.129   7.424  65.414  1.00  0.00    -0.038 Cl 
HETATM   24  N   UNL     1      -7.921   4.188  66.869  1.00  0.00    -0.097 NA 
HETATM   25  C   UNL     1      -9.166   4.660  67.125  1.00  0.00    -0.129 A  
HETATM   26  C   UNL     1      -9.580   5.967  66.878  1.00  0.00    -0.140 A  
HETATM   27 CL   UNL     1     -11.145   6.441  67.421  1.00  0.00    -0.454 Cl 
ENDBRANCH  19  20
ENDBRANCH  10  16
ENDBRANCH   3   5
TORSDOF 6
ENDMDL
MODEL      132
REMARK 921   NORMALIZED FREE ENERGY PREDICTED BY IDOCK:   -4.41 KCAL/MOL
REMARK 922        TOTAL FREE ENERGY PREDICTED BY IDOCK:   -7.28 KCAL/MOL
REMARK 923 INTER-LIGAND FREE ENERGY PREDICTED BY IDOCK:   -6.18 KCAL/MOL
REMARK 924 INTRA-LIGAND FREE ENERGY PREDICTED BY IDOCK:   -1.11 KCAL/MOL
REMARK 927      BINDING AFFINITY PREDICTED BY RF-SCORE:    0.00 PKD
ROOT
HETATM    1  F   UNL     1      -9.328   9.618  62.850  1.00  0.00    -0.282 F  
HETATM    2  C   UNL     1      -8.275   9.676  63.703  1.00  0.00    -0.162 C  
HETATM    3  O   UNL     1      -8.680  10.369  64.871  1.00  0.00    -0.171 OA 
HETATM    4  F   UNL     1      -7.318  10.421  63.092  1.00  0.00    -0.140 F  
ENDROOT
BRANCH   3   5
HETATM    5  C   UNL     1      -9.179   9.578  65.873  1.00  0.00    -0.206 A  
HETATM    6  C   UNL     1     -10.041  10.200  66.798  1.00  0.00    -0.219 A  
HETATM    7  C   UNL     1      -9.414   7.480  67.060  1.00  0.00    -0.206 A  
HETATM    8  C   UNL     1     -10.567   9.460  67.863  1.00  0.00    -0.293 A  
HETATM    9  C   UNL     1      -8.897   8.213  65.989  1.00  0.00    -0.206 A  
HETATM   10  C   UNL     1     -10.226   8.107  68.009  1.00  0.00    -0.263 A  
BRANCH   6  11
HETATM   11  O   UNL     1     -10.317  11.521  66.559  1.00  0.00    -0.218 OA 
BRANCH  11  12
HETATM   12  C   UNL     1     -11.589  11.843  66.001  1.00  0.00    -0.227 C  
BRANCH  12  13
HETATM   13  C   UNL     1     -11.364  12.377  64.617  1.00  0.00    -0.364 C  
HETATM   14  C   UNL     1     -12.427  12.226  63.559  1.00  0.00    -0.642 C  
HETATM   15  C   UNL     1     -12.114  13.586  64.118  1.00  0.00    -0.488 C  
ENDBRANCH  12  13
ENDBRANCH  11  12
ENDBRANCH   6  11
BRANCH  10  16
HETATM   16  C   UNL     1     -10.669   7.326  69.202  1.00  0.00    -0.185 C  
HETATM   17  O   UNL     1     -11.786   6.827  69.221  1.00  0.00    -0.104 OA 
HETATM   18  H   UNL     1      -8.804   7.650  70.069  1.00  0.00     0.000 HD 
HETATM   19  N   UNL     1      -9.662   7.102  70.128  1.00  0.00    -0.172 N  
BRANCH  19  20
HETATM   20  C   UNL     1      -9.792   6.129  71.160  1.00  0.00    -0.181 A  
HETATM   21  C   UNL     1     -10.273   6.564  72.407  1.00  0.00    -0.185 A  
HETATM   22  C   UNL     1     -10.406   5.643  73.434  1.00  0.00    -0.222 A  
HETATM   23 CL   UNL     1     -10.655   8.222  72.701  1.00  0.00    -0.407 Cl 
HETATM   24  N   UNL     1     -10.121   4.329  73.304  1.00  0.00    -0.138 NA 
HETATM   25  C   UNL     1      -9.690   3.923  72.084  1.00  0.00    -0.159 A  
HETATM   26  C   UNL     1      -9.511   4.766  70.990  1.00  0.00    -0.164 A  
HETATM   27 CL   UNL     1      -9.120   4.055  69.470  1.00  0.00    -0.172 Cl 
ENDBRANCH  19  20
ENDBRANCH  10  16
ENDBRANCH   3   5
TORSDOF 6
ENDMDL
MODEL      133
REMARK 921   NORMALIZED FREE ENERGY PREDICTED BY IDOCK:   -4.41 KCAL/MOL
REMARK 922        TOTAL FREE ENERGY PREDICTED BY IDOCK:   -7.28 KCAL/MOL
REMARK 923 INTER-LIGAND FREE ENERGY PREDICTED BY IDOCK:   -6.33 KCAL/MOL
REMARK 924 INTRA-LIGAND FREE ENERGY PREDICTED BY IDOCK:   -0.95 KCAL/MOL
REMARK 927      BINDING AFFINITY PREDICTED BY RF-SCORE:    0.00 PKD
ROOT
HETATM    1  F   UNL     1      -9.585  14.737  67.056  1.00  0.00    -0.217 F  
HETATM    2  C   UNL     1     -10.604  14.693  67.950  1.00  0.00    -0.244 C  
HETATM    3  O   UNL     1     -11.490  13.654  67.570  1.00  0.00    -0.296 OA 
HETATM    4  F   UNL     1     -11.274  15.869  67.837  1.00  0.00    -0.327 F  
ENDROOT
BRANCH   3   5
HETATM    5  C   UNL     1     -11.226  12.430  68.130  1.00  0.00    -0.265 A  
HETATM    6  C   UNL     1     -10.510  11.515  67.333  1.00  0.00    -0.209 A  
HETATM    7  C   UNL     1     -11.328  10.802  69.918  1.00  0.00    -0.385 A  
HETATM    8  C   UNL     1     -10.227  10.237  67.830  1.00  0.00    -0.225 A  
HETATM    9  C   UNL     1     -11.601  12.081  69.431  1.00  0.00    -0.393 A  
HETATM   10  C   UNL     1     -10.665   9.872  69.112  1.00  0.00    -0.247 A  
BRANCH   6  11
HETATM   11  O   UNL     1     -10.120  11.973  66.102  1.00  0.00    -0.216 OA 
BRANCH  11  12
HETATM   12  C   UNL     1     -10.660  11.326  64.952  1.00  0.00    -0.300 C  
BRANCH  12  13
HETATM   13  C   UNL     1     -11.942  12.018  64.593  1.00  0.00    -0.326 C  
HETATM   14  C   UNL     1     -12.003  12.943  63.403  1.00  0.00    -0.612 C  
HETATM   15  C   UNL     1     -12.722  11.623  63.364  1.00  0.00    -0.250 C  
ENDBRANCH  12  13
ENDBRANCH  11  12
ENDBRANCH   6  11
BRANCH  10  16
HETATM   16  C   UNL     1     -10.490   8.479  69.618  1.00  0.00    -0.221 C  
HETATM   17  O   UNL     1     -11.301   8.012  70.406  1.00  0.00    -0.261 OA 
HETATM   18  H   UNL     1      -8.794   8.291  68.425  1.00  0.00     0.000 HD 
HETATM   19  N   UNL     1      -9.474   7.779  68.985  1.00  0.00    -0.150 N  
BRANCH  19  20
HETATM   20  C   UNL     1      -9.354   6.364  69.095  1.00  0.00    -0.132 A  
HETATM   21  C   UNL     1      -8.712   5.853  70.235  1.00  0.00    -0.142 A  
HETATM   22  C   UNL     1      -8.574   4.480  70.370  1.00  0.00    -0.078 A  
HETATM   23 CL   UNL     1      -8.050   6.893  71.444  1.00  0.00    -0.109 Cl 
HETATM   24  N   UNL     1      -9.047   3.587  69.473  1.00  0.00    -0.118 NA 
HETATM   25  C   UNL     1      -9.694   4.100  68.397  1.00  0.00    -0.081 A  
HETATM   26  C   UNL     1      -9.876   5.460  68.160  1.00  0.00    -0.145 A  
HETATM   27 CL   UNL     1     -10.867   5.928  66.831  1.00  0.00    -0.384 Cl 
ENDBRANCH  19  20
ENDBRANCH  10  16
ENDBRANCH   3   5
TORSDOF 6
ENDMDL
MODEL      134
REMARK 921   NORMALIZED FREE ENERGY PREDICTED BY IDOCK:   -4.41 KCAL/MOL
REMARK 922        TOTAL FREE ENERGY PREDICTED BY IDOCK:   -7.27 KCAL/MOL
REMARK 923 INTER-LIGAND FREE ENERGY PREDICTED BY IDOCK:   -6.15 KCAL/MOL
REMARK 924 INTRA-LIGAND FREE ENERGY PREDICTED BY IDOCK:   -1.12 KCAL/MOL
REMARK 927      BINDING AFFINITY PREDICTED BY RF-SCORE:    0.00 PKD
ROOT
HETATM    1  F   UNL     1      -7.006   4.524  71.031  1.00  0.00    -0.032 F  
HETATM    2  C   UNL     1      -8.349   4.609  70.869  1.00  0.00    -0.093 C  
HETATM    3  O   UNL     1      -8.799   5.812  71.468  1.00  0.00    -0.135 OA 
HETATM    4  F   UNL     1      -8.893   3.575  71.561  1.00  0.00    -0.100 F  
ENDROOT
BRANCH   3   5
HETATM    5  C   UNL     1      -8.841   6.898  70.632  1.00  0.00    -0.150 A  
HETATM    6  C   UNL     1     -10.057   7.609  70.582  1.00  0.00    -0.187 A  
HETATM    7  C   UNL     1      -7.878   8.424  69.018  1.00  0.00    -0.102 A  
HETATM    8  C   UNL     1     -10.180   8.713  69.731  1.00  0.00    -0.206 A  
HETATM    9  C   UNL     1      -7.747   7.330  69.875  1.00  0.00    -0.103 A  
HETATM   10  C   UNL     1      -9.099   9.099  68.926  1.00  0.00    -0.139 A  
BRANCH   6  11
HETATM   11  O   UNL     1     -11.047   7.155  71.415  1.00  0.00    -0.236 OA 
BRANCH  11  12
HETATM   12  C   UNL     1     -12.388   7.540  71.122  1.00  0.00    -0.291 C  
BRANCH  12  13
HETATM   13  C   UNL     1     -12.847   8.472  72.204  1.00  0.00    -0.413 C  
HETATM   14  C   UNL     1     -13.187   9.906  71.883  1.00  0.00    -0.558 C  
HETATM   15  C   UNL     1     -14.278   8.946  72.268  1.00  0.00    -0.474 C  
ENDBRANCH  12  13
ENDBRANCH  11  12
ENDBRANCH   6  11
BRANCH  10  16
HETATM   16  C   UNL     1      -9.240  10.191  67.918  1.00  0.00    -0.138 C  
HETATM   17  O   UNL     1      -8.412  11.091  67.877  1.00  0.00    -0.123 OA 
HETATM   18  H   UNL     1     -10.943   9.248  67.179  1.00  0.00     0.000 HD 
HETATM   19  N   UNL     1     -10.246   9.969  66.990  1.00  0.00    -0.225 N  
BRANCH  19  20
HETATM   20  C   UNL     1     -10.336  10.718  65.783  1.00  0.00    -0.230 A  
HETATM   21  C   UNL     1      -9.734  10.175  64.635  1.00  0.00    -0.309 A  
HETATM   22  C   UNL     1      -9.799  10.882  63.445  1.00  0.00    -0.362 A  
HETATM   23 CL   UNL     1      -8.877   8.678  64.685  1.00  0.00    -0.072 Cl 
HETATM   24  N   UNL     1     -10.435  12.066  63.309  1.00  0.00    -0.414 NA 
HETATM   25  C   UNL     1     -11.038  12.557  64.421  1.00  0.00    -0.339 A  
HETATM   26  C   UNL     1     -11.024  11.934  65.666  1.00  0.00    -0.304 A  
HETATM   27 CL   UNL     1     -11.984  12.612  66.926  1.00  0.00    -0.416 Cl 
ENDBRANCH  19  20
ENDBRANCH  10  16
ENDBRANCH   3   5
TORSDOF 6
ENDMDL
MODEL      135
REMARK 921   NORMALIZED FREE ENERGY PREDICTED BY IDOCK:   -4.40 KCAL/MOL
REMARK 922        TOTAL FREE ENERGY PREDICTED BY IDOCK:   -7.26 KCAL/MOL
REMARK 923 INTER-LIGAND FREE ENERGY PREDICTED BY IDOCK:   -6.02 KCAL/MOL
REMARK 924 INTRA-LIGAND FREE ENERGY PREDICTED BY IDOCK:   -1.25 KCAL/MOL
REMARK 927      BINDING AFFINITY PREDICTED BY RF-SCORE:    0.00 PKD
ROOT
HETATM    1  F   UNL     1      -7.902  13.488  67.191  1.00  0.00    -0.161 F  
HETATM    2  C   UNL     1      -8.832  13.303  68.161  1.00  0.00    -0.187 C  
HETATM    3  O   UNL     1      -9.993  12.744  67.570  1.00  0.00    -0.205 OA 
HETATM    4  F   UNL     1      -9.159  14.535  68.629  1.00  0.00    -0.176 F  
ENDROOT
BRANCH   3   5
HETATM    5  C   UNL     1     -10.038  11.374  67.559  1.00  0.00    -0.183 A  
HETATM    6  C   UNL     1      -9.899  10.749  66.303  1.00  0.00    -0.215 A  
HETATM    7  C   UNL     1     -10.255   9.208  68.618  1.00  0.00    -0.225 A  
HETATM    8  C   UNL     1      -9.961   9.354  66.213  1.00  0.00    -0.353 A  
HETATM    9  C   UNL     1     -10.181  10.599  68.714  1.00  0.00    -0.204 A  
HETATM   10  C   UNL     1     -10.172   8.587  67.368  1.00  0.00    -0.329 A  
BRANCH   6  11
HETATM   11  O   UNL     1      -9.689  11.588  65.240  1.00  0.00    -0.232 OA 
BRANCH  11  12
HETATM   12  C   UNL     1     -10.392  11.315  64.031  1.00  0.00    -0.371 C  
BRANCH  12  13
HETATM   13  C   UNL     1     -11.779  11.870  64.169  1.00  0.00    -0.428 C  
HETATM   14  C   UNL     1     -11.993  13.271  64.684  1.00  0.00    -0.440 C  
HETATM   15  C   UNL     1     -12.282  12.950  63.244  1.00  0.00    -0.481 C  
ENDBRANCH  12  13
ENDBRANCH  11  12
ENDBRANCH   6  11
BRANCH  10  16
HETATM   16  C   UNL     1     -10.369   7.110  67.287  1.00  0.00    -0.272 C  
HETATM   17  O   UNL     1     -11.391   6.660  66.787  1.00  0.00    -0.270 OA 
HETATM   18  H   UNL     1      -8.494   6.842  68.151  1.00  0.00     0.000 HD 
HETATM   19  N   UNL     1      -9.250   6.376  67.651  1.00  0.00    -0.117 N  
BRANCH  19  20
HETATM   20  C   UNL     1      -9.128   4.990  67.346  1.00  0.00    -0.115 A  
HETATM   21  C   UNL     1      -9.536   4.070  68.326  1.00  0.00    -0.125 A  
HETATM   22  C   UNL     1      -9.425   2.714  68.062  1.00  0.00    -0.149 A  
HETATM   23 CL   UNL     1     -10.127   4.588  69.863  1.00  0.00    -0.277 Cl 
HETATM   24  N   UNL     1      -8.964   2.212  66.895  1.00  0.00    -0.132 NA 
HETATM   25  C   UNL     1      -8.606   3.117  65.950  1.00  0.00    -0.118 A  
HETATM   26  C   UNL     1      -8.668   4.498  66.116  1.00  0.00    -0.114 A  
HETATM   27 CL   UNL     1      -8.334   5.497  64.753  1.00  0.00    -0.137 Cl 
ENDBRANCH  19  20
ENDBRANCH  10  16
ENDBRANCH   3   5
TORSDOF 6
ENDMDL
MODEL      136
REMARK 921   NORMALIZED FREE ENERGY PREDICTED BY IDOCK:   -4.39 KCAL/MOL
REMARK 922        TOTAL FREE ENERGY PREDICTED BY IDOCK:   -7.26 KCAL/MOL
REMARK 923 INTER-LIGAND FREE ENERGY PREDICTED BY IDOCK:   -5.93 KCAL/MOL
REMARK 924 INTRA-LIGAND FREE ENERGY PREDICTED BY IDOCK:   -1.33 KCAL/MOL
REMARK 927      BINDING AFFINITY PREDICTED BY RF-SCORE:    0.00 PKD
ROOT
HETATM    1  F   UNL     1      -7.893   9.795  70.211  1.00  0.00    -0.133 F  
HETATM    2  C   UNL     1      -6.635  10.085  69.799  1.00  0.00    -0.074 C  
HETATM    3  O   UNL     1      -6.688  10.490  68.441  1.00  0.00    -0.059 OA 
HETATM    4  F   UNL     1      -5.928   8.927  69.857  1.00  0.00    -0.031 F  
ENDROOT
BRANCH   3   5
HETATM    5  C   UNL     1      -6.838  11.837  68.241  1.00  0.00    -0.068 A  
HETATM    6  C   UNL     1      -8.066  12.261  67.696  1.00  0.00    -0.165 A  
HETATM    7  C   UNL     1      -6.072  14.133  68.310  1.00  0.00    -0.118 A  
HETATM    8  C   UNL     1      -8.280  13.620  67.441  1.00  0.00    -0.187 A  
HETATM    9  C   UNL     1      -5.860  12.780  68.577  1.00  0.00    -0.061 A  
HETATM   10  C   UNL     1      -7.268  14.551  67.719  1.00  0.00    -0.192 A  
BRANCH   6  11
HETATM   11  O   UNL     1      -8.990  11.274  67.469  1.00  0.00    -0.139 OA 
BRANCH  11  12
HETATM   12  C   UNL     1     -10.203  11.316  68.217  1.00  0.00    -0.186 C  
BRANCH  12  13
HETATM   13  C   UNL     1     -11.338  11.461  67.246  1.00  0.00    -0.347 C  
HETATM   14  C   UNL     1     -11.684  12.813  66.674  1.00  0.00    -0.459 C  
HETATM   15  C   UNL     1     -11.083  11.757  65.789  1.00  0.00    -0.351 C  
ENDBRANCH  12  13
ENDBRANCH  11  12
ENDBRANCH   6  11
BRANCH  10  16
HETATM   16  C   UNL     1      -7.418  15.987  67.341  1.00  0.00    -0.178 C  
HETATM   17  O   UNL     1      -6.696  16.467  66.478  1.00  0.00    -0.238 OA 
HETATM   18  H   UNL     1      -8.986  16.151  68.701  1.00  0.00     0.000 HD 
HETATM   19  N   UNL     1      -8.517  16.605  67.918  1.00  0.00    -0.191 N  
BRANCH  19  20
HETATM   20  C   UNL     1      -9.010  17.856  67.448  1.00  0.00    -0.245 A  
HETATM   21  C   UNL     1      -8.383  19.021  67.920  1.00  0.00    -0.288 A  
HETATM   22  C   UNL     1      -8.842  20.254  67.485  1.00  0.00    -0.318 A  
HETATM   23 CL   UNL     1      -7.090  18.953  69.062  1.00  0.00    -0.345 Cl 
HETATM   24  N   UNL     1      -9.854  20.410  66.604  1.00  0.00    -0.410 NA 
HETATM   25  C   UNL     1     -10.424  19.272  66.134  1.00  0.00    -0.488 A  
HETATM   26  C   UNL     1     -10.047  17.986  66.513  1.00  0.00    -0.379 A  
HETATM   27 CL   UNL     1     -10.764  16.653  65.691  1.00  0.00    -0.285 Cl 
ENDBRANCH  19  20
ENDBRANCH  10  16
ENDBRANCH   3   5
TORSDOF 6
ENDMDL
MODEL      137
REMARK 921   NORMALIZED FREE ENERGY PREDICTED BY IDOCK:   -4.39 KCAL/MOL
REMARK 922        TOTAL FREE ENERGY PREDICTED BY IDOCK:   -7.26 KCAL/MOL
REMARK 923 INTER-LIGAND FREE ENERGY PREDICTED BY IDOCK:   -6.04 KCAL/MOL
REMARK 924 INTRA-LIGAND FREE ENERGY PREDICTED BY IDOCK:   -1.22 KCAL/MOL
REMARK 927      BINDING AFFINITY PREDICTED BY RF-SCORE:    0.00 PKD
ROOT
HETATM    1  F   UNL     1      -9.562   8.408  67.185  1.00  0.00    -0.173 F  
HETATM    2  C   UNL     1      -8.263   8.740  66.981  1.00  0.00    -0.103 C  
HETATM    3  O   UNL     1      -8.216   9.845  66.095  1.00  0.00    -0.115 OA 
HETATM    4  F   UNL     1      -7.684   7.684  66.355  1.00  0.00    -0.082 F  
ENDROOT
BRANCH   3   5
HETATM    5  C   UNL     1      -8.217  11.076  66.698  1.00  0.00    -0.154 A  
HETATM    6  C   UNL     1      -9.266  11.949  66.350  1.00  0.00    -0.215 A  
HETATM    7  C   UNL     1      -7.308  12.756  68.186  1.00  0.00    -0.118 A  
HETATM    8  C   UNL     1      -9.316  13.232  66.908  1.00  0.00    -0.244 A  
HETATM    9  C   UNL     1      -7.262  11.472  67.641  1.00  0.00    -0.103 A  
HETATM   10  C   UNL     1      -8.317  13.644  67.802  1.00  0.00    -0.181 A  
BRANCH   6  11
HETATM   11  O   UNL     1     -10.194  11.445  65.476  1.00  0.00    -0.242 OA 
BRANCH  11  12
HETATM   12  C   UNL     1     -10.038  11.753  64.092  1.00  0.00    -0.310 C  
BRANCH  12  13
HETATM   13  C   UNL     1     -11.400  12.026  63.524  1.00  0.00    -0.528 C  
HETATM   14  C   UNL     1     -12.568  12.298  64.438  1.00  0.00    -0.447 C  
HETATM   15  C   UNL     1     -12.008  13.404  63.587  1.00  0.00    -0.504 C  
ENDBRANCH  12  13
ENDBRANCH  11  12
ENDBRANCH   6  11
BRANCH  10  16
HETATM   16  C   UNL     1      -8.274  15.045  68.314  1.00  0.00    -0.146 C  
HETATM   17  O   UNL     1      -7.421  15.367  69.131  1.00  0.00    -0.155 OA 
HETATM   18  H   UNL     1      -9.875  15.518  67.072  1.00  0.00     0.000 HD 
HETATM   19  N   UNL     1      -9.137  15.908  67.657  1.00  0.00    -0.197 N  
BRANCH  19  20
HETATM   20  C   UNL     1      -9.022  17.323  67.775  1.00  0.00    -0.234 A  
HETATM   21  C   UNL     1      -9.792  17.957  68.764  1.00  0.00    -0.352 A  
HETATM   22  C   UNL     1      -9.707  19.333  68.902  1.00  0.00    -0.430 A  
HETATM   23 CL   UNL     1     -10.874  17.070  69.776  1.00  0.00    -0.087 Cl 
HETATM   24  N   UNL     1      -8.900  20.114  68.150  1.00  0.00    -0.178 NA 
HETATM   25  C   UNL     1      -8.140  19.479  67.223  1.00  0.00    -0.274 A  
HETATM   26  C   UNL     1      -8.158  18.105  66.996  1.00  0.00    -0.226 A  
HETATM   27 CL   UNL     1      -7.005  17.447  65.898  1.00  0.00    -0.240 Cl 
ENDBRANCH  19  20
ENDBRANCH  10  16
ENDBRANCH   3   5
TORSDOF 6
ENDMDL
MODEL      138
REMARK 921   NORMALIZED FREE ENERGY PREDICTED BY IDOCK:   -4.37 KCAL/MOL
REMARK 922        TOTAL FREE ENERGY PREDICTED BY IDOCK:   -7.23 KCAL/MOL
REMARK 923 INTER-LIGAND FREE ENERGY PREDICTED BY IDOCK:   -6.08 KCAL/MOL
REMARK 924 INTRA-LIGAND FREE ENERGY PREDICTED BY IDOCK:   -1.14 KCAL/MOL
REMARK 927      BINDING AFFINITY PREDICTED BY RF-SCORE:    0.00 PKD
ROOT
HETATM    1  F   UNL     1      -8.237  16.043  69.349  1.00  0.00    -0.223 F  
HETATM    2  C   UNL     1      -9.331  15.645  68.654  1.00  0.00    -0.201 C  
HETATM    3  O   UNL     1      -8.902  14.894  67.531  1.00  0.00    -0.173 OA 
HETATM    4  F   UNL     1      -9.932  16.771  68.192  1.00  0.00    -0.241 F  
ENDROOT
BRANCH   3   5
HETATM    5  C   UNL     1      -8.801  13.542  67.739  1.00  0.00    -0.198 A  
HETATM    6  C   UNL     1      -9.678  12.724  66.999  1.00  0.00    -0.224 A  
HETATM    7  C   UNL     1      -7.852  11.580  68.792  1.00  0.00    -0.117 A  
HETATM    8  C   UNL     1      -9.650  11.336  67.179  1.00  0.00    -0.194 A  
HETATM    9  C   UNL     1      -7.869  12.963  68.606  1.00  0.00    -0.044 A  
HETATM   10  C   UNL     1      -8.757  10.769  68.101  1.00  0.00    -0.130 A  
BRANCH   6  11
HETATM   11  O   UNL     1     -10.504  13.376  66.121  1.00  0.00    -0.285 OA 
BRANCH  11  12
HETATM   12  C   UNL     1     -11.789  12.811  65.873  1.00  0.00    -0.437 C  
BRANCH  12  13
HETATM   13  C   UNL     1     -12.113  13.020  64.423  1.00  0.00    -0.473 C  
HETATM   14  C   UNL     1     -11.245  12.411  63.352  1.00  0.00    -0.492 C  
HETATM   15  C   UNL     1     -12.638  11.891  63.572  1.00  0.00    -0.579 C  
ENDBRANCH  12  13
ENDBRANCH  11  12
ENDBRANCH   6  11
BRANCH  10  16
HETATM   16  C   UNL     1      -8.790   9.309  68.406  1.00  0.00    -0.129 C  
HETATM   17  O   UNL     1      -7.742   8.686  68.511  1.00  0.00    -0.096 OA 
HETATM   18  H   UNL     1     -10.868   9.405  68.494  1.00  0.00     0.000 HD 
HETATM   19  N   UNL     1     -10.054   8.831  68.716  1.00  0.00    -0.193 N  
BRANCH  19  20
HETATM   20  C   UNL     1     -10.250   7.563  69.333  1.00  0.00    -0.204 A  
HETATM   21  C   UNL     1     -10.416   6.450  68.493  1.00  0.00    -0.224 A  
HETATM   22  C   UNL     1     -10.613   5.202  69.063  1.00  0.00     0.009 A  
HETATM   23 CL   UNL     1     -10.428   6.607  66.774  1.00  0.00    -0.312 Cl 
HETATM   24  N   UNL     1     -10.632   4.980  70.396  1.00  0.00    -0.164 NA 
HETATM   25  C   UNL     1     -10.436   6.063  71.190  1.00  0.00    -0.230 A  
HETATM   26  C   UNL     1     -10.240   7.359  70.720  1.00  0.00    -0.197 A  
HETATM   27 CL   UNL     1      -9.839   8.585  71.862  1.00  0.00    -0.329 Cl 
ENDBRANCH  19  20
ENDBRANCH  10  16
ENDBRANCH   3   5
TORSDOF 6
ENDMDL
MODEL      139
REMARK 921   NORMALIZED FREE ENERGY PREDICTED BY IDOCK:   -4.35 KCAL/MOL
REMARK 922        TOTAL FREE ENERGY PREDICTED BY IDOCK:   -7.20 KCAL/MOL
REMARK 923 INTER-LIGAND FREE ENERGY PREDICTED BY IDOCK:   -6.00 KCAL/MOL
REMARK 924 INTRA-LIGAND FREE ENERGY PREDICTED BY IDOCK:   -1.20 KCAL/MOL
REMARK 927      BINDING AFFINITY PREDICTED BY RF-SCORE:    0.00 PKD
ROOT
HETATM    1  F   UNL     1     -11.125   6.303  66.494  1.00  0.00    -0.374 F  
HETATM    2  C   UNL     1     -11.008   6.594  67.813  1.00  0.00    -0.281 C  
HETATM    3  O   UNL     1      -9.716   7.130  68.043  1.00  0.00    -0.136 OA 
HETATM    4  F   UNL     1     -11.089   5.414  68.482  1.00  0.00    -0.189 F  
ENDROOT
BRANCH   3   5
HETATM    5  C   UNL     1      -9.628   8.495  67.950  1.00  0.00    -0.152 A  
HETATM    6  C   UNL     1      -9.066   9.167  69.054  1.00  0.00    -0.143 A  
HETATM    7  C   UNL     1      -9.946  10.612  66.819  1.00  0.00    -0.254 A  
HETATM    8  C   UNL     1      -8.969  10.563  69.040  1.00  0.00    -0.183 A  
HETATM    9  C   UNL     1     -10.034   9.218  66.824  1.00  0.00    -0.312 A  
HETATM   10  C   UNL     1      -9.439  11.286  67.933  1.00  0.00    -0.179 A  
BRANCH   6  11
HETATM   11  O   UNL     1      -8.630   8.368  70.079  1.00  0.00    -0.126 OA 
BRANCH  11  12
HETATM   12  C   UNL     1      -9.169   8.602  71.378  1.00  0.00    -0.235 C  
BRANCH  12  13
HETATM   13  C   UNL     1     -10.634   8.280  71.334  1.00  0.00    -0.279 C  
HETATM   14  C   UNL     1     -11.402   8.048  72.610  1.00  0.00    -0.469 C  
HETATM   15  C   UNL     1     -11.665   9.281  71.791  1.00  0.00    -0.456 C  
ENDBRANCH  12  13
ENDBRANCH  11  12
ENDBRANCH   6  11
BRANCH  10  16
HETATM   16  C   UNL     1      -9.465  12.778  67.942  1.00  0.00    -0.208 C  
HETATM   17  O   UNL     1     -10.233  13.368  68.690  1.00  0.00    -0.235 OA 
HETATM   18  H   UNL     1      -7.940  12.783  66.525  1.00  0.00     0.000 HD 
HETATM   19  N   UNL     1      -8.455  13.359  67.191  1.00  0.00    -0.194 N  
BRANCH  19  20
HETATM   20  C   UNL     1      -8.117  14.736  67.321  1.00  0.00    -0.207 A  
HETATM   21  C   UNL     1      -8.700  15.637  66.415  1.00  0.00    -0.318 A  
HETATM   22  C   UNL     1      -8.387  16.984  66.512  1.00  0.00    -0.278 A  
HETATM   23 CL   UNL     1      -9.755  15.102  65.158  1.00  0.00    -0.178 Cl 
HETATM   24  N   UNL     1      -7.563  17.497  67.452  1.00  0.00    -0.193 NA 
HETATM   25  C   UNL     1      -7.037  16.615  68.339  1.00  0.00    -0.167 A  
HETATM   26  C   UNL     1      -7.277  15.243  68.323  1.00  0.00    -0.117 A  
HETATM   27 CL   UNL     1      -6.663  14.295  69.624  1.00  0.00    -0.135 Cl 
ENDBRANCH  19  20
ENDBRANCH  10  16
ENDBRANCH   3   5
TORSDOF 6
ENDMDL
MODEL      140
REMARK 921   NORMALIZED FREE ENERGY PREDICTED BY IDOCK:   -4.34 KCAL/MOL
REMARK 922        TOTAL FREE ENERGY PREDICTED BY IDOCK:   -7.19 KCAL/MOL
REMARK 923 INTER-LIGAND FREE ENERGY PREDICTED BY IDOCK:   -6.23 KCAL/MOL
REMARK 924 INTRA-LIGAND FREE ENERGY PREDICTED BY IDOCK:   -0.96 KCAL/MOL
REMARK 927      BINDING AFFINITY PREDICTED BY RF-SCORE:    0.00 PKD
ROOT
HETATM    1  F   UNL     1     -13.135  13.306  65.534  1.00  0.00    -0.486 F  
HETATM    2  C   UNL     1     -11.790  13.225  65.381  1.00  0.00    -0.359 C  
HETATM    3  O   UNL     1     -11.174  13.654  66.584  1.00  0.00    -0.302 OA 
HETATM    4  F   UNL     1     -11.453  14.110  64.407  1.00  0.00    -0.367 F  
ENDROOT
BRANCH   3   5
HETATM    5  C   UNL     1     -10.919  12.660  67.493  1.00  0.00    -0.246 A  
HETATM    6  C   UNL     1      -9.572  12.272  67.641  1.00  0.00    -0.191 A  
HETATM    7  C   UNL     1     -11.577  11.028  69.156  1.00  0.00    -0.389 A  
HETATM    8  C   UNL     1      -9.241  11.245  68.533  1.00  0.00    -0.181 A  
HETATM    9  C   UNL     1     -11.910  12.060  68.276  1.00  0.00    -0.351 A  
HETATM   10  C   UNL     1     -10.251  10.603  69.266  1.00  0.00    -0.235 A  
BRANCH   6  11
HETATM   11  O   UNL     1      -8.665  12.968  66.886  1.00  0.00    -0.207 OA 
BRANCH  11  12
HETATM   12  C   UNL     1      -8.083  14.136  67.459  1.00  0.00    -0.187 C  
BRANCH  12  13
HETATM   13  C   UNL     1      -6.862  13.716  68.224  1.00  0.00    -0.108 C  
HETATM   14  C   UNL     1      -5.767  12.935  67.543  1.00  0.00    -0.100 C  
HETATM   15  C   UNL     1      -5.522  14.357  67.964  1.00  0.00    -0.121 C  
ENDBRANCH  12  13
ENDBRANCH  11  12
ENDBRANCH   6  11
BRANCH  10  16
HETATM   16  C   UNL     1      -9.944   9.424  70.128  1.00  0.00    -0.229 C  
HETATM   17  O   UNL     1      -9.145   9.534  71.048  1.00  0.00    -0.224 OA 
HETATM   18  H   UNL     1     -11.314   8.304  69.031  1.00  0.00     0.000 HD 
HETATM   19  N   UNL     1     -10.758   8.328  69.886  1.00  0.00    -0.240 N  
BRANCH  19  20
HETATM   20  C   UNL     1     -10.840   7.235  70.795  1.00  0.00    -0.241 A  
HETATM   21  C   UNL     1     -11.876   7.255  71.744  1.00  0.00    -0.295 A  
HETATM   22  C   UNL     1     -11.981   6.208  72.646  1.00  0.00    -0.032 A  
HETATM   23 CL   UNL     1     -12.989   8.571  71.841  1.00  0.00    -0.370 Cl 
HETATM   24  N   UNL     1     -11.151   5.142  72.657  1.00  0.00    -0.248 NA 
HETATM   25  C   UNL     1     -10.178   5.125  71.712  1.00  0.00    -0.209 A  
HETATM   26  C   UNL     1      -9.980   6.129  70.767  1.00  0.00    -0.189 A  
HETATM   27 CL   UNL     1      -8.804   5.865  69.536  1.00  0.00    -0.122 Cl 
ENDBRANCH  19  20
ENDBRANCH  10  16
ENDBRANCH   3   5
TORSDOF 6
ENDMDL
MODEL      141
REMARK 921   NORMALIZED FREE ENERGY PREDICTED BY IDOCK:   -4.34 KCAL/MOL
REMARK 922        TOTAL FREE ENERGY PREDICTED BY IDOCK:   -7.18 KCAL/MOL
REMARK 923 INTER-LIGAND FREE ENERGY PREDICTED BY IDOCK:   -5.95 KCAL/MOL
REMARK 924 INTRA-LIGAND FREE ENERGY PREDICTED BY IDOCK:   -1.23 KCAL/MOL
REMARK 927      BINDING AFFINITY PREDICTED BY RF-SCORE:    0.00 PKD
ROOT
HETATM    1  F   UNL     1     -10.376   4.812  71.936  1.00  0.00    -0.244 F  
HETATM    2  C   UNL     1     -11.403   5.621  72.295  1.00  0.00    -0.240 C  
HETATM    3  O   UNL     1     -10.870   6.868  72.707  1.00  0.00    -0.241 OA 
HETATM    4  F   UNL     1     -11.994   5.048  73.374  1.00  0.00    -0.336 F  
ENDROOT
BRANCH   3   5
HETATM    5  C   UNL     1     -10.753   7.808  71.716  1.00  0.00    -0.223 A  
HETATM    6  C   UNL     1      -9.444   8.160  71.332  1.00  0.00    -0.166 A  
HETATM    7  C   UNL     1     -11.651   9.366  70.095  1.00  0.00    -0.117 A  
HETATM    8  C   UNL     1      -9.248   9.131  70.344  1.00  0.00    -0.271 A  
HETATM    9  C   UNL     1     -11.851   8.388  71.071  1.00  0.00    -0.278 A  
HETATM   10  C   UNL     1     -10.354   9.756  69.749  1.00  0.00    -0.274 A  
BRANCH   6  11
HETATM   11  O   UNL     1      -8.435   7.484  71.968  1.00  0.00    -0.104 OA 
BRANCH  11  12
HETATM   12  C   UNL     1      -7.626   8.213  72.888  1.00  0.00    -0.135 C  
BRANCH  12  13
HETATM   13  C   UNL     1      -7.074   7.240  73.888  1.00  0.00    -0.096 C  
HETATM   14  C   UNL     1      -7.580   5.821  73.932  1.00  0.00    -0.096 C  
HETATM   15  C   UNL     1      -6.182   6.103  73.458  1.00  0.00    -0.064 C  
ENDBRANCH  12  13
ENDBRANCH  11  12
ENDBRANCH   6  11
BRANCH  10  16
HETATM   16  C   UNL     1     -10.177  10.883  68.786  1.00  0.00    -0.196 C  
HETATM   17  O   UNL     1      -9.175  11.582  68.848  1.00  0.00    -0.113 OA 
HETATM   18  H   UNL     1     -11.976  10.354  67.882  1.00  0.00     0.000 HD 
HETATM   19  N   UNL     1     -11.128  10.912  67.779  1.00  0.00    -0.288 N  
BRANCH  19  20
HETATM   20  C   UNL     1     -10.957  11.699  66.604  1.00  0.00    -0.299 A  
HETATM   21  C   UNL     1     -10.411  11.068  65.473  1.00  0.00    -0.260 A  
HETATM   22  C   UNL     1     -10.227  11.808  64.316  1.00  0.00    -0.302 A  
HETATM   23 CL   UNL     1      -9.922   9.413  65.508  1.00  0.00    -0.268 Cl 
HETATM   24  N   UNL     1     -10.566  13.110  64.195  1.00  0.00    -0.408 NA 
HETATM   25  C   UNL     1     -11.122  13.691  65.287  1.00  0.00    -0.301 A  
HETATM   26  C   UNL     1     -11.341  13.043  66.500  1.00  0.00    -0.320 A  
HETATM   27 CL   UNL     1     -12.212  13.884  67.726  1.00  0.00    -0.312 Cl 
ENDBRANCH  19  20
ENDBRANCH  10  16
ENDBRANCH   3   5
TORSDOF 6
ENDMDL
MODEL      142
REMARK 921   NORMALIZED FREE ENERGY PREDICTED BY IDOCK:   -4.32 KCAL/MOL
REMARK 922        TOTAL FREE ENERGY PREDICTED BY IDOCK:   -7.16 KCAL/MOL
REMARK 923 INTER-LIGAND FREE ENERGY PREDICTED BY IDOCK:   -5.83 KCAL/MOL
REMARK 924 INTRA-LIGAND FREE ENERGY PREDICTED BY IDOCK:   -1.33 KCAL/MOL
REMARK 927      BINDING AFFINITY PREDICTED BY RF-SCORE:    0.00 PKD
ROOT
HETATM    1  F   UNL     1      -9.274   6.073  67.656  1.00  0.00    -0.113 F  
HETATM    2  C   UNL     1     -10.175   6.542  66.757  1.00  0.00    -0.191 C  
HETATM    3  O   UNL     1     -10.970   7.529  67.392  1.00  0.00    -0.226 OA 
HETATM    4  F   UNL     1     -10.986   5.501  66.437  1.00  0.00    -0.326 F  
ENDROOT
BRANCH   3   5
HETATM    5  C   UNL     1     -10.504   8.813  67.279  1.00  0.00    -0.283 A  
HETATM    6  C   UNL     1     -10.524   9.596  68.450  1.00  0.00    -0.223 A  
HETATM    7  C   UNL     1      -9.574  10.676  66.043  1.00  0.00    -0.244 A  
HETATM    8  C   UNL     1     -10.087  10.925  68.403  1.00  0.00    -0.196 A  
HETATM    9  C   UNL     1      -9.998   9.347  66.089  1.00  0.00    -0.351 A  
HETATM   10  C   UNL     1      -9.643  11.472  67.190  1.00  0.00    -0.189 A  
BRANCH   6  11
HETATM   11  O   UNL     1     -10.968   8.964  69.582  1.00  0.00    -0.216 OA 
BRANCH  11  12
HETATM   12  C   UNL     1     -10.664   9.564  70.839  1.00  0.00    -0.333 C  
BRANCH  12  13
HETATM   13  C   UNL     1      -9.729   8.648  71.573  1.00  0.00    -0.333 C  
HETATM   14  C   UNL     1      -9.323   7.328  70.968  1.00  0.00    -0.158 C  
HETATM   15  C   UNL     1      -8.314   8.435  71.096  1.00  0.00    -0.163 C  
ENDBRANCH  12  13
ENDBRANCH  11  12
ENDBRANCH   6  11
BRANCH  10  16
HETATM   16  C   UNL     1      -9.291  12.919  67.081  1.00  0.00    -0.229 C  
HETATM   17  O   UNL     1      -9.614  13.549  66.083  1.00  0.00    -0.269 OA 
HETATM   18  H   UNL     1      -8.433  12.823  68.975  1.00  0.00     0.000 HD 
HETATM   19  N   UNL     1      -8.760  13.454  68.244  1.00  0.00    -0.179 N  
BRANCH  19  20
HETATM   20  C   UNL     1      -8.656  14.860  68.447  1.00  0.00    -0.159 A  
HETATM   21  C   UNL     1      -7.398  15.454  68.254  1.00  0.00    -0.112 A  
HETATM   22  C   UNL     1      -7.263  16.819  68.449  1.00  0.00    -0.191 A  
HETATM   23 CL   UNL     1      -6.011  14.518  67.829  1.00  0.00    -0.143 Cl 
HETATM   24  N   UNL     1      -8.285  17.632  68.794  1.00  0.00    -0.261 NA 
HETATM   25  C   UNL     1      -9.498  17.045  68.942  1.00  0.00    -0.235 A  
HETATM   26  C   UNL     1      -9.740  15.683  68.782  1.00  0.00    -0.212 A  
HETATM   27 CL   UNL     1     -11.372  15.135  68.842  1.00  0.00    -0.293 Cl 
ENDBRANCH  19  20
ENDBRANCH  10  16
ENDBRANCH   3   5
TORSDOF 6
ENDMDL
MODEL      143
REMARK 921   NORMALIZED FREE ENERGY PREDICTED BY IDOCK:   -4.32 KCAL/MOL
REMARK 922        TOTAL FREE ENERGY PREDICTED BY IDOCK:   -7.16 KCAL/MOL
REMARK 923 INTER-LIGAND FREE ENERGY PREDICTED BY IDOCK:   -6.18 KCAL/MOL
REMARK 924 INTRA-LIGAND FREE ENERGY PREDICTED BY IDOCK:   -0.97 KCAL/MOL
REMARK 927      BINDING AFFINITY PREDICTED BY RF-SCORE:    0.00 PKD
ROOT
HETATM    1  F   UNL     1     -12.742   8.015  70.973  1.00  0.00    -0.285 F  
HETATM    2  C   UNL     1     -11.627   8.616  71.460  1.00  0.00    -0.302 C  
HETATM    3  O   UNL     1     -10.815   9.010  70.367  1.00  0.00    -0.229 OA 
HETATM    4  F   UNL     1     -10.948   7.671  72.160  1.00  0.00    -0.237 F  
ENDROOT
BRANCH   3   5
HETATM    5  C   UNL     1     -11.041  10.279  69.902  1.00  0.00    -0.304 A  
HETATM    6  C   UNL     1     -10.428  10.622  68.681  1.00  0.00    -0.191 A  
HETATM    7  C   UNL     1     -12.010  12.494  70.042  1.00  0.00    -0.372 A  
HETATM    8  C   UNL     1     -10.594  11.910  68.159  1.00  0.00    -0.233 A  
HETATM    9  C   UNL     1     -11.857  11.206  70.560  1.00  0.00    -0.448 A  
HETATM   10  C   UNL     1     -11.360  12.854  68.858  1.00  0.00    -0.335 A  
BRANCH   6  11
HETATM   11  O   UNL     1      -9.710   9.624  68.075  1.00  0.00    -0.142 OA 
BRANCH  11  12
HETATM   12  C   UNL     1      -8.303   9.810  67.938  1.00  0.00    -0.114 C  
BRANCH  12  13
HETATM   13  C   UNL     1      -7.849   9.033  66.737  1.00  0.00    -0.104 C  
HETATM   14  C   UNL     1      -8.747   8.898  65.533  1.00  0.00    -0.215 C  
HETATM   15  C   UNL     1      -7.499   9.730  65.446  1.00  0.00    -0.121 C  
ENDBRANCH  12  13
ENDBRANCH  11  12
ENDBRANCH   6  11
BRANCH  10  16
HETATM   16  C   UNL     1     -11.451  14.269  68.392  1.00  0.00    -0.301 C  
HETATM   17  O   UNL     1     -12.053  15.093  69.066  1.00  0.00    -0.285 OA 
HETATM   18  H   UNL     1     -10.295  13.766  66.735  1.00  0.00     0.000 HD 
HETATM   19  N   UNL     1     -10.668  14.543  67.281  1.00  0.00    -0.283 N  
BRANCH  19  20
HETATM   20  C   UNL     1     -10.372  15.876  66.878  1.00  0.00    -0.291 A  
HETATM   21  C   UNL     1      -9.456  16.602  67.657  1.00  0.00    -0.226 A  
HETATM   22  C   UNL     1      -9.150  17.905  67.295  1.00  0.00    -0.251 A  
HETATM   23 CL   UNL     1      -8.741  15.928  69.077  1.00  0.00    -0.222 Cl 
HETATM   24  N   UNL     1      -9.666  18.522  66.210  1.00  0.00    -0.436 NA 
HETATM   25  C   UNL     1     -10.523  17.794  65.452  1.00  0.00     0.138 A  
HETATM   26  C   UNL     1     -10.905  16.484  65.733  1.00  0.00    -0.134 A  
HETATM   27 CL   UNL     1     -11.869  15.652  64.572  1.00  0.00    -0.262 Cl 
ENDBRANCH  19  20
ENDBRANCH  10  16
ENDBRANCH   3   5
TORSDOF 6
ENDMDL
MODEL      144
REMARK 921   NORMALIZED FREE ENERGY PREDICTED BY IDOCK:   -4.31 KCAL/MOL
REMARK 922        TOTAL FREE ENERGY PREDICTED BY IDOCK:   -7.15 KCAL/MOL
REMARK 923 INTER-LIGAND FREE ENERGY PREDICTED BY IDOCK:   -5.80 KCAL/MOL
REMARK 924 INTRA-LIGAND FREE ENERGY PREDICTED BY IDOCK:   -1.35 KCAL/MOL
REMARK 927      BINDING AFFINITY PREDICTED BY RF-SCORE:    0.00 PKD
ROOT
HETATM    1  F   UNL     1      -6.796  19.860  67.612  1.00  0.00    -0.244 F  
HETATM    2  C   UNL     1      -6.478  19.226  68.767  1.00  0.00    -0.259 C  
HETATM    3  O   UNL     1      -7.534  18.342  69.101  1.00  0.00    -0.226 OA 
HETATM    4  F   UNL     1      -6.417  20.180  69.732  1.00  0.00    -0.348 F  
ENDROOT
BRANCH   3   5
HETATM    5  C   UNL     1      -7.403  17.068  68.612  1.00  0.00    -0.229 A  
HETATM    6  C   UNL     1      -8.566  16.472  68.085  1.00  0.00    -0.193 A  
HETATM    7  C   UNL     1      -6.142  15.064  68.108  1.00  0.00    -0.144 A  
HETATM    8  C   UNL     1      -8.512  15.163  67.593  1.00  0.00    -0.171 A  
HETATM    9  C   UNL     1      -6.189  16.373  68.589  1.00  0.00    -0.130 A  
HETATM   10  C   UNL     1      -7.305  14.449  67.634  1.00  0.00    -0.197 A  
BRANCH   6  11
HETATM   11  O   UNL     1      -9.690  17.257  68.083  1.00  0.00    -0.264 OA 
BRANCH  11  12
HETATM   12  C   UNL     1     -10.323  17.505  66.830  1.00  0.00    -0.315 C  
BRANCH  12  13
HETATM   13  C   UNL     1      -9.742  18.766  66.261  1.00  0.00    -0.354 C  
HETATM   14  C   UNL     1     -10.639  19.803  65.633  1.00  0.00    -0.456 C  
HETATM   15  C   UNL     1      -9.955  20.096  66.940  1.00  0.00    -0.600 C  
ENDBRANCH  12  13
ENDBRANCH  11  12
ENDBRANCH   6  11
BRANCH  10  16
HETATM   16  C   UNL     1      -7.246  13.013  67.234  1.00  0.00    -0.049 C  
HETATM   17  O   UNL     1      -6.171  12.508  66.942  1.00  0.00    -0.216 OA 
HETATM   18  H   UNL     1      -9.299  12.872  67.548  1.00  0.00     0.000 HD 
HETATM   19  N   UNL     1      -8.444  12.336  67.404  1.00  0.00    -0.167 N  
BRANCH  19  20
HETATM   20  C   UNL     1      -8.514  10.913  67.382  1.00  0.00    -0.120 A  
HETATM   21  C   UNL     1      -9.015  10.305  66.219  1.00  0.00    -0.153 A  
HETATM   22  C   UNL     1      -9.100   8.922  66.168  1.00  0.00    -0.203 A  
HETATM   23 CL   UNL     1      -9.569  11.237  64.876  1.00  0.00    -0.260 Cl 
HETATM   24  N   UNL     1      -8.704   8.109  67.172  1.00  0.00    -0.126 NA 
HETATM   25  C   UNL     1      -8.192   8.714  68.272  1.00  0.00    -0.122 A  
HETATM   26  C   UNL     1      -8.072  10.093  68.430  1.00  0.00    -0.104 A  
HETATM   27 CL   UNL     1      -7.245  10.683  69.820  1.00  0.00    -0.152 Cl 
ENDBRANCH  19  20
ENDBRANCH  10  16
ENDBRANCH   3   5
TORSDOF 6
ENDMDL
MODEL      145
REMARK 921   NORMALIZED FREE ENERGY PREDICTED BY IDOCK:   -4.31 KCAL/MOL
REMARK 922        TOTAL FREE ENERGY PREDICTED BY IDOCK:   -7.15 KCAL/MOL
REMARK 923 INTER-LIGAND FREE ENERGY PREDICTED BY IDOCK:   -6.08 KCAL/MOL
REMARK 924 INTRA-LIGAND FREE ENERGY PREDICTED BY IDOCK:   -1.07 KCAL/MOL
REMARK 927      BINDING AFFINITY PREDICTED BY RF-SCORE:    0.00 PKD
ROOT
HETATM    1  F   UNL     1      -9.107   5.057  64.603  1.00  0.00    -0.156 F  
HETATM    2  C   UNL     1     -10.073   4.667  65.471  1.00  0.00    -0.183 C  
HETATM    3  O   UNL     1      -9.556   4.750  66.788  1.00  0.00    -0.145 OA 
HETATM    4  F   UNL     1     -10.329   3.359  65.209  1.00  0.00    -0.022 F  
ENDROOT
BRANCH   3   5
HETATM    5  C   UNL     1      -9.766   5.948  67.421  1.00  0.00    -0.117 A  
HETATM    6  C   UNL     1      -9.412   6.011  68.784  1.00  0.00    -0.125 A  
HETATM    7  C   UNL     1     -10.491   8.256  67.498  1.00  0.00    -0.325 A  
HETATM    8  C   UNL     1      -9.622   7.194  69.500  1.00  0.00    -0.154 A  
HETATM    9  C   UNL     1     -10.272   7.081  66.777  1.00  0.00    -0.282 A  
HETATM   10  C   UNL     1     -10.192   8.306  68.862  1.00  0.00    -0.222 A  
BRANCH   6  11
HETATM   11  O   UNL     1      -8.855   4.874  69.308  1.00  0.00    -0.086 OA 
BRANCH  11  12
HETATM   12  C   UNL     1      -9.714   3.976  70.007  1.00  0.00    -0.193 C  
BRANCH  12  13
HETATM   13  C   UNL     1      -9.253   3.913  71.434  1.00  0.00    -0.189 C  
HETATM   14  C   UNL     1      -9.736   4.930  72.437  1.00  0.00    -0.200 C  
HETATM   15  C   UNL     1     -10.193   3.502  72.538  1.00  0.00    -0.228 C  
ENDBRANCH  12  13
ENDBRANCH  11  12
ENDBRANCH   6  11
BRANCH  10  16
HETATM   16  C   UNL     1     -10.544   9.537  69.630  1.00  0.00    -0.228 C  
HETATM   17  O   UNL     1      -9.806   9.928  70.524  1.00  0.00    -0.226 OA 
HETATM   18  H   UNL     1     -12.236   9.760  68.438  1.00  0.00     0.000 HD 
HETATM   19  N   UNL     1     -11.631  10.226  69.113  1.00  0.00    -0.154 N  
BRANCH  19  20
HETATM   20  C   UNL     1     -11.926  11.565  69.499  1.00  0.00    -0.335 A  
HETATM   21  C   UNL     1     -11.648  12.584  68.573  1.00  0.00    -0.321 A  
HETATM   22  C   UNL     1     -11.919  13.898  68.920  1.00  0.00    -0.358 A  
HETATM   23 CL   UNL     1     -10.934  12.243  67.039  1.00  0.00    -0.294 Cl 
HETATM   24  N   UNL     1     -12.465  14.265  70.100  1.00  0.00    -0.351 NA 
HETATM   25  C   UNL     1     -12.758  13.263  70.966  1.00  0.00    -0.293 A  
HETATM   26  C   UNL     1     -12.516  11.914  70.722  1.00  0.00    -0.291 A  
HETATM   27 CL   UNL     1     -13.104  10.763  71.861  1.00  0.00    -0.599 Cl 
ENDBRANCH  19  20
ENDBRANCH  10  16
ENDBRANCH   3   5
TORSDOF 6
ENDMDL
MODEL      146
REMARK 921   NORMALIZED FREE ENERGY PREDICTED BY IDOCK:   -4.31 KCAL/MOL
REMARK 922        TOTAL FREE ENERGY PREDICTED BY IDOCK:   -7.14 KCAL/MOL
REMARK 923 INTER-LIGAND FREE ENERGY PREDICTED BY IDOCK:   -6.34 KCAL/MOL
REMARK 924 INTRA-LIGAND FREE ENERGY PREDICTED BY IDOCK:   -0.80 KCAL/MOL
REMARK 927      BINDING AFFINITY PREDICTED BY RF-SCORE:    0.00 PKD
ROOT
HETATM    1  F   UNL     1      -9.075   5.763  65.668  1.00  0.00    -0.158 F  
HETATM    2  C   UNL     1     -10.095   5.576  66.542  1.00  0.00    -0.204 C  
HETATM    3  O   UNL     1      -9.740   6.164  67.782  1.00  0.00    -0.114 OA 
HETATM    4  F   UNL     1     -10.202   4.236  66.737  1.00  0.00    -0.243 F  
ENDROOT
BRANCH   3   5
HETATM    5  C   UNL     1     -10.125   7.471  67.937  1.00  0.00    -0.182 A  
HETATM    6  C   UNL     1     -10.396   7.895  69.253  1.00  0.00    -0.220 A  
HETATM    7  C   UNL     1     -10.659   9.682  67.109  1.00  0.00    -0.298 A  
HETATM    8  C   UNL     1     -10.820   9.209  69.485  1.00  0.00    -0.194 A  
HETATM    9  C   UNL     1     -10.225   8.376  66.876  1.00  0.00    -0.383 A  
HETATM   10  C   UNL     1     -10.982  10.092  68.406  1.00  0.00    -0.266 A  
BRANCH   6  11
HETATM   11  O   UNL     1     -10.199   6.959  70.234  1.00  0.00    -0.189 OA 
BRANCH  11  12
HETATM   12  C   UNL     1      -9.119   7.165  71.141  1.00  0.00    -0.152 C  
BRANCH  12  13
HETATM   13  C   UNL     1      -7.855   7.264  70.338  1.00  0.00    -0.099 C  
HETATM   14  C   UNL     1      -6.517   7.018  70.988  1.00  0.00    -0.044 C  
HETATM   15  C   UNL     1      -7.057   6.033  69.989  1.00  0.00    -0.071 C  
ENDBRANCH  12  13
ENDBRANCH  11  12
ENDBRANCH   6  11
BRANCH  10  16
HETATM   16  C   UNL     1     -11.551  11.456  68.607  1.00  0.00    -0.320 C  
HETATM   17  O   UNL     1     -12.408  11.876  67.841  1.00  0.00    -0.367 OA 
HETATM   18  H   UNL     1     -10.356  11.675  70.297  1.00  0.00     0.000 HD 
HETATM   19  N   UNL     1     -11.150  12.061  69.788  1.00  0.00    -0.022 N  
BRANCH  19  20
HETATM   20  C   UNL     1     -11.815  13.207  70.311  1.00  0.00    -0.224 A  
HETATM   21  C   UNL     1     -11.512  14.453  69.737  1.00  0.00    -0.276 A  
HETATM   22  C   UNL     1     -12.138  15.588  70.226  1.00  0.00    -0.386 A  
HETATM   23 CL   UNL     1     -10.345  14.608  68.474  1.00  0.00    -0.232 Cl 
HETATM   24  N   UNL     1     -13.054  15.570  71.219  1.00  0.00    -0.493 NA 
HETATM   25  C   UNL     1     -13.358  14.354  71.737  1.00  0.00    -0.366 A  
HETATM   26  C   UNL     1     -12.780  13.156  71.326  1.00  0.00    -0.306 A  
HETATM   27 CL   UNL     1     -13.406  11.687  71.974  1.00  0.00    -0.534 Cl 
ENDBRANCH  19  20
ENDBRANCH  10  16
ENDBRANCH   3   5
TORSDOF 6
ENDMDL
MODEL      147
REMARK 921   NORMALIZED FREE ENERGY PREDICTED BY IDOCK:   -4.29 KCAL/MOL
REMARK 922        TOTAL FREE ENERGY PREDICTED BY IDOCK:   -7.12 KCAL/MOL
REMARK 923 INTER-LIGAND FREE ENERGY PREDICTED BY IDOCK:   -6.39 KCAL/MOL
REMARK 924 INTRA-LIGAND FREE ENERGY PREDICTED BY IDOCK:   -0.74 KCAL/MOL
REMARK 927      BINDING AFFINITY PREDICTED BY RF-SCORE:    0.00 PKD
ROOT
HETATM    1  F   UNL     1     -10.890  11.115  69.985  1.00  0.00    -0.265 F  
HETATM    2  C   UNL     1     -11.274  11.586  68.772  1.00  0.00    -0.249 C  
HETATM    3  O   UNL     1     -11.759  12.908  68.936  1.00  0.00    -0.289 OA 
HETATM    4  F   UNL     1     -12.313  10.813  68.364  1.00  0.00    -0.193 F  
ENDROOT
BRANCH   3   5
HETATM    5  C   UNL     1     -10.819  13.895  68.787  1.00  0.00    -0.263 A  
HETATM    6  C   UNL     1     -10.401  14.173  67.470  1.00  0.00    -0.248 A  
HETATM    7  C   UNL     1      -9.319  15.599  69.629  1.00  0.00    -0.217 A  
HETATM    8  C   UNL     1      -9.425  15.150  67.245  1.00  0.00    -0.214 A  
HETATM    9  C   UNL     1     -10.301  14.633  69.856  1.00  0.00     0.109 A  
HETATM   10  C   UNL     1      -8.862  15.840  68.330  1.00  0.00    -0.180 A  
BRANCH   6  11
HETATM   11  O   UNL     1     -11.018  13.450  66.484  1.00  0.00    -0.287 OA 
BRANCH  11  12
HETATM   12  C   UNL     1     -10.569  13.637  65.144  1.00  0.00    -0.361 C  
BRANCH  12  13
HETATM   13  C   UNL     1     -11.057  12.477  64.327  1.00  0.00    -0.403 C  
HETATM   14  C   UNL     1     -10.075  11.545  63.663  1.00  0.00    -0.427 C  
HETATM   15  C   UNL     1     -10.905  11.060  64.819  1.00  0.00    -0.234 C  
ENDBRANCH  12  13
ENDBRANCH  11  12
ENDBRANCH   6  11
BRANCH  10  16
HETATM   16  C   UNL     1      -7.733  16.795  68.133  1.00  0.00    -0.180 C  
HETATM   17  O   UNL     1      -6.844  16.528  67.336  1.00  0.00    -0.130 OA 
HETATM   18  H   UNL     1      -8.625  18.086  69.501  1.00  0.00     0.000 HD 
HETATM   19  N   UNL     1      -7.907  18.009  68.780  1.00  0.00    -0.289 N  
BRANCH  19  20
HETATM   20  C   UNL     1      -7.114  19.149  68.468  1.00  0.00    -0.300 A  
HETATM   21  C   UNL     1      -6.110  19.512  69.381  1.00  0.00    -0.288 A  
HETATM   22  C   UNL     1      -5.323  20.621  69.109  1.00  0.00    -0.328 A  
HETATM   23 CL   UNL     1      -5.866  18.641  70.852  1.00  0.00    -0.011 Cl 
HETATM   24  N   UNL     1      -5.446  21.372  67.993  1.00  0.00    -0.270 NA 
HETATM   25  C   UNL     1      -6.399  20.985  67.108  1.00  0.00    -0.329 A  
HETATM   26  C   UNL     1      -7.248  19.896  67.290  1.00  0.00    -0.238 A  
HETATM   27 CL   UNL     1      -8.284  19.448  65.988  1.00  0.00    -0.304 Cl 
ENDBRANCH  19  20
ENDBRANCH  10  16
ENDBRANCH   3   5
TORSDOF 6
ENDMDL
MODEL      148
REMARK 921   NORMALIZED FREE ENERGY PREDICTED BY IDOCK:   -4.29 KCAL/MOL
REMARK 922        TOTAL FREE ENERGY PREDICTED BY IDOCK:   -7.12 KCAL/MOL
REMARK 923 INTER-LIGAND FREE ENERGY PREDICTED BY IDOCK:   -5.88 KCAL/MOL
REMARK 924 INTRA-LIGAND FREE ENERGY PREDICTED BY IDOCK:   -1.24 KCAL/MOL
REMARK 927      BINDING AFFINITY PREDICTED BY RF-SCORE:    0.00 PKD
ROOT
HETATM    1  F   UNL     1      -9.083   8.784  65.334  1.00  0.00    -0.227 F  
HETATM    2  C   UNL     1     -10.132   9.177  66.098  1.00  0.00    -0.208 C  
HETATM    3  O   UNL     1      -9.653  10.049  67.107  1.00  0.00    -0.158 OA 
HETATM    4  F   UNL     1     -10.610   8.062  66.709  1.00  0.00    -0.375 F  
ENDROOT
BRANCH   3   5
HETATM    5  C   UNL     1      -9.664  11.380  66.779  1.00  0.00    -0.198 A  
HETATM    6  C   UNL     1      -8.613  12.165  67.294  1.00  0.00    -0.180 A  
HETATM    7  C   UNL     1     -10.597  13.333  65.694  1.00  0.00    -0.291 A  
HETATM    8  C   UNL     1      -8.575  13.537  67.021  1.00  0.00    -0.169 A  
HETATM    9  C   UNL     1     -10.632  11.962  65.953  1.00  0.00    -0.306 A  
HETATM   10  C   UNL     1      -9.586  14.125  66.247  1.00  0.00    -0.295 A  
BRANCH   6  11
HETATM   11  O   UNL     1      -7.672  11.493  68.030  1.00  0.00    -0.107 OA 
BRANCH  11  12
HETATM   12  C   UNL     1      -6.306  11.637  67.650  1.00  0.00    -0.072 C  
BRANCH  12  13
HETATM   13  C   UNL     1      -5.494  11.804  68.901  1.00  0.00    -0.050 C  
HETATM   14  C   UNL     1      -5.802  12.922  69.865  1.00  0.00    -0.132 C  
HETATM   15  C   UNL     1      -6.081  11.498  70.256  1.00  0.00    -0.140 C  
ENDBRANCH  12  13
ENDBRANCH  11  12
ENDBRANCH   6  11
BRANCH  10  16
HETATM   16  C   UNL     1      -9.642  15.603  66.045  1.00  0.00    -0.351 C  
HETATM   17  O   UNL     1     -10.475  16.082  65.288  1.00  0.00    -0.447 OA 
HETATM   18  H   UNL     1      -8.088  15.817  67.414  1.00  0.00     0.000 HD 
HETATM   19  N   UNL     1      -8.816  16.315  66.901  1.00  0.00    -0.200 N  
BRANCH  19  20
HETATM   20  C   UNL     1      -8.954  17.720  67.085  1.00  0.00    -0.246 A  
HETATM   21  C   UNL     1      -8.050  18.556  66.409  1.00  0.00    -0.273 A  
HETATM   22  C   UNL     1      -8.155  19.929  66.571  1.00  0.00    -0.328 A  
HETATM   23 CL   UNL     1      -6.786  17.914  65.424  1.00  0.00    -0.074 Cl 
HETATM   24  N   UNL     1      -9.101  20.524  67.329  1.00  0.00    -0.376 NA 
HETATM   25  C   UNL     1      -9.985  19.702  67.946  1.00  0.00    -0.411 A  
HETATM   26  C   UNL     1      -9.962  18.312  67.859  1.00  0.00    -0.345 A  
HETATM   27 CL   UNL     1     -11.261  17.431  68.569  1.00  0.00     0.075 Cl 
ENDBRANCH  19  20
ENDBRANCH  10  16
ENDBRANCH   3   5
TORSDOF 6
ENDMDL
MODEL      149
REMARK 921   NORMALIZED FREE ENERGY PREDICTED BY IDOCK:   -4.28 KCAL/MOL
REMARK 922        TOTAL FREE ENERGY PREDICTED BY IDOCK:   -7.11 KCAL/MOL
REMARK 923 INTER-LIGAND FREE ENERGY PREDICTED BY IDOCK:   -5.82 KCAL/MOL
REMARK 924 INTRA-LIGAND FREE ENERGY PREDICTED BY IDOCK:   -1.29 KCAL/MOL
REMARK 927      BINDING AFFINITY PREDICTED BY RF-SCORE:    0.00 PKD
ROOT
HETATM    1  F   UNL     1      -9.683  14.556  68.688  1.00  0.00    -0.200 F  
HETATM    2  C   UNL     1     -10.506  14.253  67.654  1.00  0.00    -0.248 C  
HETATM    3  O   UNL     1      -9.725  13.714  66.600  1.00  0.00    -0.267 OA 
HETATM    4  F   UNL     1     -11.035  15.425  67.218  1.00  0.00    -0.300 F  
ENDROOT
BRANCH   3   5
HETATM    5  C   UNL     1      -9.587  12.350  66.616  1.00  0.00    -0.229 A  
HETATM    6  C   UNL     1      -9.800  11.681  65.395  1.00  0.00    -0.238 A  
HETATM    7  C   UNL     1      -9.139  10.234  67.703  1.00  0.00    -0.144 A  
HETATM    8  C   UNL     1      -9.702  10.286  65.343  1.00  0.00    -0.340 A  
HETATM    9  C   UNL     1      -9.224  11.626  67.757  1.00  0.00    -0.178 A  
HETATM   10  C   UNL     1      -9.402   9.562  66.507  1.00  0.00    -0.220 A  
BRANCH   6  11
HETATM   11  O   UNL     1     -10.078  12.481  64.318  1.00  0.00    -0.320 OA 
BRANCH  11  12
HETATM   12  C   UNL     1     -11.085  12.043  63.409  1.00  0.00    -0.398 C  
BRANCH  12  13
HETATM   13  C   UNL     1     -12.264  12.961  63.550  1.00  0.00    -0.595 C  
HETATM   14  C   UNL     1     -12.830  13.272  64.913  1.00  0.00    -0.321 C  
HETATM   15  C   UNL     1     -12.110  14.341  64.138  1.00  0.00    -0.423 C  
ENDBRANCH  12  13
ENDBRANCH  11  12
ENDBRANCH   6  11
BRANCH  10  16
HETATM   16  C   UNL     1      -9.415   8.069  66.510  1.00  0.00    -0.214 C  
HETATM   17  O   UNL     1     -10.478   7.471  66.604  1.00  0.00    -0.269 OA 
HETATM   18  H   UNL     1      -7.347   8.081  66.272  1.00  0.00     0.000 HD 
HETATM   19  N   UNL     1      -8.183   7.499  66.227  1.00  0.00    -0.119 N  
BRANCH  19  20
HETATM   20  C   UNL     1      -8.053   6.125  65.875  1.00  0.00    -0.121 A  
HETATM   21  C   UNL     1      -7.913   5.813  64.513  1.00  0.00    -0.126 A  
HETATM   22  C   UNL     1      -7.789   4.485  64.137  1.00  0.00    -0.086 A  
HETATM   23 CL   UNL     1      -7.942   7.038  63.296  1.00  0.00    -0.099 Cl 
HETATM   24  N   UNL     1      -7.769   3.457  65.013  1.00  0.00    -0.080 NA 
HETATM   25  C   UNL     1      -7.871   3.781  66.326  1.00  0.00    -0.089 A  
HETATM   26  C   UNL     1      -8.010   5.080  66.809  1.00  0.00    -0.104 A  
HETATM   27 CL   UNL     1      -7.956   5.325  68.513  1.00  0.00    -0.087 Cl 
ENDBRANCH  19  20
ENDBRANCH  10  16
ENDBRANCH   3   5
TORSDOF 6
ENDMDL
MODEL      150
REMARK 921   NORMALIZED FREE ENERGY PREDICTED BY IDOCK:   -4.27 KCAL/MOL
REMARK 922        TOTAL FREE ENERGY PREDICTED BY IDOCK:   -7.09 KCAL/MOL
REMARK 923 INTER-LIGAND FREE ENERGY PREDICTED BY IDOCK:   -6.61 KCAL/MOL
REMARK 924 INTRA-LIGAND FREE ENERGY PREDICTED BY IDOCK:   -0.48 KCAL/MOL
REMARK 927      BINDING AFFINITY PREDICTED BY RF-SCORE:    0.00 PKD
ROOT
HETATM    1  F   UNL     1     -12.222  16.053  68.372  1.00  0.00    -0.246 F  
HETATM    2  C   UNL     1     -11.080  15.708  69.017  1.00  0.00    -0.279 C  
HETATM    3  O   UNL     1     -11.367  14.637  69.899  1.00  0.00    -0.255 OA 
HETATM    4  F   UNL     1     -10.718  16.778  69.771  1.00  0.00    -0.314 F  
ENDROOT
BRANCH   3   5
HETATM    5  C   UNL     1     -11.197  13.384  69.369  1.00  0.00    -0.175 A  
HETATM    6  C   UNL     1     -11.753  12.311  70.094  1.00  0.00    -0.198 A  
HETATM    7  C   UNL     1     -10.375  11.835  67.699  1.00  0.00    -0.219 A  
HETATM    8  C   UNL     1     -11.595  11.002  69.625  1.00  0.00    -0.390 A  
HETATM    9  C   UNL     1     -10.540  13.144  68.157  1.00  0.00    -0.257 A  
HETATM   10  C   UNL     1     -10.878  10.764  68.443  1.00  0.00    -0.276 A  
BRANCH   6  11
HETATM   11  O   UNL     1     -12.441  12.652  71.228  1.00  0.00    -0.309 OA 
BRANCH  11  12
HETATM   12  C   UNL     1     -13.534  13.558  71.094  1.00  0.00     0.006 C  
BRANCH  12  13
HETATM   13  C   UNL     1     -13.797  14.167  72.440  1.00  0.00    -0.638 C  
HETATM   14  C   UNL     1     -12.662  14.736  73.254  1.00  0.00    -0.596 C  
HETATM   15  C   UNL     1     -13.689  15.656  72.655  1.00  0.00    -0.666 C  
ENDBRANCH  12  13
ENDBRANCH  11  12
ENDBRANCH   6  11
BRANCH  10  16
HETATM   16  C   UNL     1     -10.585   9.374  67.986  1.00  0.00    -0.226 C  
HETATM   17  O   UNL     1     -10.820   9.052  66.829  1.00  0.00    -0.116 OA 
HETATM   18  H   UNL     1      -9.847   8.938  69.883  1.00  0.00     0.000 HD 
HETATM   19  N   UNL     1      -9.896   8.613  68.918  1.00  0.00    -0.174 N  
BRANCH  19  20
HETATM   20  C   UNL     1      -9.256   7.390  68.566  1.00  0.00    -0.142 A  
HETATM   21  C   UNL     1      -9.907   6.193  68.908  1.00  0.00    -0.140 A  
HETATM   22  C   UNL     1      -9.307   4.986  68.584  1.00  0.00    -0.130 A  
HETATM   23 CL   UNL     1     -11.407   6.191  69.762  1.00  0.00    -0.497 Cl 
HETATM   24  N   UNL     1      -8.130   4.886  67.929  1.00  0.00    -0.093 NA 
HETATM   25  C   UNL     1      -7.534   6.053  67.578  1.00  0.00    -0.082 A  
HETATM   26  C   UNL     1      -8.045   7.316  67.864  1.00  0.00    -0.119 A  
HETATM   27 CL   UNL     1      -7.243   8.687  67.196  1.00  0.00    -0.076 Cl 
ENDBRANCH  19  20
ENDBRANCH  10  16
ENDBRANCH   3   5
TORSDOF 6
ENDMDL
MODEL      151
REMARK 921   NORMALIZED FREE ENERGY PREDICTED BY IDOCK:   -4.25 KCAL/MOL
REMARK 922        TOTAL FREE ENERGY PREDICTED BY IDOCK:   -7.07 KCAL/MOL
REMARK 923 INTER-LIGAND FREE ENERGY PREDICTED BY IDOCK:   -6.01 KCAL/MOL
REMARK 924 INTRA-LIGAND FREE ENERGY PREDICTED BY IDOCK:   -1.05 KCAL/MOL
REMARK 927      BINDING AFFINITY PREDICTED BY RF-SCORE:    0.00 PKD
ROOT
HETATM    1  F   UNL     1     -10.582   5.104  72.024  1.00  0.00    -0.257 F  
HETATM    2  C   UNL     1      -9.371   5.652  71.756  1.00  0.00    -0.145 C  
HETATM    3  O   UNL     1      -9.278   5.876  70.359  1.00  0.00    -0.154 OA 
HETATM    4  F   UNL     1      -8.439   4.721  72.087  1.00  0.00    -0.111 F  
ENDROOT
BRANCH   3   5
HETATM    5  C   UNL     1      -9.695   7.113  69.939  1.00  0.00    -0.170 A  
HETATM    6  C   UNL     1     -10.354   7.167  68.695  1.00  0.00    -0.187 A  
HETATM    7  C   UNL     1      -9.943   9.509  70.180  1.00  0.00    -0.285 A  
HETATM    8  C   UNL     1     -10.784   8.400  68.192  1.00  0.00    -0.094 A  
HETATM    9  C   UNL     1      -9.523   8.280  70.691  1.00  0.00    -0.181 A  
HETATM   10  C   UNL     1     -10.549   9.574  68.922  1.00  0.00    -0.239 A  
BRANCH   6  11
HETATM   11  O   UNL     1     -10.541   5.963  68.067  1.00  0.00    -0.220 OA 
BRANCH  11  12
HETATM   12  C   UNL     1     -10.646   5.966  66.645  1.00  0.00    -0.264 C  
BRANCH  12  13
HETATM   13  C   UNL     1      -9.842   4.812  66.122  1.00  0.00    -0.234 C  
HETATM   14  C   UNL     1     -10.096   4.272  64.737  1.00  0.00    -0.159 C  
HETATM   15  C   UNL     1      -8.819   5.007  65.031  1.00  0.00    -0.149 C  
ENDBRANCH  12  13
ENDBRANCH  11  12
ENDBRANCH   6  11
BRANCH  10  16
HETATM   16  C   UNL     1     -10.882  10.914  68.355  1.00  0.00    -0.222 C  
HETATM   17  O   UNL     1     -11.809  11.025  67.565  1.00  0.00    -0.571 OA 
HETATM   18  H   UNL     1      -9.359  11.747  69.505  1.00  0.00     0.000 HD 
HETATM   19  N   UNL     1     -10.180  11.958  68.937  1.00  0.00    -0.134 N  
BRANCH  19  20
HETATM   20  C   UNL     1     -10.571  13.316  68.766  1.00  0.00    -0.201 A  
HETATM   21  C   UNL     1      -9.982  14.035  67.712  1.00  0.00    -0.236 A  
HETATM   22  C   UNL     1     -10.338  15.361  67.522  1.00  0.00    -0.264 A  
HETATM   23 CL   UNL     1      -8.794  13.321  66.684  1.00  0.00    -0.135 Cl 
HETATM   24  N   UNL     1     -11.248  16.010  68.281  1.00  0.00    -0.356 NA 
HETATM   25  C   UNL     1     -11.830  15.289  69.272  1.00  0.00    -0.329 A  
HETATM   26  C   UNL     1     -11.537  13.957  69.555  1.00  0.00    -0.301 A  
HETATM   27 CL   UNL     1     -12.492  13.149  70.739  1.00  0.00    -0.416 Cl 
ENDBRANCH  19  20
ENDBRANCH  10  16
ENDBRANCH   3   5
TORSDOF 6
ENDMDL
MODEL      152
REMARK 921   NORMALIZED FREE ENERGY PREDICTED BY IDOCK:   -4.24 KCAL/MOL
REMARK 922        TOTAL FREE ENERGY PREDICTED BY IDOCK:   -7.05 KCAL/MOL
REMARK 923 INTER-LIGAND FREE ENERGY PREDICTED BY IDOCK:   -5.91 KCAL/MOL
REMARK 924 INTRA-LIGAND FREE ENERGY PREDICTED BY IDOCK:   -1.13 KCAL/MOL
REMARK 927      BINDING AFFINITY PREDICTED BY RF-SCORE:    0.00 PKD
ROOT
HETATM    1  F   UNL     1      -9.058   3.606  73.912  1.00  0.00    -0.090 F  
HETATM    2  C   UNL     1     -10.335   3.483  73.473  1.00  0.00    -0.157 C  
HETATM    3  O   UNL     1     -10.775   4.749  73.011  1.00  0.00    -0.203 OA 
HETATM    4  F   UNL     1     -11.089   3.153  74.552  1.00  0.00    -0.162 F  
ENDROOT
BRANCH   3   5
HETATM    5  C   UNL     1     -10.563   4.988  71.678  1.00  0.00    -0.117 A  
HETATM    6  C   UNL     1     -11.192   6.125  71.133  1.00  0.00    -0.292 A  
HETATM    7  C   UNL     1      -9.606   4.475  69.514  1.00  0.00    -0.266 A  
HETATM    8  C   UNL     1     -11.040   6.417  69.772  1.00  0.00    -0.459 A  
HETATM    9  C   UNL     1      -9.746   4.188  70.873  1.00  0.00    -0.259 A  
HETATM   10  C   UNL     1     -10.272   5.571  68.958  1.00  0.00    -0.298 A  
BRANCH   6  11
HETATM   11  O   UNL     1     -11.910   6.889  72.015  1.00  0.00    -0.291 OA 
BRANCH  11  12
HETATM   12  C   UNL     1     -12.821   7.844  71.477  1.00  0.00    -0.317 C  
BRANCH  12  13
HETATM   13  C   UNL     1     -12.347   9.210  71.877  1.00  0.00    -0.455 C  
HETATM   14  C   UNL     1     -11.688  10.115  70.867  1.00  0.00    -0.468 C  
HETATM   15  C   UNL     1     -13.054  10.452  71.396  1.00  0.00    -0.512 C  
ENDBRANCH  12  13
ENDBRANCH  11  12
ENDBRANCH   6  11
BRANCH  10  16
HETATM   16  C   UNL     1     -10.196   5.785  67.482  1.00  0.00    -0.196 C  
HETATM   17  O   UNL     1     -11.176   6.195  66.877  1.00  0.00    -0.290 OA 
HETATM   18  H   UNL     1      -8.199   5.199  67.531  1.00  0.00     0.000 HD 
HETATM   19  N   UNL     1      -8.918   5.646  66.963  1.00  0.00    -0.114 N  
BRANCH  19  20
HETATM   20  C   UNL     1      -8.581   6.110  65.660  1.00  0.00    -0.145 A  
HETATM   21  C   UNL     1      -8.572   5.169  64.617  1.00  0.00    -0.142 A  
HETATM   22  C   UNL     1      -8.243   5.588  63.337  1.00  0.00    -0.110 A  
HETATM   23 CL   UNL     1      -8.913   3.501  64.900  1.00  0.00    -0.125 Cl 
HETATM   24  N   UNL     1      -7.949   6.868  63.019  1.00  0.00    -0.109 NA 
HETATM   25  C   UNL     1      -7.996   7.767  64.034  1.00  0.00    -0.104 A  
HETATM   26  C   UNL     1      -8.304   7.450  65.354  1.00  0.00    -0.117 A  
HETATM   27 CL   UNL     1      -8.483   8.742  66.480  1.00  0.00    -0.114 Cl 
ENDBRANCH  19  20
ENDBRANCH  10  16
ENDBRANCH   3   5
TORSDOF 6
ENDMDL
MODEL      153
REMARK 921   NORMALIZED FREE ENERGY PREDICTED BY IDOCK:   -4.23 KCAL/MOL
REMARK 922        TOTAL FREE ENERGY PREDICTED BY IDOCK:   -7.04 KCAL/MOL
REMARK 923 INTER-LIGAND FREE ENERGY PREDICTED BY IDOCK:   -6.00 KCAL/MOL
REMARK 924 INTRA-LIGAND FREE ENERGY PREDICTED BY IDOCK:   -1.04 KCAL/MOL
REMARK 927      BINDING AFFINITY PREDICTED BY RF-SCORE:    0.00 PKD
ROOT
HETATM    1  F   UNL     1      -7.062   8.478  66.842  1.00  0.00    -0.070 F  
HETATM    2  C   UNL     1      -8.320   8.589  67.335  1.00  0.00    -0.120 C  
HETATM    3  O   UNL     1      -8.289   9.453  68.458  1.00  0.00    -0.116 OA 
HETATM    4  F   UNL     1      -8.677   7.355  67.774  1.00  0.00    -0.124 F  
ENDROOT
BRANCH   3   5
HETATM    5  C   UNL     1      -8.507  10.777  68.180  1.00  0.00    -0.125 A  
HETATM    6  C   UNL     1      -9.830  11.242  68.327  1.00  0.00    -0.197 A  
HETATM    7  C   UNL     1      -7.800  12.990  67.497  1.00  0.00    -0.178 A  
HETATM    8  C   UNL     1     -10.131  12.577  68.034  1.00  0.00    -0.220 A  
HETATM    9  C   UNL     1      -7.493  11.662  67.799  1.00  0.00    -0.111 A  
HETATM   10  C   UNL     1      -9.120  13.442  67.589  1.00  0.00    -0.203 A  
BRANCH   6  11
HETATM   11  O   UNL     1     -10.739  10.321  68.776  1.00  0.00    -0.197 OA 
BRANCH  11  12
HETATM   12  C   UNL     1     -11.043  10.314  70.169  1.00  0.00    -0.319 C  
BRANCH  12  13
HETATM   13  C   UNL     1     -10.845   8.915  70.677  1.00  0.00    -0.286 C  
HETATM   14  C   UNL     1      -9.726   8.604  71.637  1.00  0.00    -0.348 C  
HETATM   15  C   UNL     1     -11.152   8.557  72.109  1.00  0.00    -0.436 C  
ENDBRANCH  12  13
ENDBRANCH  11  12
ENDBRANCH   6  11
BRANCH  10  16
HETATM   16  C   UNL     1      -9.434  14.833  67.150  1.00  0.00    -0.227 C  
HETATM   17  O   UNL     1     -10.367  15.032  66.383  1.00  0.00    -0.271 OA 
HETATM   18  H   UNL     1      -7.886  15.531  68.354  1.00  0.00     0.000 HD 
HETATM   19  N   UNL     1      -8.708  15.807  67.817  1.00  0.00    -0.169 N  
BRANCH  19  20
HETATM   20  C   UNL     1      -9.077  17.182  67.775  1.00  0.00    -0.233 A  
HETATM   21  C   UNL     1      -8.411  18.005  66.851  1.00  0.00    -0.249 A  
HETATM   22  C   UNL     1      -8.743  19.350  66.789  1.00  0.00    -0.319 A  
HETATM   23 CL   UNL     1      -7.160  17.394  65.831  1.00  0.00    -0.258 Cl 
HETATM   24  N   UNL     1      -9.698  19.923  67.554  1.00  0.00    -0.368 NA 
HETATM   25  C   UNL     1     -10.352  19.104  68.415  1.00  0.00    -0.327 A  
HETATM   26  C   UNL     1     -10.089  17.745  68.564  1.00  0.00    -0.377 A  
HETATM   27 CL   UNL     1     -11.130  16.822  69.582  1.00  0.00    -0.152 Cl 
ENDBRANCH  19  20
ENDBRANCH  10  16
ENDBRANCH   3   5
TORSDOF 6
ENDMDL
MODEL      154
REMARK 921   NORMALIZED FREE ENERGY PREDICTED BY IDOCK:   -4.22 KCAL/MOL
REMARK 922        TOTAL FREE ENERGY PREDICTED BY IDOCK:   -7.03 KCAL/MOL
REMARK 923 INTER-LIGAND FREE ENERGY PREDICTED BY IDOCK:   -5.68 KCAL/MOL
REMARK 924 INTRA-LIGAND FREE ENERGY PREDICTED BY IDOCK:   -1.34 KCAL/MOL
REMARK 927      BINDING AFFINITY PREDICTED BY RF-SCORE:    0.00 PKD
ROOT
HETATM    1  F   UNL     1      -7.800   9.677  69.860  1.00  0.00    -0.086 F  
HETATM    2  C   UNL     1      -6.582   9.955  69.333  1.00  0.00    -0.051 C  
HETATM    3  O   UNL     1      -6.762  10.420  68.006  1.00  0.00    -0.064 OA 
HETATM    4  F   UNL     1      -5.906   8.779  69.270  1.00  0.00    -0.034 F  
ENDROOT
BRANCH   3   5
HETATM    5  C   UNL     1      -6.894  11.779  67.878  1.00  0.00    -0.077 A  
HETATM    6  C   UNL     1      -8.101  12.246  67.321  1.00  0.00    -0.182 A  
HETATM    7  C   UNL     1      -6.110  14.059  68.101  1.00  0.00    -0.129 A  
HETATM    8  C   UNL     1      -8.294  13.620  67.137  1.00  0.00    -0.151 A  
HETATM    9  C   UNL     1      -5.918  12.690  68.297  1.00  0.00    -0.068 A  
HETATM   10  C   UNL     1      -7.283  14.523  67.499  1.00  0.00    -0.210 A  
BRANCH   6  11
HETATM   11  O   UNL     1      -9.026  11.283  67.011  1.00  0.00    -0.149 OA 
BRANCH  11  12
HETATM   12  C   UNL     1     -10.153  11.144  67.872  1.00  0.00    -0.176 C  
BRANCH  12  13
HETATM   13  C   UNL     1     -10.847   9.861  67.520  1.00  0.00    -0.307 C  
HETATM   14  C   UNL     1     -10.117   8.782  66.761  1.00  0.00    -0.359 C  
HETATM   15  C   UNL     1     -10.483   8.566  68.203  1.00  0.00    -0.236 C  
ENDBRANCH  12  13
ENDBRANCH  11  12
ENDBRANCH   6  11
BRANCH  10  16
HETATM   16  C   UNL     1      -7.408  15.979  67.199  1.00  0.00    -0.222 C  
HETATM   17  O   UNL     1      -6.629  16.508  66.418  1.00  0.00    -0.212 OA 
HETATM   18  H   UNL     1      -9.068  16.064  68.453  1.00  0.00     0.000 HD 
HETATM   19  N   UNL     1      -8.546  16.564  67.733  1.00  0.00    -0.176 N  
BRANCH  19  20
HETATM   20  C   UNL     1      -9.007  17.842  67.307  1.00  0.00    -0.250 A  
HETATM   21  C   UNL     1     -10.013  17.877  66.327  1.00  0.00    -0.331 A  
HETATM   22  C   UNL     1     -10.479  19.106  65.887  1.00  0.00    -0.424 A  
HETATM   23 CL   UNL     1     -10.644  16.431  65.627  1.00  0.00    -0.366 Cl 
HETATM   24  N   UNL     1     -10.039  20.290  66.364  1.00  0.00    -0.419 NA 
HETATM   25  C   UNL     1      -9.092  20.235  67.334  1.00  0.00    -0.365 A  
HETATM   26  C   UNL     1      -8.548  19.056  67.838  1.00  0.00    -0.301 A  
HETATM   27 CL   UNL     1      -7.479  19.165  69.185  1.00  0.00    -0.342 Cl 
ENDBRANCH  19  20
ENDBRANCH  10  16
ENDBRANCH   3   5
TORSDOF 6
ENDMDL
MODEL      155
REMARK 921   NORMALIZED FREE ENERGY PREDICTED BY IDOCK:   -4.20 KCAL/MOL
REMARK 922        TOTAL FREE ENERGY PREDICTED BY IDOCK:   -7.00 KCAL/MOL
REMARK 923 INTER-LIGAND FREE ENERGY PREDICTED BY IDOCK:   -5.68 KCAL/MOL
REMARK 924 INTRA-LIGAND FREE ENERGY PREDICTED BY IDOCK:   -1.32 KCAL/MOL
REMARK 927      BINDING AFFINITY PREDICTED BY RF-SCORE:    0.00 PKD
ROOT
HETATM    1  F   UNL     1      -8.304  16.700  66.452  1.00  0.00    -0.240 F  
HETATM    2  C   UNL     1      -7.985  16.406  67.736  1.00  0.00    -0.149 C  
HETATM    3  O   UNL     1      -9.003  15.580  68.275  1.00  0.00    -0.179 OA 
HETATM    4  F   UNL     1      -8.000  17.578  68.421  1.00  0.00    -0.222 F  
ENDROOT
BRANCH   3   5
HETATM    5  C   UNL     1      -8.794  14.232  68.135  1.00  0.00    -0.183 A  
HETATM    6  C   UNL     1      -9.805  13.501  67.480  1.00  0.00    -0.227 A  
HETATM    7  C   UNL     1      -7.511  12.200  68.431  1.00  0.00    -0.114 A  
HETATM    8  C   UNL     1      -9.670  12.117  67.325  1.00  0.00    -0.193 A  
HETATM    9  C   UNL     1      -7.636  13.583  68.577  1.00  0.00    -0.129 A  
HETATM   10  C   UNL     1      -8.536  11.464  67.830  1.00  0.00    -0.140 A  
BRANCH   6  11
HETATM   11  O   UNL     1     -10.866  14.235  67.017  1.00  0.00    -0.290 OA 
BRANCH  11  12
HETATM   12  C   UNL     1     -12.134  13.589  66.933  1.00  0.00    -0.368 C  
BRANCH  12  13
HETATM   13  C   UNL     1     -12.648  13.761  65.534  1.00  0.00    -0.551 C  
HETATM   14  C   UNL     1     -11.695  13.764  64.366  1.00  0.00    -0.436 C  
HETATM   15  C   UNL     1     -12.643  12.613  64.557  1.00  0.00    -0.491 C  
ENDBRANCH  12  13
ENDBRANCH  11  12
ENDBRANCH   6  11
BRANCH  10  16
HETATM   16  C   UNL     1      -8.424   9.976  67.792  1.00  0.00    -0.114 C  
HETATM   17  O   UNL     1      -7.534   9.418  68.419  1.00  0.00    -0.077 OA 
HETATM   18  H   UNL     1     -10.114   9.909  66.579  1.00  0.00     0.000 HD 
HETATM   19  N   UNL     1      -9.486   9.351  67.157  1.00  0.00    -0.141 N  
BRANCH  19  20
HETATM   20  C   UNL     1      -9.725   7.953  67.289  1.00  0.00    -0.176 A  
HETATM   21  C   UNL     1      -9.228   7.111  66.280  1.00  0.00    -0.127 A  
HETATM   22  C   UNL     1      -9.448   5.746  66.377  1.00  0.00    -0.156 A  
HETATM   23 CL   UNL     1      -8.395   7.739  64.905  1.00  0.00    -0.113 Cl 
HETATM   24  N   UNL     1     -10.099   5.162  67.406  1.00  0.00    -0.180 NA 
HETATM   25  C   UNL     1     -10.542   5.989  68.386  1.00  0.00    -0.261 A  
HETATM   26  C   UNL     1     -10.383   7.372  68.382  1.00  0.00    -0.194 A  
HETATM   27 CL   UNL     1     -10.856   8.250  69.787  1.00  0.00    -0.222 Cl 
ENDBRANCH  19  20
ENDBRANCH  10  16
ENDBRANCH   3   5
TORSDOF 6
ENDMDL
MODEL      156
REMARK 921   NORMALIZED FREE ENERGY PREDICTED BY IDOCK:   -4.20 KCAL/MOL
REMARK 922        TOTAL FREE ENERGY PREDICTED BY IDOCK:   -7.00 KCAL/MOL
REMARK 923 INTER-LIGAND FREE ENERGY PREDICTED BY IDOCK:   -6.08 KCAL/MOL
REMARK 924 INTRA-LIGAND FREE ENERGY PREDICTED BY IDOCK:   -0.92 KCAL/MOL
REMARK 927      BINDING AFFINITY PREDICTED BY RF-SCORE:    0.00 PKD
ROOT
HETATM    1  F   UNL     1     -13.304  13.631  65.372  1.00  0.00    -0.430 F  
HETATM    2  C   UNL     1     -11.966  13.819  65.255  1.00  0.00    -0.374 C  
HETATM    3  O   UNL     1     -11.454  14.209  66.518  1.00  0.00    -0.332 OA 
HETATM    4  F   UNL     1     -11.790  14.859  64.400  1.00  0.00    -0.397 F  
ENDROOT
BRANCH   3   5
HETATM    5  C   UNL     1     -11.027  13.180  67.316  1.00  0.00    -0.268 A  
HETATM    6  C   UNL     1      -9.637  12.951  67.360  1.00  0.00    -0.203 A  
HETATM    7  C   UNL     1     -11.383  11.339  68.848  1.00  0.00    -0.340 A  
HETATM    8  C   UNL     1      -9.132  11.900  68.134  1.00  0.00    -0.190 A  
HETATM    9  C   UNL     1     -11.890  12.394  68.087  1.00  0.00    -0.372 A  
HETATM   10  C   UNL     1     -10.010  11.075  68.852  1.00  0.00    -0.201 A  
BRANCH   6  11
HETATM   11  O   UNL     1      -8.867  13.818  66.631  1.00  0.00    -0.182 OA 
BRANCH  11  12
HETATM   12  C   UNL     1      -8.550  15.079  67.217  1.00  0.00    -0.206 C  
BRANCH  12  13
HETATM   13  C   UNL     1      -7.087  15.078  67.549  1.00  0.00    -0.224 C  
HETATM   14  C   UNL     1      -6.558  15.939  68.668  1.00  0.00    -0.118 C  
HETATM   15  C   UNL     1      -6.576  14.444  68.818  1.00  0.00    -0.090 C  
ENDBRANCH  12  13
ENDBRANCH  11  12
ENDBRANCH   6  11
BRANCH  10  16
HETATM   16  C   UNL     1      -9.513   9.872  69.583  1.00  0.00    -0.231 C  
HETATM   17  O   UNL     1      -8.581   9.981  70.368  1.00  0.00    -0.070 OA 
HETATM   18  H   UNL     1     -10.989   8.735  68.655  1.00  0.00     0.000 HD 
HETATM   19  N   UNL     1     -10.304   8.747  69.410  1.00  0.00    -0.211 N  
BRANCH  19  20
HETATM   20  C   UNL     1     -10.185   7.606  70.255  1.00  0.00    -0.205 A  
HETATM   21  C   UNL     1      -9.407   6.533  69.792  1.00  0.00    -0.147 A  
HETATM   22  C   UNL     1      -9.276   5.406  70.589  1.00  0.00    -0.148 A  
HETATM   23 CL   UNL     1      -8.651   6.565  68.240  1.00  0.00    -0.116 Cl 
HETATM   24  N   UNL     1      -9.838   5.282  71.811  1.00  0.00    -0.165 NA 
HETATM   25  C   UNL     1     -10.558   6.343  72.254  1.00  0.00    -0.214 A  
HETATM   26  C   UNL     1     -10.760   7.515  71.530  1.00  0.00    -0.218 A  
HETATM   27 CL   UNL     1     -11.559   8.826  72.313  1.00  0.00    -0.427 Cl 
ENDBRANCH  19  20
ENDBRANCH  10  16
ENDBRANCH   3   5
TORSDOF 6
ENDMDL
MODEL      157
REMARK 921   NORMALIZED FREE ENERGY PREDICTED BY IDOCK:   -4.19 KCAL/MOL
REMARK 922        TOTAL FREE ENERGY PREDICTED BY IDOCK:   -6.99 KCAL/MOL
REMARK 923 INTER-LIGAND FREE ENERGY PREDICTED BY IDOCK:   -5.61 KCAL/MOL
REMARK 924 INTRA-LIGAND FREE ENERGY PREDICTED BY IDOCK:   -1.38 KCAL/MOL
REMARK 927      BINDING AFFINITY PREDICTED BY RF-SCORE:    0.00 PKD
ROOT
HETATM    1  F   UNL     1      -9.212   8.053  65.914  1.00  0.00    -0.207 F  
HETATM    2  C   UNL     1     -10.194   8.184  66.840  1.00  0.00    -0.316 C  
HETATM    3  O   UNL     1      -9.729   9.038  67.871  1.00  0.00    -0.147 OA 
HETATM    4  F   UNL     1     -10.390   6.954  67.380  1.00  0.00    -0.190 F  
ENDROOT
BRANCH   3   5
HETATM    5  C   UNL     1     -10.006  10.369  67.695  1.00  0.00    -0.174 A  
HETATM    6  C   UNL     1      -8.967  11.274  67.990  1.00  0.00    -0.156 A  
HETATM    7  C   UNL     1     -11.452  12.217  67.098  1.00  0.00    -0.413 A  
HETATM    8  C   UNL     1      -9.188  12.650  67.857  1.00  0.00    -0.201 A  
HETATM    9  C   UNL     1     -11.233  10.843  67.217  1.00  0.00    -0.307 A  
HETATM   10  C   UNL     1     -10.443  13.120  67.441  1.00  0.00    -0.243 A  
BRANCH   6  11
HETATM   11  O   UNL     1      -7.780  10.712  68.379  1.00  0.00    -0.097 OA 
BRANCH  11  12
HETATM   12  C   UNL     1      -6.591  11.157  67.730  1.00  0.00    -0.064 C  
BRANCH  12  13
HETATM   13  C   UNL     1      -5.725   9.957  67.480  1.00  0.00    -0.042 C  
HETATM   14  C   UNL     1      -6.117   8.607  68.025  1.00  0.00    -0.051 C  
HETATM   15  C   UNL     1      -6.167   8.860  66.544  1.00  0.00    -0.061 C  
ENDBRANCH  12  13
ENDBRANCH  11  12
ENDBRANCH   6  11
BRANCH  10  16
HETATM   16  C   UNL     1     -10.746  14.581  67.412  1.00  0.00    -0.282 C  
HETATM   17  O   UNL     1     -11.654  15.027  68.101  1.00  0.00    -0.326 OA 
HETATM   18  H   UNL     1      -9.168  14.852  66.082  1.00  0.00     0.000 HD 
HETATM   19  N   UNL     1      -9.820  15.331  66.704  1.00  0.00    -0.240 N  
BRANCH  19  20
HETATM   20  C   UNL     1      -9.752  16.748  66.819  1.00  0.00    -0.264 A  
HETATM   21  C   UNL     1     -10.463  17.512  65.878  1.00  0.00    -0.249 A  
HETATM   22  C   UNL     1     -10.414  18.894  65.959  1.00  0.00    -0.446 A  
HETATM   23 CL   UNL     1     -11.354  16.770  64.598  1.00  0.00    -0.081 Cl 
HETATM   24  N   UNL     1      -9.735  19.565  66.915  1.00  0.00    -0.334 NA 
HETATM   25  C   UNL     1      -9.083  18.810  67.834  1.00  0.00    -0.291 A  
HETATM   26  C   UNL     1      -9.059  17.418  67.837  1.00  0.00    -0.255 A  
HETATM   27 CL   UNL     1      -8.323  16.620  69.174  1.00  0.00    -0.176 Cl 
ENDBRANCH  19  20
ENDBRANCH  10  16
ENDBRANCH   3   5
TORSDOF 6
ENDMDL
MODEL      158
REMARK 921   NORMALIZED FREE ENERGY PREDICTED BY IDOCK:   -4.18 KCAL/MOL
REMARK 922        TOTAL FREE ENERGY PREDICTED BY IDOCK:   -6.97 KCAL/MOL
REMARK 923 INTER-LIGAND FREE ENERGY PREDICTED BY IDOCK:   -5.71 KCAL/MOL
REMARK 924 INTRA-LIGAND FREE ENERGY PREDICTED BY IDOCK:   -1.26 KCAL/MOL
REMARK 927      BINDING AFFINITY PREDICTED BY RF-SCORE:    0.00 PKD
ROOT
HETATM    1  F   UNL     1      -9.627  15.388  67.950  1.00  0.00    -0.201 F  
HETATM    2  C   UNL     1     -10.824  14.863  67.591  1.00  0.00    -0.286 C  
HETATM    3  O   UNL     1     -10.622  13.522  67.179  1.00  0.00    -0.261 OA 
HETATM    4  F   UNL     1     -11.252  15.567  66.512  1.00  0.00    -0.313 F  
ENDROOT
BRANCH   3   5
HETATM    5  C   UNL     1     -10.745  12.584  68.171  1.00  0.00    -0.227 A  
HETATM    6  C   UNL     1      -9.651  11.716  68.358  1.00  0.00    -0.195 A  
HETATM    7  C   UNL     1     -11.936  11.474  69.964  1.00  0.00    -0.435 A  
HETATM    8  C   UNL     1      -9.717  10.717  69.335  1.00  0.00    -0.141 A  
HETATM    9  C   UNL     1     -11.869  12.480  68.998  1.00  0.00    -0.344 A  
HETATM   10  C   UNL     1     -10.874  10.577  70.116  1.00  0.00    -0.291 A  
BRANCH   6  11
HETATM   11  O   UNL     1      -8.567  11.942  67.550  1.00  0.00    -0.147 OA 
BRANCH  11  12
HETATM   12  C   UNL     1      -7.467  12.662  68.102  1.00  0.00    -0.122 C  
BRANCH  12  13
HETATM   13  C   UNL     1      -6.381  11.675  68.416  1.00  0.00    -0.051 C  
HETATM   14  C   UNL     1      -5.132  12.119  69.135  1.00  0.00    -0.055 C  
HETATM   15  C   UNL     1      -6.121  11.227  69.832  1.00  0.00    -0.130 C  
ENDBRANCH  12  13
ENDBRANCH  11  12
ENDBRANCH   6  11
BRANCH  10  16
HETATM   16  C   UNL     1     -11.024   9.445  71.076  1.00  0.00    -0.338 C  
HETATM   17  O   UNL     1     -12.064   9.317  71.707  1.00  0.00    -0.346 OA 
HETATM   18  H   UNL     1      -9.122   8.784  70.546  1.00  0.00     0.000 HD 
HETATM   19  N   UNL     1      -9.986   8.527  71.024  1.00  0.00    -0.192 N  
BRANCH  19  20
HETATM   20  C   UNL     1     -10.090   7.238  71.619  1.00  0.00    -0.184 A  
HETATM   21  C   UNL     1     -10.589   6.193  70.823  1.00  0.00    -0.242 A  
HETATM   22  C   UNL     1     -10.708   4.927  71.374  1.00  0.00     0.042 A  
HETATM   23 CL   UNL     1     -11.101   6.460  69.196  1.00  0.00    -0.413 Cl 
HETATM   24  N   UNL     1     -10.347   4.623  72.639  1.00  0.00    -0.190 NA 
HETATM   25  C   UNL     1      -9.836   5.637  73.381  1.00  0.00    -0.167 A  
HETATM   26  C   UNL     1      -9.684   6.945  72.928  1.00  0.00    -0.160 A  
HETATM   27 CL   UNL     1      -8.862   8.067  73.946  1.00  0.00    -0.320 Cl 
ENDBRANCH  19  20
ENDBRANCH  10  16
ENDBRANCH   3   5
TORSDOF 6
ENDMDL
MODEL      159
REMARK 921   NORMALIZED FREE ENERGY PREDICTED BY IDOCK:   -4.18 KCAL/MOL
REMARK 922        TOTAL FREE ENERGY PREDICTED BY IDOCK:   -6.97 KCAL/MOL
REMARK 923 INTER-LIGAND FREE ENERGY PREDICTED BY IDOCK:   -5.93 KCAL/MOL
REMARK 924 INTRA-LIGAND FREE ENERGY PREDICTED BY IDOCK:   -1.03 KCAL/MOL
REMARK 927      BINDING AFFINITY PREDICTED BY RF-SCORE:    0.00 PKD
ROOT
HETATM    1  F   UNL     1      -5.728   8.589  71.819  1.00  0.00    -0.034 F  
HETATM    2  C   UNL     1      -6.644   7.623  71.561  1.00  0.00    -0.045 C  
HETATM    3  O   UNL     1      -7.939   8.166  71.756  1.00  0.00    -0.101 OA 
HETATM    4  F   UNL     1      -6.460   6.651  72.491  1.00  0.00    -0.055 F  
ENDROOT
BRANCH   3   5
HETATM    5  C   UNL     1      -8.514   8.715  70.639  1.00  0.00    -0.157 A  
HETATM    6  C   UNL     1      -9.660   8.067  70.137  1.00  0.00    -0.175 A  
HETATM    7  C   UNL     1      -8.658  10.354  68.863  1.00  0.00    -0.149 A  
HETATM    8  C   UNL     1     -10.285   8.557  68.985  1.00  0.00    -0.218 A  
HETATM    9  C   UNL     1      -8.039   9.875  70.020  1.00  0.00    -0.193 A  
HETATM   10  C   UNL     1      -9.762   9.683  68.331  1.00  0.00    -0.163 A  
BRANCH   6  11
HETATM   11  O   UNL     1     -10.094   6.982  70.855  1.00  0.00    -0.193 OA 
BRANCH  11  12
HETATM   12  C   UNL     1     -10.580   5.857  70.127  1.00  0.00    -0.292 C  
BRANCH  12  13
HETATM   13  C   UNL     1      -9.689   4.689  70.434  1.00  0.00    -0.292 C  
HETATM   14  C   UNL     1      -8.843   4.683  71.683  1.00  0.00    -0.147 C  
HETATM   15  C   UNL     1     -10.009   3.741  71.562  1.00  0.00    -0.195 C  
ENDBRANCH  12  13
ENDBRANCH  11  12
ENDBRANCH   6  11
BRANCH  10  16
HETATM   16  C   UNL     1     -10.330  10.152  67.033  1.00  0.00    -0.244 C  
HETATM   17  O   UNL     1     -11.030   9.400  66.369  1.00  0.00     0.167 OA 
HETATM   18  H   UNL     1      -9.444  12.009  67.351  1.00  0.00     0.000 HD 
HETATM   19  N   UNL     1     -10.129  11.502  66.791  1.00  0.00    -0.210 N  
BRANCH  19  20
HETATM   20  C   UNL     1     -10.851  12.202  65.782  1.00  0.00    -0.281 A  
HETATM   21  C   UNL     1     -11.772  13.177  66.199  1.00  0.00    -0.381 A  
HETATM   22  C   UNL     1     -12.494  13.872  65.242  1.00  0.00    -0.478 A  
HETATM   23 CL   UNL     1     -12.058  13.495  67.872  1.00  0.00    -0.358 Cl 
HETATM   24  N   UNL     1     -12.350  13.685  63.912  1.00  0.00    -0.696 NA 
HETATM   25  C   UNL     1     -11.432  12.764  63.528  1.00  0.00    -0.459 A  
HETATM   26  C   UNL     1     -10.663  12.004  64.407  1.00  0.00    -0.323 A  
HETATM   27 CL   UNL     1      -9.426  11.002  63.747  1.00  0.00    -0.263 Cl 
ENDBRANCH  19  20
ENDBRANCH  10  16
ENDBRANCH   3   5
TORSDOF 6
ENDMDL
MODEL      160
REMARK 921   NORMALIZED FREE ENERGY PREDICTED BY IDOCK:   -4.12 KCAL/MOL
REMARK 922        TOTAL FREE ENERGY PREDICTED BY IDOCK:   -6.89 KCAL/MOL
REMARK 923 INTER-LIGAND FREE ENERGY PREDICTED BY IDOCK:   -6.22 KCAL/MOL
REMARK 924 INTRA-LIGAND FREE ENERGY PREDICTED BY IDOCK:   -0.67 KCAL/MOL
REMARK 927      BINDING AFFINITY PREDICTED BY RF-SCORE:    0.00 PKD
ROOT
HETATM    1  F   UNL     1      -9.976  14.438  68.510  1.00  0.00    -0.211 F  
HETATM    2  C   UNL     1     -10.874  14.025  67.581  1.00  0.00    -0.262 C  
HETATM    3  O   UNL     1     -10.201  13.212  66.635  1.00  0.00    -0.250 OA 
HETATM    4  F   UNL     1     -11.307  15.138  66.935  1.00  0.00    -0.334 F  
ENDROOT
BRANCH   3   5
HETATM    5  C   UNL     1     -10.195  11.871  66.919  1.00  0.00    -0.208 A  
HETATM    6  C   UNL     1     -10.085  10.995  65.821  1.00  0.00    -0.252 A  
HETATM    7  C   UNL     1     -10.286   9.979  68.426  1.00  0.00    -0.218 A  
HETATM    8  C   UNL     1     -10.099   9.611  66.034  1.00  0.00    -0.318 A  
HETATM    9  C   UNL     1     -10.261  11.359  68.219  1.00  0.00    -0.204 A  
HETATM   10  C   UNL     1     -10.232   9.106  67.336  1.00  0.00    -0.310 A  
BRANCH   6  11
HETATM   11  O   UNL     1      -9.951  11.590  64.594  1.00  0.00    -0.242 OA 
BRANCH  11  12
HETATM   12  C   UNL     1     -10.670  11.025  63.501  1.00  0.00    -0.154 C  
BRANCH  12  13
HETATM   13  C   UNL     1     -11.985  11.740  63.394  1.00  0.00    -0.443 C  
HETATM   14  C   UNL     1     -12.528  12.517  64.567  1.00  0.00    -0.539 C  
HETATM   15  C   UNL     1     -12.050  13.246  63.342  1.00  0.00    -0.508 C  
ENDBRANCH  12  13
ENDBRANCH  11  12
ENDBRANCH   6  11
BRANCH  10  16
HETATM   16  C   UNL     1     -10.376   7.641  67.582  1.00  0.00    -0.237 C  
HETATM   17  O   UNL     1     -11.131   6.979  66.882  1.00  0.00    -0.359 OA 
HETATM   18  H   UNL     1      -8.969   7.788  69.109  1.00  0.00     0.000 HD 
HETATM   19  N   UNL     1      -9.477   7.138  68.509  1.00  0.00    -0.139 N  
BRANCH  19  20
HETATM   20  C   UNL     1      -9.241   5.741  68.649  1.00  0.00    -0.118 A  
HETATM   21  C   UNL     1      -8.255   5.163  67.832  1.00  0.00    -0.098 A  
HETATM   22  C   UNL     1      -8.005   3.804  67.940  1.00  0.00    -0.084 A  
HETATM   23 CL   UNL     1      -7.384   6.094  66.668  1.00  0.00    -0.080 Cl 
HETATM   24  N   UNL     1      -8.642   2.991  68.811  1.00  0.00    -0.068 NA 
HETATM   25  C   UNL     1      -9.567   3.574  69.614  1.00  0.00    -0.114 A  
HETATM   26  C   UNL     1      -9.901   4.925  69.579  1.00  0.00    -0.217 A  
HETATM   27 CL   UNL     1     -10.974   5.529  70.784  1.00  0.00    -0.257 Cl 
ENDBRANCH  19  20
ENDBRANCH  10  16
ENDBRANCH   3   5
TORSDOF 6
ENDMDL
MODEL      161
REMARK 921   NORMALIZED FREE ENERGY PREDICTED BY IDOCK:   -4.09 KCAL/MOL
REMARK 922        TOTAL FREE ENERGY PREDICTED BY IDOCK:   -6.84 KCAL/MOL
REMARK 923 INTER-LIGAND FREE ENERGY PREDICTED BY IDOCK:   -5.54 KCAL/MOL
REMARK 924 INTRA-LIGAND FREE ENERGY PREDICTED BY IDOCK:   -1.31 KCAL/MOL
REMARK 927      BINDING AFFINITY PREDICTED BY RF-SCORE:    0.00 PKD
ROOT
HETATM    1  F   UNL     1     -10.189   4.520  68.220  1.00  0.00    -0.179 F  
HETATM    2  C   UNL     1      -9.724   5.225  69.281  1.00  0.00    -0.170 C  
HETATM    3  O   UNL     1      -8.818   6.207  68.807  1.00  0.00    -0.121 OA 
HETATM    4  F   UNL     1      -9.022   4.355  70.052  1.00  0.00    -0.105 F  
ENDROOT
BRANCH   3   5
HETATM    5  C   UNL     1      -9.379   7.423  68.512  1.00  0.00    -0.141 A  
HETATM    6  C   UNL     1      -8.932   8.055  67.336  1.00  0.00    -0.134 A  
HETATM    7  C   UNL     1     -10.868   9.281  68.950  1.00  0.00    -0.128 A  
HETATM    8  C   UNL     1      -9.442   9.311  66.986  1.00  0.00    -0.205 A  
HETATM    9  C   UNL     1     -10.371   8.023  69.296  1.00  0.00    -0.224 A  
HETATM   10  C   UNL     1     -10.388   9.936  67.813  1.00  0.00    -0.268 A  
BRANCH   6  11
HETATM   11  O   UNL     1      -8.014   7.356  66.595  1.00  0.00    -0.115 OA 
BRANCH  11  12
HETATM   12  C   UNL     1      -8.406   6.917  65.297  1.00  0.00    -0.098 C  
BRANCH  12  13
HETATM   13  C   UNL     1      -8.896   5.504  65.417  1.00  0.00    -0.131 C  
HETATM   14  C   UNL     1      -8.476   4.463  64.409  1.00  0.00    -0.117 C  
HETATM   15  C   UNL     1      -7.964   4.389  65.820  1.00  0.00    -0.095 C  
ENDBRANCH  12  13
ENDBRANCH  11  12
ENDBRANCH   6  11
BRANCH  10  16
HETATM   16  C   UNL     1     -10.855  11.326  67.535  1.00  0.00    -0.245 C  
HETATM   17  O   UNL     1     -11.870  11.505  66.876  1.00  0.00    -0.542 OA 
HETATM   18  H   UNL     1      -9.259  12.055  68.656  1.00  0.00     0.000 HD 
HETATM   19  N   UNL     1     -10.149  12.301  68.222  1.00  0.00    -0.215 N  
BRANCH  19  20
HETATM   20  C   UNL     1     -10.630  13.636  68.340  1.00  0.00    -0.251 A  
HETATM   21  C   UNL     1     -11.542  13.910  69.373  1.00  0.00    -0.297 A  
HETATM   22  C   UNL     1     -12.033  15.199  69.512  1.00  0.00    -0.321 A  
HETATM   23 CL   UNL     1     -12.099  12.672  70.440  1.00  0.00    -0.430 Cl 
HETATM   24  N   UNL     1     -11.666  16.230  68.720  1.00  0.00    -0.247 NA 
HETATM   25  C   UNL     1     -10.760  15.953  67.750  1.00  0.00    -0.320 A  
HETATM   26  C   UNL     1     -10.213  14.693  67.518  1.00  0.00    -0.225 A  
HETATM   27 CL   UNL     1      -8.950  14.556  66.354  1.00  0.00    -0.214 Cl 
ENDBRANCH  19  20
ENDBRANCH  10  16
ENDBRANCH   3   5
TORSDOF 6
ENDMDL
MODEL      162
REMARK 921   NORMALIZED FREE ENERGY PREDICTED BY IDOCK:   -4.08 KCAL/MOL
REMARK 922        TOTAL FREE ENERGY PREDICTED BY IDOCK:   -6.84 KCAL/MOL
REMARK 923 INTER-LIGAND FREE ENERGY PREDICTED BY IDOCK:   -5.67 KCAL/MOL
REMARK 924 INTRA-LIGAND FREE ENERGY PREDICTED BY IDOCK:   -1.17 KCAL/MOL
REMARK 927      BINDING AFFINITY PREDICTED BY RF-SCORE:    0.00 PKD
ROOT
HETATM    1  F   UNL     1      -6.377  15.679  70.417  1.00  0.00    -0.139 F  
HETATM    2  C   UNL     1      -7.423  15.658  69.555  1.00  0.00    -0.192 C  
HETATM    3  O   UNL     1      -7.021  14.979  68.377  1.00  0.00    -0.100 OA 
HETATM    4  F   UNL     1      -7.680  16.948  69.219  1.00  0.00    -0.245 F  
ENDROOT
BRANCH   3   5
HETATM    5  C   UNL     1      -7.262  13.629  68.373  1.00  0.00    -0.109 A  
HETATM    6  C   UNL     1      -8.365  13.187  67.616  1.00  0.00    -0.174 A  
HETATM    7  C   UNL     1      -6.789  11.345  69.024  1.00  0.00    -0.102 A  
HETATM    8  C   UNL     1      -8.686  11.825  67.587  1.00  0.00    -0.159 A  
HETATM    9  C   UNL     1      -6.459  12.702  69.045  1.00  0.00    -0.097 A  
HETATM   10  C   UNL     1      -7.914  10.910  68.318  1.00  0.00    -0.121 A  
BRANCH   6  11
HETATM   11  O   UNL     1      -9.046  14.160  66.932  1.00  0.00    -0.232 OA 
BRANCH  11  12
HETATM   12  C   UNL     1     -10.460  14.224  67.102  1.00  0.00    -0.266 C  
BRANCH  12  13
HETATM   13  C   UNL     1     -11.098  13.919  65.778  1.00  0.00    -0.294 C  
HETATM   14  C   UNL     1     -11.996  12.718  65.622  1.00  0.00    -0.503 C  
HETATM   15  C   UNL     1     -12.580  14.102  65.567  1.00  0.00    -0.501 C  
ENDBRANCH  12  13
ENDBRANCH  11  12
ENDBRANCH   6  11
BRANCH  10  16
HETATM   16  C   UNL     1      -8.306   9.472  68.408  1.00  0.00    -0.118 C  
HETATM   17  O   UNL     1      -7.478   8.602  68.177  1.00  0.00    -0.093 OA 
HETATM   18  H   UNL     1     -10.218  10.060  68.985  1.00  0.00     0.000 HD 
HETATM   19  N   UNL     1      -9.575   9.270  68.928  1.00  0.00    -0.153 N  
BRANCH  19  20
HETATM   20  C   UNL     1     -10.007   7.992  69.383  1.00  0.00    -0.190 A  
HETATM   21  C   UNL     1      -9.985   7.753  70.767  1.00  0.00    -0.181 A  
HETATM   22  C   UNL     1     -10.395   6.517  71.242  1.00  0.00    -0.204 A  
HETATM   23 CL   UNL     1      -9.416   8.942  71.882  1.00  0.00    -0.354 Cl 
HETATM   24  N   UNL     1     -10.844   5.521  70.449  1.00  0.00    -0.252 NA 
HETATM   25  C   UNL     1     -10.890   5.782  69.119  1.00  0.00    -0.285 A  
HETATM   26  C   UNL     1     -10.492   6.984  68.538  1.00  0.00    -0.200 A  
HETATM   27 CL   UNL     1     -10.776   7.206  66.853  1.00  0.00    -0.402 Cl 
ENDBRANCH  19  20
ENDBRANCH  10  16
ENDBRANCH   3   5
TORSDOF 6
ENDMDL
MODEL      163
REMARK 921   NORMALIZED FREE ENERGY PREDICTED BY IDOCK:   -4.08 KCAL/MOL
REMARK 922        TOTAL FREE ENERGY PREDICTED BY IDOCK:   -6.84 KCAL/MOL
REMARK 923 INTER-LIGAND FREE ENERGY PREDICTED BY IDOCK:   -6.06 KCAL/MOL
REMARK 924 INTRA-LIGAND FREE ENERGY PREDICTED BY IDOCK:   -0.78 KCAL/MOL
REMARK 927      BINDING AFFINITY PREDICTED BY RF-SCORE:    0.00 PKD
ROOT
HETATM    1  F   UNL     1      -7.307  19.149  67.929  1.00  0.00    -0.249 F  
HETATM    2  C   UNL     1      -8.321  18.725  68.724  1.00  0.00    -0.287 C  
HETATM    3  O   UNL     1      -9.262  18.031  67.923  1.00  0.00    -0.259 OA 
HETATM    4  F   UNL     1      -8.931  19.839  69.206  1.00  0.00    -0.340 F  
ENDROOT
BRANCH   3   5
HETATM    5  C   UNL     1      -9.056  16.679  67.823  1.00  0.00    -0.212 A  
HETATM    6  C   UNL     1     -10.100  15.847  68.274  1.00  0.00    -0.224 A  
HETATM    7  C   UNL     1      -7.745  14.728  67.245  1.00  0.00    -0.214 A  
HETATM    8  C   UNL     1      -9.949  14.457  68.226  1.00  0.00    -0.232 A  
HETATM    9  C   UNL     1      -7.897  16.115  67.279  1.00  0.00    -0.207 A  
HETATM   10  C   UNL     1      -8.757  13.900  67.740  1.00  0.00    -0.187 A  
BRANCH   6  11
HETATM   11  O   UNL     1     -11.225  16.492  68.720  1.00  0.00    -0.333 OA 
BRANCH  11  12
HETATM   12  C   UNL     1     -11.304  16.800  70.110  1.00  0.00     0.304 C  
BRANCH  12  13
HETATM   13  C   UNL     1     -11.776  15.571  70.829  1.00  0.00    -0.397 C  
HETATM   14  C   UNL     1     -12.118  15.629  72.296  1.00  0.00    -0.548 C  
HETATM   15  C   UNL     1     -13.208  15.434  71.280  1.00  0.00    -0.585 C  
ENDBRANCH  12  13
ENDBRANCH  11  12
ENDBRANCH   6  11
BRANCH  10  16
HETATM   16  C   UNL     1      -8.517  12.427  67.794  1.00  0.00    -0.169 C  
HETATM   17  O   UNL     1      -8.017  11.930  68.794  1.00  0.00    -0.123 OA 
HETATM   18  H   UNL     1      -9.360  12.250  65.899  1.00  0.00     0.000 HD 
HETATM   19  N   UNL     1      -9.062  11.733  66.725  1.00  0.00    -0.188 N  
BRANCH  19  20
HETATM   20  C   UNL     1      -9.217  10.317  66.748  1.00  0.00    -0.157 A  
HETATM   21  C   UNL     1     -10.330   9.796  67.430  1.00  0.00    -0.240 A  
HETATM   22  C   UNL     1     -10.507   8.422  67.475  1.00  0.00    -0.257 A  
HETATM   23 CL   UNL     1     -11.450  10.822  68.251  1.00  0.00    -0.372 Cl 
HETATM   24  N   UNL     1      -9.679   7.540  66.875  1.00  0.00    -0.194 NA 
HETATM   25  C   UNL     1      -8.630   8.064  66.194  1.00  0.00    -0.148 A  
HETATM   26  C   UNL     1      -8.355   9.425  66.096  1.00  0.00    -0.115 A  
HETATM   27 CL   UNL     1      -7.079   9.924  65.051  1.00  0.00    -0.124 Cl 
ENDBRANCH  19  20
ENDBRANCH  10  16
ENDBRANCH   3   5
TORSDOF 6
ENDMDL
MODEL      164
REMARK 921   NORMALIZED FREE ENERGY PREDICTED BY IDOCK:   -4.08 KCAL/MOL
REMARK 922        TOTAL FREE ENERGY PREDICTED BY IDOCK:   -6.83 KCAL/MOL
REMARK 923 INTER-LIGAND FREE ENERGY PREDICTED BY IDOCK:   -5.75 KCAL/MOL
REMARK 924 INTRA-LIGAND FREE ENERGY PREDICTED BY IDOCK:   -1.08 KCAL/MOL
REMARK 927      BINDING AFFINITY PREDICTED BY RF-SCORE:    0.00 PKD
ROOT
HETATM    1  F   UNL     1     -11.376   3.751  72.424  1.00  0.00     0.119 F  
HETATM    2  C   UNL     1     -10.965   4.614  73.386  1.00  0.00    -0.318 C  
HETATM    3  O   UNL     1      -9.747   5.206  72.968  1.00  0.00    -0.145 OA 
HETATM    4  F   UNL     1     -10.705   3.871  74.492  1.00  0.00    -0.249 F  
ENDROOT
BRANCH   3   5
HETATM    5  C   UNL     1      -9.880   6.378  72.269  1.00  0.00    -0.157 A  
HETATM    6  C   UNL     1      -9.751   6.294  70.868  1.00  0.00    -0.176 A  
HETATM    7  C   UNL     1     -10.246   8.765  72.097  1.00  0.00    -0.371 A  
HETATM    8  C   UNL     1      -9.849   7.455  70.093  1.00  0.00    -0.180 A  
HETATM    9  C   UNL     1     -10.160   7.608  72.873  1.00  0.00    -0.343 A  
HETATM   10  C   UNL     1     -10.064   8.695  70.713  1.00  0.00    -0.244 A  
BRANCH   6  11
HETATM   11  O   UNL     1      -9.551   5.036  70.362  1.00  0.00    -0.165 OA 
BRANCH  11  12
HETATM   12  C   UNL     1      -8.275   4.744  69.796  1.00  0.00    -0.068 C  
BRANCH  12  13
HETATM   13  C   UNL     1      -8.016   3.277  69.975  1.00  0.00    -0.054 C  
HETATM   14  C   UNL     1      -7.099   2.792  71.068  1.00  0.00    -0.033 C  
HETATM   15  C   UNL     1      -8.576   2.526  71.157  1.00  0.00    -0.104 C  
ENDBRANCH  12  13
ENDBRANCH  11  12
ENDBRANCH   6  11
BRANCH  10  16
HETATM   16  C   UNL     1     -10.047   9.963  69.926  1.00  0.00    -0.257 C  
HETATM   17  O   UNL     1      -8.982  10.423  69.540  1.00  0.00    -0.182 OA 
HETATM   18  H   UNL     1     -12.126  10.017  70.025  1.00  0.00     0.000 HD 
HETATM   19  N   UNL     1     -11.307  10.412  69.562  1.00  0.00    -0.256 N  
BRANCH  19  20
HETATM   20  C   UNL     1     -11.491  11.408  68.561  1.00  0.00    -0.297 A  
HETATM   21  C   UNL     1     -11.905  12.683  68.981  1.00  0.00    -0.294 A  
HETATM   22  C   UNL     1     -12.098  13.673  68.031  1.00  0.00    -0.274 A  
HETATM   23 CL   UNL     1     -12.223  13.030  70.642  1.00  0.00    -0.438 Cl 
HETATM   24  N   UNL     1     -11.887  13.495  66.708  1.00  0.00    -0.386 NA 
HETATM   25  C   UNL     1     -11.455  12.267  66.327  1.00  0.00    -0.380 A  
HETATM   26  C   UNL     1     -11.241  11.201  67.197  1.00  0.00    -0.249 A  
HETATM   27 CL   UNL     1     -10.531   9.765  66.564  1.00  0.00    -0.253 Cl 
ENDBRANCH  19  20
ENDBRANCH  10  16
ENDBRANCH   3   5
TORSDOF 6
ENDMDL
MODEL      165
REMARK 921   NORMALIZED FREE ENERGY PREDICTED BY IDOCK:   -4.06 KCAL/MOL
REMARK 922        TOTAL FREE ENERGY PREDICTED BY IDOCK:   -6.81 KCAL/MOL
REMARK 923 INTER-LIGAND FREE ENERGY PREDICTED BY IDOCK:   -5.49 KCAL/MOL
REMARK 924 INTRA-LIGAND FREE ENERGY PREDICTED BY IDOCK:   -1.32 KCAL/MOL
REMARK 927      BINDING AFFINITY PREDICTED BY RF-SCORE:    0.00 PKD
ROOT
HETATM    1  F   UNL     1      -9.056   8.785  66.118  1.00  0.00    -0.172 F  
HETATM    2  C   UNL     1     -10.311   9.023  66.575  1.00  0.00    -0.193 C  
HETATM    3  O   UNL     1     -10.223   9.485  67.912  1.00  0.00    -0.181 OA 
HETATM    4  F   UNL     1     -10.953   7.827  66.594  1.00  0.00    -0.368 F  
ENDROOT
BRANCH   3   5
HETATM    5  C   UNL     1     -10.140  10.846  68.053  1.00  0.00    -0.177 A  
HETATM    6  C   UNL     1      -8.876  11.370  68.389  1.00  0.00    -0.167 A  
HETATM    7  C   UNL     1     -11.070  13.082  68.047  1.00  0.00    -0.288 A  
HETATM    8  C   UNL     1      -8.724  12.749  68.575  1.00  0.00    -0.045 A  
HETATM    9  C   UNL     1     -11.223  11.709  67.850  1.00  0.00    -0.334 A  
HETATM   10  C   UNL     1      -9.830  13.600  68.434  1.00  0.00    -0.223 A  
BRANCH   6  11
HETATM   11  O   UNL     1      -7.861  10.455  68.494  1.00  0.00    -0.098 OA 
BRANCH  11  12
HETATM   12  C   UNL     1      -7.176  10.364  69.741  1.00  0.00    -0.154 C  
BRANCH  12  13
HETATM   13  C   UNL     1      -5.707  10.512  69.472  1.00  0.00    -0.039 C  
HETATM   14  C   UNL     1      -5.196  10.596  68.056  1.00  0.00    -0.036 C  
HETATM   15  C   UNL     1      -5.138  11.806  68.947  1.00  0.00    -0.050 C  
ENDBRANCH  12  13
ENDBRANCH  11  12
ENDBRANCH   6  11
BRANCH  10  16
HETATM   16  C   UNL     1      -9.727  15.055  68.748  1.00  0.00    -0.227 C  
HETATM   17  O   UNL     1     -10.329  15.513  69.710  1.00  0.00    -0.275 OA 
HETATM   18  H   UNL     1      -8.423  15.279  67.141  1.00  0.00     0.000 HD 
HETATM   19  N   UNL     1      -8.788  15.727  67.982  1.00  0.00    -0.175 N  
BRANCH  19  20
HETATM   20  C   UNL     1      -8.318  17.025  68.333  1.00  0.00    -0.241 A  
HETATM   21  C   UNL     1      -7.015  17.128  68.848  1.00  0.00    -0.232 A  
HETATM   22  C   UNL     1      -6.530  18.376  69.204  1.00  0.00    -0.260 A  
HETATM   23 CL   UNL     1      -6.026  15.734  69.090  1.00  0.00    -0.108 Cl 
HETATM   24  N   UNL     1      -7.233  19.522  69.063  1.00  0.00    -0.359 NA 
HETATM   25  C   UNL     1      -8.476  19.405  68.534  1.00  0.00    -0.362 A  
HETATM   26  C   UNL     1      -9.061  18.200  68.154  1.00  0.00    -0.290 A  
HETATM   27 CL   UNL     1     -10.580  18.255  67.343  1.00  0.00    -0.431 Cl 
ENDBRANCH  19  20
ENDBRANCH  10  16
ENDBRANCH   3   5
TORSDOF 6
ENDMDL
MODEL      166
REMARK 921   NORMALIZED FREE ENERGY PREDICTED BY IDOCK:   -4.06 KCAL/MOL
REMARK 922        TOTAL FREE ENERGY PREDICTED BY IDOCK:   -6.81 KCAL/MOL
REMARK 923 INTER-LIGAND FREE ENERGY PREDICTED BY IDOCK:   -5.75 KCAL/MOL
REMARK 924 INTRA-LIGAND FREE ENERGY PREDICTED BY IDOCK:   -1.05 KCAL/MOL
REMARK 927      BINDING AFFINITY PREDICTED BY RF-SCORE:    0.00 PKD
ROOT
HETATM    1  F   UNL     1      -7.116   4.943  63.727  1.00  0.00    -0.045 F  
HETATM    2  C   UNL     1      -7.748   4.595  64.875  1.00  0.00    -0.078 C  
HETATM    3  O   UNL     1      -7.279   5.431  65.919  1.00  0.00    -0.067 OA 
HETATM    4  F   UNL     1      -7.366   3.323  65.162  1.00  0.00    -0.065 F  
ENDROOT
BRANCH   3   5
HETATM    5  C   UNL     1      -8.003   6.578  66.116  1.00  0.00    -0.110 A  
HETATM    6  C   UNL     1      -8.713   6.675  67.329  1.00  0.00    -0.118 A  
HETATM    7  C   UNL     1      -8.827   8.756  65.455  1.00  0.00    -0.221 A  
HETATM    8  C   UNL     1      -9.495   7.807  67.586  1.00  0.00    -0.168 A  
HETATM    9  C   UNL     1      -8.037   7.635  65.199  1.00  0.00    -0.134 A  
HETATM   10  C   UNL     1      -9.576   8.833  66.633  1.00  0.00    -0.283 A  
BRANCH   6  11
HETATM   11  O   UNL     1      -8.559   5.624  68.195  1.00  0.00    -0.105 OA 
BRANCH  11  12
HETATM   12  C   UNL     1      -9.679   4.766  68.402  1.00  0.00    -0.146 C  
BRANCH  12  13
HETATM   13  C   UNL     1     -10.017   4.793  69.864  1.00  0.00    -0.306 C  
HETATM   14  C   UNL     1      -9.369   5.802  70.778  1.00  0.00    -0.189 C  
HETATM   15  C   UNL     1     -10.832   5.916  70.453  1.00  0.00    -0.378 C  
ENDBRANCH  12  13
ENDBRANCH  11  12
ENDBRANCH   6  11
BRANCH  10  16
HETATM   16  C   UNL     1     -10.499   9.990  66.823  1.00  0.00    -0.198 C  
HETATM   17  O   UNL     1     -11.243  10.020  67.794  1.00  0.00    -0.256 OA 
HETATM   18  H   UNL     1      -9.719  10.857  65.099  1.00  0.00     0.000 HD 
HETATM   19  N   UNL     1     -10.285  11.028  65.930  1.00  0.00    -0.247 N  
BRANCH  19  20
HETATM   20  C   UNL     1     -10.832  12.326  66.138  1.00  0.00    -0.279 A  
HETATM   21  C   UNL     1     -10.206  13.151  67.087  1.00  0.00    -0.244 A  
HETATM   22  C   UNL     1     -10.718  14.419  67.317  1.00  0.00    -0.285 A  
HETATM   23 CL   UNL     1      -8.847  12.608  68.003  1.00  0.00    -0.188 Cl 
HETATM   24  N   UNL     1     -11.783  14.928  66.660  1.00  0.00    -0.280 NA 
HETATM   25  C   UNL     1     -12.353  14.128  65.725  1.00  0.00    -0.461 A  
HETATM   26  C   UNL     1     -11.925  12.838  65.424  1.00  0.00    -0.436 A  
HETATM   27 CL   UNL     1     -12.657  12.028  64.091  1.00  0.00    -0.467 Cl 
ENDBRANCH  19  20
ENDBRANCH  10  16
ENDBRANCH   3   5
TORSDOF 6
ENDMDL
MODEL      167
REMARK 921   NORMALIZED FREE ENERGY PREDICTED BY IDOCK:   -4.05 KCAL/MOL
REMARK 922        TOTAL FREE ENERGY PREDICTED BY IDOCK:   -6.80 KCAL/MOL
REMARK 923 INTER-LIGAND FREE ENERGY PREDICTED BY IDOCK:   -5.54 KCAL/MOL
REMARK 924 INTRA-LIGAND FREE ENERGY PREDICTED BY IDOCK:   -1.26 KCAL/MOL
REMARK 927      BINDING AFFINITY PREDICTED BY RF-SCORE:    0.00 PKD
ROOT
HETATM    1  F   UNL     1      -9.836  15.491  68.757  1.00  0.00    -0.192 F  
HETATM    2  C   UNL     1     -10.445  15.063  67.624  1.00  0.00    -0.247 C  
HETATM    3  O   UNL     1      -9.456  14.551  66.747  1.00  0.00    -0.245 OA 
HETATM    4  F   UNL     1     -10.991  16.158  67.035  1.00  0.00    -0.320 F  
ENDROOT
BRANCH   3   5
HETATM    5  C   UNL     1      -9.209  13.208  66.870  1.00  0.00    -0.236 A  
HETATM    6  C   UNL     1      -9.429  12.418  65.724  1.00  0.00    -0.086 A  
HETATM    7  C   UNL     1      -8.536  11.236  68.104  1.00  0.00    -0.150 A  
HETATM    8  C   UNL     1      -9.221  11.036  65.784  1.00  0.00    -0.226 A  
HETATM    9  C   UNL     1      -8.731  12.617  68.045  1.00  0.00    -0.190 A  
HETATM   10  C   UNL     1      -8.806  10.442  66.986  1.00  0.00    -0.143 A  
BRANCH   6  11
HETATM   11  O   UNL     1      -9.825  13.096  64.601  1.00  0.00    -0.155 OA 
BRANCH  11  12
HETATM   12  C   UNL     1     -10.522  12.365  63.596  1.00  0.00    -0.426 C  
BRANCH  12  13
HETATM   13  C   UNL     1     -11.932  12.876  63.548  1.00  0.00    -0.629 C  
HETATM   14  C   UNL     1     -12.817  12.790  64.766  1.00  0.00    -0.374 C  
HETATM   15  C   UNL     1     -12.331  14.129  64.286  1.00  0.00    -0.398 C  
ENDBRANCH  12  13
ENDBRANCH  11  12
ENDBRANCH   6  11
BRANCH  10  16
HETATM   16  C   UNL     1      -8.698   8.960  67.116  1.00  0.00    -0.120 C  
HETATM   17  O   UNL     1      -7.943   8.339  66.381  1.00  0.00    -0.093 OA 
HETATM   18  H   UNL     1     -10.054   9.029  68.693  1.00  0.00     0.000 HD 
HETATM   19  N   UNL     1      -9.372   8.444  68.212  1.00  0.00    -0.135 N  
BRANCH  19  20
HETATM   20  C   UNL     1      -9.137   7.122  68.687  1.00  0.00    -0.133 A  
HETATM   21  C   UNL     1      -8.371   6.976  69.855  1.00  0.00    -0.139 A  
HETATM   22  C   UNL     1      -8.121   5.702  70.340  1.00  0.00    -0.105 A  
HETATM   23 CL   UNL     1      -7.696   8.340  70.670  1.00  0.00    -0.079 Cl 
HETATM   24  N   UNL     1      -8.595   4.575  69.765  1.00  0.00    -0.069 NA 
HETATM   25  C   UNL     1      -9.360   4.739  68.658  1.00  0.00    -0.137 A  
HETATM   26  C   UNL     1      -9.662   5.971  68.083  1.00  0.00    -0.127 A  
HETATM   27 CL   UNL     1     -10.787   6.005  66.778  1.00  0.00    -0.385 Cl 
ENDBRANCH  19  20
ENDBRANCH  10  16
ENDBRANCH   3   5
TORSDOF 6
ENDMDL
MODEL      168
REMARK 921   NORMALIZED FREE ENERGY PREDICTED BY IDOCK:   -4.04 KCAL/MOL
REMARK 922        TOTAL FREE ENERGY PREDICTED BY IDOCK:   -6.78 KCAL/MOL
REMARK 923 INTER-LIGAND FREE ENERGY PREDICTED BY IDOCK:   -5.61 KCAL/MOL
REMARK 924 INTRA-LIGAND FREE ENERGY PREDICTED BY IDOCK:   -1.17 KCAL/MOL
REMARK 927      BINDING AFFINITY PREDICTED BY RF-SCORE:    0.00 PKD
ROOT
HETATM    1  F   UNL     1      -8.965   3.362  72.978  1.00  0.00    -0.086 F  
HETATM    2  C   UNL     1     -10.184   3.939  73.123  1.00  0.00    -0.156 C  
HETATM    3  O   UNL     1     -10.032   5.344  73.017  1.00  0.00    -0.163 OA 
HETATM    4  F   UNL     1     -10.600   3.662  74.385  1.00  0.00    -0.217 F  
ENDROOT
BRANCH   3   5
HETATM    5  C   UNL     1     -10.175   5.852  71.752  1.00  0.00    -0.203 A  
HETATM    6  C   UNL     1      -8.999   6.292  71.112  1.00  0.00    -0.146 A  
HETATM    7  C   UNL     1     -11.474   6.482  69.808  1.00  0.00    -0.443 A  
HETATM    8  C   UNL     1      -9.074   6.846  69.829  1.00  0.00    -0.144 A  
HETATM    9  C   UNL     1     -11.402   5.918  71.083  1.00  0.00    -0.230 A  
HETATM   10  C   UNL     1     -10.318   6.969  69.192  1.00  0.00    -0.209 A  
BRANCH   6  11
HETATM   11  O   UNL     1      -7.837   6.119  71.818  1.00  0.00    -0.100 OA 
BRANCH  11  12
HETATM   12  C   UNL     1      -6.852   7.145  71.735  1.00  0.00    -0.059 C  
BRANCH  12  13
HETATM   13  C   UNL     1      -6.635   7.689  73.116  1.00  0.00    -0.070 C  
HETATM   14  C   UNL     1      -7.792   8.242  73.909  1.00  0.00    -0.245 C  
HETATM   15  C   UNL     1      -7.143   6.954  74.331  1.00  0.00    -0.091 C  
ENDBRANCH  12  13
ENDBRANCH  11  12
ENDBRANCH   6  11
BRANCH  10  16
HETATM   16  C   UNL     1     -10.444   7.669  67.880  1.00  0.00    -0.207 C  
HETATM   17  O   UNL     1     -11.064   7.141  66.967  1.00  0.00    -0.345 OA 
HETATM   18  H   UNL     1      -9.375   9.273  68.666  1.00  0.00     0.000 HD 
HETATM   19  N   UNL     1      -9.966   8.970  67.892  1.00  0.00    -0.168 N  
BRANCH  19  20
HETATM   20  C   UNL     1     -10.277   9.896  66.855  1.00  0.00    -0.240 A  
HETATM   21  C   UNL     1     -11.097  10.988  67.183  1.00  0.00    -0.267 A  
HETATM   22  C   UNL     1     -11.421  11.905  66.195  1.00  0.00    -0.288 A  
HETATM   23 CL   UNL     1     -11.746  11.189  68.770  1.00  0.00    -0.378 Cl 
HETATM   24  N   UNL     1     -10.973  11.827  64.923  1.00  0.00    -0.304 NA 
HETATM   25  C   UNL     1     -10.155  10.784  64.635  1.00  0.00    -0.344 A  
HETATM   26  C   UNL     1      -9.777   9.803  65.549  1.00  0.00    -0.312 A  
HETATM   27 CL   UNL     1      -8.598   8.646  65.058  1.00  0.00    -0.200 Cl 
ENDBRANCH  19  20
ENDBRANCH  10  16
ENDBRANCH   3   5
TORSDOF 6
ENDMDL
MODEL      169
REMARK 921   NORMALIZED FREE ENERGY PREDICTED BY IDOCK:   -4.04 KCAL/MOL
REMARK 922        TOTAL FREE ENERGY PREDICTED BY IDOCK:   -6.78 KCAL/MOL
REMARK 923 INTER-LIGAND FREE ENERGY PREDICTED BY IDOCK:   -5.69 KCAL/MOL
REMARK 924 INTRA-LIGAND FREE ENERGY PREDICTED BY IDOCK:   -1.09 KCAL/MOL
REMARK 927      BINDING AFFINITY PREDICTED BY RF-SCORE:    0.00 PKD
ROOT
HETATM    1  F   UNL     1      -9.024   7.908  67.192  1.00  0.00    -0.122 F  
HETATM    2  C   UNL     1     -10.233   8.475  66.958  1.00  0.00    -0.301 C  
HETATM    3  O   UNL     1     -10.552   9.323  68.048  1.00  0.00    -0.228 OA 
HETATM    4  F   UNL     1     -11.141   7.466  66.941  1.00  0.00    -0.435 F  
ENDROOT
BRANCH   3   5
HETATM    5  C   UNL     1     -10.149  10.626  67.910  1.00  0.00    -0.168 A  
HETATM    6  C   UNL     1     -10.997  11.609  68.457  1.00  0.00    -0.220 A  
HETATM    7  C   UNL     1      -8.626  12.351  67.157  1.00  0.00    -0.189 A  
HETATM    8  C   UNL     1     -10.662  12.962  68.330  1.00  0.00    -0.273 A  
HETATM    9  C   UNL     1      -8.951  11.000  67.292  1.00  0.00    -0.138 A  
HETATM   10  C   UNL     1      -9.491  13.332  67.651  1.00  0.00    -0.211 A  
BRANCH   6  11
HETATM   11  O   UNL     1     -12.109  11.142  69.107  1.00  0.00    -0.348 OA 
BRANCH  11  12
HETATM   12  C   UNL     1     -12.151  11.271  70.526  1.00  0.00    -0.387 C  
BRANCH  12  13
HETATM   13  C   UNL     1     -13.153  12.336  70.864  1.00  0.00     0.084 C  
HETATM   14  C   UNL     1     -13.535  12.597  72.299  1.00  0.00    -0.541 C  
HETATM   15  C   UNL     1     -12.731  13.616  71.540  1.00  0.00    -0.420 C  
ENDBRANCH  12  13
ENDBRANCH  11  12
ENDBRANCH   6  11
BRANCH  10  16
HETATM   16  C   UNL     1      -9.173  14.767  67.390  1.00  0.00    -0.196 C  
HETATM   17  O   UNL     1      -8.138  15.063  66.809  1.00  0.00    -0.182 OA 
HETATM   18  H   UNL     1     -10.980  15.298  68.277  1.00  0.00     0.000 HD 
HETATM   19  N   UNL     1     -10.208  15.634  67.701  1.00  0.00    -0.256 N  
BRANCH  19  20
HETATM   20  C   UNL     1     -10.226  16.981  67.240  1.00  0.00    -0.310 A  
HETATM   21  C   UNL     1     -10.753  17.224  65.961  1.00  0.00    -0.110 A  
HETATM   22  C   UNL     1     -10.780  18.524  65.481  1.00  0.00     0.074 A  
HETATM   23 CL   UNL     1     -11.321  15.939  64.958  1.00  0.00    -0.246 Cl 
HETATM   24  N   UNL     1     -10.347  19.592  66.185  1.00  0.00    -0.493 NA 
HETATM   25  C   UNL     1      -9.873  19.342  67.431  1.00  0.00    -0.336 A  
HETATM   26  C   UNL     1      -9.792  18.075  68.003  1.00  0.00    -0.323 A  
HETATM   27 CL   UNL     1      -9.323  17.958  69.657  1.00  0.00     0.585 Cl 
ENDBRANCH  19  20
ENDBRANCH  10  16
ENDBRANCH   3   5
TORSDOF 6
ENDMDL
MODEL      170
REMARK 921   NORMALIZED FREE ENERGY PREDICTED BY IDOCK:   -4.00 KCAL/MOL
REMARK 922        TOTAL FREE ENERGY PREDICTED BY IDOCK:   -6.73 KCAL/MOL
REMARK 923 INTER-LIGAND FREE ENERGY PREDICTED BY IDOCK:   -5.54 KCAL/MOL
REMARK 924 INTRA-LIGAND FREE ENERGY PREDICTED BY IDOCK:   -1.19 KCAL/MOL
REMARK 927      BINDING AFFINITY PREDICTED BY RF-SCORE:    0.00 PKD
ROOT
HETATM    1  F   UNL     1     -11.059   6.304  66.868  1.00  0.00    -0.379 F  
HETATM    2  C   UNL     1     -11.028   6.813  68.124  1.00  0.00    -0.201 C  
HETATM    3  O   UNL     1      -9.766   7.424  68.332  1.00  0.00    -0.149 OA 
HETATM    4  F   UNL     1     -11.121   5.759  68.975  1.00  0.00    -0.369 F  
ENDROOT
BRANCH   3   5
HETATM    5  C   UNL     1      -9.707   8.757  68.017  1.00  0.00    -0.157 A  
HETATM    6  C   UNL     1      -8.435   9.273  67.698  1.00  0.00    -0.116 A  
HETATM    7  C   UNL     1     -10.685  10.946  67.678  1.00  0.00    -0.288 A  
HETATM    8  C   UNL     1      -8.295  10.632  67.391  1.00  0.00    -0.119 A  
HETATM    9  C   UNL     1     -10.830   9.589  67.972  1.00  0.00    -0.225 A  
HETATM   10  C   UNL     1      -9.418  11.473  67.414  1.00  0.00    -0.171 A  
BRANCH   6  11
HETATM   11  O   UNL     1      -7.407   8.367  67.696  1.00  0.00    -0.089 OA 
BRANCH  11  12
HETATM   12  C   UNL     1      -6.249   8.676  68.467  1.00  0.00    -0.053 C  
BRANCH  12  13
HETATM   13  C   UNL     1      -6.669   8.797  69.902  1.00  0.00    -0.045 C  
HETATM   14  C   UNL     1      -5.634   8.849  70.998  1.00  0.00    -0.037 C  
HETATM   15  C   UNL     1      -6.444  10.073  70.674  1.00  0.00    -0.098 C  
ENDBRANCH  12  13
ENDBRANCH  11  12
ENDBRANCH   6  11
BRANCH  10  16
HETATM   16  C   UNL     1      -9.280  12.946  67.216  1.00  0.00    -0.208 C  
HETATM   17  O   UNL     1      -8.182  13.426  66.969  1.00  0.00    -0.142 OA 
HETATM   18  H   UNL     1     -11.334  13.145  67.492  1.00  0.00     0.000 HD 
HETATM   19  N   UNL     1     -10.491  13.619  67.168  1.00  0.00    -0.263 N  
BRANCH  19  20
HETATM   20  C   UNL     1     -10.592  14.953  66.680  1.00  0.00    -0.305 A  
HETATM   21  C   UNL     1     -10.831  15.127  65.307  1.00  0.00    -0.400 A  
HETATM   22  C   UNL     1     -10.930  16.413  64.800  1.00  0.00    -0.231 A  
HETATM   23 CL   UNL     1     -10.956  13.781  64.233  1.00  0.00    -0.337 Cl 
HETATM   24  N   UNL     1     -10.834  17.527  65.557  1.00  0.00    -0.414 NA 
HETATM   25  C   UNL     1     -10.637  17.338  66.886  1.00  0.00    -0.213 A  
HETATM   26  C   UNL     1     -10.513  16.091  67.495  1.00  0.00    -0.297 A  
HETATM   27 CL   UNL     1     -10.436  16.031  69.215  1.00  0.00    -0.237 Cl 
ENDBRANCH  19  20
ENDBRANCH  10  16
ENDBRANCH   3   5
TORSDOF 6
ENDMDL
MODEL      171
REMARK 921   NORMALIZED FREE ENERGY PREDICTED BY IDOCK:   -3.99 KCAL/MOL
REMARK 922        TOTAL FREE ENERGY PREDICTED BY IDOCK:   -6.71 KCAL/MOL
REMARK 923 INTER-LIGAND FREE ENERGY PREDICTED BY IDOCK:   -5.69 KCAL/MOL
REMARK 924 INTRA-LIGAND FREE ENERGY PREDICTED BY IDOCK:   -1.02 KCAL/MOL
REMARK 927      BINDING AFFINITY PREDICTED BY RF-SCORE:    0.00 PKD
ROOT
HETATM    1  F   UNL     1     -12.441  15.345  72.391  1.00  0.00    -0.351 F  
HETATM    2  C   UNL     1     -13.323  14.819  71.505  1.00  0.00    -0.374 C  
HETATM    3  O   UNL     1     -12.710  14.785  70.227  1.00  0.00    -0.334 OA 
HETATM    4  F   UNL     1     -14.371  15.679  71.437  1.00  0.00    -0.531 F  
ENDROOT
BRANCH   3   5
HETATM    5  C   UNL     1     -12.042  13.624  69.933  1.00  0.00    -0.341 A  
HETATM    6  C   UNL     1     -10.926  13.738  69.081  1.00  0.00    -0.208 A  
HETATM    7  C   UNL     1     -11.692  11.233  70.079  1.00  0.00    -0.428 A  
HETATM    8  C   UNL     1     -10.212  12.590  68.716  1.00  0.00    -0.101 A  
HETATM    9  C   UNL     1     -12.399  12.376  70.455  1.00  0.00    -0.307 A  
HETATM   10  C   UNL     1     -10.617  11.334  69.192  1.00  0.00    -0.222 A  
BRANCH   6  11
HETATM   11  O   UNL     1     -10.609  15.010  68.680  1.00  0.00    -0.225 OA 
BRANCH  11  12
HETATM   12  C   UNL     1      -9.605  15.706  69.415  1.00  0.00    -0.287 C  
BRANCH  12  13
HETATM   13  C   UNL     1      -8.277  15.398  68.786  1.00  0.00    -0.172 C  
HETATM   14  C   UNL     1      -7.221  16.468  68.671  1.00  0.00    -0.186 C  
HETATM   15  C   UNL     1      -7.022  15.318  69.619  1.00  0.00    -0.188 C  
ENDBRANCH  12  13
ENDBRANCH  11  12
ENDBRANCH   6  11
BRANCH  10  16
HETATM   16  C   UNL     1      -9.955  10.082  68.721  1.00  0.00    -0.172 C  
HETATM   17  O   UNL     1     -10.569   9.025  68.744  1.00  0.00    -0.217 OA 
HETATM   18  H   UNL     1      -8.255  11.191  68.258  1.00  0.00     0.000 HD 
HETATM   19  N   UNL     1      -8.719  10.293  68.129  1.00  0.00    -0.122 N  
BRANCH  19  20
HETATM   20  C   UNL     1      -8.080   9.290  67.345  1.00  0.00    -0.110 A  
HETATM   21  C   UNL     1      -7.053   8.547  67.952  1.00  0.00    -0.086 A  
HETATM   22  C   UNL     1      -6.408   7.567  67.214  1.00  0.00    -0.053 A  
HETATM   23 CL   UNL     1      -6.548   8.858  69.573  1.00  0.00    -0.043 Cl 
HETATM   24  N   UNL     1      -6.723   7.260  65.937  1.00  0.00    -0.052 NA 
HETATM   25  C   UNL     1      -7.739   7.965  65.381  1.00  0.00    -0.097 A  
HETATM   26  C   UNL     1      -8.445   8.976  66.029  1.00  0.00    -0.130 A  
HETATM   27 CL   UNL     1      -9.815   9.651  65.231  1.00  0.00    -0.351 Cl 
ENDBRANCH  19  20
ENDBRANCH  10  16
ENDBRANCH   3   5
TORSDOF 6
ENDMDL
MODEL      172
REMARK 921   NORMALIZED FREE ENERGY PREDICTED BY IDOCK:   -3.98 KCAL/MOL
REMARK 922        TOTAL FREE ENERGY PREDICTED BY IDOCK:   -6.70 KCAL/MOL
REMARK 923 INTER-LIGAND FREE ENERGY PREDICTED BY IDOCK:   -5.94 KCAL/MOL
REMARK 924 INTRA-LIGAND FREE ENERGY PREDICTED BY IDOCK:   -0.77 KCAL/MOL
REMARK 927      BINDING AFFINITY PREDICTED BY RF-SCORE:    0.00 PKD
ROOT
HETATM    1  F   UNL     1      -6.455   7.755  71.968  1.00  0.00    -0.041 F  
HETATM    2  C   UNL     1      -7.131   6.893  71.167  1.00  0.00    -0.075 C  
HETATM    3  O   UNL     1      -8.514   7.002  71.457  1.00  0.00    -0.116 OA 
HETATM    4  F   UNL     1      -6.733   5.643  71.515  1.00  0.00    -0.049 F  
ENDROOT
BRANCH   3   5
HETATM    5  C   UNL     1      -9.198   7.914  70.697  1.00  0.00    -0.157 A  
HETATM    6  C   UNL     1      -9.532   7.519  69.386  1.00  0.00    -0.155 A  
HETATM    7  C   UNL     1     -10.254  10.061  70.323  1.00  0.00    -0.266 A  
HETATM    8  C   UNL     1     -10.208   8.410  68.544  1.00  0.00    -0.228 A  
HETATM    9  C   UNL     1      -9.591   9.171  71.170  1.00  0.00    -0.347 A  
HETATM   10  C   UNL     1     -10.540   9.693  69.005  1.00  0.00    -0.237 A  
BRANCH   6  11
HETATM   11  O   UNL     1      -9.171   6.244  69.038  1.00  0.00    -0.128 OA 
BRANCH  11  12
HETATM   12  C   UNL     1     -10.207   5.341  68.659  1.00  0.00    -0.153 C  
BRANCH  12  13
HETATM   13  C   UNL     1      -9.867   4.790  67.306  1.00  0.00    -0.218 C  
HETATM   14  C   UNL     1     -10.384   5.460  66.058  1.00  0.00    -0.118 C  
HETATM   15  C   UNL     1      -8.918   5.516  66.386  1.00  0.00    -0.131 C  
ENDBRANCH  12  13
ENDBRANCH  11  12
ENDBRANCH   6  11
BRANCH  10  16
HETATM   16  C   UNL     1     -11.146  10.706  68.093  1.00  0.00    -0.285 C  
HETATM   17  O   UNL     1     -12.270  11.132  68.319  1.00  0.00    -0.613 OA 
HETATM   18  H   UNL     1      -9.392  10.702  66.971  1.00  0.00     0.000 HD 
HETATM   19  N   UNL     1     -10.266  11.199  67.141  1.00  0.00    -0.194 N  
BRANCH  19  20
HETATM   20  C   UNL     1     -10.547  12.378  66.395  1.00  0.00    -0.244 A  
HETATM   21  C   UNL     1     -10.768  12.237  65.014  1.00  0.00    -0.298 A  
HETATM   22  C   UNL     1     -11.039  13.367  64.258  1.00  0.00    -0.373 A  
HETATM   23 CL   UNL     1     -10.661  10.701  64.234  1.00  0.00    -0.253 Cl 
HETATM   24  N   UNL     1     -11.131  14.611  64.776  1.00  0.00    -0.391 NA 
HETATM   25  C   UNL     1     -10.949  14.722  66.115  1.00  0.00    -0.332 A  
HETATM   26  C   UNL     1     -10.661  13.655  66.963  1.00  0.00    -0.274 A  
HETATM   27 CL   UNL     1     -10.627  13.951  68.660  1.00  0.00    -0.258 Cl 
ENDBRANCH  19  20
ENDBRANCH  10  16
ENDBRANCH   3   5
TORSDOF 6
ENDMDL
MODEL      173
REMARK 921   NORMALIZED FREE ENERGY PREDICTED BY IDOCK:   -3.94 KCAL/MOL
REMARK 922        TOTAL FREE ENERGY PREDICTED BY IDOCK:   -6.65 KCAL/MOL
REMARK 923 INTER-LIGAND FREE ENERGY PREDICTED BY IDOCK:   -5.72 KCAL/MOL
REMARK 924 INTRA-LIGAND FREE ENERGY PREDICTED BY IDOCK:   -0.93 KCAL/MOL
REMARK 927      BINDING AFFINITY PREDICTED BY RF-SCORE:    0.00 PKD
ROOT
HETATM    1  F   UNL     1     -11.400   8.618  67.376  1.00  0.00    -0.014 F  
HETATM    2  C   UNL     1     -10.180   8.977  66.907  1.00  0.00    -0.269 C  
HETATM    3  O   UNL     1     -10.355   9.968  65.909  1.00  0.00    -0.225 OA 
HETATM    4  F   UNL     1      -9.651   7.878  66.310  1.00  0.00    -0.242 F  
ENDROOT
BRANCH   3   5
HETATM    5  C   UNL     1     -10.329  11.262  66.362  1.00  0.00    -0.245 A  
HETATM    6  C   UNL     1      -9.089  11.928  66.296  1.00  0.00    -0.188 A  
HETATM    7  C   UNL     1     -11.346  13.239  67.319  1.00  0.00    -0.347 A  
HETATM    8  C   UNL     1      -8.983  13.243  66.765  1.00  0.00    -0.183 A  
HETATM    9  C   UNL     1     -11.459  11.932  66.841  1.00  0.00    -0.390 A  
HETATM   10  C   UNL     1     -10.107  13.885  67.306  1.00  0.00    -0.242 A  
BRANCH   6  11
HETATM   11  O   UNL     1      -8.058  11.215  65.742  1.00  0.00    -0.098 OA 
BRANCH  11  12
HETATM   12  C   UNL     1      -7.166  10.543  66.628  1.00  0.00    -0.119 C  
BRANCH  12  13
HETATM   13  C   UNL     1      -6.577   9.376  65.892  1.00  0.00    -0.076 C  
HETATM   14  C   UNL     1      -7.189   8.902  64.598  1.00  0.00    -0.096 C  
HETATM   15  C   UNL     1      -5.841   9.568  64.590  1.00  0.00    -0.073 C  
ENDBRANCH  12  13
ENDBRANCH  11  12
ENDBRANCH   6  11
BRANCH  10  16
HETATM   16  C   UNL     1      -9.995  15.237  67.928  1.00  0.00    -0.228 C  
HETATM   17  O   UNL     1     -10.440  15.427  69.052  1.00  0.00    -0.229 OA 
HETATM   18  H   UNL     1      -8.989  15.902  66.231  1.00  0.00     0.000 HD 
HETATM   19  N   UNL     1      -9.220  16.125  67.199  1.00  0.00    -0.204 N  
BRANCH  19  20
HETATM   20  C   UNL     1      -8.737  17.341  67.763  1.00  0.00    -0.226 A  
HETATM   21  C   UNL     1      -7.617  17.266  68.607  1.00  0.00    -0.260 A  
HETATM   22  C   UNL     1      -7.125  18.430  69.176  1.00  0.00    -0.200 A  
HETATM   23 CL   UNL     1      -6.871  15.756  68.990  1.00  0.00    -0.137 Cl 
HETATM   24  N   UNL     1      -7.647  19.655  68.947  1.00  0.00    -0.342 NA 
HETATM   25  C   UNL     1      -8.706  19.710  68.103  1.00  0.00    -0.312 A  
HETATM   26  C   UNL     1      -9.284  18.602  67.488  1.00  0.00    -0.279 A  
HETATM   27 CL   UNL     1     -10.516  18.872  66.315  1.00  0.00    -0.495 Cl 
ENDBRANCH  19  20
ENDBRANCH  10  16
ENDBRANCH   3   5
TORSDOF 6
ENDMDL
MODEL      174
REMARK 921   NORMALIZED FREE ENERGY PREDICTED BY IDOCK:   -3.94 KCAL/MOL
REMARK 922        TOTAL FREE ENERGY PREDICTED BY IDOCK:   -6.65 KCAL/MOL
REMARK 923 INTER-LIGAND FREE ENERGY PREDICTED BY IDOCK:   -5.58 KCAL/MOL
REMARK 924 INTRA-LIGAND FREE ENERGY PREDICTED BY IDOCK:   -1.07 KCAL/MOL
REMARK 927      BINDING AFFINITY PREDICTED BY RF-SCORE:    0.00 PKD
ROOT
HETATM    1  F   UNL     1     -10.365   4.985  67.623  1.00  0.00    -0.212 F  
HETATM    2  C   UNL     1     -10.556   5.886  68.619  1.00  0.00    -0.256 C  
HETATM    3  O   UNL     1      -9.401   6.703  68.714  1.00  0.00    -0.132 OA 
HETATM    4  F   UNL     1     -10.657   5.178  69.773  1.00  0.00    -0.342 F  
ENDROOT
BRANCH   3   5
HETATM    5  C   UNL     1      -9.433   7.846  67.959  1.00  0.00    -0.149 A  
HETATM    6  C   UNL     1      -8.198   8.306  67.458  1.00  0.00    -0.122 A  
HETATM    7  C   UNL     1     -10.559   9.712  66.905  1.00  0.00    -0.241 A  
HETATM    8  C   UNL     1      -8.152   9.482  66.701  1.00  0.00    -0.108 A  
HETATM    9  C   UNL     1     -10.612   8.533  67.651  1.00  0.00    -0.268 A  
HETATM   10  C   UNL     1      -9.330  10.201  66.452  1.00  0.00    -0.209 A  
BRANCH   6  11
HETATM   11  O   UNL     1      -7.110   7.526  67.751  1.00  0.00    -0.080 OA 
BRANCH  11  12
HETATM   12  C   UNL     1      -6.008   7.559  66.846  1.00  0.00    -0.046 C  
BRANCH  12  13
HETATM   13  C   UNL     1      -5.752   6.156  66.380  1.00  0.00    -0.017 C  
HETATM   14  C   UNL     1      -6.552   5.008  66.941  1.00  0.00    -0.050 C  
HETATM   15  C   UNL     1      -6.748   5.430  65.512  1.00  0.00    -0.041 C  
ENDBRANCH  12  13
ENDBRANCH  11  12
ENDBRANCH   6  11
BRANCH  10  16
HETATM   16  C   UNL     1      -9.295  11.521  65.757  1.00  0.00    -0.221 C  
HETATM   17  O   UNL     1      -8.945  11.582  64.586  1.00  0.00     0.049 OA 
HETATM   18  H   UNL     1     -10.005  12.421  67.495  1.00  0.00     0.000 HD 
HETATM   19  N   UNL     1      -9.844  12.557  66.497  1.00  0.00    -0.240 N  
BRANCH  19  20
HETATM   20  C   UNL     1     -10.189  13.805  65.904  1.00  0.00    -0.313 A  
HETATM   21  C   UNL     1     -11.328  13.842  65.083  1.00  0.00    -0.311 A  
HETATM   22  C   UNL     1     -11.688  15.040  64.487  1.00  0.00    -0.368 A  
HETATM   23 CL   UNL     1     -12.259  12.424  64.763  1.00  0.00    -0.498 Cl 
HETATM   24  N   UNL     1     -11.017  16.199  64.667  1.00  0.00    -0.661 NA 
HETATM   25  C   UNL     1      -9.940  16.150  65.490  1.00  0.00    -0.216 A  
HETATM   26  C   UNL     1      -9.487  14.998  66.128  1.00  0.00    -0.313 A  
HETATM   27 CL   UNL     1      -8.206  15.151  67.270  1.00  0.00    -0.215 Cl 
ENDBRANCH  19  20
ENDBRANCH  10  16
ENDBRANCH   3   5
TORSDOF 6
ENDMDL
MODEL      175
REMARK 921   NORMALIZED FREE ENERGY PREDICTED BY IDOCK:   -3.93 KCAL/MOL
REMARK 922        TOTAL FREE ENERGY PREDICTED BY IDOCK:   -6.63 KCAL/MOL
REMARK 923 INTER-LIGAND FREE ENERGY PREDICTED BY IDOCK:   -5.38 KCAL/MOL
REMARK 924 INTRA-LIGAND FREE ENERGY PREDICTED BY IDOCK:   -1.25 KCAL/MOL
REMARK 927      BINDING AFFINITY PREDICTED BY RF-SCORE:    0.00 PKD
ROOT
HETATM    1  F   UNL     1      -9.598   4.496  64.898  1.00  0.00    -0.155 F  
HETATM    2  C   UNL     1      -9.358   4.655  66.224  1.00  0.00    -0.151 C  
HETATM    3  O   UNL     1      -8.492   5.764  66.394  1.00  0.00    -0.117 OA 
HETATM    4  F   UNL     1      -8.694   3.546  66.637  1.00  0.00    -0.105 F  
ENDROOT
BRANCH   3   5
HETATM    5  C   UNL     1      -9.119   6.970  66.577  1.00  0.00    -0.156 A  
HETATM    6  C   UNL     1      -8.669   8.042  65.780  1.00  0.00    -0.146 A  
HETATM    7  C   UNL     1     -10.740   8.427  67.630  1.00  0.00    -0.191 A  
HETATM    8  C   UNL     1      -9.246   9.308  65.932  1.00  0.00    -0.277 A  
HETATM    9  C   UNL     1     -10.175   7.160  67.474  1.00  0.00    -0.272 A  
HETATM   10  C   UNL     1     -10.260   9.505  66.881  1.00  0.00    -0.317 A  
BRANCH   6  11
HETATM   11  O   UNL     1      -7.682   7.741  64.879  1.00  0.00    -0.095 OA 
BRANCH  11  12
HETATM   12  C   UNL     1      -7.874   8.145  63.525  1.00  0.00    -0.152 C  
BRANCH  12  13
HETATM   13  C   UNL     1      -7.154   7.165  62.645  1.00  0.00    -0.067 C  
HETATM   14  C   UNL     1      -6.379   6.022  63.250  1.00  0.00    -0.025 C  
HETATM   15  C   UNL     1      -7.647   5.749  62.491  1.00  0.00    -0.069 C  
ENDBRANCH  12  13
ENDBRANCH  11  12
ENDBRANCH   6  11
BRANCH  10  16
HETATM   16  C   UNL     1     -10.805  10.868  67.153  1.00  0.00    -0.280 C  
HETATM   17  O   UNL     1     -11.785  11.264  66.538  1.00  0.00    -0.323 OA 
HETATM   18  H   UNL     1      -9.340  11.130  68.609  1.00  0.00     0.000 HD 
HETATM   19  N   UNL     1     -10.215  11.499  68.238  1.00  0.00    -0.190 N  
BRANCH  19  20
HETATM   20  C   UNL     1     -10.796  12.648  68.847  1.00  0.00    -0.197 A  
HETATM   21  C   UNL     1     -10.484  13.903  68.297  1.00  0.00    -0.250 A  
HETATM   22  C   UNL     1     -11.029  15.041  68.871  1.00  0.00    -0.252 A  
HETATM   23 CL   UNL     1      -9.405  14.062  66.960  1.00  0.00    -0.243 Cl 
HETATM   24  N   UNL     1     -11.873  15.019  69.925  1.00  0.00    -0.303 NA 
HETATM   25  C   UNL     1     -12.188  13.796  70.420  1.00  0.00    -0.363 A  
HETATM   26  C   UNL     1     -11.688  12.593  69.927  1.00  0.00    -0.250 A  
HETATM   27 CL   UNL     1     -12.325  11.125  70.565  1.00  0.00    -0.438 Cl 
ENDBRANCH  19  20
ENDBRANCH  10  16
ENDBRANCH   3   5
TORSDOF 6
ENDMDL
MODEL      176
REMARK 921   NORMALIZED FREE ENERGY PREDICTED BY IDOCK:   -3.92 KCAL/MOL
REMARK 922        TOTAL FREE ENERGY PREDICTED BY IDOCK:   -6.62 KCAL/MOL
REMARK 923 INTER-LIGAND FREE ENERGY PREDICTED BY IDOCK:   -5.57 KCAL/MOL
REMARK 924 INTRA-LIGAND FREE ENERGY PREDICTED BY IDOCK:   -1.05 KCAL/MOL
REMARK 927      BINDING AFFINITY PREDICTED BY RF-SCORE:    0.00 PKD
ROOT
HETATM    1  F   UNL     1      -7.897   4.699  62.853  1.00  0.00    -0.060 F  
HETATM    2  C   UNL     1      -8.681   4.550  63.949  1.00  0.00    -0.139 C  
HETATM    3  O   UNL     1      -8.001   5.096  65.066  1.00  0.00    -0.095 OA 
HETATM    4  F   UNL     1      -8.812   3.215  64.157  1.00  0.00    -0.095 F  
ENDROOT
BRANCH   3   5
HETATM    5  C   UNL     1      -8.263   6.418  65.319  1.00  0.00    -0.137 A  
HETATM    6  C   UNL     1      -8.840   6.719  66.569  1.00  0.00    -0.143 A  
HETATM    7  C   UNL     1      -8.290   8.767  64.736  1.00  0.00    -0.177 A  
HETATM    8  C   UNL     1      -9.158   8.045  66.884  1.00  0.00    -0.182 A  
HETATM    9  C   UNL     1      -7.959   7.448  64.422  1.00  0.00    -0.109 A  
HETATM   10  C   UNL     1      -8.911   9.064  65.952  1.00  0.00    -0.233 A  
BRANCH   6  11
HETATM   11  O   UNL     1      -9.032   5.653  67.408  1.00  0.00    -0.110 OA 
BRANCH  11  12
HETATM   12  C   UNL     1     -10.019   5.781  68.428  1.00  0.00    -0.153 C  
BRANCH  12  13
HETATM   13  C   UNL     1      -9.401   5.352  69.726  1.00  0.00    -0.186 C  
HETATM   14  C   UNL     1      -9.782   4.036  70.355  1.00  0.00    -0.263 C  
HETATM   15  C   UNL     1      -8.407   4.219  69.777  1.00  0.00    -0.077 C  
ENDBRANCH  12  13
ENDBRANCH  11  12
ENDBRANCH   6  11
BRANCH  10  16
HETATM   16  C   UNL     1      -9.355  10.466  66.208  1.00  0.00    -0.166 C  
HETATM   17  O   UNL     1      -8.522  11.338  66.413  1.00  0.00    -0.167 OA 
HETATM   18  H   UNL     1     -11.329   9.856  65.952  1.00  0.00     0.000 HD 
HETATM   19  N   UNL     1     -10.713  10.666  66.014  1.00  0.00    -0.118 N  
BRANCH  19  20
HETATM   20  C   UNL     1     -11.272  11.971  65.899  1.00  0.00    -0.337 A  
HETATM   21  C   UNL     1     -11.383  12.520  64.611  1.00  0.00    -0.318 A  
HETATM   22  C   UNL     1     -11.919  13.790  64.466  1.00  0.00    -0.427 A  
HETATM   23 CL   UNL     1     -10.826  11.671  63.215  1.00  0.00    -0.414 Cl 
HETATM   24  N   UNL     1     -12.370  14.536  65.498  1.00  0.00    -0.316 NA 
HETATM   25  C   UNL     1     -12.285  13.975  66.730  1.00  0.00    -0.404 A  
HETATM   26  C   UNL     1     -11.755  12.713  66.986  1.00  0.00    -0.369 A  
HETATM   27 CL   UNL     1     -11.880  12.089  68.587  1.00  0.00    -0.372 Cl 
ENDBRANCH  19  20
ENDBRANCH  10  16
ENDBRANCH   3   5
TORSDOF 6
ENDMDL
MODEL      177
REMARK 921   NORMALIZED FREE ENERGY PREDICTED BY IDOCK:   -3.89 KCAL/MOL
REMARK 922        TOTAL FREE ENERGY PREDICTED BY IDOCK:   -6.58 KCAL/MOL
REMARK 923 INTER-LIGAND FREE ENERGY PREDICTED BY IDOCK:   -5.76 KCAL/MOL
REMARK 924 INTRA-LIGAND FREE ENERGY PREDICTED BY IDOCK:   -0.81 KCAL/MOL
REMARK 927      BINDING AFFINITY PREDICTED BY RF-SCORE:    0.00 PKD
ROOT
HETATM    1  F   UNL     1      -7.841   8.785  62.374  1.00  0.00    -0.116 F  
HETATM    2  C   UNL     1      -7.482   9.718  63.290  1.00  0.00    -0.122 C  
HETATM    3  O   UNL     1      -8.657  10.226  63.898  1.00  0.00    -0.168 OA 
HETATM    4  F   UNL     1      -6.898  10.735  62.606  1.00  0.00    -0.139 F  
ENDROOT
BRANCH   3   5
HETATM    5  C   UNL     1      -9.056   9.569  65.034  1.00  0.00    -0.228 A  
HETATM    6  C   UNL     1     -10.221  10.050  65.664  1.00  0.00    -0.188 A  
HETATM    7  C   UNL     1      -8.835   7.861  66.735  1.00  0.00    -0.154 A  
HETATM    8  C   UNL     1     -10.673   9.443  66.841  1.00  0.00    -0.174 A  
HETATM    9  C   UNL     1      -8.388   8.456  65.554  1.00  0.00    -0.161 A  
HETATM   10  C   UNL     1      -9.959   8.369  67.393  1.00  0.00    -0.274 A  
BRANCH   6  11
HETATM   11  O   UNL     1     -10.848  11.096  65.039  1.00  0.00    -0.261 OA 
BRANCH  11  12
HETATM   12  C   UNL     1     -10.309  12.402  65.232  1.00  0.00    -0.282 C  
BRANCH  12  13
HETATM   13  C   UNL     1     -11.338  13.224  65.950  1.00  0.00    -0.333 C  
HETATM   14  C   UNL     1     -11.709  14.595  65.443  1.00  0.00    -0.330 C  
HETATM   15  C   UNL     1     -12.699  13.468  65.347  1.00  0.00    -0.495 C  
ENDBRANCH  12  13
ENDBRANCH  11  12
ENDBRANCH   6  11
BRANCH  10  16
HETATM   16  C   UNL     1     -10.343   7.785  68.712  1.00  0.00    -0.204 C  
HETATM   17  O   UNL     1     -10.862   6.678  68.758  1.00  0.00    -0.241 OA 
HETATM   18  H   UNL     1      -9.576   9.477  69.651  1.00  0.00     0.000 HD 
HETATM   19  N   UNL     1      -9.901   8.522  69.799  1.00  0.00    -0.183 N  
BRANCH  19  20
HETATM   20  C   UNL     1      -9.887   7.984  71.118  1.00  0.00    -0.166 A  
HETATM   21  C   UNL     1      -8.687   7.414  71.575  1.00  0.00    -0.117 A  
HETATM   22  C   UNL     1      -8.643   6.877  72.852  1.00  0.00    -0.115 A  
HETATM   23 CL   UNL     1      -7.287   7.324  70.570  1.00  0.00    -0.073 Cl 
HETATM   24  N   UNL     1      -9.688   6.889  73.708  1.00  0.00    -0.225 NA 
HETATM   25  C   UNL     1     -10.827   7.474  73.260  1.00  0.00    -0.355 A  
HETATM   26  C   UNL     1     -10.981   8.032  71.993  1.00  0.00    -0.282 A  
HETATM   27 CL   UNL     1     -12.440   8.882  71.651  1.00  0.00    -0.377 Cl 
ENDBRANCH  19  20
ENDBRANCH  10  16
ENDBRANCH   3   5
TORSDOF 6
ENDMDL
MODEL      178
REMARK 921   NORMALIZED FREE ENERGY PREDICTED BY IDOCK:   -3.88 KCAL/MOL
REMARK 922        TOTAL FREE ENERGY PREDICTED BY IDOCK:   -6.56 KCAL/MOL
REMARK 923 INTER-LIGAND FREE ENERGY PREDICTED BY IDOCK:   -5.80 KCAL/MOL
REMARK 924 INTRA-LIGAND FREE ENERGY PREDICTED BY IDOCK:   -0.77 KCAL/MOL
REMARK 927      BINDING AFFINITY PREDICTED BY RF-SCORE:    0.00 PKD
ROOT
HETATM    1  F   UNL     1     -10.931   4.162  71.921  1.00  0.00    -0.007 F  
HETATM    2  C   UNL     1     -11.087   5.176  72.808  1.00  0.00    -0.266 C  
HETATM    3  O   UNL     1      -9.924   5.986  72.773  1.00  0.00    -0.173 OA 
HETATM    4  F   UNL     1     -11.158   4.610  74.040  1.00  0.00    -0.329 F  
ENDROOT
BRANCH   3   5
HETATM    5  C   UNL     1      -9.971   7.032  71.889  1.00  0.00    -0.167 A  
HETATM    6  C   UNL     1      -9.544   6.765  70.572  1.00  0.00    -0.169 A  
HETATM    7  C   UNL     1     -10.423   9.332  71.280  1.00  0.00    -0.408 A  
HETATM    8  C   UNL     1      -9.540   7.793  69.623  1.00  0.00    -0.163 A  
HETATM    9  C   UNL     1     -10.440   8.306  72.227  1.00  0.00    -0.392 A  
HETATM   10  C   UNL     1      -9.950   9.084  69.988  1.00  0.00    -0.207 A  
BRANCH   6  11
HETATM   11  O   UNL     1      -9.173   5.471  70.317  1.00  0.00    -0.144 OA 
BRANCH  11  12
HETATM   12  C   UNL     1      -8.635   5.176  69.031  1.00  0.00    -0.089 C  
BRANCH  12  13
HETATM   13  C   UNL     1      -8.145   3.758  69.049  1.00  0.00    -0.065 C  
HETATM   14  C   UNL     1      -9.105   2.623  69.300  1.00  0.00    -0.188 C  
HETATM   15  C   UNL     1      -8.494   2.800  67.938  1.00  0.00    -0.103 C  
ENDBRANCH  12  13
ENDBRANCH  11  12
ENDBRANCH   6  11
BRANCH  10  16
HETATM   16  C   UNL     1      -9.837  10.227  69.034  1.00  0.00    -0.207 C  
HETATM   17  O   UNL     1      -8.867  10.970  69.088  1.00  0.00    -0.110 OA 
HETATM   18  H   UNL     1     -11.624   9.626  68.150  1.00  0.00     0.000 HD 
HETATM   19  N   UNL     1     -10.804  10.223  68.040  1.00  0.00    -0.256 N  
BRANCH  19  20
HETATM   20  C   UNL     1     -10.685  11.027  66.871  1.00  0.00    -0.274 A  
HETATM   21  C   UNL     1     -10.065  10.455  65.748  1.00  0.00    -0.262 A  
HETATM   22  C   UNL     1      -9.930  11.213  64.596  1.00  0.00    -0.292 A  
HETATM   23 CL   UNL     1      -9.429   8.851  65.786  1.00  0.00    -0.297 Cl 
HETATM   24  N   UNL     1     -10.384  12.480  64.475  1.00  0.00    -0.329 NA 
HETATM   25  C   UNL     1     -11.010  13.003  65.559  1.00  0.00    -0.274 A  
HETATM   26  C   UNL     1     -11.188  12.332  66.766  1.00  0.00    -0.318 A  
HETATM   27 CL   UNL     1     -12.152  13.084  67.979  1.00  0.00    -0.307 Cl 
ENDBRANCH  19  20
ENDBRANCH  10  16
ENDBRANCH   3   5
TORSDOF 6
ENDMDL
MODEL      179
REMARK 921   NORMALIZED FREE ENERGY PREDICTED BY IDOCK:   -3.81 KCAL/MOL
REMARK 922        TOTAL FREE ENERGY PREDICTED BY IDOCK:   -6.47 KCAL/MOL
REMARK 923 INTER-LIGAND FREE ENERGY PREDICTED BY IDOCK:   -5.64 KCAL/MOL
REMARK 924 INTRA-LIGAND FREE ENERGY PREDICTED BY IDOCK:   -0.84 KCAL/MOL
REMARK 927      BINDING AFFINITY PREDICTED BY RF-SCORE:    0.00 PKD
ROOT
HETATM    1  F   UNL     1     -11.136  16.740  65.893  1.00  0.00    -0.146 F  
HETATM    2  C   UNL     1     -11.491  15.732  65.058  1.00  0.00    -0.122 C  
HETATM    3  O   UNL     1     -10.369  14.886  64.871  1.00  0.00    -0.400 OA 
HETATM    4  F   UNL     1     -11.783  16.301  63.860  1.00  0.00    -0.435 F  
ENDROOT
BRANCH   3   5
HETATM    5  C   UNL     1     -10.275  13.841  65.752  1.00  0.00    -0.311 A  
HETATM    6  C   UNL     1      -9.530  14.070  66.926  1.00  0.00    -0.265 A  
HETATM    7  C   UNL     1     -10.727  11.575  66.476  1.00  0.00    -0.318 A  
HETATM    8  C   UNL     1      -9.371  13.039  67.859  1.00  0.00    -0.212 A  
HETATM    9  C   UNL     1     -10.898  12.605  65.550  1.00  0.00    -0.310 A  
HETATM   10  C   UNL     1      -9.944  11.781  67.616  1.00  0.00    -0.204 A  
BRANCH   6  11
HETATM   11  O   UNL     1      -9.021  15.334  67.071  1.00  0.00    -0.204 OA 
BRANCH  11  12
HETATM   12  C   UNL     1      -7.611  15.466  67.237  1.00  0.00    -0.212 C  
BRANCH  12  13
HETATM   13  C   UNL     1      -7.247  16.897  66.971  1.00  0.00    -0.233 C  
HETATM   14  C   UNL     1      -6.320  17.251  65.836  1.00  0.00     0.106 C  
HETATM   15  C   UNL     1      -7.775  17.623  65.759  1.00  0.00     0.035 C  
ENDBRANCH  12  13
ENDBRANCH  11  12
ENDBRANCH   6  11
BRANCH  10  16
HETATM   16  C   UNL     1      -9.686  10.629  68.528  1.00  0.00    -0.174 C  
HETATM   17  O   UNL     1      -8.725  10.656  69.285  1.00  0.00    -0.149 OA 
HETATM   18  H   UNL     1     -11.398   9.702  67.792  1.00  0.00     0.000 HD 
HETATM   19  N   UNL     1     -10.700   9.684  68.535  1.00  0.00    -0.217 N  
BRANCH  19  20
HETATM   20  C   UNL     1     -10.795   8.689  69.550  1.00  0.00    -0.129 A  
HETATM   21  C   UNL     1     -10.066   7.503  69.368  1.00  0.00    -0.190 A  
HETATM   22  C   UNL     1     -10.141   6.513  70.335  1.00  0.00    -0.184 A  
HETATM   23 CL   UNL     1      -9.121   7.230  67.949  1.00  0.00    -0.133 Cl 
HETATM   24  N   UNL     1     -10.863   6.628  71.472  1.00  0.00    -0.234 NA 
HETATM   25  C   UNL     1     -11.532   7.795  71.645  1.00  0.00    -0.261 A  
HETATM   26  C   UNL     1     -11.533   8.847  70.732  1.00  0.00    -0.275 A  
HETATM   27 CL   UNL     1     -12.300  10.320  71.189  1.00  0.00    -0.459 Cl 
ENDBRANCH  19  20
ENDBRANCH  10  16
ENDBRANCH   3   5
TORSDOF 6
ENDMDL
MODEL      180
REMARK 921   NORMALIZED FREE ENERGY PREDICTED BY IDOCK:   -3.76 KCAL/MOL
REMARK 922        TOTAL FREE ENERGY PREDICTED BY IDOCK:   -6.40 KCAL/MOL
REMARK 923 INTER-LIGAND FREE ENERGY PREDICTED BY IDOCK:   -5.36 KCAL/MOL
REMARK 924 INTRA-LIGAND FREE ENERGY PREDICTED BY IDOCK:   -1.04 KCAL/MOL
REMARK 927      BINDING AFFINITY PREDICTED BY RF-SCORE:    0.00 PKD
ROOT
HETATM    1  F   UNL     1     -11.686  11.476  63.781  1.00  0.00    -0.472 F  
HETATM    2  C   UNL     1     -10.392  11.074  63.822  1.00  0.00    -0.364 C  
HETATM    3  O   UNL     1      -9.810  11.554  65.022  1.00  0.00    -0.245 OA 
HETATM    4  F   UNL     1      -9.760  11.682  62.785  1.00  0.00    -0.375 F  
ENDROOT
BRANCH   3   5
HETATM    5  C   UNL     1      -9.890  10.699  66.091  1.00  0.00    -0.217 A  
HETATM    6  C   UNL     1      -9.725  11.269  67.369  1.00  0.00    -0.173 A  
HETATM    7  C   UNL     1     -10.183   8.517  67.098  1.00  0.00    -0.355 A  
HETATM    8  C   UNL     1      -9.769  10.452  68.504  1.00  0.00    -0.174 A  
HETATM    9  C   UNL     1     -10.152   9.331  65.964  1.00  0.00    -0.262 A  
HETATM   10  C   UNL     1      -9.967   9.070  68.363  1.00  0.00    -0.200 A  
BRANCH   6  11
HETATM   11  O   UNL     1      -9.547  12.628  67.396  1.00  0.00    -0.187 OA 
BRANCH  11  12
HETATM   12  C   UNL     1     -10.679  13.439  67.702  1.00  0.00    -0.247 C  
BRANCH  12  13
HETATM   13  C   UNL     1     -10.369  14.843  67.272  1.00  0.00    -0.251 C  
HETATM   14  C   UNL     1      -8.990  15.205  66.783  1.00  0.00    -0.293 C  
HETATM   15  C   UNL     1     -10.144  15.181  65.820  1.00  0.00    -0.373 C  
ENDBRANCH  12  13
ENDBRANCH  11  12
ENDBRANCH   6  11
BRANCH  10  16
HETATM   16  C   UNL     1      -9.892   8.158  69.542  1.00  0.00    -0.181 C  
HETATM   17  O   UNL     1     -10.676   7.223  69.637  1.00  0.00    -0.231 OA 
HETATM   18  H   UNL     1      -8.263   9.247  70.245  1.00  0.00     0.000 HD 
HETATM   19  N   UNL     1      -8.789   8.380  70.352  1.00  0.00    -0.142 N  
BRANCH  19  20
HETATM   20  C   UNL     1      -8.370   7.434  71.330  1.00  0.00    -0.112 A  
HETATM   21  C   UNL     1      -8.974   7.496  72.597  1.00  0.00    -0.144 A  
HETATM   22  C   UNL     1      -8.585   6.592  73.572  1.00  0.00    -0.123 A  
HETATM   23 CL   UNL     1     -10.152   8.699  72.979  1.00  0.00     0.082 Cl 
HETATM   24  N   UNL     1      -7.665   5.623  73.372  1.00  0.00    -0.095 NA 
HETATM   25  C   UNL     1      -7.117   5.558  72.133  1.00  0.00    -0.086 A  
HETATM   26  C   UNL     1      -7.429   6.423  71.087  1.00  0.00    -0.085 A  
HETATM   27 CL   UNL     1      -6.766   6.091  69.532  1.00  0.00    -0.054 Cl 
ENDBRANCH  19  20
ENDBRANCH  10  16
ENDBRANCH   3   5
TORSDOF 6
ENDMDL
MODEL      181
REMARK 921   NORMALIZED FREE ENERGY PREDICTED BY IDOCK:   -3.76 KCAL/MOL
REMARK 922        TOTAL FREE ENERGY PREDICTED BY IDOCK:   -6.40 KCAL/MOL
REMARK 923 INTER-LIGAND FREE ENERGY PREDICTED BY IDOCK:   -5.51 KCAL/MOL
REMARK 924 INTRA-LIGAND FREE ENERGY PREDICTED BY IDOCK:   -0.89 KCAL/MOL
REMARK 927      BINDING AFFINITY PREDICTED BY RF-SCORE:    0.00 PKD
ROOT
HETATM    1  F   UNL     1      -9.690   3.252  72.451  1.00  0.00    -0.163 F  
HETATM    2  C   UNL     1     -10.798   4.032  72.400  1.00  0.00     0.143 C  
HETATM    3  O   UNL     1     -10.397   5.389  72.485  1.00  0.00    -0.191 OA 
HETATM    4  F   UNL     1     -11.527   3.748  73.510  1.00  0.00    -0.327 F  
ENDROOT
BRANCH   3   5
HETATM    5  C   UNL     1     -10.166   6.004  71.281  1.00  0.00    -0.205 A  
HETATM    6  C   UNL     1     -11.060   7.030  70.916  1.00  0.00    -0.267 A  
HETATM    7  C   UNL     1      -8.944   6.326  69.216  1.00  0.00    -0.125 A  
HETATM    8  C   UNL     1     -10.900   7.684  69.689  1.00  0.00    -0.195 A  
HETATM    9  C   UNL     1      -9.092   5.680  70.445  1.00  0.00    -0.164 A  
HETATM   10  C   UNL     1      -9.860   7.308  68.826  1.00  0.00    -0.161 A  
BRANCH   6  11
HETATM   11  O   UNL     1     -12.034   7.326  71.833  1.00  0.00    -0.287 OA 
BRANCH  11  12
HETATM   12  C   UNL     1     -12.961   8.358  71.506  1.00  0.00    -0.301 C  
BRANCH  12  13
HETATM   13  C   UNL     1     -12.439   9.644  72.076  1.00  0.00    -0.412 C  
HETATM   14  C   UNL     1     -11.870  10.706  71.169  1.00  0.00    -0.339 C  
HETATM   15  C   UNL     1     -13.178  10.943  71.871  1.00  0.00    -0.508 C  
ENDBRANCH  12  13
ENDBRANCH  11  12
ENDBRANCH   6  11
BRANCH  10  16
HETATM   16  C   UNL     1      -9.741   7.898  67.460  1.00  0.00    -0.159 C  
HETATM   17  O   UNL     1     -10.205   7.301  66.498  1.00  0.00    -0.183 OA 
HETATM   18  H   UNL     1      -8.788   9.552  68.290  1.00  0.00     0.000 HD 
HETATM   19  N   UNL     1      -9.242   9.191  67.451  1.00  0.00    -0.130 N  
BRANCH  19  20
HETATM   20  C   UNL     1      -9.347  10.031  66.306  1.00  0.00    -0.168 A  
HETATM   21  C   UNL     1      -8.475   9.778  65.233  1.00  0.00    -0.145 A  
HETATM   22  C   UNL     1      -8.548  10.580  64.105  1.00  0.00    -0.150 A  
HETATM   23 CL   UNL     1      -7.289   8.527  65.307  1.00  0.00    -0.083 Cl 
HETATM   24  N   UNL     1      -9.434  11.590  63.959  1.00  0.00    -0.151 NA 
HETATM   25  C   UNL     1     -10.289  11.796  64.992  1.00  0.00    -0.281 A  
HETATM   26  C   UNL     1     -10.293  11.057  66.172  1.00  0.00    -0.251 A  
HETATM   27 CL   UNL     1     -11.556  11.344  67.307  1.00  0.00    -0.307 Cl 
ENDBRANCH  19  20
ENDBRANCH  10  16
ENDBRANCH   3   5
TORSDOF 6
ENDMDL
MODEL      182
REMARK 921   NORMALIZED FREE ENERGY PREDICTED BY IDOCK:   -3.75 KCAL/MOL
REMARK 922        TOTAL FREE ENERGY PREDICTED BY IDOCK:   -6.39 KCAL/MOL
REMARK 923 INTER-LIGAND FREE ENERGY PREDICTED BY IDOCK:   -5.37 KCAL/MOL
REMARK 924 INTRA-LIGAND FREE ENERGY PREDICTED BY IDOCK:   -1.02 KCAL/MOL
REMARK 927      BINDING AFFINITY PREDICTED BY RF-SCORE:    0.00 PKD
ROOT
HETATM    1  F   UNL     1     -10.995  17.261  66.052  1.00  0.00    -0.202 F  
HETATM    2  C   UNL     1     -10.079  17.306  67.050  1.00  0.00    -0.303 C  
HETATM    3  O   UNL     1     -10.513  16.454  68.097  1.00  0.00    -0.276 OA 
HETATM    4  F   UNL     1     -10.080  18.578  67.525  1.00  0.00    -0.307 F  
ENDROOT
BRANCH   3   5
HETATM    5  C   UNL     1     -10.058  15.163  68.023  1.00  0.00    -0.222 A  
HETATM    6  C   UNL     1     -10.639  14.238  68.914  1.00  0.00    -0.245 A  
HETATM    7  C   UNL     1      -8.655  13.412  67.114  1.00  0.00    -0.201 A  
HETATM    8  C   UNL     1     -10.205  12.908  68.912  1.00  0.00    -0.007 A  
HETATM    9  C   UNL     1      -9.093  14.738  67.104  1.00  0.00    -0.231 A  
HETATM   10  C   UNL     1      -9.189  12.504  68.032  1.00  0.00    -0.204 A  
BRANCH   6  11
HETATM   11  O   UNL     1     -11.627  14.732  69.725  1.00  0.00    -0.265 OA 
BRANCH  11  12
HETATM   12  C   UNL     1     -12.658  13.836  70.135  1.00  0.00    -0.191 C  
BRANCH  12  13
HETATM   13  C   UNL     1     -12.740  13.883  71.633  1.00  0.00    -0.416 C  
HETATM   14  C   UNL     1     -14.041  14.221  72.315  1.00  0.00    -0.621 C  
HETATM   15  C   UNL     1     -13.489  12.826  72.404  1.00  0.00    -0.512 C  
ENDBRANCH  12  13
ENDBRANCH  11  12
ENDBRANCH   6  11
BRANCH  10  16
HETATM   16  C   UNL     1      -8.619  11.126  68.094  1.00  0.00    -0.140 C  
HETATM   17  O   UNL     1      -8.544  10.548  69.170  1.00  0.00    -0.154 OA 
HETATM   18  H   UNL     1      -8.374  11.167  66.027  1.00  0.00     0.000 HD 
HETATM   19  N   UNL     1      -8.380  10.564  66.850  1.00  0.00    -0.124 N  
BRANCH  19  20
HETATM   20  C   UNL     1      -8.141   9.170  66.687  1.00  0.00    -0.111 A  
HETATM   21  C   UNL     1      -9.259   8.330  66.555  1.00  0.00    -0.187 A  
HETATM   22  C   UNL     1      -9.060   6.967  66.400  1.00  0.00    -0.159 A  
HETATM   23 CL   UNL     1     -10.869   8.948  66.629  1.00  0.00    -0.016 Cl 
HETATM   24  N   UNL     1      -7.841   6.388  66.343  1.00  0.00    -0.102 NA 
HETATM   25  C   UNL     1      -6.774   7.220  66.439  1.00  0.00    -0.060 A  
HETATM   26  C   UNL     1      -6.862   8.600  66.607  1.00  0.00    -0.069 A  
HETATM   27 CL   UNL     1      -5.409   9.522  66.540  1.00  0.00    -0.044 Cl 
ENDBRANCH  19  20
ENDBRANCH  10  16
ENDBRANCH   3   5
TORSDOF 6
ENDMDL
MODEL      183
REMARK 921   NORMALIZED FREE ENERGY PREDICTED BY IDOCK:   -3.73 KCAL/MOL
REMARK 922        TOTAL FREE ENERGY PREDICTED BY IDOCK:   -6.36 KCAL/MOL
REMARK 923 INTER-LIGAND FREE ENERGY PREDICTED BY IDOCK:   -5.18 KCAL/MOL
REMARK 924 INTRA-LIGAND FREE ENERGY PREDICTED BY IDOCK:   -1.18 KCAL/MOL
REMARK 927      BINDING AFFINITY PREDICTED BY RF-SCORE:    0.00 PKD
ROOT
HETATM    1  F   UNL     1     -11.070   6.233  67.301  1.00  0.00    -0.346 F  
HETATM    2  C   UNL     1     -10.365   6.754  68.336  1.00  0.00    -0.191 C  
HETATM    3  O   UNL     1      -9.371   7.619  67.813  1.00  0.00    -0.141 OA 
HETATM    4  F   UNL     1      -9.732   5.716  68.940  1.00  0.00    -0.134 F  
ENDROOT
BRANCH   3   5
HETATM    5  C   UNL     1      -9.749   8.930  67.685  1.00  0.00    -0.161 A  
HETATM    6  C   UNL     1      -8.956   9.735  66.843  1.00  0.00    -0.138 A  
HETATM    7  C   UNL     1     -11.175  10.827  68.164  1.00  0.00    -0.365 A  
HETATM    8  C   UNL     1      -9.267  11.091  66.686  1.00  0.00    -0.182 A  
HETATM    9  C   UNL     1     -10.874   9.472  68.314  1.00  0.00    -0.194 A  
HETATM   10  C   UNL     1     -10.359  11.642  67.373  1.00  0.00    -0.231 A  
BRANCH   6  11
HETATM   11  O   UNL     1      -7.919   9.098  66.212  1.00  0.00    -0.101 OA 
BRANCH  11  12
HETATM   12  C   UNL     1      -7.989   8.960  64.795  1.00  0.00    -0.129 C  
BRANCH  12  13
HETATM   13  C   UNL     1      -8.213   7.509  64.484  1.00  0.00    -0.036 C  
HETATM   14  C   UNL     1      -7.203   6.738  63.673  1.00  0.00    -0.066 C  
HETATM   15  C   UNL     1      -7.378   6.436  65.135  1.00  0.00    -0.077 C  
ENDBRANCH  12  13
ENDBRANCH  11  12
ENDBRANCH   6  11
BRANCH  10  16
HETATM   16  C   UNL     1     -10.640  13.107  67.324  1.00  0.00    -0.246 C  
HETATM   17  O   UNL     1     -11.716  13.505  66.900  1.00  0.00    -0.343 OA 
HETATM   18  H   UNL     1      -8.770  13.462  68.168  1.00  0.00     0.000 HD 
HETATM   19  N   UNL     1      -9.673  13.882  67.946  1.00  0.00    -0.224 N  
BRANCH  19  20
HETATM   20  C   UNL     1      -9.903  15.246  68.282  1.00  0.00    -0.218 A  
HETATM   21  C   UNL     1      -9.343  16.226  67.444  1.00  0.00    -0.221 A  
HETATM   22  C   UNL     1      -9.545  17.563  67.747  1.00  0.00    -0.269 A  
HETATM   23 CL   UNL     1      -8.373  15.803  66.080  1.00  0.00    -0.172 Cl 
HETATM   24  N   UNL     1     -10.277  17.992  68.798  1.00  0.00    -0.379 NA 
HETATM   25  C   UNL     1     -10.837  17.032  69.574  1.00  0.00    -0.039 A  
HETATM   26  C   UNL     1     -10.688  15.663  69.366  1.00  0.00    -0.252 A  
HETATM   27 CL   UNL     1     -11.607  14.586  70.348  1.00  0.00    -0.322 Cl 
ENDBRANCH  19  20
ENDBRANCH  10  16
ENDBRANCH   3   5
TORSDOF 6
ENDMDL
MODEL      184
REMARK 921   NORMALIZED FREE ENERGY PREDICTED BY IDOCK:   -3.71 KCAL/MOL
REMARK 922        TOTAL FREE ENERGY PREDICTED BY IDOCK:   -6.34 KCAL/MOL
REMARK 923 INTER-LIGAND FREE ENERGY PREDICTED BY IDOCK:   -5.02 KCAL/MOL
REMARK 924 INTRA-LIGAND FREE ENERGY PREDICTED BY IDOCK:   -1.31 KCAL/MOL
REMARK 927      BINDING AFFINITY PREDICTED BY RF-SCORE:    0.00 PKD
ROOT
HETATM    1  F   UNL     1      -8.147   6.703  63.173  1.00  0.00    -0.116 F  
HETATM    2  C   UNL     1      -7.285   7.159  64.115  1.00  0.00    -0.069 C  
HETATM    3  O   UNL     1      -7.945   8.145  64.890  1.00  0.00    -0.129 OA 
HETATM    4  F   UNL     1      -6.267   7.767  63.453  1.00  0.00    -0.058 F  
ENDROOT
BRANCH   3   5
HETATM    5  C   UNL     1      -8.587   7.675  66.006  1.00  0.00    -0.151 A  
HETATM    6  C   UNL     1      -9.703   8.413  66.449  1.00  0.00    -0.242 A  
HETATM    7  C   UNL     1      -8.888   6.115  67.833  1.00  0.00    -0.111 A  
HETATM    8  C   UNL     1     -10.392   8.006  67.598  1.00  0.00    -0.312 A  
HETATM    9  C   UNL     1      -8.206   6.511  66.681  1.00  0.00    -0.112 A  
HETATM   10  C   UNL     1      -9.962   6.874  68.306  1.00  0.00    -0.162 A  
BRANCH   6  11
HETATM   11  O   UNL     1     -10.045   9.495  65.681  1.00  0.00    -0.285 OA 
BRANCH  11  12
HETATM   12  C   UNL     1     -10.306  10.727  66.350  1.00  0.00    -0.248 C  
BRANCH  12  13
HETATM   13  C   UNL     1      -8.993  11.290  66.808  1.00  0.00    -0.173 C  
HETATM   14  C   UNL     1      -8.930  12.655  67.445  1.00  0.00    -0.190 C  
HETATM   15  C   UNL     1      -8.676  11.428  68.276  1.00  0.00    -0.160 C  
ENDBRANCH  12  13
ENDBRANCH  11  12
ENDBRANCH   6  11
BRANCH  10  16
HETATM   16  C   UNL     1     -10.597   6.490  69.602  1.00  0.00    -0.243 C  
HETATM   17  O   UNL     1     -11.810   6.348  69.665  1.00  0.00    -0.323 OA 
HETATM   18  H   UNL     1      -8.707   6.416  70.471  1.00  0.00     0.000 HD 
HETATM   19  N   UNL     1      -9.686   6.160  70.594  1.00  0.00    -0.172 N  
BRANCH  19  20
HETATM   20  C   UNL     1     -10.080   5.476  71.779  1.00  0.00    -0.196 A  
HETATM   21  C   UNL     1      -9.964   4.076  71.790  1.00  0.00    -0.170 A  
HETATM   22  C   UNL     1     -10.344   3.379  72.927  1.00  0.00    -0.166 A  
HETATM   23 CL   UNL     1      -9.409   3.203  70.408  1.00  0.00    -0.221 Cl 
HETATM   24  N   UNL     1     -10.801   3.972  74.051  1.00  0.00    -0.229 NA 
HETATM   25  C   UNL     1     -10.873   5.326  74.033  1.00  0.00    -0.147 A  
HETATM   26  C   UNL     1     -10.528   6.119  72.941  1.00  0.00    -0.217 A  
HETATM   27 CL   UNL     1     -10.521   7.829  73.148  1.00  0.00    -0.419 Cl 
ENDBRANCH  19  20
ENDBRANCH  10  16
ENDBRANCH   3   5
TORSDOF 6
ENDMDL
MODEL      185
REMARK 921   NORMALIZED FREE ENERGY PREDICTED BY IDOCK:   -3.67 KCAL/MOL
REMARK 922        TOTAL FREE ENERGY PREDICTED BY IDOCK:   -6.28 KCAL/MOL
REMARK 923 INTER-LIGAND FREE ENERGY PREDICTED BY IDOCK:   -5.27 KCAL/MOL
REMARK 924 INTRA-LIGAND FREE ENERGY PREDICTED BY IDOCK:   -1.01 KCAL/MOL
REMARK 927      BINDING AFFINITY PREDICTED BY RF-SCORE:    0.00 PKD
ROOT
HETATM    1  F   UNL     1      -8.829   4.430  66.006  1.00  0.00    -0.115 F  
HETATM    2  C   UNL     1      -9.797   4.514  66.952  1.00  0.00    -0.213 C  
HETATM    3  O   UNL     1      -9.297   5.271  68.041  1.00  0.00    -0.111 OA 
HETATM    4  F   UNL     1     -10.020   3.250  67.396  1.00  0.00    -0.168 F  
ENDROOT
BRANCH   3   5
HETATM    5  C   UNL     1      -9.541   6.619  67.974  1.00  0.00    -0.123 A  
HETATM    6  C   UNL     1      -9.327   7.358  69.154  1.00  0.00    -0.146 A  
HETATM    7  C   UNL     1     -10.212   8.641  66.824  1.00  0.00    -0.361 A  
HETATM    8  C   UNL     1      -9.580   8.734  69.166  1.00  0.00    -0.162 A  
HETATM    9  C   UNL     1      -9.949   7.270  66.805  1.00  0.00    -0.287 A  
HETATM   10  C   UNL     1     -10.054   9.368  68.007  1.00  0.00    -0.230 A  
BRANCH   6  11
HETATM   11  O   UNL     1      -8.856   6.646  70.226  1.00  0.00    -0.149 OA 
BRANCH  11  12
HETATM   12  C   UNL     1      -7.497   6.844  70.608  1.00  0.00    -0.082 C  
BRANCH  12  13
HETATM   13  C   UNL     1      -7.439   6.869  72.108  1.00  0.00    -0.091 C  
HETATM   14  C   UNL     1      -7.063   8.135  72.836  1.00  0.00    -0.130 C  
HETATM   15  C   UNL     1      -8.472   7.615  72.914  1.00  0.00    -0.185 C  
ENDBRANCH  12  13
ENDBRANCH  11  12
ENDBRANCH   6  11
BRANCH  10  16
HETATM   16  C   UNL     1     -10.452  10.806  68.024  1.00  0.00    -0.194 C  
HETATM   17  O   UNL     1     -10.948  11.287  69.033  1.00  0.00    -0.209 OA 
HETATM   18  H   UNL     1      -9.738  10.996  66.077  1.00  0.00     0.000 HD 
HETATM   19  N   UNL     1     -10.046  11.512  66.901  1.00  0.00    -0.209 N  
BRANCH  19  20
HETATM   20  C   UNL     1     -10.047  12.935  66.866  1.00  0.00    -0.241 A  
HETATM   21  C   UNL     1      -8.980  13.602  67.490  1.00  0.00    -0.209 A  
HETATM   22  C   UNL     1      -8.954  14.988  67.477  1.00  0.00    -0.183 A  
HETATM   23 CL   UNL     1      -7.729  12.740  68.309  1.00  0.00    -0.129 Cl 
HETATM   24  N   UNL     1      -9.892  15.750  66.873  1.00  0.00    -0.231 NA 
HETATM   25  C   UNL     1     -10.897  15.087  66.248  1.00  0.00    -0.333 A  
HETATM   26  C   UNL     1     -11.022  13.700  66.210  1.00  0.00    -0.299 A  
HETATM   27 CL   UNL     1     -12.266  13.023  65.229  1.00  0.00    -0.482 Cl 
ENDBRANCH  19  20
ENDBRANCH  10  16
ENDBRANCH   3   5
TORSDOF 6
ENDMDL
MODEL      186
REMARK 921   NORMALIZED FREE ENERGY PREDICTED BY IDOCK:   -3.66 KCAL/MOL
REMARK 922        TOTAL FREE ENERGY PREDICTED BY IDOCK:   -6.27 KCAL/MOL
REMARK 923 INTER-LIGAND FREE ENERGY PREDICTED BY IDOCK:   -5.97 KCAL/MOL
REMARK 924 INTRA-LIGAND FREE ENERGY PREDICTED BY IDOCK:   -0.30 KCAL/MOL
REMARK 927      BINDING AFFINITY PREDICTED BY RF-SCORE:    0.00 PKD
ROOT
HETATM    1  F   UNL     1      -6.568   6.514  67.936  1.00  0.00    -0.053 F  
HETATM    2  C   UNL     1      -7.228   6.514  66.751  1.00  0.00    -0.077 C  
HETATM    3  O   UNL     1      -8.618   6.412  67.011  1.00  0.00    -0.111 OA 
HETATM    4  F   UNL     1      -6.848   5.390  66.091  1.00  0.00    -0.052 F  
ENDROOT
BRANCH   3   5
HETATM    5  C   UNL     1      -9.276   7.608  67.138  1.00  0.00    -0.132 A  
HETATM    6  C   UNL     1      -9.099   8.539  66.095  1.00  0.00    -0.195 A  
HETATM    7  C   UNL     1     -10.721   9.170  68.293  1.00  0.00    -0.173 A  
HETATM    8  C   UNL     1      -9.720   9.791  66.170  1.00  0.00    -0.309 A  
HETATM    9  C   UNL     1     -10.114   7.916  68.215  1.00  0.00    -0.225 A  
HETATM   10  C   UNL     1     -10.505  10.116  67.287  1.00  0.00    -0.313 A  
BRANCH   6  11
HETATM   11  O   UNL     1      -8.321   8.119  65.048  1.00  0.00    -0.156 OA 
BRANCH  11  12
HETATM   12  C   UNL     1      -8.150   9.012  63.950  1.00  0.00    -0.159 C  
BRANCH  12  13
HETATM   13  C   UNL     1      -6.677   9.187  63.723  1.00  0.00    -0.090 C  
HETATM   14  C   UNL     1      -6.155   9.578  62.363  1.00  0.00    -0.096 C  
HETATM   15  C   UNL     1      -6.081  10.555  63.503  1.00  0.00    -0.056 C  
ENDBRANCH  12  13
ENDBRANCH  11  12
ENDBRANCH   6  11
BRANCH  10  16
HETATM   16  C   UNL     1     -11.075  11.486  67.455  1.00  0.00    -0.282 C  
HETATM   17  O   UNL     1     -11.979  11.861  66.722  1.00  0.00    -0.613 OA 
HETATM   18  H   UNL     1      -9.782  11.794  69.057  1.00  0.00     0.000 HD 
HETATM   19  N   UNL     1     -10.609  12.151  68.579  1.00  0.00    -0.228 N  
BRANCH  19  20
HETATM   20  C   UNL     1     -11.253  13.316  69.084  1.00  0.00    -0.251 A  
HETATM   21  C   UNL     1     -12.087  13.165  70.204  1.00  0.00    -0.321 A  
HETATM   22  C   UNL     1     -12.732  14.280  70.717  1.00  0.00    -0.350 A  
HETATM   23 CL   UNL     1     -12.365  11.620  70.923  1.00  0.00    -0.468 Cl 
HETATM   24  N   UNL     1     -12.588  15.526  70.216  1.00  0.00    -0.381 NA 
HETATM   25  C   UNL     1     -11.751  15.657  69.156  1.00  0.00    -0.390 A  
HETATM   26  C   UNL     1     -11.065  14.602  68.558  1.00  0.00    -0.260 A  
HETATM   27 CL   UNL     1      -9.916  14.973  67.330  1.00  0.00    -0.232 Cl 
ENDBRANCH  19  20
ENDBRANCH  10  16
ENDBRANCH   3   5
TORSDOF 6
ENDMDL
MODEL      187
REMARK 921   NORMALIZED FREE ENERGY PREDICTED BY IDOCK:   -3.66 KCAL/MOL
REMARK 922        TOTAL FREE ENERGY PREDICTED BY IDOCK:   -6.27 KCAL/MOL
REMARK 923 INTER-LIGAND FREE ENERGY PREDICTED BY IDOCK:   -5.02 KCAL/MOL
REMARK 924 INTRA-LIGAND FREE ENERGY PREDICTED BY IDOCK:   -1.24 KCAL/MOL
REMARK 927      BINDING AFFINITY PREDICTED BY RF-SCORE:    0.00 PKD
ROOT
HETATM    1  F   UNL     1     -11.046   6.302  66.873  1.00  0.00    -0.379 F  
HETATM    2  C   UNL     1     -10.958   6.768  68.143  1.00  0.00    -0.201 C  
HETATM    3  O   UNL     1      -9.711   7.424  68.296  1.00  0.00    -0.148 OA 
HETATM    4  F   UNL     1     -10.957   5.683  68.959  1.00  0.00    -0.343 F  
ENDROOT
BRANCH   3   5
HETATM    5  C   UNL     1      -9.724   8.768  68.027  1.00  0.00    -0.157 A  
HETATM    6  C   UNL     1      -8.508   9.336  67.596  1.00  0.00    -0.116 A  
HETATM    7  C   UNL     1     -10.795  10.934  67.874  1.00  0.00    -0.295 A  
HETATM    8  C   UNL     1      -8.441  10.708  67.328  1.00  0.00    -0.126 A  
HETATM    9  C   UNL     1     -10.869   9.564  68.131  1.00  0.00    -0.208 A  
HETATM   10  C   UNL     1      -9.578  11.511  67.499  1.00  0.00    -0.179 A  
BRANCH   6  11
HETATM   11  O   UNL     1      -7.461   8.464  67.453  1.00  0.00    -0.091 OA 
BRANCH  11  12
HETATM   12  C   UNL     1      -6.234   8.789  68.103  1.00  0.00    -0.051 C  
BRANCH  12  13
HETATM   13  C   UNL     1      -6.500   8.873  69.577  1.00  0.00    -0.043 C  
HETATM   14  C   UNL     1      -5.356   8.929  70.557  1.00  0.00    -0.023 C  
HETATM   15  C   UNL     1      -6.223  10.139  70.348  1.00  0.00    -0.112 C  
ENDBRANCH  12  13
ENDBRANCH  11  12
ENDBRANCH   6  11
BRANCH  10  16
HETATM   16  C   UNL     1      -9.505  12.994  67.343  1.00  0.00    -0.210 C  
HETATM   17  O   UNL     1      -9.774  13.505  66.265  1.00  0.00    -0.285 OA 
HETATM   18  H   UNL     1      -8.974  13.148  69.350  1.00  0.00     0.000 HD 
HETATM   19  N   UNL     1      -9.291  13.671  68.534  1.00  0.00    -0.170 N  
BRANCH  19  20
HETATM   20  C   UNL     1      -9.501  15.075  68.650  1.00  0.00    -0.212 A  
HETATM   21  C   UNL     1     -10.780  15.511  69.034  1.00  0.00    -0.243 A  
HETATM   22  C   UNL     1     -11.019  16.871  69.152  1.00  0.00    -0.151 A  
HETATM   23 CL   UNL     1     -12.069  14.398  69.316  1.00  0.00    -0.355 Cl 
HETATM   24  N   UNL     1     -10.079  17.818  68.940  1.00  0.00    -0.367 NA 
HETATM   25  C   UNL     1      -8.842  17.375  68.603  1.00  0.00    -0.258 A  
HETATM   26  C   UNL     1      -8.500  16.034  68.448  1.00  0.00    -0.180 A  
HETATM   27 CL   UNL     1      -6.843  15.643  68.183  1.00  0.00    -0.119 Cl 
ENDBRANCH  19  20
ENDBRANCH  10  16
ENDBRANCH   3   5
TORSDOF 6
ENDMDL
MODEL      188
REMARK 921   NORMALIZED FREE ENERGY PREDICTED BY IDOCK:   -3.65 KCAL/MOL
REMARK 922        TOTAL FREE ENERGY PREDICTED BY IDOCK:   -6.25 KCAL/MOL
REMARK 923 INTER-LIGAND FREE ENERGY PREDICTED BY IDOCK:   -4.95 KCAL/MOL
REMARK 924 INTRA-LIGAND FREE ENERGY PREDICTED BY IDOCK:   -1.30 KCAL/MOL
REMARK 927      BINDING AFFINITY PREDICTED BY RF-SCORE:    0.00 PKD
ROOT
HETATM    1  F   UNL     1      -9.699   4.920  67.587  1.00  0.00    -0.144 F  
HETATM    2  C   UNL     1      -9.425   5.329  68.850  1.00  0.00    -0.128 C  
HETATM    3  O   UNL     1      -8.647   6.512  68.781  1.00  0.00    -0.121 OA 
HETATM    4  F   UNL     1      -8.657   4.363  69.417  1.00  0.00    -0.080 F  
ENDROOT
BRANCH   3   5
HETATM    5  C   UNL     1      -9.364   7.681  68.782  1.00  0.00    -0.148 A  
HETATM    6  C   UNL     1      -8.771   8.785  68.137  1.00  0.00    -0.134 A  
HETATM    7  C   UNL     1     -11.287   9.038  69.347  1.00  0.00     0.224 A  
HETATM    8  C   UNL     1      -9.435  10.017  68.122  1.00  0.00    -0.148 A  
HETATM    9  C   UNL     1     -10.634   7.804  69.354  1.00  0.00    -0.211 A  
HETATM   10  C   UNL     1     -10.679  10.149  68.756  1.00  0.00    -0.247 A  
BRANCH   6  11
HETATM   11  O   UNL     1      -7.560   8.547  67.542  1.00  0.00    -0.095 OA 
BRANCH  11  12
HETATM   12  C   UNL     1      -7.453   8.777  66.139  1.00  0.00    -0.090 C  
BRANCH  12  13
HETATM   13  C   UNL     1      -7.875   7.522  65.433  1.00  0.00    -0.117 C  
HETATM   14  C   UNL     1      -7.220   7.120  64.136  1.00  0.00    -0.069 C  
HETATM   15  C   UNL     1      -6.970   6.317  65.382  1.00  0.00    -0.056 C  
ENDBRANCH  12  13
ENDBRANCH  11  12
ENDBRANCH   6  11
BRANCH  10  16
HETATM   16  C   UNL     1     -11.350  11.478  68.866  1.00  0.00    -0.268 C  
HETATM   17  O   UNL     1     -12.200  11.798  68.046  1.00  0.00    -0.518 OA 
HETATM   18  H   UNL     1     -10.246  11.860  70.589  1.00  0.00     0.000 HD 
HETATM   19  N   UNL     1     -11.043  12.165  70.030  1.00  0.00     0.209 N  
BRANCH  19  20
HETATM   20  C   UNL     1     -11.807  13.284  70.468  1.00  0.00    -0.134 A  
HETATM   21  C   UNL     1     -12.856  13.042  71.370  1.00  0.00    -0.292 A  
HETATM   22  C   UNL     1     -13.623  14.109  71.812  1.00  0.00    -0.399 A  
HETATM   23 CL   UNL     1     -13.242  11.445  71.902  1.00  0.00    -0.563 Cl 
HETATM   24  N   UNL     1     -13.406  15.390  71.443  1.00  0.00    -0.492 NA 
HETATM   25  C   UNL     1     -12.368  15.608  70.598  1.00  0.00    -0.413 A  
HETATM   26  C   UNL     1     -11.545  14.607  70.087  1.00  0.00    -0.282 A  
HETATM   27 CL   UNL     1     -10.170  15.079  69.162  1.00  0.00    -0.235 Cl 
ENDBRANCH  19  20
ENDBRANCH  10  16
ENDBRANCH   3   5
TORSDOF 6
ENDMDL
MODEL      189
REMARK 921   NORMALIZED FREE ENERGY PREDICTED BY IDOCK:   -3.64 KCAL/MOL
REMARK 922        TOTAL FREE ENERGY PREDICTED BY IDOCK:   -6.25 KCAL/MOL
REMARK 923 INTER-LIGAND FREE ENERGY PREDICTED BY IDOCK:   -5.12 KCAL/MOL
REMARK 924 INTRA-LIGAND FREE ENERGY PREDICTED BY IDOCK:   -1.12 KCAL/MOL
REMARK 927      BINDING AFFINITY PREDICTED BY RF-SCORE:    0.00 PKD
ROOT
HETATM    1  F   UNL     1      -9.437   4.864  73.147  1.00  0.00    -0.129 F  
HETATM    2  C   UNL     1      -8.393   5.018  72.296  1.00  0.00    -0.121 C  
HETATM    3  O   UNL     1      -8.873   4.895  70.968  1.00  0.00    -0.121 OA 
HETATM    4  F   UNL     1      -7.545   3.983  72.526  1.00  0.00    -0.064 F  
ENDROOT
BRANCH   3   5
HETATM    5  C   UNL     1      -9.257   6.071  70.377  1.00  0.00    -0.156 A  
HETATM    6  C   UNL     1      -9.983   5.964  69.174  1.00  0.00    -0.165 A  
HETATM    7  C   UNL     1      -9.383   8.485  70.243  1.00  0.00    -0.171 A  
HETATM    8  C   UNL     1     -10.386   7.123  68.501  1.00  0.00    -0.203 A  
HETATM    9  C   UNL     1      -8.990   7.331  70.923  1.00  0.00    -0.150 A  
HETATM   10  C   UNL     1     -10.056   8.384  69.022  1.00  0.00    -0.209 A  
BRANCH   6  11
HETATM   11  O   UNL     1     -10.261   4.688  68.757  1.00  0.00    -0.081 OA 
BRANCH  11  12
HETATM   12  C   UNL     1      -9.633   4.230  67.561  1.00  0.00    -0.173 C  
BRANCH  12  13
HETATM   13  C   UNL     1      -9.240   2.797  67.767  1.00  0.00    -0.246 C  
HETATM   14  C   UNL     1      -7.989   2.451  68.533  1.00  0.00    -0.061 C  
HETATM   15  C   UNL     1      -9.337   2.150  69.126  1.00  0.00    -0.184 C  
ENDBRANCH  12  13
ENDBRANCH  11  12
ENDBRANCH   6  11
BRANCH  10  16
HETATM   16  C   UNL     1     -10.360   9.633  68.264  1.00  0.00    -0.204 C  
HETATM   17  O   UNL     1     -10.971   9.568  67.206  1.00  0.00    -0.203 OA 
HETATM   18  H   UNL     1      -9.449  10.736  69.776  1.00  0.00     0.000 HD 
HETATM   19  N   UNL     1     -10.050  10.795  68.954  1.00  0.00    -0.197 N  
BRANCH  19  20
HETATM   20  C   UNL     1     -10.545  12.067  68.548  1.00  0.00    -0.231 A  
HETATM   21  C   UNL     1     -11.547  12.657  69.337  1.00  0.00    -0.306 A  
HETATM   22  C   UNL     1     -12.053  13.892  68.966  1.00  0.00    -0.329 A  
HETATM   23 CL   UNL     1     -12.192  11.859  70.725  1.00  0.00    -0.457 Cl 
HETATM   24  N   UNL     1     -11.622  14.588  67.891  1.00  0.00    -0.328 NA 
HETATM   25  C   UNL     1     -10.631  14.017  67.162  1.00  0.00    -0.274 A  
HETATM   26  C   UNL     1     -10.061  12.777  67.441  1.00  0.00    -0.219 A  
HETATM   27 CL   UNL     1      -8.698  12.281  66.511  1.00  0.00    -0.139 Cl 
ENDBRANCH  19  20
ENDBRANCH  10  16
ENDBRANCH   3   5
TORSDOF 6
ENDMDL
MODEL      190
REMARK 921   NORMALIZED FREE ENERGY PREDICTED BY IDOCK:   -3.57 KCAL/MOL
REMARK 922        TOTAL FREE ENERGY PREDICTED BY IDOCK:   -6.14 KCAL/MOL
REMARK 923 INTER-LIGAND FREE ENERGY PREDICTED BY IDOCK:   -5.21 KCAL/MOL
REMARK 924 INTRA-LIGAND FREE ENERGY PREDICTED BY IDOCK:   -0.93 KCAL/MOL
REMARK 927      BINDING AFFINITY PREDICTED BY RF-SCORE:    0.00 PKD
ROOT
HETATM    1  F   UNL     1     -10.439   3.780  72.932  1.00  0.00    -0.206 F  
HETATM    2  C   UNL     1     -11.153   4.914  72.723  1.00  0.00    -0.210 C  
HETATM    3  O   UNL     1     -10.588   5.952  73.506  1.00  0.00    -0.239 OA 
HETATM    4  F   UNL     1     -12.406   4.678  73.192  1.00  0.00    -0.308 F  
ENDROOT
BRANCH   3   5
HETATM    5  C   UNL     1      -9.623   6.695  72.878  1.00  0.00    -0.149 A  
HETATM    6  C   UNL     1     -10.017   7.957  72.390  1.00  0.00    -0.229 A  
HETATM    7  C   UNL     1      -7.379   7.072  72.052  1.00  0.00    -0.082 A  
HETATM    8  C   UNL     1      -9.091   8.759  71.714  1.00  0.00    -0.305 A  
HETATM    9  C   UNL     1      -8.297   6.273  72.736  1.00  0.00    -0.119 A  
HETATM   10  C   UNL     1      -7.779   8.300  71.518  1.00  0.00    -0.114 A  
BRANCH   6  11
HETATM   11  O   UNL     1     -11.316   8.314  72.641  1.00  0.00    -0.390 OA 
BRANCH  11  12
HETATM   12  C   UNL     1     -12.114   8.734  71.537  1.00  0.00    -0.329 C  
BRANCH  12  13
HETATM   13  C   UNL     1     -11.933  10.214  71.373  1.00  0.00    -0.447 C  
HETATM   14  C   UNL     1     -12.364  10.900  70.102  1.00  0.00    -0.399 C  
HETATM   15  C   UNL     1     -13.116  11.149  71.379  1.00  0.00    -0.422 C  
ENDBRANCH  12  13
ENDBRANCH  11  12
ENDBRANCH   6  11
BRANCH  10  16
HETATM   16  C   UNL     1      -6.807   9.076  70.695  1.00  0.00    -0.071 C  
HETATM   17  O   UNL     1      -5.674   8.646  70.526  1.00  0.00    -0.027 OA 
HETATM   18  H   UNL     1      -8.287  10.496  70.339  1.00  0.00     0.000 HD 
HETATM   19  N   UNL     1      -7.368  10.165  70.046  1.00  0.00    -0.160 N  
BRANCH  19  20
HETATM   20  C   UNL     1      -6.698  10.835  68.982  1.00  0.00    -0.070 A  
HETATM   21  C   UNL     1      -7.031  10.465  67.669  1.00  0.00    -0.083 A  
HETATM   22  C   UNL     1      -6.394  11.095  66.611  1.00  0.00    -0.134 A  
HETATM   23 CL   UNL     1      -8.177   9.215  67.344  1.00  0.00    -0.107 Cl 
HETATM   24  N   UNL     1      -5.476  12.074  66.765  1.00  0.00    -0.312 NA 
HETATM   25  C   UNL     1      -5.193  12.440  68.040  1.00  0.00    -0.073 A  
HETATM   26  C   UNL     1      -5.767  11.866  69.171  1.00  0.00    -0.059 A  
HETATM   27 CL   UNL     1      -5.418  12.568  70.705  1.00  0.00    -0.168 Cl 
ENDBRANCH  19  20
ENDBRANCH  10  16
ENDBRANCH   3   5
TORSDOF 6
ENDMDL
MODEL      191
REMARK 921   NORMALIZED FREE ENERGY PREDICTED BY IDOCK:   -3.51 KCAL/MOL
REMARK 922        TOTAL FREE ENERGY PREDICTED BY IDOCK:   -6.07 KCAL/MOL
REMARK 923 INTER-LIGAND FREE ENERGY PREDICTED BY IDOCK:   -5.13 KCAL/MOL
REMARK 924 INTRA-LIGAND FREE ENERGY PREDICTED BY IDOCK:   -0.94 KCAL/MOL
REMARK 927      BINDING AFFINITY PREDICTED BY RF-SCORE:    0.00 PKD
ROOT
HETATM    1  F   UNL     1      -9.161   2.825  73.491  1.00  0.00    -0.082 F  
HETATM    2  C   UNL     1     -10.354   3.431  73.269  1.00  0.00    -0.160 C  
HETATM    3  O   UNL     1     -10.109   4.739  72.782  1.00  0.00    -0.160 OA 
HETATM    4  F   UNL     1     -10.965   3.546  74.475  1.00  0.00    -0.222 F  
ENDROOT
BRANCH   3   5
HETATM    5  C   UNL     1     -10.037   4.849  71.418  1.00  0.00    -0.198 A  
HETATM    6  C   UNL     1     -10.969   5.710  70.804  1.00  0.00    -0.187 A  
HETATM    7  C   UNL     1      -9.095   4.319  69.252  1.00  0.00    -0.182 A  
HETATM    8  C   UNL     1     -10.971   5.851  69.412  1.00  0.00    -0.421 A  
HETATM    9  C   UNL     1      -9.083   4.184  70.641  1.00  0.00    -0.177 A  
HETATM   10  C   UNL     1     -10.053   5.129  68.635  1.00  0.00    -0.220 A  
BRANCH   6  11
HETATM   11  O   UNL     1     -11.815   6.374  71.653  1.00  0.00    -0.310 OA 
BRANCH  11  12
HETATM   12  C   UNL     1     -12.823   7.200  71.074  1.00  0.00    -0.212 C  
BRANCH  12  13
HETATM   13  C   UNL     1     -12.482   8.628  71.383  1.00  0.00    -0.337 C  
HETATM   14  C   UNL     1     -13.499   9.720  71.165  1.00  0.00    -0.304 C  
HETATM   15  C   UNL     1     -13.098   9.338  72.563  1.00  0.00    -0.416 C  
ENDBRANCH  12  13
ENDBRANCH  11  12
ENDBRANCH   6  11
BRANCH  10  16
HETATM   16  C   UNL     1     -10.112   5.161  67.144  1.00  0.00    -0.206 C  
HETATM   17  O   UNL     1     -11.029   5.749  66.585  1.00  0.00    -0.277 OA 
HETATM   18  H   UNL     1      -8.333   4.082  67.079  1.00  0.00     0.000 HD 
HETATM   19  N   UNL     1      -8.985   4.641  66.528  1.00  0.00    -0.111 N  
BRANCH  19  20
HETATM   20  C   UNL     1      -8.710   4.863  65.148  1.00  0.00    -0.148 A  
HETATM   21  C   UNL     1      -8.079   6.068  64.797  1.00  0.00    -0.132 A  
HETATM   22  C   UNL     1      -7.802   6.317  63.462  1.00  0.00    -0.113 A  
HETATM   23 CL   UNL     1      -7.685   7.262  65.981  1.00  0.00    -0.092 Cl 
HETATM   24  N   UNL     1      -8.083   5.451  62.464  1.00  0.00    -0.090 NA 
HETATM   25  C   UNL     1      -8.662   4.280  62.827  1.00  0.00    -0.108 A  
HETATM   26  C   UNL     1      -8.991   3.935  64.136  1.00  0.00    -0.129 A  
HETATM   27 CL   UNL     1      -9.565   2.339  64.436  1.00  0.00    -0.136 Cl 
ENDBRANCH  19  20
ENDBRANCH  10  16
ENDBRANCH   3   5
TORSDOF 6
ENDMDL
MODEL      192
REMARK 921   NORMALIZED FREE ENERGY PREDICTED BY IDOCK:   -3.51 KCAL/MOL
REMARK 922        TOTAL FREE ENERGY PREDICTED BY IDOCK:   -6.07 KCAL/MOL
REMARK 923 INTER-LIGAND FREE ENERGY PREDICTED BY IDOCK:   -4.87 KCAL/MOL
REMARK 924 INTRA-LIGAND FREE ENERGY PREDICTED BY IDOCK:   -1.19 KCAL/MOL
REMARK 927      BINDING AFFINITY PREDICTED BY RF-SCORE:    0.00 PKD
ROOT
HETATM    1  F   UNL     1      -7.698  13.302  68.094  1.00  0.00    -0.104 F  
HETATM    2  C   UNL     1      -8.930  12.737  68.139  1.00  0.00    -0.199 C  
HETATM    3  O   UNL     1      -9.213  12.174  66.869  1.00  0.00    -0.191 OA 
HETATM    4  F   UNL     1      -9.815  13.745  68.350  1.00  0.00    -0.209 F  
ENDROOT
BRANCH   3   5
HETATM    5  C   UNL     1      -8.848  10.861  66.720  1.00  0.00    -0.145 A  
HETATM    6  C   UNL     1      -8.822  10.360  65.403  1.00  0.00    -0.179 A  
HETATM    7  C   UNL     1      -8.154   8.700  67.561  1.00  0.00    -0.106 A  
HETATM    8  C   UNL     1      -8.483   9.021  65.178  1.00  0.00    -0.183 A  
HETATM    9  C   UNL     1      -8.480  10.038  67.789  1.00  0.00    -0.114 A  
HETATM   10  C   UNL     1      -8.180   8.184  66.262  1.00  0.00    -0.114 A  
BRANCH   6  11
HETATM   11  O   UNL     1      -9.125  11.261  64.416  1.00  0.00    -0.113 OA 
BRANCH  11  12
HETATM   12  C   UNL     1     -10.281  11.010  63.621  1.00  0.00    -0.372 C  
BRANCH  12  13
HETATM   13  C   UNL     1     -11.135  12.244  63.646  1.00  0.00    -0.537 C  
HETATM   14  C   UNL     1     -12.617  12.152  63.382  1.00  0.00    -0.584 C  
HETATM   15  C   UNL     1     -12.121  12.486  64.761  1.00  0.00    -0.497 C  
ENDBRANCH  12  13
ENDBRANCH  11  12
ENDBRANCH   6  11
BRANCH  10  16
HETATM   16  C   UNL     1      -7.939   6.725  66.065  1.00  0.00    -0.109 C  
HETATM   17  O   UNL     1      -7.649   6.022  67.023  1.00  0.00    -0.093 OA 
HETATM   18  H   UNL     1      -8.372   6.957  64.042  1.00  0.00     0.000 HD 
HETATM   19  N   UNL     1      -8.244   6.275  64.789  1.00  0.00    -0.128 N  
BRANCH  19  20
HETATM   20  C   UNL     1      -8.383   4.889  64.493  1.00  0.00    -0.132 A  
HETATM   21  C   UNL     1      -7.282   4.233  63.919  1.00  0.00    -0.050 A  
HETATM   22  C   UNL     1      -7.387   2.885  63.614  1.00  0.00    -0.057 A  
HETATM   23 CL   UNL     1      -5.822   5.074  63.543  1.00  0.00    -0.017 Cl 
HETATM   24  N   UNL     1      -8.491   2.145  63.859  1.00  0.00    -0.081 NA 
HETATM   25  C   UNL     1      -9.531   2.789  64.444  1.00  0.00    -0.145 A  
HETATM   26  C   UNL     1      -9.533   4.140  64.780  1.00  0.00    -0.170 A  
HETATM   27 CL   UNL     1     -10.875   4.755  65.670  1.00  0.00    -0.243 Cl 
ENDBRANCH  19  20
ENDBRANCH  10  16
ENDBRANCH   3   5
TORSDOF 6
ENDMDL
MODEL      193
REMARK 921   NORMALIZED FREE ENERGY PREDICTED BY IDOCK:   -3.48 KCAL/MOL
REMARK 922        TOTAL FREE ENERGY PREDICTED BY IDOCK:   -6.02 KCAL/MOL
REMARK 923 INTER-LIGAND FREE ENERGY PREDICTED BY IDOCK:   -4.92 KCAL/MOL
REMARK 924 INTRA-LIGAND FREE ENERGY PREDICTED BY IDOCK:   -1.11 KCAL/MOL
REMARK 927      BINDING AFFINITY PREDICTED BY RF-SCORE:    0.00 PKD
ROOT
HETATM    1  F   UNL     1      -9.940   4.219  69.814  1.00  0.00    -0.274 F  
HETATM    2  C   UNL     1      -8.805   4.959  69.871  1.00  0.00    -0.094 C  
HETATM    3  O   UNL     1      -8.529   5.460  68.574  1.00  0.00    -0.097 OA 
HETATM    4  F   UNL     1      -7.801   4.109  70.207  1.00  0.00    -0.050 F  
ENDROOT
BRANCH   3   5
HETATM    5  C   UNL     1      -9.067   6.691  68.299  1.00  0.00    -0.123 A  
HETATM    6  C   UNL     1      -8.283   7.812  68.640  1.00  0.00    -0.128 A  
HETATM    7  C   UNL     1     -10.807   8.155  67.469  1.00  0.00    -0.109 A  
HETATM    8  C   UNL     1      -8.780   9.100  68.412  1.00  0.00    -0.129 A  
HETATM    9  C   UNL     1     -10.310   6.868  67.684  1.00  0.00    -0.260 A  
HETATM   10  C   UNL     1     -10.057   9.269  67.856  1.00  0.00    -0.246 A  
BRANCH   6  11
HETATM   11  O   UNL     1      -7.049   7.537  69.169  1.00  0.00    -0.073 OA 
BRANCH  11  12
HETATM   12  C   UNL     1      -6.090   8.591  69.196  1.00  0.00    -0.042 C  
BRANCH  12  13
HETATM   13  C   UNL     1      -5.491   8.635  70.571  1.00  0.00    -0.027 C  
HETATM   14  C   UNL     1      -5.504   9.915  71.369  1.00  0.00    -0.073 C  
HETATM   15  C   UNL     1      -6.363   8.757  71.796  1.00  0.00    -0.074 C  
ENDBRANCH  12  13
ENDBRANCH  11  12
ENDBRANCH   6  11
BRANCH  10  16
HETATM   16  C   UNL     1     -10.663  10.626  67.718  1.00  0.00    -0.257 C  
HETATM   17  O   UNL     1     -11.634  10.786  66.991  1.00  0.00    -0.322 OA 
HETATM   18  H   UNL     1      -9.266  11.356  69.078  1.00  0.00     0.000 HD 
HETATM   19  N   UNL     1     -10.140  11.564  68.594  1.00  0.00    -0.214 N  
BRANCH  19  20
HETATM   20  C   UNL     1     -10.786  12.809  68.839  1.00  0.00    -0.196 A  
HETATM   21  C   UNL     1     -10.418  13.901  68.038  1.00  0.00    -0.243 A  
HETATM   22  C   UNL     1     -11.025  15.128  68.254  1.00  0.00    -0.276 A  
HETATM   23 CL   UNL     1      -9.196  13.764  66.826  1.00  0.00    -0.261 Cl 
HETATM   24  N   UNL     1     -11.981  15.338  69.185  1.00  0.00    -0.305 NA 
HETATM   25  C   UNL     1     -12.347  14.262  69.926  1.00  0.00    -0.324 A  
HETATM   26  C   UNL     1     -11.794  12.991  69.797  1.00  0.00    -0.311 A  
HETATM   27 CL   UNL     1     -12.495  11.704  70.702  1.00  0.00    -0.409 Cl 
ENDBRANCH  19  20
ENDBRANCH  10  16
ENDBRANCH   3   5
TORSDOF 6
ENDMDL
MODEL      194
REMARK 921   NORMALIZED FREE ENERGY PREDICTED BY IDOCK:   -3.47 KCAL/MOL
REMARK 922        TOTAL FREE ENERGY PREDICTED BY IDOCK:   -6.01 KCAL/MOL
REMARK 923 INTER-LIGAND FREE ENERGY PREDICTED BY IDOCK:   -5.58 KCAL/MOL
REMARK 924 INTRA-LIGAND FREE ENERGY PREDICTED BY IDOCK:   -0.43 KCAL/MOL
REMARK 927      BINDING AFFINITY PREDICTED BY RF-SCORE:    0.00 PKD
ROOT
HETATM    1  F   UNL     1     -11.479  16.437  67.516  1.00  0.00    -0.165 F  
HETATM    2  C   UNL     1     -10.307  15.985  68.027  1.00  0.00    -0.266 C  
HETATM    3  O   UNL     1     -10.553  14.767  68.709  1.00  0.00    -0.236 OA 
HETATM    4  F   UNL     1      -9.903  16.898  68.947  1.00  0.00    -0.231 F  
ENDROOT
BRANCH   3   5
HETATM    5  C   UNL     1     -10.416  13.635  67.947  1.00  0.00    -0.247 A  
HETATM    6  C   UNL     1     -10.883  12.433  68.514  1.00  0.00    -0.242 A  
HETATM    7  C   UNL     1      -9.734  12.437  65.957  1.00  0.00    -0.253 A  
HETATM    8  C   UNL     1     -10.751  11.234  67.804  1.00  0.00    -0.265 A  
HETATM    9  C   UNL     1      -9.875  13.636  66.657  1.00  0.00    -0.284 A  
HETATM   10  C   UNL     1     -10.147  11.234  66.537  1.00  0.00    -0.256 A  
BRANCH   6  11
HETATM   11  O   UNL     1     -11.464  12.543  69.750  1.00  0.00    -0.233 OA 
BRANCH  11  12
HETATM   12  C   UNL     1     -12.637  13.345  69.862  1.00  0.00     0.026 C  
BRANCH  12  13
HETATM   13  C   UNL     1     -12.631  13.985  71.219  1.00  0.00    -0.444 C  
HETATM   14  C   UNL     1     -12.131  15.396  71.395  1.00  0.00    -0.436 C  
HETATM   15  C   UNL     1     -13.594  15.094  71.561  1.00  0.00    -0.564 C  
ENDBRANCH  12  13
ENDBRANCH  11  12
ENDBRANCH   6  11
BRANCH  10  16
HETATM   16  C   UNL     1      -9.878   9.958  65.812  1.00  0.00    -0.287 C  
HETATM   17  O   UNL     1     -10.170   9.859  64.628  1.00  0.00    -0.090 OA 
HETATM   18  H   UNL     1      -9.047   9.177  67.554  1.00  0.00     0.000 HD 
HETATM   19  N   UNL     1      -9.145   9.040  66.548  1.00  0.00    -0.153 N  
BRANCH  19  20
HETATM   20  C   UNL     1      -8.523   7.912  65.940  1.00  0.00    -0.138 A  
HETATM   21  C   UNL     1      -9.172   6.672  66.057  1.00  0.00    -0.033 A  
HETATM   22  C   UNL     1      -8.591   5.553  65.480  1.00  0.00    -0.150 A  
HETATM   23 CL   UNL     1     -10.646   6.500  66.938  1.00  0.00    -0.362 Cl 
HETATM   24  N   UNL     1      -7.434   5.585  64.782  1.00  0.00    -0.068 NA 
HETATM   25  C   UNL     1      -6.841   6.797  64.653  1.00  0.00    -0.050 A  
HETATM   26  C   UNL     1      -7.334   7.979  65.201  1.00  0.00    -0.074 A  
HETATM   27 CL   UNL     1      -6.543   9.455  64.796  1.00  0.00    -0.077 Cl 
ENDBRANCH  19  20
ENDBRANCH  10  16
ENDBRANCH   3   5
TORSDOF 6
ENDMDL
MODEL      195
REMARK 921   NORMALIZED FREE ENERGY PREDICTED BY IDOCK:   -3.46 KCAL/MOL
REMARK 922        TOTAL FREE ENERGY PREDICTED BY IDOCK:   -6.00 KCAL/MOL
REMARK 923 INTER-LIGAND FREE ENERGY PREDICTED BY IDOCK:   -4.66 KCAL/MOL
REMARK 924 INTRA-LIGAND FREE ENERGY PREDICTED BY IDOCK:   -1.35 KCAL/MOL
REMARK 927      BINDING AFFINITY PREDICTED BY RF-SCORE:    0.00 PKD
ROOT
HETATM    1  F   UNL     1      -8.562   5.357  63.857  1.00  0.00    -0.137 F  
HETATM    2  C   UNL     1      -8.259   4.709  65.009  1.00  0.00    -0.115 C  
HETATM    3  O   UNL     1      -7.265   5.452  65.695  1.00  0.00    -0.066 OA 
HETATM    4  F   UNL     1      -7.712   3.518  64.655  1.00  0.00    -0.073 F  
ENDROOT
BRANCH   3   5
HETATM    5  C   UNL     1      -7.743   6.376  66.588  1.00  0.00    -0.099 A  
HETATM    6  C   UNL     1      -7.602   6.064  67.955  1.00  0.00    -0.097 A  
HETATM    7  C   UNL     1      -8.814   8.467  67.172  1.00  0.00    -0.139 A  
HETATM    8  C   UNL     1      -8.090   6.949  68.922  1.00  0.00    -0.120 A  
HETATM    9  C   UNL     1      -8.318   7.592  66.204  1.00  0.00    -0.134 A  
HETATM   10  C   UNL     1      -8.725   8.137  68.527  1.00  0.00    -0.134 A  
BRANCH   6  11
HETATM   11  O   UNL     1      -6.960   4.885  68.233  1.00  0.00    -0.055 OA 
BRANCH  11  12
HETATM   12  C   UNL     1      -7.560   4.013  69.188  1.00  0.00    -0.054 C  
BRANCH  12  13
HETATM   13  C   UNL     1      -8.799   3.435  68.570  1.00  0.00    -0.160 C  
HETATM   14  C   UNL     1      -8.711   2.228  67.671  1.00  0.00    -0.139 C  
HETATM   15  C   UNL     1      -9.349   2.107  69.026  1.00  0.00    -0.198 C  
ENDBRANCH  12  13
ENDBRANCH  11  12
ENDBRANCH   6  11
BRANCH  10  16
HETATM   16  C   UNL     1      -9.366   9.037  69.529  1.00  0.00    -0.160 C  
HETATM   17  O   UNL     1      -8.671   9.655  70.324  1.00  0.00    -0.218 OA 
HETATM   18  H   UNL     1     -11.225   8.570  68.715  1.00  0.00     0.000 HD 
HETATM   19  N   UNL     1     -10.728   9.211  69.334  1.00  0.00    -0.221 N  
BRANCH  19  20
HETATM   20  C   UNL     1     -11.452  10.258  69.973  1.00  0.00    -0.296 A  
HETATM   21  C   UNL     1     -11.672  11.437  69.241  1.00  0.00    -0.337 A  
HETATM   22  C   UNL     1     -12.370  12.476  69.836  1.00  0.00    -0.050 A  
HETATM   23 CL   UNL     1     -11.054  11.638  67.642  1.00  0.00    -0.292 Cl 
HETATM   24  N   UNL     1     -12.881  12.418  71.085  1.00  0.00    -0.277 NA 
HETATM   25  C   UNL     1     -12.687  11.259  71.763  1.00  0.00    -0.273 A  
HETATM   26  C   UNL     1     -11.993  10.160  71.263  1.00  0.00    -0.382 A  
HETATM   27 CL   UNL     1     -11.988   8.710  72.192  1.00  0.00    -0.435 Cl 
ENDBRANCH  19  20
ENDBRANCH  10  16
ENDBRANCH   3   5
TORSDOF 6
ENDMDL
MODEL      196
REMARK 921   NORMALIZED FREE ENERGY PREDICTED BY IDOCK:   -3.45 KCAL/MOL
REMARK 922        TOTAL FREE ENERGY PREDICTED BY IDOCK:   -5.98 KCAL/MOL
REMARK 923 INTER-LIGAND FREE ENERGY PREDICTED BY IDOCK:   -5.07 KCAL/MOL
REMARK 924 INTRA-LIGAND FREE ENERGY PREDICTED BY IDOCK:   -0.91 KCAL/MOL
REMARK 927      BINDING AFFINITY PREDICTED BY RF-SCORE:    0.00 PKD
ROOT
HETATM    1  F   UNL     1      -6.491  15.595  69.032  1.00  0.00    -0.110 F  
HETATM    2  C   UNL     1      -7.842  15.475  69.036  1.00  0.00    -0.201 C  
HETATM    3  O   UNL     1      -8.236  14.792  67.858  1.00  0.00    -0.135 OA 
HETATM    4  F   UNL     1      -8.346  16.734  68.973  1.00  0.00    -0.230 F  
ENDROOT
BRANCH   3   5
HETATM    5  C   UNL     1      -8.325  13.430  67.977  1.00  0.00    -0.165 A  
HETATM    6  C   UNL     1      -9.624  12.887  68.054  1.00  0.00    -0.221 A  
HETATM    7  C   UNL     1      -7.381  11.207  68.153  1.00  0.00    -0.087 A  
HETATM    8  C   UNL     1      -9.790  11.505  68.202  1.00  0.00    -0.197 A  
HETATM    9  C   UNL     1      -7.212  12.583  67.993  1.00  0.00    -0.105 A  
HETATM   10  C   UNL     1      -8.665  10.670  68.284  1.00  0.00    -0.135 A  
BRANCH   6  11
HETATM   11  O   UNL     1     -10.652  13.787  67.955  1.00  0.00    -0.242 OA 
BRANCH  11  12
HETATM   12  C   UNL     1     -11.927  13.396  68.461  1.00  0.00    -0.328 C  
BRANCH  12  13
HETATM   13  C   UNL     1     -11.798  13.214  69.945  1.00  0.00    -0.378 C  
HETATM   14  C   UNL     1     -13.018  13.272  70.829  1.00  0.00    -0.097 C  
HETATM   15  C   UNL     1     -12.303  11.966  70.623  1.00  0.00    -0.405 C  
ENDBRANCH  12  13
ENDBRANCH  11  12
ENDBRANCH   6  11
BRANCH  10  16
HETATM   16  C   UNL     1      -8.808   9.212  68.568  1.00  0.00    -0.129 C  
HETATM   17  O   UNL     1      -7.855   8.464  68.399  1.00  0.00    -0.109 OA 
HETATM   18  H   UNL     1     -10.771   9.552  69.173  1.00  0.00     0.000 HD 
HETATM   19  N   UNL     1     -10.008   8.876  69.176  1.00  0.00    -0.184 N  
BRANCH  19  20
HETATM   20  C   UNL     1     -10.205   7.614  69.806  1.00  0.00    -0.210 A  
HETATM   21  C   UNL     1     -10.702   6.564  69.016  1.00  0.00    -0.278 A  
HETATM   22  C   UNL     1     -10.910   5.324  69.600  1.00  0.00     0.087 A  
HETATM   23 CL   UNL     1     -11.104   6.795  67.353  1.00  0.00    -0.395 Cl 
HETATM   24  N   UNL     1     -10.638   5.050  70.894  1.00  0.00    -0.142 NA 
HETATM   25  C   UNL     1     -10.127   6.068  71.632  1.00  0.00    -0.190 A  
HETATM   26  C   UNL     1      -9.890   7.351  71.147  1.00  0.00    -0.174 A  
HETATM   27 CL   UNL     1      -9.081   8.472  72.174  1.00  0.00    -0.307 Cl 
ENDBRANCH  19  20
ENDBRANCH  10  16
ENDBRANCH   3   5
TORSDOF 6
ENDMDL
MODEL      197
REMARK 921   NORMALIZED FREE ENERGY PREDICTED BY IDOCK:   -3.44 KCAL/MOL
REMARK 922        TOTAL FREE ENERGY PREDICTED BY IDOCK:   -5.98 KCAL/MOL
REMARK 923 INTER-LIGAND FREE ENERGY PREDICTED BY IDOCK:   -4.81 KCAL/MOL
REMARK 924 INTRA-LIGAND FREE ENERGY PREDICTED BY IDOCK:   -1.16 KCAL/MOL
REMARK 927      BINDING AFFINITY PREDICTED BY RF-SCORE:    0.00 PKD
ROOT
HETATM    1  F   UNL     1      -9.044  16.936  69.064  1.00  0.00    -0.260 F  
HETATM    2  C   UNL     1     -10.145  16.362  68.517  1.00  0.00    -0.248 C  
HETATM    3  O   UNL     1      -9.784  15.791  67.272  1.00  0.00    -0.221 OA 
HETATM    4  F   UNL     1     -11.027  17.365  68.271  1.00  0.00    -0.362 F  
ENDROOT
BRANCH   3   5
HETATM    5  C   UNL     1      -9.386  14.480  67.326  1.00  0.00    -0.210 A  
HETATM    6  C   UNL     1     -10.171  13.553  66.610  1.00  0.00    -0.275 A  
HETATM    7  C   UNL     1      -7.930  12.690  68.057  1.00  0.00    -0.155 A  
HETATM    8  C   UNL     1      -9.839  12.194  66.642  1.00  0.00    -0.224 A  
HETATM    9  C   UNL     1      -8.250  14.048  68.018  1.00  0.00    -0.155 A  
HETATM   10  C   UNL     1      -8.736  11.761  67.393  1.00  0.00    -0.162 A  
BRANCH   6  11
HETATM   11  O   UNL     1     -11.219  14.081  65.903  1.00  0.00    -0.303 OA 
BRANCH  11  12
HETATM   12  C   UNL     1     -12.420  13.317  65.829  1.00  0.00    -0.417 C  
BRANCH  12  13
HETATM   13  C   UNL     1     -12.719  13.066  64.380  1.00  0.00    -0.275 C  
HETATM   14  C   UNL     1     -11.596  12.919  63.384  1.00  0.00    -0.463 C  
HETATM   15  C   UNL     1     -12.437  11.726  63.747  1.00  0.00    -0.436 C  
ENDBRANCH  12  13
ENDBRANCH  11  12
ENDBRANCH   6  11
BRANCH  10  16
HETATM   16  C   UNL     1      -8.433  10.307  67.548  1.00  0.00    -0.118 C  
HETATM   17  O   UNL     1      -9.306   9.478  67.326  1.00  0.00    -0.132 OA 
HETATM   18  H   UNL     1      -6.474  10.799  68.049  1.00  0.00     0.000 HD 
HETATM   19  N   UNL     1      -7.093  10.037  67.775  1.00  0.00    -0.085 N  
BRANCH  19  20
HETATM   20  C   UNL     1      -6.556   8.725  67.638  1.00  0.00    -0.062 A  
HETATM   21  C   UNL     1      -6.521   7.914  68.784  1.00  0.00    -0.048 A  
HETATM   22  C   UNL     1      -5.999   6.633  68.685  1.00  0.00    -0.022 A  
HETATM   23 CL   UNL     1      -7.065   8.490  70.318  1.00  0.00    -0.042 Cl 
HETATM   24  N   UNL     1      -5.539   6.098  67.533  1.00  0.00    -0.005 NA 
HETATM   25  C   UNL     1      -5.613   6.885  66.431  1.00  0.00    -0.022 A  
HETATM   26  C   UNL     1      -6.107   8.187  66.424  1.00  0.00    -0.045 A  
HETATM   27 CL   UNL     1      -6.284   8.981  64.905  1.00  0.00    -0.065 Cl 
ENDBRANCH  19  20
ENDBRANCH  10  16
ENDBRANCH   3   5
TORSDOF 6
ENDMDL
MODEL      198
REMARK 921   NORMALIZED FREE ENERGY PREDICTED BY IDOCK:   -3.42 KCAL/MOL
REMARK 922        TOTAL FREE ENERGY PREDICTED BY IDOCK:   -5.94 KCAL/MOL
REMARK 923 INTER-LIGAND FREE ENERGY PREDICTED BY IDOCK:   -4.85 KCAL/MOL
REMARK 924 INTRA-LIGAND FREE ENERGY PREDICTED BY IDOCK:   -1.09 KCAL/MOL
REMARK 927      BINDING AFFINITY PREDICTED BY RF-SCORE:    0.00 PKD
ROOT
HETATM    1  F   UNL     1     -10.596   4.077  62.973  1.00  0.00    -0.195 F  
HETATM    2  C   UNL     1      -9.376   3.730  63.453  1.00  0.00    -0.121 C  
HETATM    3  O   UNL     1      -8.843   4.834  64.165  1.00  0.00    -0.144 OA 
HETATM    4  F   UNL     1      -8.580   3.511  62.375  1.00  0.00    -0.075 F  
ENDROOT
BRANCH   3   5
HETATM    5  C   UNL     1      -9.131   4.856  65.505  1.00  0.00    -0.153 A  
HETATM    6  C   UNL     1      -9.068   6.111  66.143  1.00  0.00    -0.145 A  
HETATM    7  C   UNL     1      -9.748   3.815  67.602  1.00  0.00    -0.136 A  
HETATM    8  C   UNL     1      -9.324   6.204  67.516  1.00  0.00    -0.113 A  
HETATM    9  C   UNL     1      -9.504   3.720  66.231  1.00  0.00    -0.190 A  
HETATM   10  C   UNL     1      -9.633   5.049  68.250  1.00  0.00    -0.187 A  
BRANCH   6  11
HETATM   11  O   UNL     1      -8.767   7.176  65.335  1.00  0.00    -0.087 OA 
BRANCH  11  12
HETATM   12  C   UNL     1      -8.545   8.439  65.957  1.00  0.00    -0.146 C  
BRANCH  12  13
HETATM   13  C   UNL     1      -9.812   9.235  65.849  1.00  0.00    -0.335 C  
HETATM   14  C   UNL     1      -9.812  10.713  66.150  1.00  0.00    -0.268 C  
HETATM   15  C   UNL     1     -10.009  10.236  64.738  1.00  0.00    -0.392 C  
ENDBRANCH  12  13
ENDBRANCH  11  12
ENDBRANCH   6  11
BRANCH  10  16
HETATM   16  C   UNL     1      -9.787   5.098  69.734  1.00  0.00    -0.212 C  
HETATM   17  O   UNL     1      -9.788   4.058  70.379  1.00  0.00    -0.198 OA 
HETATM   18  H   UNL     1      -9.848   7.176  69.629  1.00  0.00     0.000 HD 
HETATM   19  N   UNL     1      -9.743   6.380  70.258  1.00  0.00    -0.167 N  
BRANCH  19  20
HETATM   20  C   UNL     1      -9.556   6.618  71.650  1.00  0.00    -0.162 A  
HETATM   21  C   UNL     1     -10.706   6.762  72.445  1.00  0.00    -0.226 A  
HETATM   22  C   UNL     1     -10.558   7.000  73.802  1.00  0.00    -0.287 A  
HETATM   23 CL   UNL     1     -12.291   6.698  71.764  1.00  0.00    -0.397 Cl 
HETATM   24  N   UNL     1      -9.361   7.079  74.424  1.00  0.00    -0.222 NA 
HETATM   25  C   UNL     1      -8.264   6.904  73.645  1.00  0.00    -0.112 A  
HETATM   26  C   UNL     1      -8.301   6.672  72.272  1.00  0.00    -0.107 A  
HETATM   27 CL   UNL     1      -6.822   6.304  71.469  1.00  0.00    -0.069 Cl 
ENDBRANCH  19  20
ENDBRANCH  10  16
ENDBRANCH   3   5
TORSDOF 6
ENDMDL
MODEL      199
REMARK 921   NORMALIZED FREE ENERGY PREDICTED BY IDOCK:   -3.41 KCAL/MOL
REMARK 922        TOTAL FREE ENERGY PREDICTED BY IDOCK:   -5.92 KCAL/MOL
REMARK 923 INTER-LIGAND FREE ENERGY PREDICTED BY IDOCK:   -4.89 KCAL/MOL
REMARK 924 INTRA-LIGAND FREE ENERGY PREDICTED BY IDOCK:   -1.04 KCAL/MOL
REMARK 927      BINDING AFFINITY PREDICTED BY RF-SCORE:    0.00 PKD
ROOT
HETATM    1  F   UNL     1      -5.807  16.639  67.186  1.00  0.00    -0.142 F  
HETATM    2  C   UNL     1      -6.581  16.286  68.243  1.00  0.00    -0.127 C  
HETATM    3  O   UNL     1      -7.779  15.710  67.752  1.00  0.00    -0.128 OA 
HETATM    4  F   UNL     1      -6.909  17.435  68.888  1.00  0.00    -0.195 F  
ENDROOT
BRANCH   3   5
HETATM    5  C   UNL     1      -7.747  14.349  67.590  1.00  0.00    -0.184 A  
HETATM    6  C   UNL     1      -8.992  13.698  67.476  1.00  0.00    -0.209 A  
HETATM    7  C   UNL     1      -6.610  12.222  67.377  1.00  0.00    -0.154 A  
HETATM    8  C   UNL     1      -9.036  12.307  67.335  1.00  0.00    -0.183 A  
HETATM    9  C   UNL     1      -6.562  13.611  67.506  1.00  0.00    -0.122 A  
HETATM   10  C   UNL     1      -7.844  11.567  67.318  1.00  0.00    -0.153 A  
BRANCH   6  11
HETATM   11  O   UNL     1     -10.094  14.513  67.495  1.00  0.00    -0.227 OA 
BRANCH  11  12
HETATM   12  C   UNL     1     -10.618  14.889  68.766  1.00  0.00    -0.247 C  
BRANCH  12  13
HETATM   13  C   UNL     1     -11.898  14.136  68.978  1.00  0.00    -0.384 C  
HETATM   14  C   UNL     1     -11.884  12.772  69.622  1.00  0.00    -0.384 C  
HETATM   15  C   UNL     1     -12.468  13.943  70.361  1.00  0.00    -0.404 C  
ENDBRANCH  12  13
ENDBRANCH  11  12
ENDBRANCH   6  11
BRANCH  10  16
HETATM   16  C   UNL     1      -7.864  10.075  67.296  1.00  0.00    -0.102 C  
HETATM   17  O   UNL     1      -7.216   9.447  68.123  1.00  0.00    -0.076 OA 
HETATM   18  H   UNL     1      -9.191  10.146  65.694  1.00  0.00     0.000 HD 
HETATM   19  N   UNL     1      -8.784   9.541  66.407  1.00  0.00    -0.133 N  
BRANCH  19  20
HETATM   20  C   UNL     1      -9.177   8.173  66.461  1.00  0.00    -0.188 A  
HETATM   21  C   UNL     1     -10.292   7.848  67.251  1.00  0.00    -0.307 A  
HETATM   22  C   UNL     1     -10.698   6.525  67.328  1.00  0.00    -0.356 A  
HETATM   23 CL   UNL     1     -11.138   9.047  68.161  1.00  0.00     0.040 Cl 
HETATM   24  N   UNL     1     -10.094   5.516  66.664  1.00  0.00    -0.187 NA 
HETATM   25  C   UNL     1      -9.040   5.855  65.881  1.00  0.00    -0.122 A  
HETATM   26  C   UNL     1      -8.546   7.150  65.741  1.00  0.00    -0.133 A  
HETATM   27 CL   UNL     1      -7.308   7.426  64.575  1.00  0.00    -0.080 Cl 
ENDBRANCH  19  20
ENDBRANCH  10  16
ENDBRANCH   3   5
TORSDOF 6
ENDMDL
MODEL      200
REMARK 921   NORMALIZED FREE ENERGY PREDICTED BY IDOCK:   -3.39 KCAL/MOL
REMARK 922        TOTAL FREE ENERGY PREDICTED BY IDOCK:   -5.90 KCAL/MOL
REMARK 923 INTER-LIGAND FREE ENERGY PREDICTED BY IDOCK:   -5.29 KCAL/MOL
REMARK 924 INTRA-LIGAND FREE ENERGY PREDICTED BY IDOCK:   -0.61 KCAL/MOL
REMARK 927      BINDING AFFINITY PREDICTED BY RF-SCORE:    0.00 PKD
ROOT
HETATM    1  F   UNL     1      -8.694  19.630  68.952  1.00  0.00    -0.383 F  
HETATM    2  C   UNL     1      -9.833  19.623  68.216  1.00  0.00    -0.419 C  
HETATM    3  O   UNL     1      -9.648  18.758  67.109  1.00  0.00    -0.290 OA 
HETATM    4  F   UNL     1      -9.994  20.882  67.734  1.00  0.00    -0.545 F  
ENDROOT
BRANCH   3   5
HETATM    5  C   UNL     1     -10.025  17.457  67.317  1.00  0.00    -0.302 A  
HETATM    6  C   UNL     1      -8.990  16.531  67.557  1.00  0.00    -0.196 A  
HETATM    7  C   UNL     1     -11.662  15.684  67.516  1.00  0.00     0.069 A  
HETATM    8  C   UNL     1      -9.300  15.180  67.752  1.00  0.00    -0.189 A  
HETATM    9  C   UNL     1     -11.359  17.034  67.332  1.00  0.00     0.370 A  
HETATM   10  C   UNL     1     -10.635  14.754  67.700  1.00  0.00    -0.262 A  
BRANCH   6  11
HETATM   11  O   UNL     1      -7.723  17.052  67.597  1.00  0.00    -0.166 OA 
BRANCH  11  12
HETATM   12  C   UNL     1      -7.038  17.034  68.847  1.00  0.00    -0.233 C  
BRANCH  12  13
HETATM   13  C   UNL     1      -6.644  15.615  69.136  1.00  0.00    -0.140 C  
HETATM   14  C   UNL     1      -5.228  15.153  68.900  1.00  0.00    -0.096 C  
HETATM   15  C   UNL     1      -5.750  15.278  70.304  1.00  0.00    -0.144 C  
ENDBRANCH  12  13
ENDBRANCH  11  12
ENDBRANCH   6  11
BRANCH  10  16
HETATM   16  C   UNL     1     -10.985  13.305  67.779  1.00  0.00    -0.258 C  
HETATM   17  O   UNL     1     -12.055  12.914  67.334  1.00  0.00    -0.333 OA 
HETATM   18  H   UNL     1      -9.135  12.938  68.661  1.00  0.00     0.000 HD 
HETATM   19  N   UNL     1      -9.943  12.502  68.216  1.00  0.00    -0.226 N  
BRANCH  19  20
HETATM   20  C   UNL     1      -9.968  11.087  68.062  1.00  0.00    -0.173 A  
HETATM   21  C   UNL     1     -10.716  10.345  68.992  1.00  0.00    -0.228 A  
HETATM   22  C   UNL     1     -10.756   8.964  68.873  1.00  0.00    -0.106 A  
HETATM   23 CL   UNL     1     -11.542  11.106  70.303  1.00  0.00    -0.399 Cl 
HETATM   24  N   UNL     1     -10.133   8.278  67.890  1.00  0.00    -0.191 NA 
HETATM   25  C   UNL     1      -9.445   9.015  66.983  1.00  0.00    -0.163 A  
HETATM   26  C   UNL     1      -9.331  10.402  67.017  1.00  0.00    -0.154 A  
HETATM   27 CL   UNL     1      -8.561  11.188  65.692  1.00  0.00    -0.133 Cl 
ENDBRANCH  19  20
ENDBRANCH  10  16
ENDBRANCH   3   5
TORSDOF 6
ENDMDL
MODEL      201
REMARK 921   NORMALIZED FREE ENERGY PREDICTED BY IDOCK:   -3.39 KCAL/MOL
REMARK 922        TOTAL FREE ENERGY PREDICTED BY IDOCK:   -5.90 KCAL/MOL
REMARK 923 INTER-LIGAND FREE ENERGY PREDICTED BY IDOCK:   -5.06 KCAL/MOL
REMARK 924 INTRA-LIGAND FREE ENERGY PREDICTED BY IDOCK:   -0.84 KCAL/MOL
REMARK 927      BINDING AFFINITY PREDICTED BY RF-SCORE:    0.00 PKD
ROOT
HETATM    1  F   UNL     1      -8.856  17.960  67.602  1.00  0.00    -0.240 F  
HETATM    2  C   UNL     1      -9.924  17.182  67.904  1.00  0.00    -0.292 C  
HETATM    3  O   UNL     1     -10.007  16.140  66.947  1.00  0.00    -0.242 OA 
HETATM    4  F   UNL     1     -11.027  17.960  67.763  1.00  0.00    -0.390 F  
ENDROOT
BRANCH   3   5
HETATM    5  C   UNL     1      -9.340  14.989  67.279  1.00  0.00    -0.202 A  
HETATM    6  C   UNL     1      -9.876  13.784  66.783  1.00  0.00    -0.275 A  
HETATM    7  C   UNL     1      -7.566  13.756  68.371  1.00  0.00    -0.135 A  
HETATM    8  C   UNL     1      -9.262  12.568  67.104  1.00  0.00    -0.205 A  
HETATM    9  C   UNL     1      -8.168  14.972  68.043  1.00  0.00    -0.138 A  
HETATM   10  C   UNL     1      -8.125  12.555  67.926  1.00  0.00    -0.163 A  
BRANCH   6  11
HETATM   11  O   UNL     1     -10.982  13.909  65.983  1.00  0.00    -0.284 OA 
BRANCH  11  12
HETATM   12  C   UNL     1     -11.801  12.757  65.801  1.00  0.00    -0.434 C  
BRANCH  12  13
HETATM   13  C   UNL     1     -11.224  11.954  64.672  1.00  0.00    -0.364 C  
HETATM   14  C   UNL     1     -12.090  11.543  63.508  1.00  0.00    -0.170 C  
HETATM   15  C   UNL     1     -11.008  12.568  63.311  1.00  0.00    -0.248 C  
ENDBRANCH  12  13
ENDBRANCH  11  12
ENDBRANCH   6  11
BRANCH  10  16
HETATM   16  C   UNL     1      -7.524  11.269  68.388  1.00  0.00    -0.108 C  
HETATM   17  O   UNL     1      -6.605  11.283  69.195  1.00  0.00    -0.070 OA 
HETATM   18  H   UNL     1      -8.895  10.239  67.207  1.00  0.00     0.000 HD 
HETATM   19  N   UNL     1      -8.213  10.144  67.959  1.00  0.00    -0.112 N  
BRANCH  19  20
HETATM   20  C   UNL     1      -7.995   8.862  68.539  1.00  0.00    -0.104 A  
HETATM   21  C   UNL     1      -7.017   8.041  67.954  1.00  0.00    -0.078 A  
HETATM   22  C   UNL     1      -6.785   6.785  68.492  1.00  0.00    -0.064 A  
HETATM   23 CL   UNL     1      -6.135   8.540  66.556  1.00  0.00    -0.055 Cl 
HETATM   24  N   UNL     1      -7.432   6.301  69.574  1.00  0.00    -0.090 NA 
HETATM   25  C   UNL     1      -8.348   7.122  70.145  1.00  0.00    -0.137 A  
HETATM   26  C   UNL     1      -8.665   8.396  69.679  1.00  0.00    -0.133 A  
HETATM   27 CL   UNL     1      -9.730   9.366  70.624  1.00  0.00    -0.328 Cl 
ENDBRANCH  19  20
ENDBRANCH  10  16
ENDBRANCH   3   5
TORSDOF 6
ENDMDL
MODEL      202
REMARK 921   NORMALIZED FREE ENERGY PREDICTED BY IDOCK:   -3.30 KCAL/MOL
REMARK 922        TOTAL FREE ENERGY PREDICTED BY IDOCK:   -5.79 KCAL/MOL
REMARK 923 INTER-LIGAND FREE ENERGY PREDICTED BY IDOCK:   -4.93 KCAL/MOL
REMARK 924 INTRA-LIGAND FREE ENERGY PREDICTED BY IDOCK:   -0.86 KCAL/MOL
REMARK 927      BINDING AFFINITY PREDICTED BY RF-SCORE:    0.00 PKD
ROOT
HETATM    1  F   UNL     1     -10.623   4.405  69.285  1.00  0.00    -0.024 F  
HETATM    2  C   UNL     1      -9.438   4.622  68.663  1.00  0.00    -0.152 C  
HETATM    3  O   UNL     1      -9.698   5.026  67.329  1.00  0.00    -0.142 OA 
HETATM    4  F   UNL     1      -8.797   3.426  68.614  1.00  0.00    -0.103 F  
ENDROOT
BRANCH   3   5
HETATM    5  C   UNL     1      -9.804   6.380  67.142  1.00  0.00    -0.146 A  
HETATM    6  C   UNL     1      -9.097   6.922  66.050  1.00  0.00    -0.067 A  
HETATM    7  C   UNL     1     -10.619   8.586  67.717  1.00  0.00    -0.242 A  
HETATM    8  C   UNL     1      -9.139   8.301  65.813  1.00  0.00    -0.169 A  
HETATM    9  C   UNL     1     -10.589   7.210  67.949  1.00  0.00    -0.269 A  
HETATM   10  C   UNL     1      -9.876   9.135  66.668  1.00  0.00    -0.307 A  
BRANCH   6  11
HETATM   11  O   UNL     1      -8.417   6.021  65.273  1.00  0.00    -0.148 OA 
BRANCH  11  12
HETATM   12  C   UNL     1      -6.994   6.017  65.354  1.00  0.00    -0.063 C  
BRANCH  12  13
HETATM   13  C   UNL     1      -6.612   6.293  66.778  1.00  0.00    -0.055 C  
HETATM   14  C   UNL     1      -6.093   5.184  67.658  1.00  0.00    -0.030 C  
HETATM   15  C   UNL     1      -5.168   6.282  67.213  1.00  0.00    -0.005 C  
ENDBRANCH  12  13
ENDBRANCH  11  12
ENDBRANCH   6  11
BRANCH  10  16
HETATM   16  C   UNL     1      -9.837  10.619  66.516  1.00  0.00    -0.204 C  
HETATM   17  O   UNL     1      -8.763  11.188  66.372  1.00  0.00    -0.167 OA 
HETATM   18  H   UNL     1     -11.916  10.655  66.626  1.00  0.00     0.000 HD 
HETATM   19  N   UNL     1     -11.089  11.200  66.384  1.00  0.00    -0.202 N  
BRANCH  19  20
HETATM   20  C   UNL     1     -11.253  12.537  65.920  1.00  0.00    -0.320 A  
HETATM   21  C   UNL     1     -11.431  13.542  66.885  1.00  0.00    -0.344 A  
HETATM   22  C   UNL     1     -11.599  14.853  66.466  1.00  0.00    -0.252 A  
HETATM   23 CL   UNL     1     -11.494  13.178  68.571  1.00  0.00    -0.315 Cl 
HETATM   24  N   UNL     1     -11.577  15.235  65.170  1.00  0.00    -0.250 NA 
HETATM   25  C   UNL     1     -11.370  14.254  64.256  1.00  0.00    -0.184 A  
HETATM   26  C   UNL     1     -11.202  12.907  64.569  1.00  0.00    -0.336 A  
HETATM   27 CL   UNL     1     -10.781  11.824  63.298  1.00  0.00    -0.430 Cl 
ENDBRANCH  19  20
ENDBRANCH  10  16
ENDBRANCH   3   5
TORSDOF 6
ENDMDL
MODEL      203
REMARK 921   NORMALIZED FREE ENERGY PREDICTED BY IDOCK:   -3.24 KCAL/MOL
REMARK 922        TOTAL FREE ENERGY PREDICTED BY IDOCK:   -5.70 KCAL/MOL
REMARK 923 INTER-LIGAND FREE ENERGY PREDICTED BY IDOCK:   -4.74 KCAL/MOL
REMARK 924 INTRA-LIGAND FREE ENERGY PREDICTED BY IDOCK:   -0.96 KCAL/MOL
REMARK 927      BINDING AFFINITY PREDICTED BY RF-SCORE:    0.00 PKD
ROOT
HETATM    1  F   UNL     1      -9.942   5.110  68.476  1.00  0.00    -0.179 F  
HETATM    2  C   UNL     1      -8.983   5.720  67.736  1.00  0.00    -0.107 C  
HETATM    3  O   UNL     1      -9.612   6.426  66.679  1.00  0.00    -0.153 OA 
HETATM    4  F   UNL     1      -8.230   4.735  67.184  1.00  0.00    -0.104 F  
ENDROOT
BRANCH   3   5
HETATM    5  C   UNL     1      -9.929   7.730  66.959  1.00  0.00    -0.244 A  
HETATM    6  C   UNL     1      -9.461   8.701  66.051  1.00  0.00    -0.208 A  
HETATM    7  C   UNL     1     -10.955   9.468  68.296  1.00  0.00    -0.131 A  
HETATM    8  C   UNL     1      -9.726  10.055  66.287  1.00  0.00    -0.272 A  
HETATM    9  C   UNL     1     -10.703   8.115  68.058  1.00  0.00    -0.108 A  
HETATM   10  C   UNL     1     -10.447  10.438  67.428  1.00  0.00    -0.299 A  
BRANCH   6  11
HETATM   11  O   UNL     1      -8.776   8.221  64.966  1.00  0.00    -0.128 OA 
BRANCH  11  12
HETATM   12  C   UNL     1      -7.747   9.040  64.416  1.00  0.00    -0.118 C  
BRANCH  12  13
HETATM   13  C   UNL     1      -6.686   9.212  65.463  1.00  0.00    -0.073 C  
HETATM   14  C   UNL     1      -5.269   8.774  65.192  1.00  0.00    -0.038 C  
HETATM   15  C   UNL     1      -5.592  10.238  65.301  1.00  0.00    -0.106 C  
ENDBRANCH  12  13
ENDBRANCH  11  12
ENDBRANCH   6  11
BRANCH  10  16
HETATM   16  C   UNL     1     -10.635  11.878  67.772  1.00  0.00    -0.203 C  
HETATM   17  O   UNL     1     -11.268  12.186  68.773  1.00  0.00    -0.228 OA 
HETATM   18  H   UNL     1      -9.496  12.394  66.108  1.00  0.00     0.000 HD 
HETATM   19  N   UNL     1      -9.901  12.744  66.976  1.00  0.00    -0.226 N  
BRANCH  19  20
HETATM   20  C   UNL     1      -9.697  14.106  67.335  1.00  0.00    -0.232 A  
HETATM   21  C   UNL     1     -10.637  15.046  66.880  1.00  0.00    -0.297 A  
HETATM   22  C   UNL     1     -10.464  16.382  67.208  1.00  0.00    -0.303 A  
HETATM   23 CL   UNL     1     -11.970  14.585  65.886  1.00  0.00    -0.347 Cl 
HETATM   24  N   UNL     1      -9.447  16.841  67.970  1.00  0.00    -0.230 NA 
HETATM   25  C   UNL     1      -8.570  15.914  68.427  1.00  0.00    -0.178 A  
HETATM   26  C   UNL     1      -8.645  14.552  68.148  1.00  0.00    -0.169 A  
HETATM   27 CL   UNL     1      -7.545  13.495  68.949  1.00  0.00    -0.057 Cl 
ENDBRANCH  19  20
ENDBRANCH  10  16
ENDBRANCH   3   5
TORSDOF 6
ENDMDL
MODEL      204
REMARK 921   NORMALIZED FREE ENERGY PREDICTED BY IDOCK:   -3.20 KCAL/MOL
REMARK 922        TOTAL FREE ENERGY PREDICTED BY IDOCK:   -5.64 KCAL/MOL
REMARK 923 INTER-LIGAND FREE ENERGY PREDICTED BY IDOCK:   -4.43 KCAL/MOL
REMARK 924 INTRA-LIGAND FREE ENERGY PREDICTED BY IDOCK:   -1.21 KCAL/MOL
REMARK 927      BINDING AFFINITY PREDICTED BY RF-SCORE:    0.00 PKD
ROOT
HETATM    1  F   UNL     1      -5.814  15.075  68.031  1.00  0.00    -0.105 F  
HETATM    2  C   UNL     1      -6.392  14.497  69.113  1.00  0.00    -0.100 C  
HETATM    3  O   UNL     1      -7.618  13.912  68.709  1.00  0.00    -0.129 OA 
HETATM    4  F   UNL     1      -6.680  15.499  69.983  1.00  0.00    -0.171 F  
ENDROOT
BRANCH   3   5
HETATM    5  C   UNL     1      -7.536  12.601  68.317  1.00  0.00    -0.123 A  
HETATM    6  C   UNL     1      -8.647  12.078  67.627  1.00  0.00    -0.163 A  
HETATM    7  C   UNL     1      -6.416  10.461  68.144  1.00  0.00    -0.056 A  
HETATM    8  C   UNL     1      -8.643  10.739  67.219  1.00  0.00    -0.130 A  
HETATM    9  C   UNL     1      -6.411  11.799  68.542  1.00  0.00    -0.056 A  
HETATM   10  C   UNL     1      -7.538   9.923  67.508  1.00  0.00    -0.091 A  
BRANCH   6  11
HETATM   11  O   UNL     1      -9.669  12.959  67.389  1.00  0.00    -0.195 OA 
BRANCH  11  12
HETATM   12  C   UNL     1      -9.976  13.268  66.031  1.00  0.00    -0.292 C  
BRANCH  12  13
HETATM   13  C   UNL     1     -11.343  12.726  65.733  1.00  0.00    -0.357 C  
HETATM   14  C   UNL     1     -12.220  13.392  64.703  1.00  0.00    -0.456 C  
HETATM   15  C   UNL     1     -11.638  12.034  64.426  1.00  0.00    -0.411 C  
ENDBRANCH  12  13
ENDBRANCH  11  12
ENDBRANCH   6  11
BRANCH  10  16
HETATM   16  C   UNL     1      -7.558   8.463  67.198  1.00  0.00    -0.093 C  
HETATM   17  O   UNL     1      -6.915   7.687  67.892  1.00  0.00    -0.072 OA 
HETATM   18  H   UNL     1      -8.876   8.843  65.632  1.00  0.00     0.000 HD 
HETATM   19  N   UNL     1      -8.473   8.112  66.218  1.00  0.00    -0.124 N  
BRANCH  19  20
HETATM   20  C   UNL     1      -8.865   6.760  66.005  1.00  0.00    -0.135 A  
HETATM   21  C   UNL     1     -10.049   6.322  66.621  1.00  0.00    -0.155 A  
HETATM   22  C   UNL     1     -10.457   5.010  66.437  1.00  0.00    -0.300 A  
HETATM   23 CL   UNL     1     -10.980   7.363  67.636  1.00  0.00    -0.197 Cl 
HETATM   24  N   UNL     1      -9.790   4.118  65.672  1.00  0.00    -0.201 NA 
HETATM   25  C   UNL     1      -8.667   4.569  65.059  1.00  0.00    -0.138 A  
HETATM   26  C   UNL     1      -8.166   5.862  65.185  1.00  0.00    -0.141 A  
HETATM   27 CL   UNL     1      -6.824   6.314  64.203  1.00  0.00    -0.038 Cl 
ENDBRANCH  19  20
ENDBRANCH  10  16
ENDBRANCH   3   5
TORSDOF 6
ENDMDL
MODEL      205
REMARK 921   NORMALIZED FREE ENERGY PREDICTED BY IDOCK:   -2.98 KCAL/MOL
REMARK 922        TOTAL FREE ENERGY PREDICTED BY IDOCK:   -5.35 KCAL/MOL
REMARK 923 INTER-LIGAND FREE ENERGY PREDICTED BY IDOCK:   -4.32 KCAL/MOL
REMARK 924 INTRA-LIGAND FREE ENERGY PREDICTED BY IDOCK:   -1.04 KCAL/MOL
REMARK 927      BINDING AFFINITY PREDICTED BY RF-SCORE:    0.00 PKD
ROOT
HETATM    1  F   UNL     1      -8.170  12.951  68.084  1.00  0.00    -0.131 F  
HETATM    2  C   UNL     1      -9.387  12.374  68.245  1.00  0.00    -0.199 C  
HETATM    3  O   UNL     1      -9.767  11.777  67.017  1.00  0.00    -0.183 OA 
HETATM    4  F   UNL     1     -10.264  13.377  68.505  1.00  0.00    -0.225 F  
ENDROOT
BRANCH   3   5
HETATM    5  C   UNL     1      -9.398  10.465  66.868  1.00  0.00    -0.162 A  
HETATM    6  C   UNL     1      -9.115  10.034  65.557  1.00  0.00    -0.186 A  
HETATM    7  C   UNL     1      -8.921   8.244  67.705  1.00  0.00    -0.139 A  
HETATM    8  C   UNL     1      -8.757   8.701  65.327  1.00  0.00    -0.200 A  
HETATM    9  C   UNL     1      -9.267   9.576  67.940  1.00  0.00    -0.134 A  
HETATM   10  C   UNL     1      -8.692   7.799  66.400  1.00  0.00    -0.167 A  
BRANCH   6  11
HETATM   11  O   UNL     1      -9.199  10.995  64.583  1.00  0.00    -0.204 OA 
BRANCH  11  12
HETATM   12  C   UNL     1     -10.379  11.028  63.783  1.00  0.00    -0.364 C  
BRANCH  12  13
HETATM   13  C   UNL     1     -10.994  12.389  63.925  1.00  0.00    -0.467 C  
HETATM   14  C   UNL     1     -12.298  12.712  63.239  1.00  0.00    -0.453 C  
HETATM   15  C   UNL     1     -12.247  12.596  64.737  1.00  0.00    -0.528 C  
ENDBRANCH  12  13
ENDBRANCH  11  12
ENDBRANCH   6  11
BRANCH  10  16
HETATM   16  C   UNL     1      -8.437   6.347  66.171  1.00  0.00    -0.140 C  
HETATM   17  O   UNL     1      -9.247   5.680  65.542  1.00  0.00    -0.118 OA 
HETATM   18  H   UNL     1      -6.625   6.536  67.178  1.00  0.00     0.000 HD 
HETATM   19  N   UNL     1      -7.177   5.930  66.570  1.00  0.00    -0.072 N  
BRANCH  19  20
HETATM   20  C   UNL     1      -6.630   4.682  66.158  1.00  0.00    -0.045 A  
HETATM   21  C   UNL     1      -6.711   3.607  67.059  1.00  0.00    -0.046 A  
HETATM   22  C   UNL     1      -6.184   2.380  66.689  1.00  0.00    -0.024 A  
HETATM   23 CL   UNL     1      -7.405   3.792  68.628  1.00  0.00    -0.054 Cl 
HETATM   24  N   UNL     1      -5.611   2.140  65.489  1.00  0.00    -0.016 NA 
HETATM   25  C   UNL     1      -5.573   3.181  64.621  1.00  0.00    -0.010 A  
HETATM   26  C   UNL     1      -6.063   4.456  64.896  1.00  0.00    -0.026 A  
HETATM   27 CL   UNL     1      -6.086   5.611  63.618  1.00  0.00    -0.024 Cl 
ENDBRANCH  19  20
ENDBRANCH  10  16
ENDBRANCH   3   5
TORSDOF 6
ENDMDL
MODEL      206
REMARK 921   NORMALIZED FREE ENERGY PREDICTED BY IDOCK:   -2.93 KCAL/MOL
REMARK 922        TOTAL FREE ENERGY PREDICTED BY IDOCK:   -5.29 KCAL/MOL
REMARK 923 INTER-LIGAND FREE ENERGY PREDICTED BY IDOCK:   -6.08 KCAL/MOL
REMARK 924 INTRA-LIGAND FREE ENERGY PREDICTED BY IDOCK:    0.79 KCAL/MOL
REMARK 927      BINDING AFFINITY PREDICTED BY RF-SCORE:    0.00 PKD
ROOT
HETATM    1  F   UNL     1     -10.712  15.907  64.854  1.00  0.00    -0.401 F  
HETATM    2  C   UNL     1      -9.698  15.660  65.720  1.00  0.00    -0.345 C  
HETATM    3  O   UNL     1     -10.208  15.726  67.041  1.00  0.00    -0.267 OA 
HETATM    4  F   UNL     1      -8.803  16.670  65.572  1.00  0.00    -0.158 F  
ENDROOT
BRANCH   3   5
HETATM    5  C   UNL     1     -10.655  14.536  67.553  1.00  0.00    -0.262 A  
HETATM    6  C   UNL     1     -10.601  14.392  68.954  1.00  0.00    -0.247 A  
HETATM    7  C   UNL     1     -11.578  12.306  67.355  1.00  0.00    -0.425 A  
HETATM    8  C   UNL     1     -11.017  13.193  69.544  1.00  0.00     0.024 A  
HETATM    9  C   UNL     1     -11.176  13.505  66.764  1.00  0.00    -0.327 A  
HETATM   10  C   UNL     1     -11.475  12.139  68.739  1.00  0.00    -0.359 A  
BRANCH   6  11
HETATM   11  O   UNL     1     -10.146  15.483  69.648  1.00  0.00    -0.264 OA 
BRANCH  11  12
HETATM   12  C   UNL     1     -10.487  16.774  69.150  1.00  0.00    -0.343 C  
BRANCH  12  13
HETATM   13  C   UNL     1      -9.305  17.675  69.357  1.00  0.00     0.318 C  
HETATM   14  C   UNL     1      -8.100  17.572  68.457  1.00  0.00    -0.275 C  
HETATM   15  C   UNL     1      -8.989  18.782  68.383  1.00  0.00    -0.367 C  
ENDBRANCH  12  13
ENDBRANCH  11  12
ENDBRANCH   6  11
BRANCH  10  16
HETATM   16  C   UNL     1     -11.805  10.808  69.328  1.00  0.00    -0.288 C  
HETATM   17  O   UNL     1     -12.971  10.445  69.395  1.00  0.00     0.106 OA 
HETATM   18  H   UNL     1      -9.771  10.460  69.604  1.00  0.00     0.000 HD 
HETATM   19  N   UNL     1     -10.693  10.024  69.595  1.00  0.00    -0.237 N  
BRANCH  19  20
HETATM   20  C   UNL     1     -10.801   8.628  69.856  1.00  0.00    -0.208 A  
HETATM   21  C   UNL     1     -11.348   8.238  71.090  1.00  0.00    -0.263 A  
HETATM   22  C   UNL     1     -11.463   6.887  71.377  1.00  0.00    -0.282 A  
HETATM   23 CL   UNL     1     -11.834   9.399  72.272  1.00  0.00    -0.179 Cl 
HETATM   24  N   UNL     1     -11.099   5.905  70.522  1.00  0.00    -0.304 NA 
HETATM   25  C   UNL     1     -10.605   6.302  69.323  1.00  0.00    -0.273 A  
HETATM   26  C   UNL     1     -10.438   7.631  68.940  1.00  0.00    -0.199 A  
HETATM   27 CL   UNL     1      -9.956   7.955  67.318  1.00  0.00    -0.253 Cl 
ENDBRANCH  19  20
ENDBRANCH  10  16
ENDBRANCH   3   5
TORSDOF 6
ENDMDL
MODEL      207
REMARK 921   NORMALIZED FREE ENERGY PREDICTED BY IDOCK:   -2.78 KCAL/MOL
REMARK 922        TOTAL FREE ENERGY PREDICTED BY IDOCK:   -5.07 KCAL/MOL
REMARK 923 INTER-LIGAND FREE ENERGY PREDICTED BY IDOCK:   -4.32 KCAL/MOL
REMARK 924 INTRA-LIGAND FREE ENERGY PREDICTED BY IDOCK:   -0.75 KCAL/MOL
REMARK 927      BINDING AFFINITY PREDICTED BY RF-SCORE:    0.00 PKD
ROOT
HETATM    1  F   UNL     1      -9.152   3.222  72.632  1.00  0.00    -0.092 F  
HETATM    2  C   UNL     1     -10.309   3.922  72.728  1.00  0.00    -0.164 C  
HETATM    3  O   UNL     1      -9.996   5.271  73.031  1.00  0.00    -0.159 OA 
HETATM    4  F   UNL     1     -10.989   3.408  73.785  1.00  0.00    -0.246 F  
ENDROOT
BRANCH   3   5
HETATM    5  C   UNL     1      -9.838   6.089  71.943  1.00  0.00    -0.161 A  
HETATM    6  C   UNL     1      -8.525   6.242  71.454  1.00  0.00    -0.127 A  
HETATM    7  C   UNL     1     -10.657   7.581  70.220  1.00  0.00    -0.235 A  
HETATM    8  C   UNL     1      -8.285   7.083  70.362  1.00  0.00    -0.124 A  
HETATM    9  C   UNL     1     -10.902   6.733  71.301  1.00  0.00    -0.266 A  
HETATM   10  C   UNL     1      -9.349   7.777  69.766  1.00  0.00    -0.153 A  
BRANCH   6  11
HETATM   11  O   UNL     1      -7.560   5.514  72.101  1.00  0.00    -0.096 OA 
BRANCH  11  12
HETATM   12  C   UNL     1      -6.433   6.218  72.617  1.00  0.00    -0.063 C  
BRANCH  12  13
HETATM   13  C   UNL     1      -6.892   7.018  73.801  1.00  0.00    -0.070 C  
HETATM   14  C   UNL     1      -6.165   8.277  74.199  1.00  0.00    -0.129 C  
HETATM   15  C   UNL     1      -7.551   8.363  73.624  1.00  0.00    -0.144 C  
ENDBRANCH  12  13
ENDBRANCH  11  12
ENDBRANCH   6  11
BRANCH  10  16
HETATM   16  C   UNL     1      -9.107   8.776  68.684  1.00  0.00    -0.141 C  
HETATM   17  O   UNL     1      -8.244   9.631  68.828  1.00  0.00    -0.101 OA 
HETATM   18  H   UNL     1     -10.574   7.844  67.537  1.00  0.00     0.000 HD 
HETATM   19  N   UNL     1      -9.804   8.513  67.515  1.00  0.00    -0.165 N  
BRANCH  19  20
HETATM   20  C   UNL     1      -9.477   9.150  66.284  1.00  0.00    -0.237 A  
HETATM   21  C   UNL     1      -8.741   8.409  65.344  1.00  0.00    -0.141 A  
HETATM   22  C   UNL     1      -8.403   9.002  64.138  1.00  0.00    -0.173 A  
HETATM   23 CL   UNL     1      -8.211   6.800  65.675  1.00  0.00    -0.129 Cl 
HETATM   24  N   UNL     1      -8.761  10.258  63.793  1.00  0.00    -0.189 NA 
HETATM   25  C   UNL     1      -9.499  10.945  64.700  1.00  0.00    -0.244 A  
HETATM   26  C   UNL     1      -9.883  10.447  65.943  1.00  0.00    -0.235 A  
HETATM   27 CL   UNL     1     -10.961  11.392  66.899  1.00  0.00    -0.337 Cl 
ENDBRANCH  19  20
ENDBRANCH  10  16
ENDBRANCH   3   5
TORSDOF 6
ENDMDL
MODEL      208
REMARK 921   NORMALIZED FREE ENERGY PREDICTED BY IDOCK:   -2.57 KCAL/MOL
REMARK 922        TOTAL FREE ENERGY PREDICTED BY IDOCK:   -4.79 KCAL/MOL
REMARK 923 INTER-LIGAND FREE ENERGY PREDICTED BY IDOCK:   -3.65 KCAL/MOL
REMARK 924 INTRA-LIGAND FREE ENERGY PREDICTED BY IDOCK:   -1.14 KCAL/MOL
REMARK 927      BINDING AFFINITY PREDICTED BY RF-SCORE:    0.00 PKD
ROOT
HETATM    1  F   UNL     1      -7.664   6.222  69.867  1.00  0.00    -0.092 F  
HETATM    2  C   UNL     1      -6.971   6.520  68.741  1.00  0.00    -0.080 C  
HETATM    3  O   UNL     1      -7.894   6.878  67.726  1.00  0.00    -0.109 OA 
HETATM    4  F   UNL     1      -6.351   5.377  68.349  1.00  0.00    -0.029 F  
ENDROOT
BRANCH   3   5
HETATM    5  C   UNL     1      -8.183   8.216  67.649  1.00  0.00    -0.127 A  
HETATM    6  C   UNL     1      -7.499   8.953  66.662  1.00  0.00    -0.086 A  
HETATM    7  C   UNL     1      -9.340  10.223  68.353  1.00  0.00    -0.143 A  
HETATM    8  C   UNL     1      -7.726  10.329  66.543  1.00  0.00    -0.113 A  
HETATM    9  C   UNL     1      -9.125   8.848  68.467  1.00  0.00    -0.137 A  
HETATM   10  C   UNL     1      -8.624  10.967  67.411  1.00  0.00    -0.132 A  
BRANCH   6  11
HETATM   11  O   UNL     1      -6.653   8.233  65.860  1.00  0.00    -0.052 OA 
BRANCH  11  12
HETATM   12  C   UNL     1      -6.489   8.665  64.511  1.00  0.00    -0.066 C  
BRANCH  12  13
HETATM   13  C   UNL     1      -6.602   7.460  63.624  1.00  0.00    -0.053 C  
HETATM   14  C   UNL     1      -6.727   6.081  64.222  1.00  0.00    -0.041 C  
HETATM   15  C   UNL     1      -7.898   6.697  63.508  1.00  0.00    -0.109 C  
ENDBRANCH  12  13
ENDBRANCH  11  12
ENDBRANCH   6  11
BRANCH  10  16
HETATM   16  C   UNL     1      -8.791  12.450  67.392  1.00  0.00    -0.188 C  
HETATM   17  O   UNL     1      -8.668  13.062  66.339  1.00  0.00    -0.010 OA 
HETATM   18  H   UNL     1      -9.216  12.400  69.429  1.00  0.00     0.000 HD 
HETATM   19  N   UNL     1      -9.250  12.977  68.589  1.00  0.00    -0.043 N  
BRANCH  19  20
HETATM   20  C   UNL     1      -9.768  14.300  68.680  1.00  0.00    -0.213 A  
HETATM   21  C   UNL     1      -8.874  15.325  69.033  1.00  0.00    -0.226 A  
HETATM   22  C   UNL     1      -9.348  16.624  69.135  1.00  0.00    -0.177 A  
HETATM   23 CL   UNL     1      -7.217  14.998  69.388  1.00  0.00    -0.181 Cl 
HETATM   24  N   UNL     1     -10.629  16.976  68.889  1.00  0.00    -0.337 NA 
HETATM   25  C   UNL     1     -11.468  15.978  68.517  1.00  0.00    -0.357 A  
HETATM   26  C   UNL     1     -11.098  14.641  68.396  1.00  0.00    -0.257 A  
HETATM   27 CL   UNL     1     -12.249  13.534  67.750  1.00  0.00    -0.294 Cl 
ENDBRANCH  19  20
ENDBRANCH  10  16
ENDBRANCH   3   5
TORSDOF 6
ENDMDL
MODEL      209
REMARK 921   NORMALIZED FREE ENERGY PREDICTED BY IDOCK:   -2.47 KCAL/MOL
REMARK 922        TOTAL FREE ENERGY PREDICTED BY IDOCK:   -4.67 KCAL/MOL
REMARK 923 INTER-LIGAND FREE ENERGY PREDICTED BY IDOCK:   -5.00 KCAL/MOL
REMARK 924 INTRA-LIGAND FREE ENERGY PREDICTED BY IDOCK:    0.33 KCAL/MOL
REMARK 927      BINDING AFFINITY PREDICTED BY RF-SCORE:    0.00 PKD
ROOT
HETATM    1  F   UNL     1     -10.718   4.686  70.884  1.00  0.00    -0.177 F  
HETATM    2  C   UNL     1      -9.554   5.362  71.052  1.00  0.00    -0.172 C  
HETATM    3  O   UNL     1      -9.076   5.758  69.778  1.00  0.00    -0.133 OA 
HETATM    4  F   UNL     1      -8.661   4.480  71.571  1.00  0.00    -0.109 F  
ENDROOT
BRANCH   3   5
HETATM    5  C   UNL     1      -9.491   6.997  69.361  1.00  0.00    -0.145 A  
HETATM    6  C   UNL     1      -8.951   8.105  70.044  1.00  0.00    -0.143 A  
HETATM    7  C   UNL     1     -10.780   8.486  67.953  1.00  0.00    -0.148 A  
HETATM    8  C   UNL     1      -9.349   9.399  69.689  1.00  0.00    -0.199 A  
HETATM    9  C   UNL     1     -10.376   7.195  68.296  1.00  0.00    -0.227 A  
HETATM   10  C   UNL     1     -10.289   9.585  68.663  1.00  0.00    -0.229 A  
BRANCH   6  11
HETATM   11  O   UNL     1      -8.036   7.815  71.021  1.00  0.00    -0.095 OA 
BRANCH  11  12
HETATM   12  C   UNL     1      -6.819   7.188  70.625  1.00  0.00    -0.053 C  
BRANCH  12  13
HETATM   13  C   UNL     1      -5.760   8.248  70.543  1.00  0.00    -0.028 C  
HETATM   14  C   UNL     1      -6.117   9.653  70.130  1.00  0.00    -0.053 C  
HETATM   15  C   UNL     1      -5.703   9.371  71.548  1.00  0.00    -0.074 C  
ENDBRANCH  12  13
ENDBRANCH  11  12
ENDBRANCH   6  11
BRANCH  10  16
HETATM   16  C   UNL     1     -10.826  10.942  68.348  1.00  0.00    -0.222 C  
HETATM   17  O   UNL     1     -11.732  11.062  67.535  1.00  0.00    -0.565 OA 
HETATM   18  H   UNL     1      -9.505  11.755  69.737  1.00  0.00     0.000 HD 
HETATM   19  N   UNL     1     -10.331  11.943  69.169  1.00  0.00    -0.025 N  
BRANCH  19  20
HETATM   20  C   UNL     1     -10.942  13.228  69.241  1.00  0.00    -0.089 A  
HETATM   21  C   UNL     1     -11.969  13.407  70.182  1.00  0.00    -0.326 A  
HETATM   22  C   UNL     1     -12.588  14.644  70.274  1.00  0.00    -0.318 A  
HETATM   23 CL   UNL     1     -12.511  12.114  71.188  1.00  0.00    -0.406 Cl 
HETATM   24  N   UNL     1     -12.243  15.712  69.521  1.00  0.00    -0.289 NA 
HETATM   25  C   UNL     1     -11.226  15.528  68.643  1.00  0.00    -0.325 A  
HETATM   26  C   UNL     1     -10.547  14.326  68.464  1.00  0.00    -0.257 A  
HETATM   27 CL   UNL     1      -9.171  14.316  67.427  1.00  0.00    -0.192 Cl 
ENDBRANCH  19  20
ENDBRANCH  10  16
ENDBRANCH   3   5
TORSDOF 6
ENDMDL
MODEL      210
REMARK 921   NORMALIZED FREE ENERGY PREDICTED BY IDOCK:   -2.33 KCAL/MOL
REMARK 922        TOTAL FREE ENERGY PREDICTED BY IDOCK:   -4.47 KCAL/MOL
REMARK 923 INTER-LIGAND FREE ENERGY PREDICTED BY IDOCK:   -4.18 KCAL/MOL
REMARK 924 INTRA-LIGAND FREE ENERGY PREDICTED BY IDOCK:   -0.29 KCAL/MOL
REMARK 927      BINDING AFFINITY PREDICTED BY RF-SCORE:    0.00 PKD
ROOT
HETATM    1  F   UNL     1     -10.783   8.344  65.999  1.00  0.00     0.111 F  
HETATM    2  C   UNL     1     -10.224   8.154  67.219  1.00  0.00    -0.278 C  
HETATM    3  O   UNL     1      -8.889   8.629  67.181  1.00  0.00    -0.126 OA 
HETATM    4  F   UNL     1     -10.178   6.812  67.423  1.00  0.00    -0.169 F  
ENDROOT
BRANCH   3   5
HETATM    5  C   UNL     1      -8.728   9.941  67.545  1.00  0.00    -0.121 A  
HETATM    6  C   UNL     1      -9.378  10.352  68.726  1.00  0.00    -0.175 A  
HETATM    7  C   UNL     1      -7.856  12.179  67.241  1.00  0.00    -0.176 A  
HETATM    8  C   UNL     1      -9.279  11.684  69.145  1.00  0.00     0.303 A  
HETATM    9  C   UNL     1      -7.942  10.849  66.827  1.00  0.00    -0.143 A  
HETATM   10  C   UNL     1      -8.543  12.604  68.382  1.00  0.00    -0.122 A  
BRANCH   6  11
HETATM   11  O   UNL     1     -10.063   9.375  69.401  1.00  0.00    -0.182 OA 
BRANCH  11  12
HETATM   12  C   UNL     1     -10.348   9.596  70.780  1.00  0.00    -0.286 C  
BRANCH  12  13
HETATM   13  C   UNL     1     -10.188   8.289  71.499  1.00  0.00    -0.277 C  
HETATM   14  C   UNL     1     -10.146   6.994  70.728  1.00  0.00    -0.205 C  
HETATM   15  C   UNL     1      -8.905   7.502  71.408  1.00  0.00    -0.138 C  
ENDBRANCH  12  13
ENDBRANCH  11  12
ENDBRANCH   6  11
BRANCH  10  16
HETATM   16  C   UNL     1      -8.524  14.054  68.733  1.00  0.00    -0.038 C  
HETATM   17  O   UNL     1      -7.592  14.509  69.382  1.00  0.00    -0.120 OA 
HETATM   18  H   UNL     1     -10.308  14.300  67.689  1.00  0.00     0.000 HD 
HETATM   19  N   UNL     1      -9.524  14.791  68.119  1.00  0.00    -0.203 N  
BRANCH  19  20
HETATM   20  C   UNL     1      -9.489  16.214  68.071  1.00  0.00    -0.211 A  
HETATM   21  C   UNL     1     -10.254  16.916  69.018  1.00  0.00    -0.308 A  
HETATM   22  C   UNL     1     -10.245  18.301  68.994  1.00  0.00    -0.192 A  
HETATM   23 CL   UNL     1     -11.237  16.094  70.174  1.00  0.00    -0.366 Cl 
HETATM   24  N   UNL     1      -9.518  19.032  68.121  1.00  0.00    -0.319 NA 
HETATM   25  C   UNL     1      -8.760  18.337  67.237  1.00  0.00    -0.255 A  
HETATM   26  C   UNL     1      -8.706  16.947  67.168  1.00  0.00    -0.201 A  
HETATM   27 CL   UNL     1      -7.562  16.230  66.097  1.00  0.00     0.020 Cl 
ENDBRANCH  19  20
ENDBRANCH  10  16
ENDBRANCH   3   5
TORSDOF 6
ENDMDL
MODEL      211
REMARK 921   NORMALIZED FREE ENERGY PREDICTED BY IDOCK:   -2.31 KCAL/MOL
REMARK 922        TOTAL FREE ENERGY PREDICTED BY IDOCK:   -4.45 KCAL/MOL
REMARK 923 INTER-LIGAND FREE ENERGY PREDICTED BY IDOCK:   -4.01 KCAL/MOL
REMARK 924 INTRA-LIGAND FREE ENERGY PREDICTED BY IDOCK:   -0.43 KCAL/MOL
REMARK 927      BINDING AFFINITY PREDICTED BY RF-SCORE:    0.00 PKD
ROOT
HETATM    1  F   UNL     1     -11.233   7.982  67.214  1.00  0.00    -0.216 F  
HETATM    2  C   UNL     1     -10.114   7.794  67.956  1.00  0.00    -0.186 C  
HETATM    3  O   UNL     1      -8.986   8.095  67.154  1.00  0.00    -0.134 OA 
HETATM    4  F   UNL     1     -10.064   6.471  68.260  1.00  0.00    -0.139 F  
ENDROOT
BRANCH   3   5
HETATM    5  C   UNL     1      -8.556   9.395  67.218  1.00  0.00    -0.128 A  
HETATM    6  C   UNL     1      -8.272   9.902  68.501  1.00  0.00    -0.106 A  
HETATM    7  C   UNL     1      -7.959  11.527  66.238  1.00  0.00     0.019 A  
HETATM    8  C   UNL     1      -7.853  11.230  68.645  1.00  0.00    -0.139 A  
HETATM    9  C   UNL     1      -8.365  10.199  66.089  1.00  0.00    -0.131 A  
HETATM   10  C   UNL     1      -7.728  12.050  67.513  1.00  0.00    -0.155 A  
BRANCH   6  11
HETATM   11  O   UNL     1      -8.417   9.017  69.537  1.00  0.00    -0.117 OA 
BRANCH  11  12
HETATM   12  C   UNL     1      -7.714   9.291  70.747  1.00  0.00    -0.139 C  
BRANCH  12  13
HETATM   13  C   UNL     1      -7.276   7.980  71.332  1.00  0.00    -0.068 C  
HETATM   14  C   UNL     1      -7.803   6.682  70.775  1.00  0.00    -0.105 C  
HETATM   15  C   UNL     1      -6.361   7.054  70.570  1.00  0.00    -0.039 C  
ENDBRANCH  12  13
ENDBRANCH  11  12
ENDBRANCH   6  11
BRANCH  10  16
HETATM   16  C   UNL     1      -7.407  13.502  67.646  1.00  0.00    -0.174 C  
HETATM   17  O   UNL     1      -6.387  13.947  67.137  1.00  0.00    -0.197 OA 
HETATM   18  H   UNL     1      -9.183  13.768  68.699  1.00  0.00     0.000 HD 
HETATM   19  N   UNL     1      -8.426  14.250  68.214  1.00  0.00    -0.160 N  
BRANCH  19  20
HETATM   20  C   UNL     1      -8.447  15.672  68.141  1.00  0.00    -0.147 A  
HETATM   21  C   UNL     1      -9.368  16.264  67.261  1.00  0.00    -0.224 A  
HETATM   22  C   UNL     1      -9.411  17.646  67.162  1.00  0.00    -0.245 A  
HETATM   23 CL   UNL     1     -10.412  15.312  66.268  1.00  0.00    -0.298 Cl 
HETATM   24  N   UNL     1      -8.627  18.474  67.887  1.00  0.00    -0.281 NA 
HETATM   25  C   UNL     1      -7.768  17.884  68.756  1.00  0.00    -0.259 A  
HETATM   26  C   UNL     1      -7.638  16.507  68.924  1.00  0.00    -0.238 A  
HETATM   27 CL   UNL     1      -6.619  15.935  70.190  1.00  0.00    -0.006 Cl 
ENDBRANCH  19  20
ENDBRANCH  10  16
ENDBRANCH   3   5
TORSDOF 6
ENDMDL
MODEL      212
REMARK 921   NORMALIZED FREE ENERGY PREDICTED BY IDOCK:   -2.22 KCAL/MOL
REMARK 922        TOTAL FREE ENERGY PREDICTED BY IDOCK:   -4.33 KCAL/MOL
REMARK 923 INTER-LIGAND FREE ENERGY PREDICTED BY IDOCK:   -3.14 KCAL/MOL
REMARK 924 INTRA-LIGAND FREE ENERGY PREDICTED BY IDOCK:   -1.19 KCAL/MOL
REMARK 927      BINDING AFFINITY PREDICTED BY RF-SCORE:    0.00 PKD
ROOT
HETATM    1  F   UNL     1      -6.449  15.334  69.299  1.00  0.00    -0.107 F  
HETATM    2  C   UNL     1      -6.245  14.147  69.923  1.00  0.00    -0.146 C  
HETATM    3  O   UNL     1      -7.352  13.303  69.655  1.00  0.00     0.303 OA 
HETATM    4  F   UNL     1      -6.235  14.404  71.257  1.00  0.00    -0.195 F  
ENDROOT
BRANCH   3   5
HETATM    5  C   UNL     1      -7.220  12.504  68.549  1.00  0.00    -0.110 A  
HETATM    6  C   UNL     1      -8.323  11.688  68.225  1.00  0.00    -0.159 A  
HETATM    7  C   UNL     1      -6.006  11.625  66.648  1.00  0.00    -0.099 A  
HETATM    8  C   UNL     1      -8.249  10.828  67.124  1.00  0.00    -0.123 A  
HETATM    9  C   UNL     1      -6.080  12.493  67.739  1.00  0.00    -0.119 A  
HETATM   10  C   UNL     1      -7.076  10.775  66.355  1.00  0.00    -0.134 A  
BRANCH   6  11
HETATM   11  O   UNL     1      -9.421  11.823  69.034  1.00  0.00    -0.000 OA 
BRANCH  11  12
HETATM   12  C   UNL     1     -10.685  12.027  68.407  1.00  0.00    -0.229 C  
BRANCH  12  13
HETATM   13  C   UNL     1     -11.581  10.888  68.793  1.00  0.00    -0.378 C  
HETATM   14  C   UNL     1     -11.154   9.908  69.857  1.00  0.00    -0.318 C  
HETATM   15  C   UNL     1     -12.280  10.865  70.129  1.00  0.00    -0.423 C  
ENDBRANCH  12  13
ENDBRANCH  11  12
ENDBRANCH   6  11
BRANCH  10  16
HETATM   16  C   UNL     1      -6.922   9.779  65.255  1.00  0.00    -0.111 C  
HETATM   17  O   UNL     1      -5.982   9.873  64.478  1.00  0.00    -0.090 OA 
HETATM   18  H   UNL     1      -8.613   8.787  65.955  1.00  0.00     0.000 HD 
HETATM   19  N   UNL     1      -7.805   8.713  65.337  1.00  0.00    -0.097 N  
BRANCH  19  20
HETATM   20  C   UNL     1      -7.617   7.520  64.583  1.00  0.00    -0.111 A  
HETATM   21  C   UNL     1      -7.090   6.404  65.254  1.00  0.00    -0.061 A  
HETATM   22  C   UNL     1      -6.891   5.228  64.547  1.00  0.00    -0.048 A  
HETATM   23 CL   UNL     1      -6.643   6.476  66.919  1.00  0.00    -0.049 Cl 
HETATM   24  N   UNL     1      -7.198   5.078  63.240  1.00  0.00    -0.047 NA 
HETATM   25  C   UNL     1      -7.737   6.156  62.619  1.00  0.00    -0.085 A  
HETATM   26  C   UNL     1      -7.968   7.385  63.232  1.00  0.00    -0.086 A  
HETATM   27 CL   UNL     1      -8.814   8.592  62.341  1.00  0.00    -0.117 Cl 
ENDBRANCH  19  20
ENDBRANCH  10  16
ENDBRANCH   3   5
TORSDOF 6
ENDMDL
MODEL      213
REMARK 921   NORMALIZED FREE ENERGY PREDICTED BY IDOCK:   -2.11 KCAL/MOL
REMARK 922        TOTAL FREE ENERGY PREDICTED BY IDOCK:   -4.18 KCAL/MOL
REMARK 923 INTER-LIGAND FREE ENERGY PREDICTED BY IDOCK:   -3.18 KCAL/MOL
REMARK 924 INTRA-LIGAND FREE ENERGY PREDICTED BY IDOCK:   -1.00 KCAL/MOL
REMARK 927      BINDING AFFINITY PREDICTED BY RF-SCORE:    0.00 PKD
ROOT
HETATM    1  F   UNL     1      -5.586  12.146  68.517  1.00  0.00    -0.052 F  
HETATM    2  C   UNL     1      -6.932  11.997  68.432  1.00  0.00    -0.080 C  
HETATM    3  O   UNL     1      -7.272  11.751  67.078  1.00  0.00    -0.140 OA 
HETATM    4  F   UNL     1      -7.480  13.188  68.785  1.00  0.00    -0.108 F  
ENDROOT
BRANCH   3   5
HETATM    5  C   UNL     1      -7.314  10.429  66.719  1.00  0.00    -0.110 A  
HETATM    6  C   UNL     1      -8.439   9.695  67.147  1.00  0.00    -0.131 A  
HETATM    7  C   UNL     1      -6.424   8.448  65.648  1.00  0.00    -0.052 A  
HETATM    8  C   UNL     1      -8.536   8.333  66.839  1.00  0.00    -0.118 A  
HETATM    9  C   UNL     1      -6.329   9.810  65.943  1.00  0.00    -0.080 A  
HETATM   10  C   UNL     1      -7.511   7.704  66.116  1.00  0.00    -0.083 A  
BRANCH   6  11
HETATM   11  O   UNL     1      -9.386  10.405  67.838  1.00  0.00    -0.138 OA 
BRANCH  11  12
HETATM   12  C   UNL     1     -10.627   9.760  68.115  1.00  0.00    -0.231 C  
BRANCH  12  13
HETATM   13  C   UNL     1     -10.753   9.623  69.604  1.00  0.00    -0.260 C  
HETATM   14  C   UNL     1     -10.845   8.258  70.239  1.00  0.00    -0.241 C  
HETATM   15  C   UNL     1      -9.612   9.095  70.436  1.00  0.00    -0.268 C  
ENDBRANCH  12  13
ENDBRANCH  11  12
ENDBRANCH   6  11
BRANCH  10  16
HETATM   16  C   UNL     1      -7.525   6.230  65.883  1.00  0.00    -0.082 C  
HETATM   17  O   UNL     1      -6.471   5.629  65.729  1.00  0.00    -0.038 OA 
HETATM   18  H   UNL     1      -9.600   6.253  66.059  1.00  0.00     0.000 HD 
HETATM   19  N   UNL     1      -8.776   5.652  66.038  1.00  0.00    -0.139 N  
BRANCH  19  20
HETATM   20  C   UNL     1      -8.943   4.244  66.169  1.00  0.00    -0.123 A  
HETATM   21  C   UNL     1      -8.917   3.704  67.465  1.00  0.00    -0.140 A  
HETATM   22  C   UNL     1      -9.073   2.336  67.626  1.00  0.00    -0.172 A  
HETATM   23 CL   UNL     1      -8.649   4.695  68.853  1.00  0.00    -0.092 Cl 
HETATM   24  N   UNL     1      -9.275   1.479  66.602  1.00  0.00    -0.037 NA 
HETATM   25  C   UNL     1      -9.330   2.024  65.362  1.00  0.00     0.020 A  
HETATM   26  C   UNL     1      -9.176   3.381  65.089  1.00  0.00    -0.149 A  
HETATM   27 CL   UNL     1      -9.444   3.922  63.476  1.00  0.00    -0.140 Cl 
ENDBRANCH  19  20
ENDBRANCH  10  16
ENDBRANCH   3   5
TORSDOF 6
ENDMDL
MODEL      214
REMARK 921   NORMALIZED FREE ENERGY PREDICTED BY IDOCK:   -2.11 KCAL/MOL
REMARK 922        TOTAL FREE ENERGY PREDICTED BY IDOCK:   -4.18 KCAL/MOL
REMARK 923 INTER-LIGAND FREE ENERGY PREDICTED BY IDOCK:   -4.45 KCAL/MOL
REMARK 924 INTRA-LIGAND FREE ENERGY PREDICTED BY IDOCK:    0.27 KCAL/MOL
REMARK 927      BINDING AFFINITY PREDICTED BY RF-SCORE:    0.00 PKD
ROOT
HETATM    1  F   UNL     1      -9.605   2.873  66.915  1.00  0.00    -0.178 F  
HETATM    2  C   UNL     1      -8.508   3.419  67.496  1.00  0.00    -0.097 C  
HETATM    3  O   UNL     1      -7.905   4.309  66.573  1.00  0.00    -0.096 OA 
HETATM    4  F   UNL     1      -7.636   2.402  67.718  1.00  0.00    -0.054 F  
ENDROOT
BRANCH   3   5
HETATM    5  C   UNL     1      -8.334   5.609  66.652  1.00  0.00    -0.112 A  
HETATM    6  C   UNL     1      -7.811   6.505  65.698  1.00  0.00    -0.100 A  
HETATM    7  C   UNL     1      -9.626   7.404  67.636  1.00  0.00    -0.164 A  
HETATM    8  C   UNL     1      -8.186   7.853  65.735  1.00  0.00    -0.130 A  
HETATM    9  C   UNL     1      -9.265   6.056  67.595  1.00  0.00    -0.107 A  
HETATM   10  C   UNL     1      -9.069   8.306  66.725  1.00  0.00    -0.190 A  
BRANCH   6  11
HETATM   11  O   UNL     1      -6.964   5.959  64.769  1.00  0.00    -0.049 OA 
BRANCH  11  12
HETATM   12  C   UNL     1      -7.415   4.810  64.055  1.00  0.00    -0.060 C  
BRANCH  12  13
HETATM   13  C   UNL     1      -8.875   4.993  63.761  1.00  0.00    -0.031 C  
HETATM   14  C   UNL     1      -9.349   5.191  62.344  1.00  0.00     0.115 C  
HETATM   15  C   UNL     1      -9.670   3.914  63.069  1.00  0.00    -0.150 C  
ENDBRANCH  12  13
ENDBRANCH  11  12
ENDBRANCH   6  11
BRANCH  10  16
HETATM   16  C   UNL     1      -9.387   9.758  66.868  1.00  0.00    -0.149 C  
HETATM   17  O   UNL     1      -8.634  10.485  67.501  1.00  0.00    -0.121 OA 
HETATM   18  H   UNL     1     -11.081   9.472  65.692  1.00  0.00     0.000 HD 
HETATM   19  N   UNL     1     -10.460  10.173  66.095  1.00  0.00    -0.154 N  
BRANCH  19  20
HETATM   20  C   UNL     1     -10.721  11.551  65.847  1.00  0.00    -0.272 A  
HETATM   21  C   UNL     1     -10.435  12.047  64.564  1.00  0.00    -0.299 A  
HETATM   22  C   UNL     1     -10.673  13.385  64.293  1.00  0.00    -0.355 A  
HETATM   23 CL   UNL     1      -9.752  11.042  63.337  1.00  0.00    -0.339 Cl 
HETATM   24  N   UNL     1     -11.193  14.251  65.190  1.00  0.00    -0.328 NA 
HETATM   25  C   UNL     1     -11.493  13.746  66.412  1.00  0.00    -0.336 A  
HETATM   26  C   UNL     1     -11.284  12.422  66.791  1.00  0.00    -0.310 A  
HETATM   27 CL   UNL     1     -11.879  11.911  68.324  1.00  0.00    -0.377 Cl 
ENDBRANCH  19  20
ENDBRANCH  10  16
ENDBRANCH   3   5
TORSDOF 6
ENDMDL
MODEL      215
REMARK 921   NORMALIZED FREE ENERGY PREDICTED BY IDOCK:   -1.50 KCAL/MOL
REMARK 922        TOTAL FREE ENERGY PREDICTED BY IDOCK:   -3.35 KCAL/MOL
REMARK 923 INTER-LIGAND FREE ENERGY PREDICTED BY IDOCK:   -2.36 KCAL/MOL
REMARK 924 INTRA-LIGAND FREE ENERGY PREDICTED BY IDOCK:   -0.98 KCAL/MOL
REMARK 927      BINDING AFFINITY PREDICTED BY RF-SCORE:    0.00 PKD
ROOT
HETATM    1  F   UNL     1      -5.677  15.628  69.001  1.00  0.00    -0.101 F  
HETATM    2  C   UNL     1      -5.986  15.063  70.194  1.00  0.00    -0.147 C  
HETATM    3  O   UNL     1      -7.156  14.280  70.031  1.00  0.00     0.004 OA 
HETATM    4  F   UNL     1      -6.285  16.081  71.043  1.00  0.00     0.205 F  
ENDROOT
BRANCH   3   5
HETATM    5  C   UNL     1      -6.937  12.967  69.705  1.00  0.00     0.272 A  
HETATM    6  C   UNL     1      -7.854  12.378  68.812  1.00  0.00     0.020 A  
HETATM    7  C   UNL     1      -5.717  10.880  69.835  1.00  0.00    -0.067 A  
HETATM    8  C   UNL     1      -7.707  11.032  68.455  1.00  0.00    -0.119 A  
HETATM    9  C   UNL     1      -5.853  12.225  70.185  1.00  0.00    -0.161 A  
HETATM   10  C   UNL     1      -6.655  10.277  68.993  1.00  0.00    -0.053 A  
BRANCH   6  11
HETATM   11  O   UNL     1      -8.839  13.204  68.338  1.00  0.00    -0.175 OA 
BRANCH  11  12
HETATM   12  C   UNL     1      -9.749  12.670  67.379  1.00  0.00    -0.199 C  
BRANCH  12  13
HETATM   13  C   UNL     1     -10.828  13.687  67.150  1.00  0.00    -0.292 C  
HETATM   14  C   UNL     1     -10.535  14.949  66.378  1.00  0.00    -0.301 C  
HETATM   15  C   UNL     1     -11.424  13.894  65.781  1.00  0.00    -0.324 C  
ENDBRANCH  12  13
ENDBRANCH  11  12
ENDBRANCH   6  11
BRANCH  10  16
HETATM   16  C   UNL     1      -6.546   8.812  68.731  1.00  0.00    -0.054 C  
HETATM   17  O   UNL     1      -5.443   8.289  68.650  1.00  0.00    -0.034 OA 
HETATM   18  H   UNL     1      -8.624   8.686  68.739  1.00  0.00     0.000 HD 
HETATM   19  N   UNL     1      -7.761   8.145  68.773  1.00  0.00    -0.105 N  
BRANCH  19  20
HETATM   20  C   UNL     1      -7.837   6.725  68.863  1.00  0.00    -0.111 A  
HETATM   21  C   UNL     1      -8.235   6.172  70.091  1.00  0.00    -0.120 A  
HETATM   22  C   UNL     1      -8.315   4.793  70.212  1.00  0.00    -0.079 A  
HETATM   23 CL   UNL     1      -8.579   7.164  71.461  1.00  0.00    -0.116 Cl 
HETATM   24  N   UNL     1      -8.054   3.936  69.202  1.00  0.00    -0.058 NA 
HETATM   25  C   UNL     1      -7.704   4.491  68.015  1.00  0.00    -0.081 A  
HETATM   26  C   UNL     1      -7.584   5.860  67.789  1.00  0.00    -0.089 A  
HETATM   27 CL   UNL     1      -7.295   6.396  66.178  1.00  0.00    -0.079 Cl 
ENDBRANCH  19  20
ENDBRANCH  10  16
ENDBRANCH   3   5
TORSDOF 6
ENDMDL
MODEL      216
REMARK 921   NORMALIZED FREE ENERGY PREDICTED BY IDOCK:   -1.06 KCAL/MOL
REMARK 922        TOTAL FREE ENERGY PREDICTED BY IDOCK:   -2.76 KCAL/MOL
REMARK 923 INTER-LIGAND FREE ENERGY PREDICTED BY IDOCK:   -2.46 KCAL/MOL
REMARK 924 INTRA-LIGAND FREE ENERGY PREDICTED BY IDOCK:   -0.30 KCAL/MOL
REMARK 927      BINDING AFFINITY PREDICTED BY RF-SCORE:    0.00 PKD
ROOT
HETATM    1  F   UNL     1      -7.413  18.880  70.699  1.00  0.00     1.023 F  
HETATM    2  C   UNL     1      -8.181  19.162  69.618  1.00  0.00     0.468 C  
HETATM    3  O   UNL     1      -7.785  18.318  68.551  1.00  0.00    -0.289 OA 
HETATM    4  F   UNL     1      -7.897  20.441  69.260  1.00  0.00     0.071 F  
ENDROOT
BRANCH   3   5
HETATM    5  C   UNL     1      -8.468  17.132  68.463  1.00  0.00    -0.262 A  
HETATM    6  C   UNL     1      -7.690  15.957  68.434  1.00  0.00    -0.140 A  
HETATM    7  C   UNL     1     -10.486  15.805  68.307  1.00  0.00    -0.259 A  
HETATM    8  C   UNL     1      -8.319  14.712  68.319  1.00  0.00    -0.148 A  
HETATM    9  C   UNL     1      -9.864  17.048  68.434  1.00  0.00    -0.283 A  
HETATM   10  C   UNL     1      -9.717  14.641  68.223  1.00  0.00    -0.215 A  
BRANCH   6  11
HETATM   11  O   UNL     1      -6.336  16.137  68.542  1.00  0.00    -0.112 OA 
BRANCH  11  12
HETATM   12  C   UNL     1      -5.504  14.984  68.440  1.00  0.00    -0.109 C  
BRANCH  12  13
HETATM   13  C   UNL     1      -5.375  14.385  69.810  1.00  0.00    -0.093 C  
HETATM   14  C   UNL     1      -5.148  15.269  71.010  1.00  0.00    -0.147 C  
HETATM   15  C   UNL     1      -6.462  14.559  70.840  1.00  0.00     0.156 C  
ENDBRANCH  12  13
ENDBRANCH  11  12
ENDBRANCH   6  11
BRANCH  10  16
HETATM   16  C   UNL     1     -10.406  13.341  67.973  1.00  0.00    -0.241 C  
HETATM   17  O   UNL     1     -11.448  13.319  67.332  1.00  0.00    -0.297 OA 
HETATM   18  H   UNL     1      -8.872  12.366  68.988  1.00  0.00     0.000 HD 
HETATM   19  N   UNL     1      -9.672  12.234  68.370  1.00  0.00    -0.211 N  
BRANCH  19  20
HETATM   20  C   UNL     1     -10.004  10.917  67.940  1.00  0.00    -0.176 A  
HETATM   21  C   UNL     1      -9.537  10.508  66.680  1.00  0.00    -0.172 A  
HETATM   22  C   UNL     1      -9.846   9.234  66.231  1.00  0.00    -0.291 A  
HETATM   23 CL   UNL     1      -8.630  11.567  65.663  1.00  0.00     0.029 Cl 
HETATM   24  N   UNL     1     -10.560   8.338  66.948  1.00  0.00    -0.299 NA 
HETATM   25  C   UNL     1     -10.973   8.741  68.175  1.00  0.00     0.147 A  
HETATM   26  C   UNL     1     -10.725  10.000  68.717  1.00  0.00    -0.223 A  
HETATM   27 CL   UNL     1     -11.177  10.284  70.355  1.00  0.00    -0.383 Cl 
ENDBRANCH  19  20
ENDBRANCH  10  16
ENDBRANCH   3   5
TORSDOF 6
ENDMDL
MODEL      217
REMARK 921   NORMALIZED FREE ENERGY PREDICTED BY IDOCK:    1.13 KCAL/MOL
REMARK 922        TOTAL FREE ENERGY PREDICTED BY IDOCK:    0.21 KCAL/MOL
REMARK 923 INTER-LIGAND FREE ENERGY PREDICTED BY IDOCK:   -3.76 KCAL/MOL
REMARK 924 INTRA-LIGAND FREE ENERGY PREDICTED BY IDOCK:    3.97 KCAL/MOL
REMARK 927      BINDING AFFINITY PREDICTED BY RF-SCORE:    0.00 PKD
ROOT
HETATM    1  F   UNL     1      -7.329   4.671  66.881  1.00  0.00    -0.075 F  
HETATM    2  C   UNL     1      -8.497   4.589  66.198  1.00  0.00    -0.113 C  
HETATM    3  O   UNL     1      -9.567   4.716  67.119  1.00  0.00    -0.152 OA 
HETATM    4  F   UNL     1      -8.554   3.339  65.670  1.00  0.00    -0.102 F  
ENDROOT
BRANCH   3   5
HETATM    5  C   UNL     1     -10.016   5.996  67.316  1.00  0.00    -0.150 A  
HETATM    6  C   UNL     1      -9.318   7.020  66.644  1.00  0.00    -0.165 A  
HETATM    7  C   UNL     1     -11.500   7.643  68.289  1.00  0.00     0.917 A  
HETATM    8  C   UNL     1      -9.705   8.353  66.819  1.00  0.00    -0.309 A  
HETATM    9  C   UNL     1     -11.125   6.310  68.108  1.00  0.00    -0.364 A  
HETATM   10  C   UNL     1     -10.777   8.665  67.668  1.00  0.00    -0.194 A  
BRANCH   6  11
HETATM   11  O   UNL     1      -8.293   6.608  65.832  1.00  0.00    -0.125 OA 
BRANCH  11  12
HETATM   12  C   UNL     1      -7.386   7.599  65.355  1.00  0.00    -0.071 C  
BRANCH  12  13
HETATM   13  C   UNL     1      -5.995   7.161  65.712  1.00  0.00    -0.037 C  
HETATM   14  C   UNL     1      -5.391   7.545  67.039  1.00  0.00    -0.026 C  
HETATM   15  C   UNL     1      -5.757   6.112  66.769  1.00  0.00    -0.016 C  
ENDBRANCH  12  13
ENDBRANCH  11  12
ENDBRANCH   6  11
BRANCH  10  16
HETATM   16  C   UNL     1     -11.131  10.082  67.972  1.00  0.00    -0.201 C  
HETATM   17  O   UNL     1     -11.703  10.760  67.129  1.00  0.00    -0.312 OA 
HETATM   18  H   UNL     1     -10.336   9.840  69.881  1.00  0.00     0.000 HD 
HETATM   19  N   UNL     1     -10.913  10.442  69.293  1.00  0.00    -0.227 N  
BRANCH  19  20
HETATM   20  C   UNL     1     -11.470  11.626  69.853  1.00  0.00    -0.228 A  
HETATM   21  C   UNL     1     -12.142  11.511  71.081  1.00  0.00    -0.043 A  
HETATM   22  C   UNL     1     -12.700  12.645  71.650  1.00  0.00    -0.187 A  
HETATM   23 CL   UNL     1     -12.330   9.988  71.871  1.00  0.00    -0.418 Cl 
HETATM   24  N   UNL     1     -12.617  13.878  71.103  1.00  0.00    -0.353 NA 
HETATM   25  C   UNL     1     -11.935  13.974  69.935  1.00  0.00    -0.336 A  
HETATM   26  C   UNL     1     -11.347  12.897  69.275  1.00  0.00    -0.243 A  
HETATM   27 CL   UNL     1     -10.376  13.225  67.890  1.00  0.00    -0.233 Cl 
ENDBRANCH  19  20
ENDBRANCH  10  16
ENDBRANCH   3   5
TORSDOF 6
ENDMDL
MODEL      218
REMARK 921   NORMALIZED FREE ENERGY PREDICTED BY IDOCK:    2.60 KCAL/MOL
REMARK 922        TOTAL FREE ENERGY PREDICTED BY IDOCK:    2.19 KCAL/MOL
REMARK 923 INTER-LIGAND FREE ENERGY PREDICTED BY IDOCK:    2.44 KCAL/MOL
REMARK 924 INTRA-LIGAND FREE ENERGY PREDICTED BY IDOCK:   -0.25 KCAL/MOL
REMARK 927      BINDING AFFINITY PREDICTED BY RF-SCORE:    0.00 PKD
ROOT
HETATM    1  F   UNL     1      -8.815   5.927  72.009  1.00  0.00    -0.134 F  
HETATM    2  C   UNL     1      -9.093   5.410  70.786  1.00  0.00    -0.141 C  
HETATM    3  O   UNL     1     -10.463   5.637  70.503  1.00  0.00    -0.239 OA 
HETATM    4  F   UNL     1      -8.907   4.069  70.877  1.00  0.00    -0.099 F  
ENDROOT
BRANCH   3   5
HETATM    5  C   UNL     1     -10.735   6.805  69.839  1.00  0.00    -0.250 A  
HETATM    6  C   UNL     1      -9.864   7.149  68.786  1.00  0.00    -0.158 A  
HETATM    7  C   UNL     1     -12.019   8.818  69.439  1.00  0.00     1.316 A  
HETATM    8  C   UNL     1     -10.066   8.340  68.080  1.00  0.00    -0.238 A  
HETATM    9  C   UNL     1     -11.828   7.624  70.138  1.00  0.00     0.171 A  
HETATM   10  C   UNL     1     -11.126   9.190  68.430  1.00  0.00     0.119 A  
BRANCH   6  11
HETATM   11  O   UNL     1      -8.867   6.247  68.519  1.00  0.00    -0.116 OA 
BRANCH  11  12
HETATM   12  C   UNL     1      -8.817   5.681  67.212  1.00  0.00    -0.106 C  
BRANCH  12  13
HETATM   13  C   UNL     1      -7.441   5.912  66.660  1.00  0.00    -0.087 C  
HETATM   14  C   UNL     1      -7.030   7.283  66.186  1.00  0.00    -0.065 C  
HETATM   15  C   UNL     1      -6.417   6.707  67.432  1.00  0.00    -0.048 C  
ENDBRANCH  12  13
ENDBRANCH  11  12
ENDBRANCH   6  11
BRANCH  10  16
HETATM   16  C   UNL     1     -11.290  10.524  67.782  1.00  0.00    -0.190 C  
HETATM   17  O   UNL     1     -11.432  11.522  68.474  1.00  0.00    -0.239 OA 
HETATM   18  H   UNL     1     -11.086   9.612  65.922  1.00  0.00     0.000 HD 
HETATM   19  N   UNL     1     -11.090  10.507  66.410  1.00  0.00     0.057 N  
BRANCH  19  20
HETATM   20  C   UNL     1     -10.892  11.703  65.664  1.00  0.00    -0.276 A  
HETATM   21  C   UNL     1      -9.585  11.994  65.237  1.00  0.00    -0.100 A  
HETATM   22  C   UNL     1      -9.358  13.153  64.512  1.00  0.00     1.079 A  
HETATM   23 CL   UNL     1      -8.254  10.969  65.634  1.00  0.00    -0.086 Cl 
HETATM   24  N   UNL     1     -10.331  14.023  64.164  1.00  0.00     0.064 NA 
HETATM   25  C   UNL     1     -11.590  13.707  64.556  1.00  0.00    -0.390 A  
HETATM   26  C   UNL     1     -11.925  12.576  65.295  1.00  0.00    -0.438 A  
HETATM   27 CL   UNL     1     -13.595  12.243  65.562  1.00  0.00     3.038 Cl 
ENDBRANCH  19  20
ENDBRANCH  10  16
ENDBRANCH   3   5
TORSDOF 6
ENDMDL
MODEL      219
REMARK 921   NORMALIZED FREE ENERGY PREDICTED BY IDOCK:    7.98 KCAL/MOL
REMARK 922        TOTAL FREE ENERGY PREDICTED BY IDOCK:    9.46 KCAL/MOL
REMARK 923 INTER-LIGAND FREE ENERGY PREDICTED BY IDOCK:    5.29 KCAL/MOL
REMARK 924 INTRA-LIGAND FREE ENERGY PREDICTED BY IDOCK:    4.17 KCAL/MOL
REMARK 927      BINDING AFFINITY PREDICTED BY RF-SCORE:    0.00 PKD
ROOT
HETATM    1  F   UNL     1      -7.025  16.196  69.353  1.00  0.00    -0.183 F  
HETATM    2  C   UNL     1      -6.920  14.972  69.926  1.00  0.00    -0.149 C  
HETATM    3  O   UNL     1      -8.192  14.346  69.887  1.00  0.00     0.417 OA 
HETATM    4  F   UNL     1      -6.601  15.177  71.230  1.00  0.00     0.299 F  
ENDROOT
BRANCH   3   5
HETATM    5  C   UNL     1      -8.427  13.575  68.778  1.00  0.00     0.079 A  
HETATM    6  C   UNL     1      -9.070  12.340  68.995  1.00  0.00     0.439 A  
HETATM    7  C   UNL     1      -8.329  13.113  66.404  1.00  0.00     0.538 A  
HETATM    8  C   UNL     1      -9.318  11.488  67.912  1.00  0.00    -0.171 A  
HETATM    9  C   UNL     1      -8.090  13.970  67.479  1.00  0.00    -0.197 A  
HETATM   10  C   UNL     1      -8.918  11.864  66.621  1.00  0.00    -0.198 A  
BRANCH   6  11
HETATM   11  O   UNL     1      -9.427  12.073  70.291  1.00  0.00     3.022 OA 
BRANCH  11  12
HETATM   12  C   UNL     1      -9.106  10.787  70.815  1.00  0.00     3.218 C  
BRANCH  12  13
HETATM   13  C   UNL     1     -10.186   9.834  70.393  1.00  0.00    -0.343 C  
HETATM   14  C   UNL     1     -10.284   8.466  71.019  1.00  0.00    -0.245 C  
HETATM   15  C   UNL     1     -11.333   9.501  71.313  1.00  0.00    -0.446 C  
ENDBRANCH  12  13
ENDBRANCH  11  12
ENDBRANCH   6  11
BRANCH  10  16
HETATM   16  C   UNL     1      -9.055  10.926  65.468  1.00  0.00    -0.201 C  
HETATM   17  O   UNL     1      -9.200  11.369  64.338  1.00  0.00    -0.116 OA 
HETATM   18  H   UNL     1      -8.823   9.327  66.782  1.00  0.00     0.000 HD 
HETATM   19  N   UNL     1      -8.828   9.598  65.799  1.00  0.00    -0.149 N  
BRANCH  19  20
HETATM   20  C   UNL     1      -8.601   8.604  64.805  1.00  0.00    -0.111 A  
HETATM   21  C   UNL     1      -8.964   8.911  63.483  1.00  0.00     0.258 A  
HETATM   22  C   UNL     1      -8.761   7.962  62.493  1.00  0.00     0.220 A  
HETATM   23 CL   UNL     1      -9.698  10.418  63.073  1.00  0.00    -0.338 Cl 
HETATM   24  N   UNL     1      -8.206   6.751  62.718  1.00  0.00    -0.040 NA 
HETATM   25  C   UNL     1      -7.832   6.487  63.994  1.00  0.00    -0.108 A  
HETATM   26  C   UNL     1      -8.000   7.364  65.063  1.00  0.00    -0.129 A  
HETATM   27 CL   UNL     1      -7.314   6.934  66.584  1.00  0.00    -0.076 Cl 
ENDBRANCH  19  20
ENDBRANCH  10  16
ENDBRANCH   3   5
TORSDOF 6
ENDMDL
MODEL      220
REMARK 921   NORMALIZED FREE ENERGY PREDICTED BY IDOCK:   34.05 KCAL/MOL
REMARK 922        TOTAL FREE ENERGY PREDICTED BY IDOCK:   44.66 KCAL/MOL
REMARK 923 INTER-LIGAND FREE ENERGY PREDICTED BY IDOCK:   42.35 KCAL/MOL
REMARK 924 INTRA-LIGAND FREE ENERGY PREDICTED BY IDOCK:    2.31 KCAL/MOL
REMARK 927      BINDING AFFINITY PREDICTED BY RF-SCORE:    0.00 PKD
ROOT
HETATM    1  F   UNL     1      -9.437   7.842  70.472  1.00  0.00    -0.160 F  
HETATM    2  C   UNL     1     -10.177   8.490  71.405  1.00  0.00    -0.235 C  
HETATM    3  O   UNL     1      -9.356   9.458  72.037  1.00  0.00    -0.098 OA 
HETATM    4  F   UNL     1     -10.523   7.569  72.340  1.00  0.00    -0.222 F  
ENDROOT
BRANCH   3   5
HETATM    5  C   UNL     1      -9.375  10.702  71.462  1.00  0.00     5.923 A  
HETATM    6  C   UNL     1      -9.609  10.751  70.073  1.00  0.00     0.713 A  
HETATM    7  C   UNL     1      -9.202  13.116  71.522  1.00  0.00    14.344 A  
HETATM    8  C   UNL     1      -9.616  11.986  69.414  1.00  0.00     0.833 A  
HETATM    9  C   UNL     1      -9.207  11.888  72.185  1.00  0.00    19.736 A  
HETATM   10  C   UNL     1      -9.380  13.165  70.137  1.00  0.00     3.736 A  
BRANCH   6  11
HETATM   11  O   UNL     1      -9.836   9.545  69.464  1.00  0.00    -0.173 OA 
BRANCH  11  12
HETATM   12  C   UNL     1     -10.470   9.555  68.187  1.00  0.00    -0.223 C  
BRANCH  12  13
HETATM   13  C   UNL     1     -10.834   8.141  67.842  1.00  0.00    -0.038 C  
HETATM   14  C   UNL     1     -10.537   7.590  66.470  1.00  0.00     0.113 C  
HETATM   15  C   UNL     1      -9.773   7.085  67.662  1.00  0.00    -0.163 C  
ENDBRANCH  12  13
ENDBRANCH  11  12
ENDBRANCH   6  11
BRANCH  10  16
HETATM   16  C   UNL     1      -9.256  14.481  69.443  1.00  0.00     0.212 C  
HETATM   17  O   UNL     1      -9.942  15.427  69.807  1.00  0.00    -0.266 OA 
HETATM   18  H   UNL     1      -7.776  13.667  68.227  1.00  0.00     0.000 HD 
HETATM   19  N   UNL     1      -8.213  14.536  68.531  1.00  0.00    -0.149 N  
BRANCH  19  20
HETATM   20  C   UNL     1      -7.735  15.772  68.008  1.00  0.00    -0.129 A  
HETATM   21  C   UNL     1      -6.738  16.443  68.734  1.00  0.00    -0.158 A  
HETATM   22  C   UNL     1      -6.255  17.650  68.254  1.00  0.00    -0.177 A  
HETATM   23 CL   UNL     1      -6.136  15.825  70.230  1.00  0.00    -0.107 Cl 
HETATM   24  N   UNL     1      -6.672  18.220  67.102  1.00  0.00    -0.186 NA 
HETATM   25  C   UNL     1      -7.611  17.539  66.398  1.00  0.00    -0.294 A  
HETATM   26  C   UNL     1      -8.169  16.327  66.796  1.00  0.00    -0.259 A  
HETATM   27 CL   UNL     1      -9.224  15.519  65.700  1.00  0.00    -0.223 Cl 
ENDBRANCH  19  20
ENDBRANCH  10  16
ENDBRANCH   3   5
TORSDOF 6
ENDMDL
