MODEL        1
REMARK 921   NORMALIZED FREE ENERGY PREDICTED BY IDOCK:   -8.33 KCAL/MOL
REMARK 922        TOTAL FREE ENERGY PREDICTED BY IDOCK:  -13.63 KCAL/MOL
REMARK 923 INTER-LIGAND FREE ENERGY PREDICTED BY IDOCK:  -10.77 KCAL/MOL
REMARK 924 INTRA-LIGAND FREE ENERGY PREDICTED BY IDOCK:   -2.86 KCAL/MOL
REMARK 927      BINDING AFFINITY PREDICTED BY RF-SCORE:    0.00 PKD
ROOT
HETATM    1  C   UNL     1      -7.694  13.864  67.085  1.00  0.00     0.005 C  
HETATM    2  C   UNL     1      -8.234  12.799  68.038  1.00  0.00    -0.168 C  
ENDROOT
BRANCH   2   3
HETATM    3  O   UNL     1      -9.197  13.350  68.936  1.00  0.00     0.044 OA 
BRANCH   3   4
HETATM    4  C   UNL     1      -9.603  14.688  68.610  1.00  0.00    -0.219 C  
BRANCH   4   5
HETATM    5  C   UNL     1     -11.158  14.725  68.400  1.00  0.00    -0.263 C  
HETATM    6  C   UNL     1     -12.156  14.997  71.215  1.00  0.00    -0.328 C  
HETATM    7  C   UNL     1     -11.706  13.635  70.662  1.00  0.00    -0.104 C  
HETATM    8  N   UNL     1     -11.796  15.093  72.612  1.00  0.00    -0.399 NA 
HETATM    9  H   UNL     1     -12.664  16.135  68.691  1.00  0.00     0.000 HD 
HETATM   10  C   UNL     1     -11.845  13.551  69.141  1.00  0.00    -0.386 C  
HETATM   11  O   UNL     1     -12.639  15.955  74.565  1.00  0.00    -0.662 OA 
HETATM   12  C   UNL     1     -11.514  16.150  70.400  1.00  0.00    -0.328 C  
HETATM   13  C   UNL     1     -13.691  15.125  71.242  1.00  0.00    -0.555 C  
HETATM   14  C   UNL     1     -12.782  15.635  73.399  1.00  0.00    -0.542 C  
HETATM   15  C   UNL     1     -14.032  15.781  72.581  1.00  0.00    -0.557 C  
HETATM   16  N   UNL     1     -11.685  16.009  68.950  1.00  0.00    -0.368 NA 
BRANCH   5  17
HETATM   17  C   UNL     1     -11.523  14.609  66.895  1.00  0.00    -0.372 A  
HETATM   18  C   UNL     1     -12.229  14.385  64.161  1.00  0.00    -0.393 A  
HETATM   19  C   UNL     1     -12.752  13.494  65.093  1.00  0.00    -0.453 A  
HETATM   20  C   UNL     1     -12.398  13.603  66.442  1.00  0.00    -0.441 A  
HETATM   21  C   UNL     1     -10.980  15.471  65.923  1.00  0.00    -0.264 A  
HETATM   22  C   UNL     1     -11.338  15.366  64.574  1.00  0.00    -0.321 A  
ENDBRANCH   5  17
ENDBRANCH   4   5
ENDBRANCH   3   4
ENDBRANCH   2   3
BRANCH   2  23
HETATM   23  C   UNL     1      -8.897  11.693  67.230  1.00  0.00    -0.164 A  
HETATM   24  F   UNL     1      -9.908  12.456  63.248  1.00  0.00    -0.373 F  
HETATM   25  C   UNL     1      -9.232  11.924  65.887  1.00  0.00    -0.147 A  
HETATM   26  F   UNL     1     -11.114   8.369  68.836  1.00  0.00    -0.107 F  
HETATM   27  C   UNL     1      -9.922  10.962  65.132  1.00  0.00    -0.341 A  
HETATM   28  C   UNL     1     -10.270   9.745  65.739  1.00  0.00    -0.222 A  
HETATM   29  F   UNL     1      -9.247   7.472  68.171  1.00  0.00    -0.137 F  
HETATM   30  C   UNL     1     -10.306  11.232  63.696  1.00  0.00    -0.408 C  
HETATM   31  F   UNL     1     -11.021   7.342  66.923  1.00  0.00    -0.422 F  
HETATM   32  C   UNL     1     -10.325   8.181  67.741  1.00  0.00    -0.233 C  
HETATM   33  F   UNL     1      -9.772  10.326  62.834  1.00  0.00    -0.322 F  
HETATM   34  F   UNL     1     -11.653  11.188  63.505  1.00  0.00    -0.396 F  
HETATM   35  C   UNL     1      -9.254  10.466  67.812  1.00  0.00    -0.148 A  
HETATM   36  C   UNL     1      -9.941   9.483  67.078  1.00  0.00    -0.273 A  
ENDBRANCH   2  23
TORSDOF 5
ENDMDL
MODEL        2
REMARK 921   NORMALIZED FREE ENERGY PREDICTED BY IDOCK:   -8.04 KCAL/MOL
REMARK 922        TOTAL FREE ENERGY PREDICTED BY IDOCK:  -13.26 KCAL/MOL
REMARK 923 INTER-LIGAND FREE ENERGY PREDICTED BY IDOCK:  -11.23 KCAL/MOL
REMARK 924 INTRA-LIGAND FREE ENERGY PREDICTED BY IDOCK:   -2.03 KCAL/MOL
REMARK 927      BINDING AFFINITY PREDICTED BY RF-SCORE:    0.00 PKD
ROOT
HETATM    1  C   UNL     1     -12.473  14.340  71.460  1.00  0.00    -0.435 C  
HETATM    2  C   UNL     1     -12.233  14.034  69.983  1.00  0.00    -0.352 C  
ENDROOT
BRANCH   2   3
HETATM    3  O   UNL     1     -11.133  14.788  69.473  1.00  0.00    -0.261 OA 
BRANCH   3   4
HETATM    4  C   UNL     1     -11.514  15.856  68.592  1.00  0.00    -0.391 C  
BRANCH   4   5
HETATM    5  C   UNL     1     -10.567  15.862  67.340  1.00  0.00    -0.315 C  
HETATM    6  C   UNL     1      -8.687  18.105  67.996  1.00  0.00    -0.269 C  
HETATM    7  C   UNL     1     -10.093  18.386  67.442  1.00  0.00    -0.369 C  
HETATM    8  N   UNL     1      -8.331  19.133  68.949  1.00  0.00    -0.331 NA 
HETATM    9  H   UNL     1      -8.548  15.476  67.001  1.00  0.00     0.000 HD 
HETATM   10  C   UNL     1     -10.630  17.224  66.604  1.00  0.00    -0.179 C  
HETATM   11  O   UNL     1      -6.481  20.320  69.609  1.00  0.00    -0.313 OA 
HETATM   12  C   UNL     1      -8.637  16.701  68.655  1.00  0.00    -0.253 C  
HETATM   13  C   UNL     1      -7.604  18.248  66.910  1.00  0.00    -0.237 C  
HETATM   14  C   UNL     1      -7.041  19.581  68.819  1.00  0.00    -0.348 C  
HETATM   15  C   UNL     1      -6.445  18.995  67.572  1.00  0.00    -0.202 C  
HETATM   16  N   UNL     1      -9.165  15.634  67.798  1.00  0.00    -0.193 NA 
BRANCH   5  17
HETATM   17  C   UNL     1     -10.974  14.760  66.325  1.00  0.00    -0.330 A  
HETATM   18  C   UNL     1     -11.676  12.732  64.476  1.00  0.00    -0.420 A  
HETATM   19  C   UNL     1     -10.390  13.263  64.475  1.00  0.00    -0.394 A  
HETATM   20  C   UNL     1     -10.047  14.268  65.387  1.00  0.00    -0.379 A  
HETATM   21  C   UNL     1     -12.278  14.231  66.274  1.00  0.00    -0.433 A  
HETATM   22  C   UNL     1     -12.621  13.221  65.368  1.00  0.00    -0.526 A  
ENDBRANCH   5  17
ENDBRANCH   4   5
ENDBRANCH   3   4
ENDBRANCH   2   3
BRANCH   2  23
HETATM   23  C   UNL     1     -11.927  12.553  69.821  1.00  0.00    -0.359 A  
HETATM   24  F   UNL     1     -13.185   9.914  72.806  1.00  0.00    -0.334 F  
HETATM   25  C   UNL     1     -12.353  11.648  70.806  1.00  0.00    -0.454 A  
HETATM   26  F   UNL     1      -8.775  10.869  67.419  1.00  0.00    -0.128 F  
HETATM   27  C   UNL     1     -12.017  10.287  70.738  1.00  0.00    -0.456 A  
HETATM   28  C   UNL     1     -11.247   9.830  69.656  1.00  0.00    -0.216 A  
HETATM   29  F   UNL     1     -10.580  10.423  66.289  1.00  0.00    -0.298 F  
HETATM   30  C   UNL     1     -12.452   9.325  71.819  1.00  0.00    -0.381 C  
HETATM   31  F   UNL     1      -9.682   8.899  67.553  1.00  0.00    -0.167 F  
HETATM   32  C   UNL     1      -9.975  10.229  67.493  1.00  0.00    -0.189 C  
HETATM   33  F   UNL     1     -13.221   8.311  71.336  1.00  0.00    -0.320 F  
HETATM   34  F   UNL     1     -11.396   8.735  72.442  1.00  0.00    -0.414 F  
HETATM   35  C   UNL     1     -11.162  12.070  68.748  1.00  0.00    -0.316 A  
HETATM   36  C   UNL     1     -10.815  10.711  68.652  1.00  0.00    -0.266 A  
ENDBRANCH   2  23
TORSDOF 5
ENDMDL
MODEL        3
REMARK 921   NORMALIZED FREE ENERGY PREDICTED BY IDOCK:   -7.91 KCAL/MOL
REMARK 922        TOTAL FREE ENERGY PREDICTED BY IDOCK:  -13.08 KCAL/MOL
REMARK 923 INTER-LIGAND FREE ENERGY PREDICTED BY IDOCK:  -11.62 KCAL/MOL
REMARK 924 INTRA-LIGAND FREE ENERGY PREDICTED BY IDOCK:   -1.46 KCAL/MOL
REMARK 927      BINDING AFFINITY PREDICTED BY RF-SCORE:    0.00 PKD
ROOT
HETATM    1  C   UNL     1      -9.697   9.793  68.294  1.00  0.00    -0.160 C  
HETATM    2  C   UNL     1      -9.944  11.251  68.676  1.00  0.00    -0.204 C  
ENDROOT
BRANCH   2   3
HETATM    3  O   UNL     1     -10.321  12.027  67.539  1.00  0.00    -0.198 OA 
BRANCH   3   4
HETATM    4  C   UNL     1      -9.615  13.271  67.418  1.00  0.00    -0.223 C  
BRANCH   4   5
HETATM    5  C   UNL     1     -10.402  14.227  66.454  1.00  0.00    -0.286 C  
HETATM    6  C   UNL     1      -9.877  16.913  67.681  1.00  0.00    -0.259 C  
HETATM    7  C   UNL     1     -10.937  15.967  68.268  1.00  0.00    -0.335 C  
HETATM    8  N   UNL     1      -9.231  17.637  68.753  1.00  0.00    -0.253 NA 
HETATM    9  H   UNL     1      -9.891  15.743  65.121  1.00  0.00     0.000 HD 
HETATM   10  C   UNL     1     -11.501  15.005  67.221  1.00  0.00    -0.312 C  
HETATM   11  O   UNL     1      -8.383  19.729  69.168  1.00  0.00    -0.205 OA 
HETATM   12  C   UNL     1      -8.838  16.112  66.852  1.00  0.00    -0.219 C  
HETATM   13  C   UNL     1     -10.514  18.034  66.838  1.00  0.00    -0.350 C  
HETATM   14  C   UNL     1      -9.044  18.970  68.482  1.00  0.00    -0.358 C  
HETATM   15  C   UNL     1      -9.763  19.314  67.210  1.00  0.00    -0.409 C  
HETATM   16  N   UNL     1      -9.445  15.210  65.867  1.00  0.00    -0.326 NA 
BRANCH   5  17
HETATM   17  C   UNL     1     -11.098  13.428  65.319  1.00  0.00    -0.305 A  
HETATM   18  C   UNL     1     -12.401  11.999  63.249  1.00  0.00    -0.553 A  
HETATM   19  C   UNL     1     -13.141  12.551  64.290  1.00  0.00    -0.093 A  
HETATM   20  C   UNL     1     -12.495  13.252  65.314  1.00  0.00    -0.543 A  
HETATM   21  C   UNL     1     -10.373  12.825  64.273  1.00  0.00    -0.402 A  
HETATM   22  C   UNL     1     -11.019  12.129  63.245  1.00  0.00    -0.398 A  
ENDBRANCH   5  17
ENDBRANCH   4   5
ENDBRANCH   3   4
ENDBRANCH   2   3
BRANCH   2  23
HETATM   23  C   UNL     1     -11.063  11.317  69.705  1.00  0.00    -0.238 A  
HETATM   24  F   UNL     1     -12.491  15.066  70.872  1.00  0.00    -0.304 F  
HETATM   25  C   UNL     1     -11.566  12.566  70.101  1.00  0.00    -0.150 A  
HETATM   26  F   UNL     1     -12.027   8.268  72.590  1.00  0.00    -0.416 F  
HETATM   27  C   UNL     1     -12.536  12.674  71.109  1.00  0.00    -0.354 A  
HETATM   28  C   UNL     1     -13.013  11.504  71.722  1.00  0.00    -0.500 A  
HETATM   29  F   UNL     1     -13.636   8.128  71.133  1.00  0.00    -0.284 F  
HETATM   30  C   UNL     1     -13.049  14.025  71.551  1.00  0.00    -0.363 C  
HETATM   31  F   UNL     1     -13.943   9.210  72.993  1.00  0.00    -0.426 F  
HETATM   32  C   UNL     1     -13.032   8.979  72.006  1.00  0.00    -0.407 C  
HETATM   33  F   UNL     1     -14.394  14.151  71.388  1.00  0.00    -0.406 F  
HETATM   34  F   UNL     1     -12.804  14.266  72.867  1.00  0.00    -0.456 F  
HETATM   35  C   UNL     1     -11.559  10.162  70.332  1.00  0.00    -0.396 A  
HETATM   36  C   UNL     1     -12.533  10.241  71.341  1.00  0.00    -0.528 A  
ENDBRANCH   2  23
TORSDOF 5
ENDMDL
MODEL        4
REMARK 921   NORMALIZED FREE ENERGY PREDICTED BY IDOCK:   -7.89 KCAL/MOL
REMARK 922        TOTAL FREE ENERGY PREDICTED BY IDOCK:  -13.06 KCAL/MOL
REMARK 923 INTER-LIGAND FREE ENERGY PREDICTED BY IDOCK:  -11.36 KCAL/MOL
REMARK 924 INTRA-LIGAND FREE ENERGY PREDICTED BY IDOCK:   -1.70 KCAL/MOL
REMARK 927      BINDING AFFINITY PREDICTED BY RF-SCORE:    0.00 PKD
ROOT
HETATM    1  C   UNL     1     -11.646  11.935  67.182  1.00  0.00    -0.363 C  
HETATM    2  C   UNL     1     -10.320  11.928  67.939  1.00  0.00    -0.198 C  
ENDROOT
BRANCH   2   3
HETATM    3  O   UNL     1      -9.964  13.242  68.368  1.00  0.00    -0.235 OA 
BRANCH   3   4
HETATM    4  C   UNL     1     -10.938  14.246  68.048  1.00  0.00    -0.249 C  
BRANCH   4   5
HETATM    5  C   UNL     1     -10.784  15.457  69.035  1.00  0.00    -0.242 C  
HETATM    6  C   UNL     1      -8.802  17.184  67.592  1.00  0.00    -0.218 C  
HETATM    7  C   UNL     1      -8.346  15.952  68.390  1.00  0.00    -0.174 C  
HETATM    8  N   UNL     1      -7.970  17.334  66.420  1.00  0.00    -0.282 NA 
HETATM    9  H   UNL     1     -11.234  17.490  68.976  1.00  0.00     0.000 HD 
HETATM   10  C   UNL     1      -9.318  15.596  69.517  1.00  0.00    -0.263 C  
HETATM   11  O   UNL     1      -7.026  19.008  65.165  1.00  0.00    -0.482 OA 
HETATM   12  C   UNL     1     -10.295  17.049  67.196  1.00  0.00    -0.305 C  
HETATM   13  C   UNL     1      -8.549  18.492  68.367  1.00  0.00    -0.355 C  
HETATM   14  C   UNL     1      -7.588  18.630  66.177  1.00  0.00    -0.246 C  
HETATM   15  C   UNL     1      -7.996  19.484  67.342  1.00  0.00    -0.305 C  
HETATM   16  N   UNL     1     -11.172  16.709  68.322  1.00  0.00    -0.302 NA 
BRANCH   5  17
HETATM   17  C   UNL     1     -11.675  15.270  70.293  1.00  0.00    -0.341 A  
HETATM   18  C   UNL     1     -13.299  14.973  72.595  1.00  0.00    -0.556 A  
HETATM   19  C   UNL     1     -12.251  15.889  72.593  1.00  0.00    -0.603 A  
HETATM   20  C   UNL     1     -11.447  16.030  71.456  1.00  0.00    -0.459 A  
HETATM   21  C   UNL     1     -12.718  14.326  70.340  1.00  0.00    -0.355 A  
HETATM   22  C   UNL     1     -13.527  14.187  71.474  1.00  0.00    -0.419 A  
ENDBRANCH   5  17
ENDBRANCH   4   5
ENDBRANCH   3   4
ENDBRANCH   2   3
BRANCH   2  23
HETATM   23  C   UNL     1     -10.445  11.031  69.161  1.00  0.00    -0.238 A  
HETATM   24  F   UNL     1      -7.239   8.544  70.155  1.00  0.00    -0.047 F  
HETATM   25  C   UNL     1      -9.375  10.198  69.520  1.00  0.00    -0.230 A  
HETATM   26  F   UNL     1     -14.128   9.684  70.940  1.00  0.00    -0.330 F  
HETATM   27  C   UNL     1      -9.482   9.293  70.588  1.00  0.00    -0.333 A  
HETATM   28  C   UNL     1     -10.685   9.234  71.310  1.00  0.00    -0.422 A  
HETATM   29  F   UNL     1     -13.388  11.170  72.346  1.00  0.00    -0.560 F  
HETATM   30  C   UNL     1      -8.335   8.377  70.948  1.00  0.00    -0.135 C  
HETATM   31  F   UNL     1     -13.070   9.054  72.731  1.00  0.00    -0.477 F  
HETATM   32  C   UNL     1     -13.071   9.992  71.742  1.00  0.00    -0.457 C  
HETATM   33  F   UNL     1      -7.905   8.558  72.225  1.00  0.00    -0.148 F  
HETATM   34  F   UNL     1      -8.672   7.063  70.845  1.00  0.00    -0.137 F  
HETATM   35  C   UNL     1     -11.636  10.954  69.902  1.00  0.00    -0.410 A  
HETATM   36  C   UNL     1     -11.769  10.061  70.978  1.00  0.00    -0.479 A  
ENDBRANCH   2  23
TORSDOF 5
ENDMDL
MODEL        5
REMARK 921   NORMALIZED FREE ENERGY PREDICTED BY IDOCK:   -7.78 KCAL/MOL
REMARK 922        TOTAL FREE ENERGY PREDICTED BY IDOCK:  -12.92 KCAL/MOL
REMARK 923 INTER-LIGAND FREE ENERGY PREDICTED BY IDOCK:  -10.89 KCAL/MOL
REMARK 924 INTRA-LIGAND FREE ENERGY PREDICTED BY IDOCK:   -2.03 KCAL/MOL
REMARK 927      BINDING AFFINITY PREDICTED BY RF-SCORE:    0.00 PKD
ROOT
HETATM    1  C   UNL     1     -12.499  14.441  71.404  1.00  0.00    -0.433 C  
HETATM    2  C   UNL     1     -12.215  14.136  69.934  1.00  0.00    -0.359 C  
ENDROOT
BRANCH   2   3
HETATM    3  O   UNL     1     -11.159  14.953  69.432  1.00  0.00    -0.256 OA 
BRANCH   3   4
HETATM    4  C   UNL     1     -11.580  15.923  68.460  1.00  0.00    -0.349 C  
BRANCH   4   5
HETATM    5  C   UNL     1     -10.616  15.874  67.223  1.00  0.00    -0.314 C  
HETATM    6  C   UNL     1      -8.659  18.052  67.876  1.00  0.00    -0.257 C  
HETATM    7  C   UNL     1     -10.045  18.379  67.297  1.00  0.00    -0.369 C  
HETATM    8  N   UNL     1      -8.277  19.078  68.820  1.00  0.00    -0.354 NA 
HETATM    9  H   UNL     1      -8.609  15.404  66.920  1.00  0.00     0.000 HD 
HETATM   10  C   UNL     1     -10.615  17.227  66.467  1.00  0.00    -0.178 C  
HETATM   11  O   UNL     1      -6.392  20.202  69.491  1.00  0.00    -0.328 OA 
HETATM   12  C   UNL     1      -8.673  16.656  68.555  1.00  0.00    -0.242 C  
HETATM   13  C   UNL     1      -7.556  18.136  66.804  1.00  0.00    -0.248 C  
HETATM   14  C   UNL     1      -6.968  19.473  68.703  1.00  0.00    -0.322 C  
HETATM   15  C   UNL     1      -6.378  18.847  67.474  1.00  0.00    -0.196 C  
HETATM   16  N   UNL     1      -9.230  15.598  67.705  1.00  0.00    -0.193 NA 
BRANCH   5  17
HETATM   17  C   UNL     1     -11.051  14.774  66.217  1.00  0.00    -0.341 A  
HETATM   18  C   UNL     1     -11.804  12.751  64.383  1.00  0.00    -0.446 A  
HETATM   19  C   UNL     1     -10.526  13.301  64.331  1.00  0.00    -0.424 A  
HETATM   20  C   UNL     1     -10.158  14.303  65.235  1.00  0.00    -0.378 A  
HETATM   21  C   UNL     1     -12.348  14.227  66.218  1.00  0.00    -0.399 A  
HETATM   22  C   UNL     1     -12.716  13.219  65.319  1.00  0.00    -0.474 A  
ENDBRANCH   5  17
ENDBRANCH   4   5
ENDBRANCH   3   4
ENDBRANCH   2   3
BRANCH   2  23
HETATM   23  C   UNL     1     -11.812  12.675  69.794  1.00  0.00    -0.379 A  
HETATM   24  F   UNL     1      -9.286  11.588  66.649  1.00  0.00    -0.172 F  
HETATM   25  C   UNL     1     -10.954  12.292  68.753  1.00  0.00    -0.277 A  
HETATM   26  F   UNL     1     -13.983   9.295  71.346  1.00  0.00    -0.414 F  
HETATM   27  C   UNL     1     -10.628  10.943  68.537  1.00  0.00    -0.219 A  
HETATM   28  C   UNL     1     -11.169   9.968  69.391  1.00  0.00    -0.235 A  
HETATM   29  F   UNL     1     -12.254   9.446  72.659  1.00  0.00    -0.292 F  
HETATM   30  C   UNL     1      -9.728  10.536  67.394  1.00  0.00    -0.164 C  
HETATM   31  F   UNL     1     -12.262   8.006  71.031  1.00  0.00    -0.306 F  
HETATM   32  C   UNL     1     -12.620   9.279  71.359  1.00  0.00    -0.336 C  
HETATM   33  F   UNL     1      -8.612   9.882  67.816  1.00  0.00    -0.119 F  
HETATM   34  F   UNL     1     -10.349   9.698  66.521  1.00  0.00    -0.295 F  
HETATM   35  C   UNL     1     -12.338  11.681  70.636  1.00  0.00    -0.437 A  
HETATM   36  C   UNL     1     -12.024  10.325  70.446  1.00  0.00    -0.391 A  
ENDBRANCH   2  23
TORSDOF 5
ENDMDL
MODEL        6
REMARK 921   NORMALIZED FREE ENERGY PREDICTED BY IDOCK:   -7.78 KCAL/MOL
REMARK 922        TOTAL FREE ENERGY PREDICTED BY IDOCK:  -12.92 KCAL/MOL
REMARK 923 INTER-LIGAND FREE ENERGY PREDICTED BY IDOCK:  -11.70 KCAL/MOL
REMARK 924 INTRA-LIGAND FREE ENERGY PREDICTED BY IDOCK:   -1.22 KCAL/MOL
REMARK 927      BINDING AFFINITY PREDICTED BY RF-SCORE:    0.00 PKD
ROOT
HETATM    1  C   UNL     1     -11.911  11.103  69.896  1.00  0.00    -0.439 C  
HETATM    2  C   UNL     1     -11.871  12.050  68.698  1.00  0.00    -0.311 C  
ENDROOT
BRANCH   2   3
HETATM    3  O   UNL     1     -11.104  13.218  68.989  1.00  0.00    -0.255 OA 
BRANCH   3   4
HETATM    4  C   UNL     1     -11.679  14.436  68.491  1.00  0.00    -0.335 C  
BRANCH   4   5
HETATM    5  C   UNL     1     -11.245  15.632  69.409  1.00  0.00    -0.313 C  
HETATM    6  C   UNL     1      -9.016  16.856  67.817  1.00  0.00    -0.225 C  
HETATM    7  C   UNL     1      -8.786  15.593  68.663  1.00  0.00    -0.193 C  
HETATM    8  N   UNL     1      -8.220  16.781  66.613  1.00  0.00    -0.232 NA 
HETATM    9  H   UNL     1     -11.279  17.710  69.257  1.00  0.00     0.000 HD 
HETATM   10  C   UNL     1      -9.763  15.493  69.836  1.00  0.00    -0.169 C  
HETATM   11  O   UNL     1      -7.010  18.170  65.244  1.00  0.00    -0.484 OA 
HETATM   12  C   UNL     1     -10.522  17.009  67.474  1.00  0.00    -0.334 C  
HETATM   13  C   UNL     1      -8.475  18.119  68.514  1.00  0.00    -0.312 C  
HETATM   14  C   UNL     1      -7.596  17.960  66.291  1.00  0.00    -0.280 C  
HETATM   15  C   UNL     1      -7.776  18.930  67.422  1.00  0.00    -0.247 C  
HETATM   16  N   UNL     1     -11.402  16.905  68.643  1.00  0.00    -0.097 NA 
BRANCH   5  17
HETATM   17  C   UNL     1     -12.104  15.688  70.701  1.00  0.00    -0.443 A  
HETATM   18  C   UNL     1     -13.648  15.823  73.072  1.00  0.00    -0.638 A  
HETATM   19  C   UNL     1     -12.299  16.164  73.096  1.00  0.00    -0.641 A  
HETATM   20  C   UNL     1     -11.537  16.092  71.925  1.00  0.00    -0.524 A  
HETATM   21  C   UNL     1     -13.461  15.312  70.717  1.00  0.00    -0.359 A  
HETATM   22  C   UNL     1     -14.226  15.390  71.886  1.00  0.00    -0.640 A  
ENDBRANCH   5  17
ENDBRANCH   4   5
ENDBRANCH   3   4
ENDBRANCH   2   3
BRANCH   2  23
HETATM   23  C   UNL     1     -11.241  11.333  67.514  1.00  0.00    -0.357 A  
HETATM   24  F   UNL     1      -9.027   7.862  68.222  1.00  0.00    -0.132 F  
HETATM   25  C   UNL     1     -10.505  10.159  67.729  1.00  0.00    -0.277 A  
HETATM   26  F   UNL     1     -10.262  13.109  63.714  1.00  0.00    -0.393 F  
HETATM   27  C   UNL     1      -9.835   9.515  66.675  1.00  0.00    -0.293 A  
HETATM   28  C   UNL     1      -9.917  10.061  65.384  1.00  0.00    -0.364 A  
HETATM   29  F   UNL     1     -12.008  11.886  63.279  1.00  0.00    -0.529 F  
HETATM   30  C   UNL     1      -9.019   8.268  66.921  1.00  0.00    -0.146 C  
HETATM   31  F   UNL     1     -10.017  11.142  62.823  1.00  0.00    -0.291 F  
HETATM   32  C   UNL     1     -10.734  11.831  63.755  1.00  0.00    -0.419 C  
HETATM   33  F   UNL     1      -9.458   7.205  66.195  1.00  0.00    -0.204 F  
HETATM   34  F   UNL     1      -7.709   8.435  66.593  1.00  0.00    -0.085 F  
HETATM   35  C   UNL     1     -11.309  11.857  66.212  1.00  0.00    -0.394 A  
HETATM   36  C   UNL     1     -10.653  11.231  65.139  1.00  0.00    -0.343 A  
ENDBRANCH   2  23
TORSDOF 5
ENDMDL
MODEL        7
REMARK 921   NORMALIZED FREE ENERGY PREDICTED BY IDOCK:   -7.73 KCAL/MOL
REMARK 922        TOTAL FREE ENERGY PREDICTED BY IDOCK:  -12.85 KCAL/MOL
REMARK 923 INTER-LIGAND FREE ENERGY PREDICTED BY IDOCK:  -11.35 KCAL/MOL
REMARK 924 INTRA-LIGAND FREE ENERGY PREDICTED BY IDOCK:   -1.50 KCAL/MOL
REMARK 927      BINDING AFFINITY PREDICTED BY RF-SCORE:    0.00 PKD
ROOT
HETATM    1  C   UNL     1      -9.472   9.827  68.293  1.00  0.00    -0.148 C  
HETATM    2  C   UNL     1      -9.794  11.264  68.699  1.00  0.00    -0.202 C  
ENDROOT
BRANCH   2   3
HETATM    3  O   UNL     1     -10.246  12.028  67.581  1.00  0.00    -0.195 OA 
BRANCH   3   4
HETATM    4  C   UNL     1      -9.504  13.237  67.360  1.00  0.00    -0.218 C  
BRANCH   4   5
HETATM    5  C   UNL     1     -10.317  14.181  66.405  1.00  0.00    -0.287 C  
HETATM    6  C   UNL     1      -9.678  16.890  67.521  1.00  0.00    -0.249 C  
HETATM    7  C   UNL     1     -10.729  15.987  68.186  1.00  0.00    -0.311 C  
HETATM    8  N   UNL     1      -8.968  17.633  68.538  1.00  0.00    -0.289 NA 
HETATM    9  H   UNL     1      -9.838  15.644  65.002  1.00  0.00     0.000 HD 
HETATM   10  C   UNL     1     -11.361  15.005  67.197  1.00  0.00    -0.323 C  
HETATM   11  O   UNL     1      -8.058  19.717  68.847  1.00  0.00    -0.330 OA 
HETATM   12  C   UNL     1      -8.697  16.042  66.670  1.00  0.00    -0.274 C  
HETATM   13  C   UNL     1     -10.332  17.999  66.673  1.00  0.00    -0.375 C  
HETATM   14  C   UNL     1      -8.767  18.952  68.217  1.00  0.00    -0.333 C  
HETATM   15  C   UNL     1      -9.537  19.273  66.970  1.00  0.00    -0.394 C  
HETATM   16  N   UNL     1      -9.368  15.124  65.743  1.00  0.00    -0.262 NA 
BRANCH   5  17
HETATM   17  C   UNL     1     -11.082  13.363  65.328  1.00  0.00    -0.305 A  
HETATM   18  C   UNL     1     -12.445  11.843  63.366  1.00  0.00    -0.582 A  
HETATM   19  C   UNL     1     -11.054  11.889  63.372  1.00  0.00    -0.463 A  
HETATM   20  C   UNL     1     -10.383  12.645  64.339  1.00  0.00    -0.386 A  
HETATM   21  C   UNL     1     -12.488  13.328  65.272  1.00  0.00    -0.543 A  
HETATM   22  C   UNL     1     -13.161  12.567  64.309  1.00  0.00    -0.093 A  
ENDBRANCH   5  17
ENDBRANCH   4   5
ENDBRANCH   3   4
ENDBRANCH   2   3
BRANCH   2  23
HETATM   23  C   UNL     1     -10.887  11.252  69.757  1.00  0.00    -0.089 A  
HETATM   24  F   UNL     1     -12.454   7.575  70.973  1.00  0.00    -0.333 F  
HETATM   25  C   UNL     1     -11.417  10.027  70.189  1.00  0.00    -0.344 A  
HETATM   26  F   UNL     1     -13.547  14.511  70.681  1.00  0.00    -0.368 F  
HETATM   27  C   UNL     1     -12.485   9.976  71.099  1.00  0.00    -0.480 A  
HETATM   28  C   UNL     1     -13.021  11.179  71.587  1.00  0.00    -0.548 A  
HETATM   29  F   UNL     1     -12.177  14.466  72.371  1.00  0.00    -0.357 F  
HETATM   30  C   UNL     1     -13.071   8.653  71.534  1.00  0.00    -0.305 C  
HETATM   31  F   UNL     1     -14.139  13.543  72.535  1.00  0.00    -0.594 F  
HETATM   32  C   UNL     1     -13.085  13.717  71.688  1.00  0.00    -0.372 C  
HETATM   33  F   UNL     1     -12.997   8.468  72.880  1.00  0.00    -0.353 F  
HETATM   34  F   UNL     1     -14.387   8.538  71.209  1.00  0.00    -0.441 F  
HETATM   35  C   UNL     1     -11.438  12.441  70.263  1.00  0.00     0.115 A  
HETATM   36  C   UNL     1     -12.504  12.419  71.178  1.00  0.00    -0.323 A  
ENDBRANCH   2  23
TORSDOF 5
ENDMDL
MODEL        8
REMARK 921   NORMALIZED FREE ENERGY PREDICTED BY IDOCK:   -7.70 KCAL/MOL
REMARK 922        TOTAL FREE ENERGY PREDICTED BY IDOCK:  -12.81 KCAL/MOL
REMARK 923 INTER-LIGAND FREE ENERGY PREDICTED BY IDOCK:  -10.51 KCAL/MOL
REMARK 924 INTRA-LIGAND FREE ENERGY PREDICTED BY IDOCK:   -2.30 KCAL/MOL
REMARK 927      BINDING AFFINITY PREDICTED BY RF-SCORE:    0.00 PKD
ROOT
HETATM    1  C   UNL     1      -6.961  12.316  68.102  1.00  0.00    -0.087 C  
HETATM    2  C   UNL     1      -8.487  12.339  68.046  1.00  0.00    -0.171 C  
ENDROOT
BRANCH   2   3
HETATM    3  O   UNL     1      -8.969  13.612  67.618  1.00  0.00    -0.182 OA 
BRANCH   3   4
HETATM    4  C   UNL     1      -9.556  14.398  68.666  1.00  0.00    -0.208 C  
BRANCH   4   5
HETATM    5  C   UNL     1     -11.109  14.479  68.450  1.00  0.00    -0.256 C  
HETATM    6  C   UNL     1     -12.095  15.001  71.234  1.00  0.00    -0.328 C  
HETATM    7  C   UNL     1     -11.698  13.585  70.787  1.00  0.00     0.053 C  
HETATM    8  N   UNL     1     -11.732  15.187  72.621  1.00  0.00    -0.397 NA 
HETATM    9  H   UNL     1     -12.559  15.964  68.630  1.00  0.00     0.000 HD 
HETATM   10  C   UNL     1     -11.841  13.392  69.275  1.00  0.00    -0.385 C  
HETATM   11  O   UNL     1     -12.540  16.226  74.501  1.00  0.00    -0.742 OA 
HETATM   12  C   UNL     1     -11.409  16.064  70.336  1.00  0.00    -0.391 C  
HETATM   13  C   UNL     1     -13.624  15.189  71.247  1.00  0.00    -0.559 C  
HETATM   14  C   UNL     1     -12.695  15.825  73.362  1.00  0.00    -0.551 C  
HETATM   15  C   UNL     1     -13.939  15.957  72.533  1.00  0.00    -0.424 C  
HETATM   16  N   UNL     1     -11.586  15.820  68.901  1.00  0.00    -0.379 NA 
BRANCH   5  17
HETATM   17  C   UNL     1     -11.478  14.264  66.957  1.00  0.00    -0.377 A  
HETATM   18  C   UNL     1     -12.115  13.891  64.223  1.00  0.00    -0.477 A  
HETATM   19  C   UNL     1     -11.417  15.025  64.629  1.00  0.00    -0.382 A  
HETATM   20  C   UNL     1     -11.108  15.209  65.982  1.00  0.00    -0.312 A  
HETATM   21  C   UNL     1     -12.217  13.148  66.520  1.00  0.00    -0.358 A  
HETATM   22  C   UNL     1     -12.521  12.959  65.167  1.00  0.00    -0.561 A  
ENDBRANCH   5  17
ENDBRANCH   4   5
ENDBRANCH   3   4
ENDBRANCH   2   3
BRANCH   2  23
HETATM   23  C   UNL     1      -8.968  11.279  67.067  1.00  0.00    -0.154 A  
HETATM   24  F   UNL     1     -10.054   7.528  68.551  1.00  0.00    -0.163 F  
HETATM   25  C   UNL     1      -9.350  10.017  67.547  1.00  0.00    -0.162 A  
HETATM   26  F   UNL     1      -8.077  11.138  62.856  1.00  0.00    -0.103 F  
HETATM   27  C   UNL     1      -9.717   8.985  66.669  1.00  0.00    -0.295 A  
HETATM   28  C   UNL     1      -9.707   9.232  65.287  1.00  0.00    -0.088 A  
HETATM   29  F   UNL     1     -10.164  11.748  62.923  1.00  0.00    -0.359 F  
HETATM   30  C   UNL     1     -10.097   7.619  67.193  1.00  0.00    -0.253 C  
HETATM   31  F   UNL     1      -9.650   9.671  62.540  1.00  0.00    -0.275 F  
HETATM   32  C   UNL     1      -9.310  10.756  63.293  1.00  0.00    -0.304 C  
HETATM   33  F   UNL     1     -11.357   7.255  66.833  1.00  0.00    -0.390 F  
HETATM   34  F   UNL     1      -9.274   6.640  66.728  1.00  0.00    -0.129 F  
HETATM   35  C   UNL     1      -8.970  11.501  65.680  1.00  0.00    -0.081 A  
HETATM   36  C   UNL     1      -9.337  10.488  64.779  1.00  0.00    -0.285 A  
ENDBRANCH   2  23
TORSDOF 5
ENDMDL
MODEL        9
REMARK 921   NORMALIZED FREE ENERGY PREDICTED BY IDOCK:   -7.61 KCAL/MOL
REMARK 922        TOTAL FREE ENERGY PREDICTED BY IDOCK:  -12.70 KCAL/MOL
REMARK 923 INTER-LIGAND FREE ENERGY PREDICTED BY IDOCK:  -11.24 KCAL/MOL
REMARK 924 INTRA-LIGAND FREE ENERGY PREDICTED BY IDOCK:   -1.46 KCAL/MOL
REMARK 927      BINDING AFFINITY PREDICTED BY RF-SCORE:    0.00 PKD
ROOT
HETATM    1  C   UNL     1     -10.228  10.173  66.967  1.00  0.00    -0.290 C  
HETATM    2  C   UNL     1      -9.669  11.032  68.099  1.00  0.00    -0.174 C  
ENDROOT
BRANCH   2   3
HETATM    3  O   UNL     1     -10.203  12.354  68.056  1.00  0.00    -0.206 OA 
BRANCH   3   4
HETATM    4  C   UNL     1      -9.322  13.323  67.466  1.00  0.00    -0.218 C  
BRANCH   4   5
HETATM    5  C   UNL     1     -10.146  14.277  66.531  1.00  0.00    -0.278 C  
HETATM    6  C   UNL     1      -9.520  16.971  67.689  1.00  0.00    -0.236 C  
HETATM    7  C   UNL     1     -10.561  16.050  68.344  1.00  0.00    -0.270 C  
HETATM    8  N   UNL     1      -8.809  17.701  68.714  1.00  0.00    -0.252 NA 
HETATM    9  H   UNL     1      -9.685  15.767  65.150  1.00  0.00     0.000 HD 
HETATM   10  C   UNL     1     -11.192  15.081  67.342  1.00  0.00    -0.337 C  
HETATM   11  O   UNL     1      -7.913  19.786  69.054  1.00  0.00    -0.274 OA 
HETATM   12  C   UNL     1      -8.538  16.144  66.819  1.00  0.00    -0.247 C  
HETATM   13  C   UNL     1     -10.185  18.090  66.863  1.00  0.00    -0.366 C  
HETATM   14  C   UNL     1      -8.619  19.027  68.415  1.00  0.00    -0.348 C  
HETATM   15  C   UNL     1      -9.398  19.364  67.177  1.00  0.00    -0.390 C  
HETATM   16  N   UNL     1      -9.207  15.238  65.880  1.00  0.00    -0.281 NA 
BRANCH   5  17
HETATM   17  C   UNL     1     -10.911  13.472  65.445  1.00  0.00    -0.300 A  
HETATM   18  C   UNL     1     -12.340  12.032  63.468  1.00  0.00    -0.661 A  
HETATM   19  C   UNL     1     -13.013  12.583  64.554  1.00  0.00    -0.215 A  
HETATM   20  C   UNL     1     -12.304  13.290  65.532  1.00  0.00    -0.533 A  
HETATM   21  C   UNL     1     -10.254  12.870  64.355  1.00  0.00    -0.342 A  
HETATM   22  C   UNL     1     -10.962  12.168  63.373  1.00  0.00    -0.480 A  
ENDBRANCH   5  17
ENDBRANCH   4   5
ENDBRANCH   3   4
ENDBRANCH   2   3
BRANCH   2  23
HETATM   23  C   UNL     1     -10.034  10.400  69.434  1.00  0.00    -0.240 A  
HETATM   24  F   UNL     1      -7.250   7.901  71.293  1.00  0.00    -0.054 F  
HETATM   25  C   UNL     1      -9.108   9.568  70.082  1.00  0.00    -0.276 A  
HETATM   26  F   UNL     1     -14.025   9.723  70.903  1.00  0.00    -0.360 F  
HETATM   27  C   UNL     1      -9.437   8.898  71.270  1.00  0.00    -0.343 A  
HETATM   28  C   UNL     1     -10.717   9.076  71.819  1.00  0.00    -0.437 A  
HETATM   29  F   UNL     1     -13.307  11.388  72.106  1.00  0.00    -0.582 F  
HETATM   30  C   UNL     1      -8.445   7.979  71.944  1.00  0.00    -0.136 C  
HETATM   31  F   UNL     1     -13.261   9.367  72.907  1.00  0.00    -0.429 F  
HETATM   32  C   UNL     1     -13.045  10.094  71.774  1.00  0.00    -0.463 C  
HETATM   33  F   UNL     1      -8.154   8.367  73.215  1.00  0.00    -0.219 F  
HETATM   34  F   UNL     1      -8.902   6.701  72.034  1.00  0.00    -0.133 F  
HETATM   35  C   UNL     1     -11.307  10.564  70.005  1.00  0.00    -0.392 A  
HETATM   36  C   UNL     1     -11.661   9.909  71.197  1.00  0.00    -0.478 A  
ENDBRANCH   2  23
TORSDOF 5
ENDMDL
MODEL       10
REMARK 921   NORMALIZED FREE ENERGY PREDICTED BY IDOCK:   -7.59 KCAL/MOL
REMARK 922        TOTAL FREE ENERGY PREDICTED BY IDOCK:  -12.67 KCAL/MOL
REMARK 923 INTER-LIGAND FREE ENERGY PREDICTED BY IDOCK:  -11.48 KCAL/MOL
REMARK 924 INTRA-LIGAND FREE ENERGY PREDICTED BY IDOCK:   -1.19 KCAL/MOL
REMARK 927      BINDING AFFINITY PREDICTED BY RF-SCORE:    0.00 PKD
ROOT
HETATM    1  C   UNL     1     -11.947  11.310  69.872  1.00  0.00    -0.440 C  
HETATM    2  C   UNL     1     -11.825  12.208  68.643  1.00  0.00    -0.306 C  
ENDROOT
BRANCH   2   3
HETATM    3  O   UNL     1     -11.020  13.354  68.919  1.00  0.00    -0.251 OA 
BRANCH   3   4
HETATM    4  C   UNL     1     -11.556  14.584  68.407  1.00  0.00    -0.326 C  
BRANCH   4   5
HETATM    5  C   UNL     1     -11.176  15.761  69.373  1.00  0.00    -0.324 C  
HETATM    6  C   UNL     1      -9.022  17.161  67.824  1.00  0.00    -0.226 C  
HETATM    7  C   UNL     1      -8.723  15.877  68.614  1.00  0.00    -0.199 C  
HETATM    8  N   UNL     1      -8.231  17.177  66.614  1.00  0.00    -0.233 NA 
HETATM    9  H   UNL     1     -11.315  17.839  69.310  1.00  0.00     0.000 HD 
HETATM   10  C   UNL     1      -9.686  15.679  69.787  1.00  0.00    -0.231 C  
HETATM   11  O   UNL     1      -7.103  18.682  65.300  1.00  0.00    -0.513 OA 
HETATM   12  C   UNL     1     -10.536  17.253  67.496  1.00  0.00    -0.356 C  
HETATM   13  C   UNL     1      -8.540  18.419  68.572  1.00  0.00    -0.341 C  
HETATM   14  C   UNL     1      -7.669  18.398  66.340  1.00  0.00    -0.262 C  
HETATM   15  C   UNL     1      -7.890  19.310  67.511  1.00  0.00    -0.284 C  
HETATM   16  N   UNL     1     -11.402  17.055  68.663  1.00  0.00    -0.012 NA 
BRANCH   5  17
HETATM   17  C   UNL     1     -12.028  15.718  70.671  1.00  0.00    -0.426 A  
HETATM   18  C   UNL     1     -13.600  15.603  73.024  1.00  0.00    -0.619 A  
HETATM   19  C   UNL     1     -14.122  15.160  71.813  1.00  0.00    -0.645 A  
HETATM   20  C   UNL     1     -13.345  15.223  70.651  1.00  0.00    -0.320 A  
HETATM   21  C   UNL     1     -11.542  16.195  71.903  1.00  0.00    -0.491 A  
HETATM   22  C   UNL     1     -12.315  16.127  73.068  1.00  0.00    -0.625 A  
ENDBRANCH   5  17
ENDBRANCH   4   5
ENDBRANCH   3   4
ENDBRANCH   2   3
BRANCH   2  23
HETATM   23  C   UNL     1     -11.184  11.422  67.509  1.00  0.00    -0.356 A  
HETATM   24  F   UNL     1     -10.931  13.195  63.735  1.00  0.00    -0.403 F  
HETATM   25  C   UNL     1     -11.077  12.004  66.238  1.00  0.00    -0.363 A  
HETATM   26  F   UNL     1     -10.834   7.135  67.291  1.00  0.00    -0.319 F  
HETATM   27  C   UNL     1     -10.572  11.281  65.145  1.00  0.00    -0.343 A  
HETATM   28  C   UNL     1     -10.161   9.953  65.341  1.00  0.00    -0.270 A  
HETATM   29  F   UNL     1      -8.807   7.798  67.719  1.00  0.00    -0.125 F  
HETATM   30  C   UNL     1     -10.490  11.906  63.772  1.00  0.00    -0.423 C  
HETATM   31  F   UNL     1      -9.383   7.304  65.682  1.00  0.00    -0.083 F  
HETATM   32  C   UNL     1      -9.821   7.914  66.819  1.00  0.00    -0.248 C  
HETATM   33  F   UNL     1      -9.220  11.931  63.286  1.00  0.00    -0.226 F  
HETATM   34  F   UNL     1     -11.234  11.233  62.853  1.00  0.00    -0.236 F  
HETATM   35  C   UNL     1     -10.763  10.092  67.679  1.00  0.00    -0.339 A  
HETATM   36  C   UNL     1     -10.249   9.347  66.605  1.00  0.00    -0.319 A  
ENDBRANCH   2  23
TORSDOF 5
ENDMDL
MODEL       11
REMARK 921   NORMALIZED FREE ENERGY PREDICTED BY IDOCK:   -7.54 KCAL/MOL
REMARK 922        TOTAL FREE ENERGY PREDICTED BY IDOCK:  -12.60 KCAL/MOL
REMARK 923 INTER-LIGAND FREE ENERGY PREDICTED BY IDOCK:  -10.21 KCAL/MOL
REMARK 924 INTRA-LIGAND FREE ENERGY PREDICTED BY IDOCK:   -2.39 KCAL/MOL
REMARK 927      BINDING AFFINITY PREDICTED BY RF-SCORE:    0.00 PKD
ROOT
HETATM    1  C   UNL     1      -7.591   8.620  69.563  1.00  0.00    -0.088 C  
HETATM    2  C   UNL     1      -8.432   9.724  70.202  1.00  0.00    -0.174 C  
ENDROOT
BRANCH   2   3
HETATM    3  O   UNL     1      -8.988  10.588  69.211  1.00  0.00    -0.179 OA 
BRANCH   3   4
HETATM    4  C   UNL     1      -8.550  10.303  67.874  1.00  0.00    -0.118 C  
BRANCH   4   5
HETATM    5  C   UNL     1      -9.778   9.853  67.006  1.00  0.00    -0.182 C  
HETATM    6  C   UNL     1     -10.814  12.478  65.991  1.00  0.00    -0.276 C  
HETATM    7  C   UNL     1     -11.130  12.000  67.417  1.00  0.00    -0.337 C  
HETATM    8  N   UNL     1     -10.649  13.914  65.990  1.00  0.00    -0.288 NA 
HETATM    9  H   UNL     1     -10.268   9.907  64.982  1.00  0.00     0.000 HD 
HETATM   10  C   UNL     1     -11.092  10.475  67.541  1.00  0.00    -0.358 C  
HETATM   11  O   UNL     1     -11.117  15.713  64.643  1.00  0.00    -0.434 OA 
HETATM   12  C   UNL     1      -9.539  11.775  65.455  1.00  0.00    -0.201 C  
HETATM   13  C   UNL     1     -12.007  12.264  65.039  1.00  0.00    -0.413 C  
HETATM   14  C   UNL     1     -11.259  14.538  64.930  1.00  0.00    -0.391 C  
HETATM   15  C   UNL     1     -12.097  13.535  64.192  1.00  0.00    -0.488 C  
HETATM   16  N   UNL     1      -9.569  10.316  65.603  1.00  0.00    -0.214 NA 
BRANCH   5  17
HETATM   17  C   UNL     1      -9.945   8.309  67.031  1.00  0.00    -0.325 A  
HETATM   18  C   UNL     1     -10.207   5.489  67.070  1.00  0.00    -0.265 A  
HETATM   19  C   UNL     1      -9.279   6.093  66.227  1.00  0.00    -0.163 A  
HETATM   20  C   UNL     1      -9.155   7.487  66.206  1.00  0.00    -0.198 A  
HETATM   21  C   UNL     1     -10.902   7.671  67.844  1.00  0.00    -0.105 A  
HETATM   22  C   UNL     1     -11.023   6.277  67.871  1.00  0.00    -0.421 A  
ENDBRANCH   5  17
ENDBRANCH   4   5
ENDBRANCH   3   4
ENDBRANCH   2   3
BRANCH   2  23
HETATM   23  C   UNL     1      -9.568   9.093  70.993  1.00  0.00    -0.350 A  
HETATM   24  F   UNL     1      -8.915   5.400  72.833  1.00  0.00    -0.121 F  
HETATM   25  C   UNL     1      -9.365   7.860  71.630  1.00  0.00    -0.189 A  
HETATM   26  F   UNL     1     -13.766   9.902  70.473  1.00  0.00    -0.325 F  
HETATM   27  C   UNL     1     -10.412   7.203  72.297  1.00  0.00    -0.236 A  
HETATM   28  C   UNL     1     -11.680   7.804  72.329  1.00  0.00    -0.390 A  
HETATM   29  F   UNL     1     -13.275  10.901  72.343  1.00  0.00    -0.538 F  
HETATM   30  C   UNL     1     -10.192   5.860  72.953  1.00  0.00    -0.191 C  
HETATM   31  F   UNL     1     -14.218   8.943  72.370  1.00  0.00    -0.453 F  
HETATM   32  C   UNL     1     -13.276   9.688  71.726  1.00  0.00    -0.430 C  
HETATM   33  F   UNL     1     -10.459   5.881  74.286  1.00  0.00    -0.249 F  
HETATM   34  F   UNL     1     -10.987   4.890  72.424  1.00  0.00    -0.265 F  
HETATM   35  C   UNL     1     -10.846   9.675  71.043  1.00  0.00    -0.412 A  
HETATM   36  C   UNL     1     -11.910   9.042  71.707  1.00  0.00    -0.442 A  
ENDBRANCH   2  23
TORSDOF 5
ENDMDL
MODEL       12
REMARK 921   NORMALIZED FREE ENERGY PREDICTED BY IDOCK:   -7.49 KCAL/MOL
REMARK 922        TOTAL FREE ENERGY PREDICTED BY IDOCK:  -12.54 KCAL/MOL
REMARK 923 INTER-LIGAND FREE ENERGY PREDICTED BY IDOCK:   -9.93 KCAL/MOL
REMARK 924 INTRA-LIGAND FREE ENERGY PREDICTED BY IDOCK:   -2.61 KCAL/MOL
REMARK 927      BINDING AFFINITY PREDICTED BY RF-SCORE:    0.00 PKD
ROOT
HETATM    1  C   UNL     1     -12.986  13.299  71.107  1.00  0.00    -0.297 C  
HETATM    2  C   UNL     1     -11.811  12.756  70.296  1.00  0.00    -0.212 C  
ENDROOT
BRANCH   2   3
HETATM    3  O   UNL     1     -12.077  11.437  69.821  1.00  0.00    -0.311 OA 
BRANCH   3   4
HETATM    4  C   UNL     1     -11.673  10.397  70.725  1.00  0.00    -0.368 C  
BRANCH   4   5
HETATM    5  C   UNL     1     -10.610   9.480  70.023  1.00  0.00    -0.244 C  
HETATM    6  C   UNL     1     -10.482   7.138  71.892  1.00  0.00    -0.197 C  
HETATM    7  C   UNL     1      -9.741   8.447  72.210  1.00  0.00    -0.386 C  
HETATM    8  N   UNL     1     -10.974   6.553  73.119  1.00  0.00    -0.248 NA 
HETATM    9  H   UNL     1     -10.630   7.603  69.120  1.00  0.00     0.000 HD 
HETATM   10  C   UNL     1      -9.391   9.238  70.948  1.00  0.00    -0.313 C  
HETATM   11  O   UNL     1     -11.267   4.479  74.057  1.00  0.00    -0.245 OA 
HETATM   12  C   UNL     1     -11.646   7.403  70.901  1.00  0.00    -0.291 C  
HETATM   13  C   UNL     1      -9.527   6.057  71.350  1.00  0.00    -0.172 C  
HETATM   14  C   UNL     1     -10.790   5.196  73.195  1.00  0.00    -0.287 C  
HETATM   15  C   UNL     1      -9.936   4.755  72.042  1.00  0.00    -0.247 C  
HETATM   16  N   UNL     1     -11.242   8.164  69.713  1.00  0.00    -0.056 NA 
BRANCH   5  17
HETATM   17  C   UNL     1     -10.085  10.132  68.715  1.00  0.00    -0.198 A  
HETATM   18  C   UNL     1      -9.169  11.320  66.313  1.00  0.00    -0.214 A  
HETATM   19  C   UNL     1     -10.214  10.403  66.283  1.00  0.00    -0.286 A  
HETATM   20  C   UNL     1     -10.662   9.813  67.471  1.00  0.00    -0.327 A  
HETATM   21  C   UNL     1      -9.004  11.034  68.707  1.00  0.00    -0.153 A  
HETATM   22  C   UNL     1      -8.559  11.629  67.521  1.00  0.00    -0.149 A  
ENDBRANCH   5  17
ENDBRANCH   4   5
ENDBRANCH   3   4
ENDBRANCH   2   3
BRANCH   2  23
HETATM   23  C   UNL     1     -11.563  13.666  69.102  1.00  0.00    -0.356 A  
HETATM   24  F   UNL     1     -12.733  12.354  65.312  1.00  0.00    -0.506 F  
HETATM   25  C   UNL     1     -11.961  13.250  67.823  1.00  0.00    -0.356 A  
HETATM   26  F   UNL     1      -8.609  16.790  68.874  1.00  0.00    -0.229 F  
HETATM   27  C   UNL     1     -11.673  14.020  66.684  1.00  0.00    -0.420 A  
HETATM   28  C   UNL     1     -10.982  15.232  66.840  1.00  0.00    -0.315 A  
HETATM   29  F   UNL     1     -10.488  17.869  69.061  1.00  0.00    -0.357 F  
HETATM   30  C   UNL     1     -12.077  13.549  65.307  1.00  0.00    -0.411 C  
HETATM   31  F   UNL     1      -9.570  17.614  67.107  1.00  0.00    -0.257 F  
HETATM   32  C   UNL     1      -9.823  16.973  68.283  1.00  0.00    -0.278 C  
HETATM   33  F   UNL     1     -12.904  14.426  64.677  1.00  0.00    -0.376 F  
HETATM   34  F   UNL     1     -11.007  13.381  64.483  1.00  0.00    -0.319 F  
HETATM   35  C   UNL     1     -10.876  14.884  69.231  1.00  0.00    -0.272 A  
HETATM   36  C   UNL     1     -10.579  15.676  68.110  1.00  0.00    -0.274 A  
ENDBRANCH   2  23
TORSDOF 5
ENDMDL
MODEL       13
REMARK 921   NORMALIZED FREE ENERGY PREDICTED BY IDOCK:   -7.45 KCAL/MOL
REMARK 922        TOTAL FREE ENERGY PREDICTED BY IDOCK:  -12.48 KCAL/MOL
REMARK 923 INTER-LIGAND FREE ENERGY PREDICTED BY IDOCK:  -10.88 KCAL/MOL
REMARK 924 INTRA-LIGAND FREE ENERGY PREDICTED BY IDOCK:   -1.61 KCAL/MOL
REMARK 927      BINDING AFFINITY PREDICTED BY RF-SCORE:    0.00 PKD
ROOT
HETATM    1  C   UNL     1     -12.343  13.519  70.744  1.00  0.00    -0.440 C  
HETATM    2  C   UNL     1     -12.159  12.885  69.367  1.00  0.00    -0.198 C  
ENDROOT
BRANCH   2   3
HETATM    3  O   UNL     1     -11.110  13.525  68.640  1.00  0.00    -0.247 OA 
BRANCH   3   4
HETATM    4  C   UNL     1     -11.563  14.541  67.732  1.00  0.00    -0.365 C  
BRANCH   4   5
HETATM    5  C   UNL     1     -10.553  14.659  66.536  1.00  0.00    -0.300 C  
HETATM    6  C   UNL     1      -8.926  17.049  67.332  1.00  0.00    -0.211 C  
HETATM    7  C   UNL     1     -10.319  17.213  66.703  1.00  0.00    -0.310 C  
HETATM    8  N   UNL     1      -8.718  18.085  68.319  1.00  0.00    -0.277 NA 
HETATM    9  H   UNL     1      -8.492  14.464  66.306  1.00  0.00     0.000 HD 
HETATM   10  C   UNL     1     -10.700  16.024  65.819  1.00  0.00    -0.310 C  
HETATM   11  O   UNL     1      -7.024  19.421  69.101  1.00  0.00    -0.335 OA 
HETATM   12  C   UNL     1      -8.783  15.642  67.971  1.00  0.00    -0.167 C  
HETATM   13  C   UNL     1      -7.802  17.311  66.311  1.00  0.00    -0.344 C  
HETATM   14  C   UNL     1      -7.469  18.650  68.270  1.00  0.00    -0.281 C  
HETATM   15  C   UNL     1      -6.754  18.146  67.050  1.00  0.00    -0.206 C  
HETATM   16  N   UNL     1      -9.163  14.549  67.069  1.00  0.00    -0.229 NA 
BRANCH   5  17
HETATM   17  C   UNL     1     -10.801  13.545  65.482  1.00  0.00    -0.293 A  
HETATM   18  C   UNL     1     -11.260  11.545  63.530  1.00  0.00    -0.412 A  
HETATM   19  C   UNL     1     -11.979  12.735  63.493  1.00  0.00    -0.633 A  
HETATM   20  C   UNL     1     -11.754  13.720  64.461  1.00  0.00    -0.432 A  
HETATM   21  C   UNL     1     -10.117  12.315  65.515  1.00  0.00    -0.279 A  
HETATM   22  C   UNL     1     -10.336  11.332  64.544  1.00  0.00    -0.381 A  
ENDBRANCH   5  17
ENDBRANCH   4   5
ENDBRANCH   3   4
ENDBRANCH   2   3
BRANCH   2  23
HETATM   23  C   UNL     1     -11.811  11.414  69.535  1.00  0.00    -0.426 A  
HETATM   24  F   UNL     1     -13.147   9.420  72.955  1.00  0.00    -0.417 F  
HETATM   25  C   UNL     1     -12.262  10.723  70.670  1.00  0.00    -0.474 A  
HETATM   26  F   UNL     1      -8.507   9.370  67.678  1.00  0.00    -0.116 F  
HETATM   27  C   UNL     1     -11.890   9.389  70.906  1.00  0.00    -0.365 A  
HETATM   28  C   UNL     1     -11.059   8.741  69.978  1.00  0.00    -0.169 A  
HETATM   29  F   UNL     1     -10.244   8.636  66.593  1.00  0.00    -0.301 F  
HETATM   30  C   UNL     1     -12.354   8.663  72.146  1.00  0.00    -0.386 C  
HETATM   31  F   UNL     1      -9.372   7.442  68.187  1.00  0.00    -0.136 F  
HETATM   32  C   UNL     1      -9.694   8.719  67.835  1.00  0.00    -0.157 C  
HETATM   33  F   UNL     1     -13.074   7.545  71.857  1.00  0.00    -0.325 F  
HETATM   34  F   UNL     1     -11.315   8.253  72.924  1.00  0.00    -0.435 F  
HETATM   35  C   UNL     1     -10.983  10.742  68.621  1.00  0.00    -0.285 A  
HETATM   36  C   UNL     1     -10.600   9.406  68.830  1.00  0.00    -0.234 A  
ENDBRANCH   2  23
TORSDOF 5
ENDMDL
MODEL       14
REMARK 921   NORMALIZED FREE ENERGY PREDICTED BY IDOCK:   -7.41 KCAL/MOL
REMARK 922        TOTAL FREE ENERGY PREDICTED BY IDOCK:  -12.44 KCAL/MOL
REMARK 923 INTER-LIGAND FREE ENERGY PREDICTED BY IDOCK:   -9.67 KCAL/MOL
REMARK 924 INTRA-LIGAND FREE ENERGY PREDICTED BY IDOCK:   -2.77 KCAL/MOL
REMARK 927      BINDING AFFINITY PREDICTED BY RF-SCORE:    0.00 PKD
ROOT
HETATM    1  C   UNL     1      -7.361   8.928  69.634  1.00  0.00    -0.056 C  
HETATM    2  C   UNL     1      -8.480   9.807  70.189  1.00  0.00    -0.174 C  
ENDROOT
BRANCH   2   3
HETATM    3  O   UNL     1      -8.990  10.687  69.188  1.00  0.00    -0.170 OA 
BRANCH   3   4
HETATM    4  C   UNL     1      -8.571  10.361  67.854  1.00  0.00    -0.118 C  
BRANCH   4   5
HETATM    5  C   UNL     1      -9.820   9.938  67.003  1.00  0.00    -0.191 C  
HETATM    6  C   UNL     1     -10.852  12.590  66.055  1.00  0.00    -0.276 C  
HETATM    7  C   UNL     1     -11.143  12.089  67.479  1.00  0.00    -0.331 C  
HETATM    8  N   UNL     1     -10.673  14.024  66.076  1.00  0.00    -0.290 NA 
HETATM    9  H   UNL     1     -10.348  10.033  64.990  1.00  0.00     0.000 HD 
HETATM   10  C   UNL     1     -11.117  10.562  67.574  1.00  0.00    -0.358 C  
HETATM   11  O   UNL     1     -11.150  15.851  64.772  1.00  0.00    -0.455 OA 
HETATM   12  C   UNL     1      -9.594  11.886  65.482  1.00  0.00    -0.182 C  
HETATM   13  C   UNL     1     -12.065  12.404  65.123  1.00  0.00    -0.464 C  
HETATM   14  C   UNL     1     -11.298  14.673  65.041  1.00  0.00    -0.390 C  
HETATM   15  C   UNL     1     -12.159  13.691  64.301  1.00  0.00    -0.480 C  
HETATM   16  N   UNL     1      -9.634  10.424  65.604  1.00  0.00    -0.209 NA 
BRANCH   5  17
HETATM   17  C   UNL     1     -10.001   8.396  67.003  1.00  0.00    -0.323 A  
HETATM   18  C   UNL     1     -10.287   5.578  66.999  1.00  0.00    -0.306 A  
HETATM   19  C   UNL     1      -9.316   6.182  66.207  1.00  0.00    -0.157 A  
HETATM   20  C   UNL     1      -9.180   7.575  66.207  1.00  0.00    -0.194 A  
HETATM   21  C   UNL     1     -10.999   7.757  67.764  1.00  0.00     0.008 A  
HETATM   22  C   UNL     1     -11.132   6.364  67.770  1.00  0.00    -0.376 A  
ENDBRANCH   5  17
ENDBRANCH   4   5
ENDBRANCH   3   4
ENDBRANCH   2   3
BRANCH   2  23
HETATM   23  C   UNL     1      -9.613   8.922  70.685  1.00  0.00    -0.262 A  
HETATM   24  F   UNL     1     -13.312  10.681  71.510  1.00  0.00    -0.438 F  
HETATM   25  C   UNL     1     -10.867   9.491  70.955  1.00  0.00    -0.423 A  
HETATM   26  F   UNL     1      -9.172   5.121  72.661  1.00  0.00    -0.132 F  
HETATM   27  C   UNL     1     -11.913   8.726  71.497  1.00  0.00    -0.386 A  
HETATM   28  C   UNL     1     -11.693   7.365  71.761  1.00  0.00    -0.319 A  
HETATM   29  F   UNL     1      -9.887   4.592  70.675  1.00  0.00    -0.233 F  
HETATM   30  C   UNL     1     -13.250   9.354  71.814  1.00  0.00    -0.411 C  
HETATM   31  F   UNL     1     -11.276   4.677  72.344  1.00  0.00    -0.203 F  
HETATM   32  C   UNL     1     -10.203   5.307  71.789  1.00  0.00    -0.210 C  
HETATM   33  F   UNL     1     -14.275   8.767  71.138  1.00  0.00    -0.405 F  
HETATM   34  F   UNL     1     -13.565   9.260  73.134  1.00  0.00    -0.358 F  
HETATM   35  C   UNL     1      -9.420   7.557  70.956  1.00  0.00    -0.162 A  
HETATM   36  C   UNL     1     -10.450   6.767  71.493  1.00  0.00    -0.236 A  
ENDBRANCH   2  23
TORSDOF 5
ENDMDL
MODEL       15
REMARK 921   NORMALIZED FREE ENERGY PREDICTED BY IDOCK:   -7.40 KCAL/MOL
REMARK 922        TOTAL FREE ENERGY PREDICTED BY IDOCK:  -12.43 KCAL/MOL
REMARK 923 INTER-LIGAND FREE ENERGY PREDICTED BY IDOCK:  -10.67 KCAL/MOL
REMARK 924 INTRA-LIGAND FREE ENERGY PREDICTED BY IDOCK:   -1.76 KCAL/MOL
REMARK 927      BINDING AFFINITY PREDICTED BY RF-SCORE:    0.00 PKD
ROOT
HETATM    1  C   UNL     1     -12.372  13.105  70.589  1.00  0.00    -0.405 C  
HETATM    2  C   UNL     1     -11.885  12.701  69.198  1.00  0.00    -0.297 C  
ENDROOT
BRANCH   2   3
HETATM    3  O   UNL     1     -10.848  13.570  68.742  1.00  0.00    -0.248 OA 
BRANCH   3   4
HETATM    4  C   UNL     1     -11.319  14.700  67.993  1.00  0.00    -0.311 C  
BRANCH   4   5
HETATM    5  C   UNL     1     -10.485  14.833  66.670  1.00  0.00    -0.286 C  
HETATM    6  C   UNL     1      -8.583  17.048  67.355  1.00  0.00    -0.197 C  
HETATM    7  C   UNL     1     -10.035  17.348  66.950  1.00  0.00    -0.300 C  
HETATM    8  N   UNL     1      -8.157  17.997  68.360  1.00  0.00    -0.291 NA 
HETATM    9  H   UNL     1      -8.499  14.517  66.126  1.00  0.00     0.000 HD 
HETATM   10  C   UNL     1     -10.629  16.251  66.064  1.00  0.00    -0.288 C  
HETATM   11  O   UNL     1      -6.272  19.159  68.959  1.00  0.00    -0.241 OA 
HETATM   12  C   UNL     1      -8.458  15.594  67.882  1.00  0.00    -0.150 C  
HETATM   13  C   UNL     1      -7.601  17.304  66.196  1.00  0.00    -0.318 C  
HETATM   14  C   UNL     1      -6.889  18.479  68.159  1.00  0.00    -0.229 C  
HETATM   15  C   UNL     1      -6.397  18.014  66.819  1.00  0.00    -0.213 C  
HETATM   16  N   UNL     1      -9.046  14.593  66.984  1.00  0.00    -0.226 NA 
BRANCH   5  17
HETATM   17  C   UNL     1     -10.966  13.814  65.601  1.00  0.00    -0.288 A  
HETATM   18  C   UNL     1     -11.803  11.936  63.653  1.00  0.00    -0.573 A  
HETATM   19  C   UNL     1     -10.485  12.381  63.672  1.00  0.00    -0.460 A  
HETATM   20  C   UNL     1     -10.075  13.313  64.633  1.00  0.00    -0.249 A  
HETATM   21  C   UNL     1     -12.301  13.374  65.530  1.00  0.00    -0.528 A  
HETATM   22  C   UNL     1     -12.712  12.438  64.575  1.00  0.00    -0.404 A  
ENDBRANCH   5  17
ENDBRANCH   4   5
ENDBRANCH   3   4
ENDBRANCH   2   3
BRANCH   2  23
HETATM   23  C   UNL     1     -11.346  11.280  69.249  1.00  0.00    -0.354 A  
HETATM   24  F   UNL     1     -10.202   9.445  65.674  1.00  0.00    -0.373 F  
HETATM   25  C   UNL     1     -10.943  10.650  68.062  1.00  0.00    -0.336 A  
HETATM   26  F   UNL     1     -12.107   8.397  72.356  1.00  0.00    -0.371 F  
HETATM   27  C   UNL     1     -10.522   9.311  68.053  1.00  0.00    -0.275 A  
HETATM   28  C   UNL     1     -10.498   8.599  69.263  1.00  0.00    -0.226 A  
HETATM   29  F   UNL     1     -10.041   8.987  72.694  1.00  0.00    -0.270 F  
HETATM   30  C   UNL     1     -10.121   8.632  66.765  1.00  0.00    -0.296 C  
HETATM   31  F   UNL     1     -10.486   7.143  71.633  1.00  0.00    -0.200 F  
HETATM   32  C   UNL     1     -10.878   8.441  71.771  1.00  0.00    -0.284 C  
HETATM   33  F   UNL     1      -8.841   8.172  66.794  1.00  0.00    -0.121 F  
HETATM   34  F   UNL     1     -10.903   7.555  66.483  1.00  0.00    -0.343 F  
HETATM   35  C   UNL     1     -11.310  10.546  70.446  1.00  0.00    -0.411 A  
HETATM   36  C   UNL     1     -10.888   9.206  70.468  1.00  0.00    -0.306 A  
ENDBRANCH   2  23
TORSDOF 5
ENDMDL
MODEL       16
REMARK 921   NORMALIZED FREE ENERGY PREDICTED BY IDOCK:   -7.33 KCAL/MOL
REMARK 922        TOTAL FREE ENERGY PREDICTED BY IDOCK:  -12.34 KCAL/MOL
REMARK 923 INTER-LIGAND FREE ENERGY PREDICTED BY IDOCK:  -10.41 KCAL/MOL
REMARK 924 INTRA-LIGAND FREE ENERGY PREDICTED BY IDOCK:   -1.93 KCAL/MOL
REMARK 927      BINDING AFFINITY PREDICTED BY RF-SCORE:    0.00 PKD
ROOT
HETATM    1  C   UNL     1     -11.522  11.609  67.212  1.00  0.00    -0.350 C  
HETATM    2  C   UNL     1     -10.182  11.584  67.945  1.00  0.00    -0.184 C  
ENDROOT
BRANCH   2   3
HETATM    3  O   UNL     1      -9.852  12.873  68.461  1.00  0.00    -0.214 OA 
BRANCH   3   4
HETATM    4  C   UNL     1     -10.747  13.917  68.047  1.00  0.00    -0.247 C  
BRANCH   4   5
HETATM    5  C   UNL     1     -10.719  15.077  69.103  1.00  0.00    -0.249 C  
HETATM    6  C   UNL     1      -9.015  17.126  67.727  1.00  0.00    -0.226 C  
HETATM    7  C   UNL     1      -8.384  15.918  68.437  1.00  0.00    -0.174 C  
HETATM    8  N   UNL     1      -8.243  17.449  66.548  1.00  0.00    -0.256 NA 
HETATM    9  H   UNL     1     -11.426  17.036  69.178  1.00  0.00     0.000 HD 
HETATM   10  C   UNL     1      -9.270  15.376  69.561  1.00  0.00    -0.240 C  
HETATM   11  O   UNL     1      -7.555  19.300  65.378  1.00  0.00    -0.403 OA 
HETATM   12  C   UNL     1     -10.490  16.823  67.355  1.00  0.00    -0.310 C  
HETATM   13  C   UNL     1      -8.908  18.408  68.574  1.00  0.00    -0.336 C  
HETATM   14  C   UNL     1      -8.036  18.794  66.377  1.00  0.00    -0.282 C  
HETATM   15  C   UNL     1      -8.515  19.520  67.600  1.00  0.00    -0.347 C  
HETATM   16  N   UNL     1     -11.284  16.309  68.476  1.00  0.00    -0.365 NA 
BRANCH   5  17
HETATM   17  C   UNL     1     -11.544  14.706  70.366  1.00  0.00    -0.326 A  
HETATM   18  C   UNL     1     -13.050  14.070  72.679  1.00  0.00    -0.553 A  
HETATM   19  C   UNL     1     -12.153  15.134  72.700  1.00  0.00    -0.487 A  
HETATM   20  C   UNL     1     -11.406  15.443  71.557  1.00  0.00    -0.461 A  
HETATM   21  C   UNL     1     -12.430  13.612  70.388  1.00  0.00    -0.364 A  
HETATM   22  C   UNL     1     -13.182  13.305  71.528  1.00  0.00    -0.383 A  
ENDBRANCH   5  17
ENDBRANCH   4   5
ENDBRANCH   3   4
ENDBRANCH   2   3
BRANCH   2  23
HETATM   23  C   UNL     1     -10.263  10.600  69.103  1.00  0.00    -0.238 A  
HETATM   24  F   UNL     1     -13.972   9.933  70.906  1.00  0.00    -0.335 F  
HETATM   25  C   UNL     1     -11.502  10.352  69.713  1.00  0.00    -0.348 A  
HETATM   26  F   UNL     1      -7.004   9.442  71.668  1.00  0.00    -0.050 F  
HETATM   27  C   UNL     1     -11.605   9.519  70.838  1.00  0.00    -0.398 A  
HETATM   28  C   UNL     1     -10.443   8.920  71.350  1.00  0.00    -0.375 A  
HETATM   29  F   UNL     1      -7.320   7.694  70.413  1.00  0.00    -0.065 F  
HETATM   30  C   UNL     1     -12.938   9.282  71.508  1.00  0.00    -0.359 C  
HETATM   31  F   UNL     1      -8.153   7.757  72.420  1.00  0.00    -0.105 F  
HETATM   32  C   UNL     1      -7.935   8.514  71.308  1.00  0.00    -0.132 C  
HETATM   33  F   UNL     1     -13.286   7.967  71.529  1.00  0.00    -0.325 F  
HETATM   34  F   UNL     1     -12.945   9.694  72.805  1.00  0.00    -0.378 F  
HETATM   35  C   UNL     1      -9.116   9.987  69.632  1.00  0.00    -0.230 A  
HETATM   36  C   UNL     1      -9.191   9.144  70.754  1.00  0.00    -0.321 A  
ENDBRANCH   2  23
TORSDOF 5
ENDMDL
MODEL       17
REMARK 921   NORMALIZED FREE ENERGY PREDICTED BY IDOCK:   -7.33 KCAL/MOL
REMARK 922        TOTAL FREE ENERGY PREDICTED BY IDOCK:  -12.34 KCAL/MOL
REMARK 923 INTER-LIGAND FREE ENERGY PREDICTED BY IDOCK:  -10.88 KCAL/MOL
REMARK 924 INTRA-LIGAND FREE ENERGY PREDICTED BY IDOCK:   -1.46 KCAL/MOL
REMARK 927      BINDING AFFINITY PREDICTED BY RF-SCORE:    0.00 PKD
ROOT
HETATM    1  C   UNL     1     -11.903  12.454  66.495  1.00  0.00    -0.407 C  
HETATM    2  C   UNL     1     -10.599  12.247  67.263  1.00  0.00    -0.224 C  
ENDROOT
BRANCH   2   3
HETATM    3  O   UNL     1     -10.404  13.272  68.237  1.00  0.00    -0.237 OA 
BRANCH   3   4
HETATM    4  C   UNL     1     -11.276  14.402  68.079  1.00  0.00    -0.280 C  
BRANCH   4   5
HETATM    5  C   UNL     1     -10.938  15.479  69.170  1.00  0.00    -0.259 C  
HETATM    6  C   UNL     1      -8.957  17.213  67.734  1.00  0.00    -0.226 C  
HETATM    7  C   UNL     1      -8.534  15.869  68.348  1.00  0.00    -0.176 C  
HETATM    8  N   UNL     1      -8.222  17.435  66.508  1.00  0.00    -0.256 NA 
HETATM    9  H   UNL     1     -11.225  17.532  69.370  1.00  0.00     0.000 HD 
HETATM   10  C   UNL     1      -9.429  15.458  69.519  1.00  0.00    -0.250 C  
HETATM   11  O   UNL     1      -7.260  19.169  65.353  1.00  0.00    -0.466 OA 
HETATM   12  C   UNL     1     -10.486  17.230  67.471  1.00  0.00    -0.356 C  
HETATM   13  C   UNL     1      -8.532  18.404  68.615  1.00  0.00    -0.318 C  
HETATM   14  C   UNL     1      -7.760  18.720  66.369  1.00  0.00    -0.269 C  
HETATM   15  C   UNL     1      -7.993  19.463  67.651  1.00  0.00    -0.318 C  
HETATM   16  N   UNL     1     -11.285  16.828  68.634  1.00  0.00    -0.250 NA 
BRANCH   5  17
HETATM   17  C   UNL     1     -11.728  15.215  70.481  1.00  0.00    -0.344 A  
HETATM   18  C   UNL     1     -13.163  14.691  72.866  1.00  0.00    -0.609 A  
HETATM   19  C   UNL     1     -13.279  13.832  71.778  1.00  0.00    -0.467 A  
HETATM   20  C   UNL     1     -12.573  14.095  70.599  1.00  0.00    -0.421 A  
HETATM   21  C   UNL     1     -11.661  16.086  71.585  1.00  0.00    -0.583 A  
HETATM   22  C   UNL     1     -12.362  15.821  72.767  1.00  0.00    -0.564 A  
ENDBRANCH   5  17
ENDBRANCH   4   5
ENDBRANCH   3   4
ENDBRANCH   2   3
BRANCH   2  23
HETATM   23  C   UNL     1     -10.643  10.901  67.972  1.00  0.00    -0.239 A  
HETATM   24  F   UNL     1     -12.251  10.721  71.823  1.00  0.00    -0.392 F  
HETATM   25  C   UNL     1     -11.192  10.816  69.260  1.00  0.00    -0.333 A  
HETATM   26  F   UNL     1      -8.115   7.517  67.132  1.00  0.00    -0.110 F  
HETATM   27  C   UNL     1     -11.173   9.613  69.983  1.00  0.00    -0.271 A  
HETATM   28  C   UNL     1     -10.600   8.475  69.392  1.00  0.00    -0.203 A  
HETATM   29  F   UNL     1     -10.047   6.935  66.317  1.00  0.00    -0.202 F  
HETATM   30  C   UNL     1     -11.737   9.538  71.382  1.00  0.00    -0.393 C  
HETATM   31  F   UNL     1      -9.428   6.214  68.273  1.00  0.00    -0.120 F  
HETATM   32  C   UNL     1      -9.421   7.312  67.465  1.00  0.00    -0.129 C  
HETATM   33  F   UNL     1     -12.743   8.629  71.491  1.00  0.00    -0.306 F  
HETATM   34  F   UNL     1     -10.799   9.176  72.299  1.00  0.00    -0.404 F  
HETATM   35  C   UNL     1     -10.079   9.748  67.403  1.00  0.00    -0.259 A  
HETATM   36  C   UNL     1     -10.051   8.529  68.101  1.00  0.00    -0.240 A  
ENDBRANCH   2  23
TORSDOF 5
ENDMDL
MODEL       18
REMARK 921   NORMALIZED FREE ENERGY PREDICTED BY IDOCK:   -7.31 KCAL/MOL
REMARK 922        TOTAL FREE ENERGY PREDICTED BY IDOCK:  -12.31 KCAL/MOL
REMARK 923 INTER-LIGAND FREE ENERGY PREDICTED BY IDOCK:  -10.44 KCAL/MOL
REMARK 924 INTRA-LIGAND FREE ENERGY PREDICTED BY IDOCK:   -1.87 KCAL/MOL
REMARK 927      BINDING AFFINITY PREDICTED BY RF-SCORE:    0.00 PKD
ROOT
HETATM    1  C   UNL     1      -7.231  11.176  67.753  1.00  0.00    -0.091 C  
HETATM    2  C   UNL     1      -8.438  11.510  68.627  1.00  0.00    -0.115 C  
ENDROOT
BRANCH   2   3
HETATM    3  O   UNL     1      -9.319  12.418  67.965  1.00  0.00    -0.191 OA 
BRANCH   3   4
HETATM    4  C   UNL     1      -9.646  13.584  68.737  1.00  0.00     0.015 C  
BRANCH   4   5
HETATM    5  C   UNL     1     -11.128  14.007  68.441  1.00  0.00    -0.253 C  
HETATM    6  C   UNL     1     -12.198  14.487  71.201  1.00  0.00    -0.345 C  
HETATM    7  C   UNL     1     -12.065  13.063  70.640  1.00  0.00    -0.333 C  
HETATM    8  N   UNL     1     -11.912  14.475  72.619  1.00  0.00    -0.043 NA 
HETATM    9  H   UNL     1     -12.253  15.743  68.683  1.00  0.00     0.000 HD 
HETATM   10  C   UNL     1     -12.127  13.032  69.111  1.00  0.00    -0.234 C  
HETATM   11  O   UNL     1     -12.633  15.498  74.542  1.00  0.00    -0.568 OA 
HETATM   12  C   UNL     1     -11.242  15.454  70.454  1.00  0.00    -0.323 C  
HETATM   13  C   UNL     1     -13.653  14.991  71.145  1.00  0.00    -0.493 C  
HETATM   14  C   UNL     1     -12.779  15.236  73.362  1.00  0.00    -0.537 C  
HETATM   15  C   UNL     1     -13.902  15.697  72.479  1.00  0.00    -0.642 C  
HETATM   16  N   UNL     1     -11.354  15.376  68.993  1.00  0.00    -0.294 NA 
BRANCH   5  17
HETATM   17  C   UNL     1     -11.417  14.002  66.915  1.00  0.00    -0.373 A  
HETATM   18  C   UNL     1     -11.908  14.014  64.126  1.00  0.00    -0.393 A  
HETATM   19  C   UNL     1     -11.277  15.098  64.729  1.00  0.00    -0.396 A  
HETATM   20  C   UNL     1     -11.040  15.092  66.108  1.00  0.00    -0.329 A  
HETATM   21  C   UNL     1     -12.088  12.938  66.282  1.00  0.00    -0.433 A  
HETATM   22  C   UNL     1     -12.320  12.940  64.902  1.00  0.00    -0.532 A  
ENDBRANCH   5  17
ENDBRANCH   4   5
ENDBRANCH   3   4
ENDBRANCH   2   3
BRANCH   2  23
HETATM   23  C   UNL     1      -9.199  10.231  68.940  1.00  0.00    -0.176 A  
HETATM   24  F   UNL     1      -9.382   7.246  66.023  1.00  0.00    -0.192 F  
HETATM   25  C   UNL     1      -9.262   9.211  67.979  1.00  0.00    -0.142 A  
HETATM   26  F   UNL     1     -12.332   9.805  71.865  1.00  0.00    -0.418 F  
HETATM   27  C   UNL     1     -10.025   8.052  68.194  1.00  0.00    -0.217 A  
HETATM   28  C   UNL     1     -10.730   7.918  69.402  1.00  0.00    -0.174 A  
HETATM   29  F   UNL     1     -10.636   8.789  72.772  1.00  0.00    -0.313 F  
HETATM   30  C   UNL     1     -10.112   6.973  67.141  1.00  0.00    -0.217 C  
HETATM   31  F   UNL     1     -12.178   7.640  71.760  1.00  0.00    -0.282 F  
HETATM   32  C   UNL     1     -11.446   8.787  71.679  1.00  0.00    -0.316 C  
HETATM   33  F   UNL     1      -9.669   5.768  67.591  1.00  0.00    -0.111 F  
HETATM   34  F   UNL     1     -11.387   6.771  66.712  1.00  0.00    -0.475 F  
HETATM   35  C   UNL     1      -9.911  10.070  70.140  1.00  0.00    -0.239 A  
HETATM   36  C   UNL     1     -10.679   8.919  70.384  1.00  0.00    -0.261 A  
ENDBRANCH   2  23
TORSDOF 5
ENDMDL
MODEL       19
REMARK 921   NORMALIZED FREE ENERGY PREDICTED BY IDOCK:   -7.29 KCAL/MOL
REMARK 922        TOTAL FREE ENERGY PREDICTED BY IDOCK:  -12.29 KCAL/MOL
REMARK 923 INTER-LIGAND FREE ENERGY PREDICTED BY IDOCK:  -11.41 KCAL/MOL
REMARK 924 INTRA-LIGAND FREE ENERGY PREDICTED BY IDOCK:   -0.88 KCAL/MOL
REMARK 927      BINDING AFFINITY PREDICTED BY RF-SCORE:    0.00 PKD
ROOT
HETATM    1  C   UNL     1     -12.599  13.237  65.374  1.00  0.00    -0.526 C  
HETATM    2  C   UNL     1     -11.368  13.058  66.260  1.00  0.00    -0.317 C  
ENDROOT
BRANCH   2   3
HETATM    3  O   UNL     1     -11.693  13.235  67.638  1.00  0.00    -0.326 OA 
BRANCH   3   4
HETATM    4  C   UNL     1     -10.618  13.761  68.430  1.00  0.00    -0.253 C  
BRANCH   4   5
HETATM    5  C   UNL     1     -11.136  14.983  69.269  1.00  0.00    -0.272 C  
HETATM    6  C   UNL     1      -9.642  17.266  68.024  1.00  0.00    -0.274 C  
HETATM    7  C   UNL     1      -8.963  16.336  69.042  1.00  0.00    -0.254 C  
HETATM    8  N   UNL     1      -8.681  17.668  67.022  1.00  0.00    -0.235 NA 
HETATM    9  H   UNL     1     -12.264  16.688  68.870  1.00  0.00     0.000 HD 
HETATM   10  C   UNL     1      -9.967  15.690  69.999  1.00  0.00    -0.165 C  
HETATM   11  O   UNL     1      -8.150  19.516  65.770  1.00  0.00    -0.424 OA 
HETATM   12  C   UNL     1     -10.857  16.557  67.371  1.00  0.00    -0.202 C  
HETATM   13  C   UNL     1     -10.059  18.606  68.662  1.00  0.00    -0.412 C  
HETATM   14  C   UNL     1      -8.749  18.999  66.696  1.00  0.00    -0.310 C  
HETATM   15  C   UNL     1      -9.687  19.686  67.645  1.00  0.00    -0.471 C  
HETATM   16  N   UNL     1     -11.780  15.961  68.343  1.00  0.00    -0.321 NA 
BRANCH   5  17
HETATM   17  C   UNL     1     -12.157  14.529  70.347  1.00  0.00    -0.389 A  
HETATM   18  C   UNL     1     -13.992  13.670  72.327  1.00  0.00    -0.661 A  
HETATM   19  C   UNL     1     -13.167  12.747  71.692  1.00  0.00    -0.410 A  
HETATM   20  C   UNL     1     -12.265  13.173  70.710  1.00  0.00    -0.375 A  
HETATM   21  C   UNL     1     -13.032  15.432  70.980  1.00  0.00    -0.556 A  
HETATM   22  C   UNL     1     -13.931  15.009  71.965  1.00  0.00    -0.605 A  
ENDBRANCH   5  17
ENDBRANCH   4   5
ENDBRANCH   3   4
ENDBRANCH   2   3
BRANCH   2  23
HETATM   23  C   UNL     1     -10.811  11.656  66.065  1.00  0.00    -0.339 A  
HETATM   24  F   UNL     1     -10.948   8.985  69.275  1.00  0.00    -0.229 F  
HETATM   25  C   UNL     1     -10.860  10.739  67.126  1.00  0.00    -0.335 A  
HETATM   26  F   UNL     1      -7.885  10.483  63.131  1.00  0.00    -0.151 F  
HETATM   27  C   UNL     1     -10.279   9.466  67.016  1.00  0.00    -0.322 A  
HETATM   28  C   UNL     1      -9.647   9.108  65.814  1.00  0.00    -0.323 A  
HETATM   29  F   UNL     1      -9.743   9.641  62.374  1.00  0.00    -0.236 F  
HETATM   30  C   UNL     1     -10.309   8.497  68.175  1.00  0.00    -0.206 C  
HETATM   31  F   UNL     1      -8.344   8.385  63.465  1.00  0.00    -0.164 F  
HETATM   32  C   UNL     1      -8.900   9.629  63.442  1.00  0.00    -0.232 C  
HETATM   33  F   UNL     1     -10.937   7.330  67.864  1.00  0.00    -0.255 F  
HETATM   34  F   UNL     1      -9.060   8.153  68.594  1.00  0.00    -0.141 F  
HETATM   35  C   UNL     1     -10.176  11.272  64.872  1.00  0.00    -0.341 A  
HETATM   36  C   UNL     1      -9.591  10.002  64.733  1.00  0.00    -0.374 A  
ENDBRANCH   2  23
TORSDOF 5
ENDMDL
MODEL       20
REMARK 921   NORMALIZED FREE ENERGY PREDICTED BY IDOCK:   -7.26 KCAL/MOL
REMARK 922        TOTAL FREE ENERGY PREDICTED BY IDOCK:  -12.24 KCAL/MOL
REMARK 923 INTER-LIGAND FREE ENERGY PREDICTED BY IDOCK:   -9.82 KCAL/MOL
REMARK 924 INTRA-LIGAND FREE ENERGY PREDICTED BY IDOCK:   -2.42 KCAL/MOL
REMARK 927      BINDING AFFINITY PREDICTED BY RF-SCORE:    0.00 PKD
ROOT
HETATM    1  C   UNL     1      -6.713  14.280  68.063  1.00  0.00    -0.154 C  
HETATM    2  C   UNL     1      -8.107  13.962  67.524  1.00  0.00    -0.182 C  
ENDROOT
BRANCH   2   3
HETATM    3  O   UNL     1      -8.579  12.710  68.021  1.00  0.00    -0.172 OA 
BRANCH   3   4
HETATM    4  C   UNL     1      -8.387  11.612  67.116  1.00  0.00    -0.164 C  
BRANCH   4   5
HETATM    5  C   UNL     1      -9.784  11.062  66.658  1.00  0.00    -0.195 C  
HETATM    6  C   UNL     1      -9.561   8.152  67.350  1.00  0.00    -0.160 C  
HETATM    7  C   UNL     1      -8.911   8.716  66.076  1.00  0.00    -0.213 C  
HETATM    8  N   UNL     1      -8.723   7.109  67.897  1.00  0.00    -0.126 NA 
HETATM    9  H   UNL     1     -11.440  10.232  67.611  1.00  0.00     0.000 HD 
HETATM   10  C   UNL     1      -9.620   9.973  65.569  1.00  0.00    -0.328 C  
HETATM   11  O   UNL     1      -8.942   5.085  68.957  1.00  0.00    -0.094 OA 
HETATM   12  C   UNL     1      -9.785   9.283  68.388  1.00  0.00    -0.154 C  
HETATM   13  C   UNL     1     -10.878   7.414  67.041  1.00  0.00    -0.307 C  
HETATM   14  C   UNL     1      -9.421   6.007  68.322  1.00  0.00    -0.115 C  
HETATM   15  C   UNL     1     -10.854   6.144  67.895  1.00  0.00    -0.406 C  
HETATM   16  N   UNL     1     -10.470  10.456  67.837  1.00  0.00    -0.194 NA 
BRANCH   5  17
HETATM   17  C   UNL     1     -10.663  12.195  66.062  1.00  0.00    -0.308 A  
HETATM   18  C   UNL     1     -12.273  14.277  65.015  1.00  0.00    -0.438 A  
HETATM   19  C   UNL     1     -12.570  13.720  66.256  1.00  0.00    -0.372 A  
HETATM   20  C   UNL     1     -11.776  12.688  66.769  1.00  0.00    -0.460 A  
HETATM   21  C   UNL     1     -10.412  12.751  64.793  1.00  0.00    -0.357 A  
HETATM   22  C   UNL     1     -11.201  13.787  64.282  1.00  0.00    -0.321 A  
ENDBRANCH   5  17
ENDBRANCH   4   5
ENDBRANCH   3   4
ENDBRANCH   2   3
BRANCH   2  23
HETATM   23  C   UNL     1      -9.072  15.055  67.957  1.00  0.00    -0.178 A  
HETATM   24  F   UNL     1     -11.544  14.353  71.251  1.00  0.00    -0.344 F  
HETATM   25  C   UNL     1      -9.902  14.845  69.069  1.00  0.00    -0.220 A  
HETATM   26  F   UNL     1     -10.592  18.219  65.461  1.00  0.00    -0.404 F  
HETATM   27  C   UNL     1     -10.866  15.791  69.448  1.00  0.00    -0.269 A  
HETATM   28  C   UNL     1     -10.990  16.973  68.699  1.00  0.00    -0.217 A  
HETATM   29  F   UNL     1      -9.171  19.226  66.765  1.00  0.00    -0.284 F  
HETATM   30  C   UNL     1     -11.776  15.542  70.628  1.00  0.00    -0.357 C  
HETATM   31  F   UNL     1     -11.297  19.301  67.209  1.00  0.00    -0.512 F  
HETATM   32  C   UNL     1     -10.306  18.476  66.769  1.00  0.00    -0.401 C  
HETATM   33  F   UNL     1     -11.658  16.497  71.589  1.00  0.00    -0.482 F  
HETATM   34  F   UNL     1     -13.090  15.525  70.273  1.00  0.00    -0.384 F  
HETATM   35  C   UNL     1      -9.215  16.246  67.227  1.00  0.00    -0.217 A  
HETATM   36  C   UNL     1     -10.168  17.213  67.587  1.00  0.00    -0.329 A  
ENDBRANCH   2  23
TORSDOF 5
ENDMDL
MODEL       21
REMARK 921   NORMALIZED FREE ENERGY PREDICTED BY IDOCK:   -7.25 KCAL/MOL
REMARK 922        TOTAL FREE ENERGY PREDICTED BY IDOCK:  -12.23 KCAL/MOL
REMARK 923 INTER-LIGAND FREE ENERGY PREDICTED BY IDOCK:  -10.10 KCAL/MOL
REMARK 924 INTRA-LIGAND FREE ENERGY PREDICTED BY IDOCK:   -2.13 KCAL/MOL
REMARK 927      BINDING AFFINITY PREDICTED BY RF-SCORE:    0.00 PKD
ROOT
HETATM    1  C   UNL     1     -10.570  13.683  64.808  1.00  0.00    -0.436 C  
HETATM    2  C   UNL     1     -11.329  14.796  65.528  1.00  0.00    -0.343 C  
ENDROOT
BRANCH   2   3
HETATM    3  O   UNL     1     -11.988  14.301  66.693  1.00  0.00    -0.410 OA 
BRANCH   3   4
HETATM    4  C   UNL     1     -11.783  12.901  66.932  1.00  0.00    -0.382 C  
BRANCH   4   5
HETATM    5  C   UNL     1     -11.100  12.704  68.331  1.00  0.00    -0.265 C  
HETATM    6  C   UNL     1      -9.622  10.124  67.942  1.00  0.00    -0.148 C  
HETATM    7  C   UNL     1     -11.133  10.136  68.227  1.00  0.00    -0.285 C  
HETATM    8  N   UNL     1      -9.312   9.043  67.033  1.00  0.00    -0.144 NA 
HETATM    9  H   UNL     1      -9.141  12.672  69.038  1.00  0.00     0.000 HD 
HETATM   10  C   UNL     1     -11.569  11.386  68.996  1.00  0.00    -0.383 C  
HETATM   11  O   UNL     1      -7.650   7.502  66.673  1.00  0.00    -0.093 OA 
HETATM   12  C   UNL     1      -9.172  11.486  67.354  1.00  0.00    -0.166 C  
HETATM   13  C   UNL     1      -8.806   9.766  69.199  1.00  0.00    -0.160 C  
HETATM   14  C   UNL     1      -8.183   8.342  67.376  1.00  0.00    -0.121 C  
HETATM   15  C   UNL     1      -7.719   8.797  68.729  1.00  0.00    -0.097 C  
HETATM   16  N   UNL     1      -9.621  12.641  68.139  1.00  0.00    -0.216 NA 
BRANCH   5  17
HETATM   17  C   UNL     1     -11.456  13.868  69.296  1.00  0.00    -0.348 A  
HETATM   18  C   UNL     1     -12.122  15.963  71.082  1.00  0.00    -0.464 A  
HETATM   19  C   UNL     1     -12.985  14.884  70.918  1.00  0.00    -0.436 A  
HETATM   20  C   UNL     1     -12.656  13.852  70.031  1.00  0.00    -0.226 A  
HETATM   21  C   UNL     1     -10.622  14.992  69.454  1.00  0.00    -0.262 A  
HETATM   22  C   UNL     1     -10.947  16.021  70.345  1.00  0.00    -0.347 A  
ENDBRANCH   5  17
ENDBRANCH   4   5
ENDBRANCH   3   4
ENDBRANCH   2   3
BRANCH   2  23
HETATM   23  C   UNL     1     -10.349  15.883  65.944  1.00  0.00    -0.383 A  
HETATM   24  F   UNL     1      -6.529  14.757  67.205  1.00  0.00    -0.176 F  
HETATM   25  C   UNL     1      -9.057  15.527  66.358  1.00  0.00    -0.351 A  
HETATM   26  F   UNL     1     -11.387  19.833  67.310  1.00  0.00    -0.489 F  
HETATM   27  C   UNL     1      -8.153  16.490  66.832  1.00  0.00    -0.254 A  
HETATM   28  C   UNL     1      -8.555  17.835  66.881  1.00  0.00    -0.260 A  
HETATM   29  F   UNL     1     -10.608  20.167  65.307  1.00  0.00    -0.520 F  
HETATM   30  C   UNL     1      -6.774  16.094  67.305  1.00  0.00    -0.198 C  
HETATM   31  F   UNL     1      -9.336  20.500  67.039  1.00  0.00    -0.473 F  
HETATM   32  C   UNL     1     -10.284  19.663  66.529  1.00  0.00    -0.480 C  
HETATM   33  F   UNL     1      -5.784  16.709  66.603  1.00  0.00    -0.189 F  
HETATM   34  F   UNL     1      -6.564  16.412  68.612  1.00  0.00    -0.126 F  
HETATM   35  C   UNL     1     -10.726  17.235  66.000  1.00  0.00    -0.110 A  
HETATM   36  C   UNL     1      -9.840  18.220  66.466  1.00  0.00    -0.363 A  
ENDBRANCH   2  23
TORSDOF 5
ENDMDL
MODEL       22
REMARK 921   NORMALIZED FREE ENERGY PREDICTED BY IDOCK:   -7.21 KCAL/MOL
REMARK 922        TOTAL FREE ENERGY PREDICTED BY IDOCK:  -12.18 KCAL/MOL
REMARK 923 INTER-LIGAND FREE ENERGY PREDICTED BY IDOCK:   -8.32 KCAL/MOL
REMARK 924 INTRA-LIGAND FREE ENERGY PREDICTED BY IDOCK:   -3.86 KCAL/MOL
REMARK 927      BINDING AFFINITY PREDICTED BY RF-SCORE:    0.00 PKD
ROOT
HETATM    1  C   UNL     1     -10.796  15.099  64.731  1.00  0.00    -0.378 C  
HETATM    2  C   UNL     1     -11.677  14.688  65.910  1.00  0.00    -0.301 C  
ENDROOT
BRANCH   2   3
HETATM    3  O   UNL     1     -11.429  13.336  66.292  1.00  0.00    -0.304 OA 
BRANCH   3   4
HETATM    4  C   UNL     1     -10.165  12.823  65.845  1.00  0.00    -0.287 C  
BRANCH   4   5
HETATM    5  C   UNL     1      -9.306  12.395  67.087  1.00  0.00    -0.199 C  
HETATM    6  C   UNL     1      -9.914   9.464  67.279  1.00  0.00    -0.196 C  
HETATM    7  C   UNL     1     -10.901  10.514  67.813  1.00  0.00    -0.347 C  
HETATM    8  N   UNL     1     -10.649   8.351  66.721  1.00  0.00    -0.253 NA 
HETATM    9  H   UNL     1      -7.664  11.152  67.401  1.00  0.00     0.000 HD 
HETATM   10  C   UNL     1     -10.204  11.818  68.209  1.00  0.00    -0.209 C  
HETATM   11  O   UNL     1     -10.492   6.066  66.576  1.00  0.00    -0.211 OA 
HETATM   12  C   UNL     1      -8.976  10.094  66.216  1.00  0.00    -0.148 C  
HETATM   13  C   UNL     1      -9.103   8.810  68.415  1.00  0.00    -0.141 C  
HETATM   14  C   UNL     1     -10.134   7.125  67.059  1.00  0.00    -0.238 C  
HETATM   15  C   UNL     1      -9.059   7.316  68.089  1.00  0.00    -0.134 C  
HETATM   16  N   UNL     1      -8.340  11.339  66.660  1.00  0.00    -0.160 NA 
BRANCH   5  17
HETATM   17  C   UNL     1      -8.534  13.605  67.678  1.00  0.00    -0.183 A  
HETATM   18  C   UNL     1      -7.137  15.838  68.721  1.00  0.00    -0.131 A  
HETATM   19  C   UNL     1      -7.154  15.603  67.349  1.00  0.00    -0.241 A  
HETATM   20  C   UNL     1      -7.841  14.496  66.837  1.00  0.00     0.135 A  
HETATM   21  C   UNL     1      -8.466  13.848  69.063  1.00  0.00     0.197 A  
HETATM   22  C   UNL     1      -7.785  14.958  69.577  1.00  0.00    -0.121 A  
ENDBRANCH   5  17
ENDBRANCH   4   5
ENDBRANCH   3   4
ENDBRANCH   2   3
BRANCH   2  23
HETATM   23  C   UNL     1     -11.380  15.594  67.096  1.00  0.00    -0.082 A  
HETATM   24  F   UNL     1      -9.077  19.023  66.469  1.00  0.00    -0.290 F  
HETATM   25  C   UNL     1     -10.620  16.758  66.904  1.00  0.00    -0.219 A  
HETATM   26  F   UNL     1     -11.415  14.425  71.240  1.00  0.00    -0.310 F  
HETATM   27  C   UNL     1     -10.251  17.573  67.985  1.00  0.00    -0.354 A  
HETATM   28  C   UNL     1     -10.664  17.215  69.279  1.00  0.00    -0.146 A  
HETATM   29  F   UNL     1     -13.220  15.620  71.025  1.00  0.00    -0.493 F  
HETATM   30  C   UNL     1      -9.406  18.807  67.774  1.00  0.00    -0.293 C  
HETATM   31  F   UNL     1     -11.421  16.507  71.861  1.00  0.00    -0.470 F  
HETATM   32  C   UNL     1     -11.867  15.661  70.890  1.00  0.00    -0.388 C  
HETATM   33  F   UNL     1     -10.025  19.943  68.196  1.00  0.00    -0.445 F  
HETATM   34  F   UNL     1      -8.226  18.747  68.448  1.00  0.00    -0.311 F  
HETATM   35  C   UNL     1     -11.783  15.259  68.399  1.00  0.00    -0.340 A  
HETATM   36  C   UNL     1     -11.432  16.060  69.499  1.00  0.00    -0.326 A  
ENDBRANCH   2  23
TORSDOF 5
ENDMDL
MODEL       23
REMARK 921   NORMALIZED FREE ENERGY PREDICTED BY IDOCK:   -7.15 KCAL/MOL
REMARK 922        TOTAL FREE ENERGY PREDICTED BY IDOCK:  -12.10 KCAL/MOL
REMARK 923 INTER-LIGAND FREE ENERGY PREDICTED BY IDOCK:  -10.90 KCAL/MOL
REMARK 924 INTRA-LIGAND FREE ENERGY PREDICTED BY IDOCK:   -1.21 KCAL/MOL
REMARK 927      BINDING AFFINITY PREDICTED BY RF-SCORE:    0.00 PKD
ROOT
HETATM    1  C   UNL     1     -11.552  14.052  67.217  1.00  0.00    -0.396 C  
HETATM    2  C   UNL     1     -10.938  12.922  68.042  1.00  0.00    -0.247 C  
ENDROOT
BRANCH   2   3
HETATM    3  O   UNL     1      -9.576  13.201  68.366  1.00  0.00    -0.225 OA 
BRANCH   3   4
HETATM    4  C   UNL     1      -8.899  14.018  67.399  1.00  0.00    -0.206 C  
BRANCH   4   5
HETATM    5  C   UNL     1      -8.037  15.100  68.140  1.00  0.00    -0.137 C  
HETATM    6  C   UNL     1      -9.030  17.641  66.896  1.00  0.00    -0.246 C  
HETATM    7  C   UNL     1      -8.015  16.746  66.167  1.00  0.00    -0.273 C  
HETATM    8  N   UNL     1      -9.929  18.235  65.931  1.00  0.00    -0.556 NA 
HETATM    9  H   UNL     1      -8.429  16.659  69.465  1.00  0.00     0.000 HD 
HETATM   10  C   UNL     1      -7.179  15.908  67.136  1.00  0.00    -0.254 C  
HETATM   11  O   UNL     1     -11.029  20.217  65.576  1.00  0.00    -0.242 OA 
HETATM   12  C   UNL     1      -9.816  16.819  67.951  1.00  0.00    -0.257 C  
HETATM   13  C   UNL     1      -8.353  18.867  67.540  1.00  0.00    -0.294 C  
HETATM   14  C   UNL     1     -10.185  19.563  66.161  1.00  0.00    -0.496 C  
HETATM   15  C   UNL     1      -9.276  20.052  67.251  1.00  0.00    -0.481 C  
HETATM   16  N   UNL     1      -8.955  16.041  68.847  1.00  0.00    -0.225 NA 
BRANCH   5  17
HETATM   17  C   UNL     1      -7.071  14.441  69.162  1.00  0.00    -0.127 A  
HETATM   18  C   UNL     1      -5.329  13.261  71.058  1.00  0.00    -0.181 A  
HETATM   19  C   UNL     1      -5.796  14.558  71.251  1.00  0.00    -0.098 A  
HETATM   20  C   UNL     1      -6.652  15.141  70.310  1.00  0.00    -0.038 A  
HETATM   21  C   UNL     1      -6.550  13.146  68.976  1.00  0.00    -0.105 A  
HETATM   22  C   UNL     1      -5.699  12.560  69.919  1.00  0.00    -0.124 A  
ENDBRANCH   5  17
ENDBRANCH   4   5
ENDBRANCH   3   4
ENDBRANCH   2   3
BRANCH   2  23
HETATM   23  C   UNL     1     -11.725  12.760  69.333  1.00  0.00    -0.380 A  
HETATM   24  F   UNL     1     -12.673  16.178  71.541  1.00  0.00    -0.496 F  
HETATM   25  C   UNL     1     -12.066  13.897  70.083  1.00  0.00    -0.418 A  
HETATM   26  F   UNL     1     -11.932   9.194  71.738  1.00  0.00    -0.358 F  
HETATM   27  C   UNL     1     -12.715  13.785  71.322  1.00  0.00    -0.450 A  
HETATM   28  C   UNL     1     -13.034  12.507  71.809  1.00  0.00    -0.419 A  
HETATM   29  F   UNL     1     -13.885   9.289  70.785  1.00  0.00    -0.265 F  
HETATM   30  C   UNL     1     -13.049  15.012  72.137  1.00  0.00    -0.353 C  
HETATM   31  F   UNL     1     -13.635   9.989  72.828  1.00  0.00    -0.301 F  
HETATM   32  C   UNL     1     -13.040   9.974  71.602  1.00  0.00    -0.445 C  
HETATM   33  F   UNL     1     -14.382  15.130  72.381  1.00  0.00    -0.528 F  
HETATM   34  F   UNL     1     -12.442  15.006  73.355  1.00  0.00    -0.437 F  
HETATM   35  C   UNL     1     -12.058  11.494  69.842  1.00  0.00    -0.389 A  
HETATM   36  C   UNL     1     -12.712  11.353  71.077  1.00  0.00    -0.447 A  
ENDBRANCH   2  23
TORSDOF 5
ENDMDL
MODEL       24
REMARK 921   NORMALIZED FREE ENERGY PREDICTED BY IDOCK:   -7.15 KCAL/MOL
REMARK 922        TOTAL FREE ENERGY PREDICTED BY IDOCK:  -12.10 KCAL/MOL
REMARK 923 INTER-LIGAND FREE ENERGY PREDICTED BY IDOCK:  -10.85 KCAL/MOL
REMARK 924 INTRA-LIGAND FREE ENERGY PREDICTED BY IDOCK:   -1.26 KCAL/MOL
REMARK 927      BINDING AFFINITY PREDICTED BY RF-SCORE:    0.00 PKD
ROOT
HETATM    1  C   UNL     1     -10.873  15.307  70.223  1.00  0.00    -0.303 C  
HETATM    2  C   UNL     1      -9.679  15.046  69.306  1.00  0.00    -0.190 C  
ENDROOT
BRANCH   2   3
HETATM    3  O   UNL     1     -10.038  14.190  68.222  1.00  0.00    -0.227 OA 
BRANCH   3   4
HETATM    4  C   UNL     1     -11.242  13.440  68.442  1.00  0.00    -0.279 C  
BRANCH   4   5
HETATM    5  C   UNL     1     -11.186  12.108  67.614  1.00  0.00    -0.286 C  
HETATM    6  C   UNL     1     -10.658  10.072  69.752  1.00  0.00    -0.267 C  
HETATM    7  C   UNL     1      -9.523  10.945  69.191  1.00  0.00    -0.107 C  
HETATM    8  N   UNL     1     -10.436   9.842  71.162  1.00  0.00    -0.205 NA 
HETATM    9  H   UNL     1     -12.335  10.373  67.511  1.00  0.00     0.000 HD 
HETATM   10  C   UNL     1      -9.807  11.420  67.764  1.00  0.00    -0.186 C  
HETATM   11  O   UNL     1     -10.704   8.168  72.709  1.00  0.00    -0.345 OA 
HETATM   12  C   UNL     1     -12.031  10.752  69.513  1.00  0.00    -0.292 C  
HETATM   13  C   UNL     1     -10.632   8.650  69.159  1.00  0.00    -0.193 C  
HETATM   14  C   UNL     1     -10.672   8.548  71.552  1.00  0.00    -0.261 C  
HETATM   15  C   UNL     1     -10.901   7.705  70.332  1.00  0.00    -0.252 C  
HETATM   16  N   UNL     1     -12.239  11.181  68.126  1.00  0.00    -0.465 NA 
BRANCH   5  17
HETATM   17  C   UNL     1     -11.415  12.379  66.102  1.00  0.00    -0.430 A  
HETATM   18  C   UNL     1     -11.826  12.830  63.336  1.00  0.00    -0.591 A  
HETATM   19  C   UNL     1     -10.929  11.853  63.759  1.00  0.00    -0.494 A  
HETATM   20  C   UNL     1     -10.724  11.636  65.126  1.00  0.00    -0.351 A  
HETATM   21  C   UNL     1     -12.286  13.385  65.643  1.00  0.00    -0.510 A  
HETATM   22  C   UNL     1     -12.497  13.600  64.276  1.00  0.00    -0.304 A  
ENDBRANCH   5  17
ENDBRANCH   4   5
ENDBRANCH   3   4
ENDBRANCH   2   3
BRANCH   2  23
HETATM   23  C   UNL     1      -9.183  16.369  68.742  1.00  0.00    -0.239 A  
HETATM   24  F   UNL     1      -5.370  17.698  69.817  1.00  0.00    -0.169 F  
HETATM   25  C   UNL     1      -7.900  16.826  69.080  1.00  0.00    -0.201 A  
HETATM   26  F   UNL     1     -11.653  19.588  67.299  1.00  0.00    -0.343 F  
HETATM   27  C   UNL     1      -7.438  18.081  68.651  1.00  0.00    -0.291 A  
HETATM   28  C   UNL     1      -8.279  18.881  67.862  1.00  0.00    -0.305 A  
HETATM   29  F   UNL     1     -10.820  18.722  65.485  1.00  0.00    -0.509 F  
HETATM   30  C   UNL     1      -6.067  18.579  69.046  1.00  0.00    -0.233 C  
HETATM   31  F   UNL     1      -9.937  20.515  66.339  1.00  0.00    -0.530 F  
HETATM   32  C   UNL     1     -10.479  19.308  66.665  1.00  0.00    -0.449 C  
HETATM   33  F   UNL     1      -5.277  18.840  67.969  1.00  0.00    -0.168 F  
HETATM   34  F   UNL     1      -6.124  19.735  69.762  1.00  0.00    -0.286 F  
HETATM   35  C   UNL     1     -10.003  17.188  67.949  1.00  0.00    -0.292 A  
HETATM   36  C   UNL     1      -9.564  18.445  67.502  1.00  0.00    -0.293 A  
ENDBRANCH   2  23
TORSDOF 5
ENDMDL
MODEL       25
REMARK 921   NORMALIZED FREE ENERGY PREDICTED BY IDOCK:   -7.13 KCAL/MOL
REMARK 922        TOTAL FREE ENERGY PREDICTED BY IDOCK:  -12.07 KCAL/MOL
REMARK 923 INTER-LIGAND FREE ENERGY PREDICTED BY IDOCK:   -8.42 KCAL/MOL
REMARK 924 INTRA-LIGAND FREE ENERGY PREDICTED BY IDOCK:   -3.65 KCAL/MOL
REMARK 927      BINDING AFFINITY PREDICTED BY RF-SCORE:    0.00 PKD
ROOT
HETATM    1  C   UNL     1     -11.532  14.697  64.844  1.00  0.00    -0.401 C  
HETATM    2  C   UNL     1     -12.080  14.158  66.164  1.00  0.00    -0.435 C  
ENDROOT
BRANCH   2   3
HETATM    3  O   UNL     1     -11.612  12.833  66.414  1.00  0.00    -0.336 OA 
BRANCH   3   4
HETATM    4  C   UNL     1     -10.320  12.553  65.855  1.00  0.00    -0.263 C  
BRANCH   4   5
HETATM    5  C   UNL     1      -9.329  12.152  67.005  1.00  0.00    -0.201 C  
HETATM    6  C   UNL     1      -9.714   9.181  67.146  1.00  0.00    -0.182 C  
HETATM    7  C   UNL     1     -10.722  10.142  67.797  1.00  0.00    -0.328 C  
HETATM    8  N   UNL     1     -10.417   8.035  66.614  1.00  0.00    -0.248 NA 
HETATM    9  H   UNL     1      -7.585  11.022  67.137  1.00  0.00     0.000 HD 
HETATM   10  C   UNL     1     -10.085  11.481  68.179  1.00  0.00    -0.201 C  
HETATM   11  O   UNL     1     -10.116   5.772  66.377  1.00  0.00    -0.169 OA 
HETATM   12  C   UNL     1      -8.918   9.907  66.031  1.00  0.00    -0.149 C  
HETATM   13  C   UNL     1      -8.766   8.555  68.187  1.00  0.00    -0.142 C  
HETATM   14  C   UNL     1      -9.791   6.840  66.865  1.00  0.00    -0.175 C  
HETATM   15  C   UNL     1      -8.647   7.078  67.807  1.00  0.00    -0.122 C  
HETATM   16  N   UNL     1      -8.333  11.181  66.463  1.00  0.00    -0.163 NA 
BRANCH   5  17
HETATM   17  C   UNL     1      -8.595  13.398  67.571  1.00  0.00    -0.200 A  
HETATM   18  C   UNL     1      -7.271  15.694  68.570  1.00  0.00    -0.120 A  
HETATM   19  C   UNL     1      -7.407  15.507  67.198  1.00  0.00    -0.226 A  
HETATM   20  C   UNL     1      -8.057  14.370  66.706  1.00  0.00     0.170 A  
HETATM   21  C   UNL     1      -8.408  13.596  68.952  1.00  0.00     0.146 A  
HETATM   22  C   UNL     1      -7.763  14.736  69.445  1.00  0.00    -0.104 A  
ENDBRANCH   5  17
ENDBRANCH   4   5
ENDBRANCH   3   4
ENDBRANCH   2   3
BRANCH   2  23
HETATM   23  C   UNL     1     -11.624  15.060  67.301  1.00  0.00    -0.285 A  
HETATM   24  F   UNL     1     -12.485  13.921  71.227  1.00  0.00    -0.375 F  
HETATM   25  C   UNL     1     -11.892  14.689  68.627  1.00  0.00    -0.346 A  
HETATM   26  F   UNL     1     -10.787  19.274  67.004  1.00  0.00    -0.496 F  
HETATM   27  C   UNL     1     -11.566  15.534  69.700  1.00  0.00    -0.359 A  
HETATM   28  C   UNL     1     -10.953  16.769  69.431  1.00  0.00    -0.176 A  
HETATM   29  F   UNL     1      -8.818  18.368  67.192  1.00  0.00    -0.250 F  
HETATM   30  C   UNL     1     -11.886  15.140  71.123  1.00  0.00    -0.343 C  
HETATM   31  F   UNL     1      -9.783  19.243  68.931  1.00  0.00    -0.408 F  
HETATM   32  C   UNL     1     -10.020  18.495  67.817  1.00  0.00    -0.343 C  
HETATM   33  F   UNL     1     -10.778  15.081  71.910  1.00  0.00    -0.281 F  
HETATM   34  F   UNL     1     -12.730  16.021  71.726  1.00  0.00    -0.460 F  
HETATM   35  C   UNL     1     -11.008  16.299  67.059  1.00  0.00    -0.086 A  
HETATM   36  C   UNL     1     -10.666  17.162  68.114  1.00  0.00    -0.366 A  
ENDBRANCH   2  23
TORSDOF 5
ENDMDL
MODEL       26
REMARK 921   NORMALIZED FREE ENERGY PREDICTED BY IDOCK:   -7.07 KCAL/MOL
REMARK 922        TOTAL FREE ENERGY PREDICTED BY IDOCK:  -12.00 KCAL/MOL
REMARK 923 INTER-LIGAND FREE ENERGY PREDICTED BY IDOCK:  -10.78 KCAL/MOL
REMARK 924 INTRA-LIGAND FREE ENERGY PREDICTED BY IDOCK:   -1.22 KCAL/MOL
REMARK 927      BINDING AFFINITY PREDICTED BY RF-SCORE:    0.00 PKD
ROOT
HETATM    1  C   UNL     1     -11.651  11.857  66.734  1.00  0.00    -0.341 C  
HETATM    2  C   UNL     1     -10.720  12.308  67.858  1.00  0.00    -0.215 C  
ENDROOT
BRANCH   2   3
HETATM    3  O   UNL     1     -10.348  13.677  67.702  1.00  0.00    -0.235 OA 
BRANCH   3   4
HETATM    4  C   UNL     1      -9.060  13.868  67.097  1.00  0.00    -0.239 C  
BRANCH   4   5
HETATM    5  C   UNL     1      -8.233  14.900  67.944  1.00  0.00    -0.144 C  
HETATM    6  C   UNL     1      -9.190  17.518  66.837  1.00  0.00    -0.265 C  
HETATM    7  C   UNL     1      -8.143  16.677  66.090  1.00  0.00    -0.273 C  
HETATM    8  N   UNL     1     -10.054  18.173  65.880  1.00  0.00    -0.583 NA 
HETATM    9  H   UNL     1      -8.685  16.365  69.355  1.00  0.00     0.000 HD 
HETATM   10  C   UNL     1      -7.340  15.777  67.032  1.00  0.00    -0.226 C  
HETATM   11  O   UNL     1     -11.150  20.171  65.617  1.00  0.00    -0.113 OA 
HETATM   12  C   UNL     1     -10.013  16.623  67.801  1.00  0.00    -0.262 C  
HETATM   13  C   UNL     1      -8.546  18.698  67.589  1.00  0.00    -0.288 C  
HETATM   14  C   UNL     1     -10.326  19.482  66.189  1.00  0.00    -0.520 C  
HETATM   15  C   UNL     1      -9.463  19.898  67.345  1.00  0.00    -0.484 C  
HETATM   16  N   UNL     1      -9.184  15.788  68.677  1.00  0.00    -0.197 NA 
BRANCH   5  17
HETATM   17  C   UNL     1      -7.304  14.176  68.957  1.00  0.00    -0.102 A  
HETATM   18  C   UNL     1      -5.593  12.833  70.770  1.00  0.00    -0.173 A  
HETATM   19  C   UNL     1      -6.126  12.153  69.679  1.00  0.00    -0.129 A  
HETATM   20  C   UNL     1      -6.976  12.818  68.788  1.00  0.00    -0.096 A  
HETATM   21  C   UNL     1      -6.780  14.825  70.091  1.00  0.00    -0.114 A  
HETATM   22  C   UNL     1      -5.925  14.164  70.980  1.00  0.00    -0.187 A  
ENDBRANCH   5  17
ENDBRANCH   4   5
ENDBRANCH   3   4
ENDBRANCH   2   3
BRANCH   2  23
HETATM   23  C   UNL     1     -11.430  12.143  69.193  1.00  0.00    -0.352 A  
HETATM   24  F   UNL     1     -12.151   8.280  70.612  1.00  0.00    -0.252 F  
HETATM   25  C   UNL     1     -11.670  10.855  69.694  1.00  0.00    -0.403 A  
HETATM   26  F   UNL     1     -14.012  15.042  71.058  1.00  0.00    -0.443 F  
HETATM   27  C   UNL     1     -12.398  10.657  70.878  1.00  0.00    -0.502 A  
HETATM   28  C   UNL     1     -12.884  11.777  71.572  1.00  0.00    -0.450 A  
HETATM   29  F   UNL     1     -12.196  15.123  72.253  1.00  0.00    -0.354 F  
HETATM   30  C   UNL     1     -12.679   9.265  71.393  1.00  0.00    -0.330 C  
HETATM   31  F   UNL     1     -13.904  13.970  72.945  1.00  0.00    -0.542 F  
HETATM   32  C   UNL     1     -13.184  14.286  71.832  1.00  0.00    -0.375 C  
HETATM   33  F   UNL     1     -12.179   9.060  72.642  1.00  0.00    -0.397 F  
HETATM   34  F   UNL     1     -14.011   9.002  71.472  1.00  0.00    -0.405 F  
HETATM   35  C   UNL     1     -11.925  13.246  69.908  1.00  0.00    -0.400 A  
HETATM   36  C   UNL     1     -12.652  13.078  71.098  1.00  0.00    -0.388 A  
ENDBRANCH   2  23
TORSDOF 5
ENDMDL
MODEL       27
REMARK 921   NORMALIZED FREE ENERGY PREDICTED BY IDOCK:   -7.04 KCAL/MOL
REMARK 922        TOTAL FREE ENERGY PREDICTED BY IDOCK:  -11.96 KCAL/MOL
REMARK 923 INTER-LIGAND FREE ENERGY PREDICTED BY IDOCK:   -9.47 KCAL/MOL
REMARK 924 INTRA-LIGAND FREE ENERGY PREDICTED BY IDOCK:   -2.49 KCAL/MOL
REMARK 927      BINDING AFFINITY PREDICTED BY RF-SCORE:    0.00 PKD
ROOT
HETATM    1  C   UNL     1     -10.947  12.599  65.449  1.00  0.00    -0.320 C  
HETATM    2  C   UNL     1     -11.991  12.752  66.554  1.00  0.00    -0.358 C  
ENDROOT
BRANCH   2   3
HETATM    3  O   UNL     1     -11.949  11.650  67.461  1.00  0.00    -0.622 OA 
BRANCH   3   4
HETATM    4  C   UNL     1     -10.868  10.736  67.220  1.00  0.00    -0.288 C  
BRANCH   4   5
HETATM    5  C   UNL     1      -9.881  10.763  68.440  1.00  0.00    -0.169 C  
HETATM    6  C   UNL     1     -11.316   9.046  70.437  1.00  0.00    -0.210 C  
HETATM    7  C   UNL     1     -11.723  10.512  70.214  1.00  0.00    -0.420 C  
HETATM    8  N   UNL     1     -12.495   8.255  70.713  1.00  0.00     0.021 NA 
HETATM    9  H   UNL     1      -8.705   9.357  69.432  1.00  0.00     0.000 HD 
HETATM   10  C   UNL     1     -10.564  11.364  69.693  1.00  0.00     0.068 C  
HETATM   11  O   UNL     1     -13.126   6.483  72.028  1.00  0.00    -0.213 OA 
HETATM   12  C   UNL     1     -10.563   8.500  69.196  1.00  0.00    -0.173 C  
HETATM   13  C   UNL     1     -10.475   8.874  71.716  1.00  0.00    -0.431 C  
HETATM   14  C   UNL     1     -12.327   7.354  71.734  1.00  0.00    -0.333 C  
HETATM   15  C   UNL     1     -11.005   7.611  72.397  1.00  0.00    -0.353 C  
HETATM   16  N   UNL     1      -9.464   9.363  68.750  1.00  0.00    -0.148 NA 
BRANCH   5  17
HETATM   17  C   UNL     1      -8.629  11.627  68.128  1.00  0.00    -0.158 A  
HETATM   18  C   UNL     1      -6.353  13.226  67.594  1.00  0.00    -0.161 A  
HETATM   19  C   UNL     1      -7.489  13.795  68.160  1.00  0.00    -0.124 A  
HETATM   20  C   UNL     1      -8.614  13.004  68.418  1.00  0.00    -0.116 A  
HETATM   21  C   UNL     1      -7.478  11.088  67.520  1.00  0.00    -0.102 A  
HETATM   22  C   UNL     1      -6.350  11.877  67.267  1.00  0.00    -0.143 A  
ENDBRANCH   5  17
ENDBRANCH   4   5
ENDBRANCH   3   4
ENDBRANCH   2   3
BRANCH   2  23
HETATM   23  C   UNL     1     -11.717  14.033  67.328  1.00  0.00    -0.420 A  
HETATM   24  F   UNL     1      -9.382  16.995  65.532  1.00  0.00    -0.111 F  
HETATM   25  C   UNL     1     -10.947  15.046  66.738  1.00  0.00    -0.323 A  
HETATM   26  F   UNL     1     -11.854  14.478  71.609  1.00  0.00    -0.367 F  
HETATM   27  C   UNL     1     -10.599  16.205  67.449  1.00  0.00    -0.311 A  
HETATM   28  C   UNL     1     -11.043  16.348  68.774  1.00  0.00    -0.337 A  
HETATM   29  F   UNL     1     -13.647  15.502  70.926  1.00  0.00    -0.511 F  
HETATM   30  C   UNL     1      -9.742  17.276  66.816  1.00  0.00    -0.281 C  
HETATM   31  F   UNL     1     -11.862  16.642  71.416  1.00  0.00    -0.407 F  
HETATM   32  C   UNL     1     -12.291  15.496  70.816  1.00  0.00    -0.414 C  
HETATM   33  F   UNL     1     -10.364  18.485  66.774  1.00  0.00    -0.333 F  
HETATM   34  F   UNL     1      -8.578  17.474  67.493  1.00  0.00    -0.213 F  
HETATM   35  C   UNL     1     -12.151  14.202  68.653  1.00  0.00    -0.320 A  
HETATM   36  C   UNL     1     -11.822  15.354  69.387  1.00  0.00    -0.372 A  
ENDBRANCH   2  23
TORSDOF 5
ENDMDL
MODEL       28
REMARK 921   NORMALIZED FREE ENERGY PREDICTED BY IDOCK:   -7.04 KCAL/MOL
REMARK 922        TOTAL FREE ENERGY PREDICTED BY IDOCK:  -11.96 KCAL/MOL
REMARK 923 INTER-LIGAND FREE ENERGY PREDICTED BY IDOCK:  -10.68 KCAL/MOL
REMARK 924 INTRA-LIGAND FREE ENERGY PREDICTED BY IDOCK:   -1.28 KCAL/MOL
REMARK 927      BINDING AFFINITY PREDICTED BY RF-SCORE:    0.00 PKD
ROOT
HETATM    1  C   UNL     1     -11.582  15.802  69.732  1.00  0.00    -0.359 C  
HETATM    2  C   UNL     1     -10.158  15.362  69.397  1.00  0.00    -0.269 C  
ENDROOT
BRANCH   2   3
HETATM    3  O   UNL     1     -10.159  14.238  68.516  1.00  0.00    -0.235 OA 
BRANCH   3   4
HETATM    4  C   UNL     1     -11.287  13.366  68.680  1.00  0.00    -0.286 C  
BRANCH   4   5
HETATM    5  C   UNL     1     -11.166  12.162  67.681  1.00  0.00    -0.286 C  
HETATM    6  C   UNL     1     -10.446   9.904  69.519  1.00  0.00    -0.241 C  
HETATM    7  C   UNL     1      -9.388  10.919  69.059  1.00  0.00    -0.144 C  
HETATM    8  N   UNL     1     -10.172   9.506  70.882  1.00  0.00    -0.300 NA 
HETATM    9  H   UNL     1     -12.200  10.380  67.369  1.00  0.00     0.000 HD 
HETATM   10  C   UNL     1      -9.741  11.557  67.714  1.00  0.00    -0.180 C  
HETATM   11  O   UNL     1     -10.288   7.629  72.197  1.00  0.00    -0.204 OA 
HETATM   12  C   UNL     1     -11.868  10.513  69.398  1.00  0.00    -0.199 C  
HETATM   13  C   UNL     1     -10.343   8.577  68.742  1.00  0.00    -0.233 C  
HETATM   14  C   UNL     1     -10.312   8.159  71.101  1.00  0.00    -0.198 C  
HETATM   15  C   UNL     1     -10.517   7.470  69.783  1.00  0.00    -0.232 C  
HETATM   16  N   UNL     1     -12.141  11.105  68.084  1.00  0.00    -0.610 NA 
BRANCH   5  17
HETATM   17  C   UNL     1     -11.452  12.613  66.223  1.00  0.00    -0.415 A  
HETATM   18  C   UNL     1     -11.979  13.393  63.552  1.00  0.00    -0.467 A  
HETATM   19  C   UNL     1     -11.276  12.221  63.811  1.00  0.00    -0.510 A  
HETATM   20  C   UNL     1     -11.012  11.840  65.132  1.00  0.00    -0.351 A  
HETATM   21  C   UNL     1     -12.127  13.812  65.927  1.00  0.00    -0.464 A  
HETATM   22  C   UNL     1     -12.397  14.192  64.608  1.00  0.00    -0.432 A  
ENDBRANCH   5  17
ENDBRANCH   4   5
ENDBRANCH   3   4
ENDBRANCH   2   3
BRANCH   2  23
HETATM   23  C   UNL     1      -9.424  16.511  68.724  1.00  0.00    -0.246 A  
HETATM   24  F   UNL     1     -11.660  19.688  67.188  1.00  0.00    -0.338 F  
HETATM   25  C   UNL     1     -10.155  17.594  68.213  1.00  0.00    -0.362 A  
HETATM   26  F   UNL     1      -5.499  16.316  66.961  1.00  0.00    -0.157 F  
HETATM   27  C   UNL     1      -9.524  18.632  67.509  1.00  0.00    -0.311 A  
HETATM   28  C   UNL     1      -8.133  18.580  67.324  1.00  0.00    -0.245 A  
HETATM   29  F   UNL     1      -5.187  17.445  68.794  1.00  0.00    -0.138 F  
HETATM   30  C   UNL     1     -10.324  19.778  66.935  1.00  0.00    -0.476 C  
HETATM   31  F   UNL     1      -5.386  18.485  66.896  1.00  0.00    -0.129 F  
HETATM   32  C   UNL     1      -5.880  17.444  67.623  1.00  0.00    -0.135 C  
HETATM   33  F   UNL     1      -9.931  20.985  67.425  1.00  0.00    -0.603 F  
HETATM   34  F   UNL     1     -10.207  19.864  65.582  1.00  0.00    -0.503 F  
HETATM   35  C   UNL     1      -8.033  16.485  68.528  1.00  0.00    -0.216 A  
HETATM   36  C   UNL     1      -7.375  17.512  67.831  1.00  0.00    -0.205 A  
ENDBRANCH   2  23
TORSDOF 5
ENDMDL
MODEL       29
REMARK 921   NORMALIZED FREE ENERGY PREDICTED BY IDOCK:   -7.04 KCAL/MOL
REMARK 922        TOTAL FREE ENERGY PREDICTED BY IDOCK:  -11.96 KCAL/MOL
REMARK 923 INTER-LIGAND FREE ENERGY PREDICTED BY IDOCK:  -10.70 KCAL/MOL
REMARK 924 INTRA-LIGAND FREE ENERGY PREDICTED BY IDOCK:   -1.26 KCAL/MOL
REMARK 927      BINDING AFFINITY PREDICTED BY RF-SCORE:    0.00 PKD
ROOT
HETATM    1  C   UNL     1     -11.649  12.055  65.528  1.00  0.00    -0.352 C  
HETATM    2  C   UNL     1     -10.829  12.207  66.808  1.00  0.00    -0.248 C  
ENDROOT
BRANCH   2   3
HETATM    3  O   UNL     1     -11.398  13.191  67.671  1.00  0.00    -0.268 OA 
BRANCH   3   4
HETATM    4  C   UNL     1     -10.473  13.740  68.622  1.00  0.00    -0.239 C  
BRANCH   4   5
HETATM    5  C   UNL     1     -11.110  15.006  69.298  1.00  0.00    -0.272 C  
HETATM    6  C   UNL     1      -9.611  17.238  67.969  1.00  0.00    -0.274 C  
HETATM    7  C   UNL     1      -8.982  16.437  69.121  1.00  0.00    -0.197 C  
HETATM    8  N   UNL     1      -8.586  17.594  67.014  1.00  0.00    -0.231 NA 
HETATM    9  H   UNL     1     -12.269  16.611  68.652  1.00  0.00     0.000 HD 
HETATM   10  C   UNL     1     -10.036  15.831  70.050  1.00  0.00    -0.174 C  
HETATM   11  O   UNL     1      -8.028  19.346  65.641  1.00  0.00    -0.427 OA 
HETATM   12  C   UNL     1     -10.737  16.414  67.290  1.00  0.00    -0.257 C  
HETATM   13  C   UNL     1     -10.135  18.607  68.443  1.00  0.00    -0.426 C  
HETATM   14  C   UNL     1      -8.681  18.885  66.560  1.00  0.00    -0.316 C  
HETATM   15  C   UNL     1      -9.723  19.608  67.362  1.00  0.00    -0.471 C  
HETATM   16  N   UNL     1     -11.713  15.864  68.236  1.00  0.00    -0.275 NA 
BRANCH   5  17
HETATM   17  C   UNL     1     -12.199  14.601  70.329  1.00  0.00    -0.389 A  
HETATM   18  C   UNL     1     -14.213  13.891  72.189  1.00  0.00    -0.595 A  
HETATM   19  C   UNL     1     -14.146  15.189  71.694  1.00  0.00    -0.645 A  
HETATM   20  C   UNL     1     -13.147  15.539  70.779  1.00  0.00    -0.446 A  
HETATM   21  C   UNL     1     -12.269  13.306  70.877  1.00  0.00    -0.346 A  
HETATM   22  C   UNL     1     -13.271  12.953  71.787  1.00  0.00    -0.479 A  
ENDBRANCH   5  17
ENDBRANCH   4   5
ENDBRANCH   3   4
ENDBRANCH   2   3
BRANCH   2  23
HETATM   23  C   UNL     1     -10.793  10.875  67.541  1.00  0.00    -0.324 A  
HETATM   24  F   UNL     1      -9.247   7.540  65.555  1.00  0.00    -0.095 F  
HETATM   25  C   UNL     1     -10.265   9.745  66.897  1.00  0.00    -0.310 A  
HETATM   26  F   UNL     1     -13.297   9.745  70.857  1.00  0.00    -0.400 F  
HETATM   27  C   UNL     1     -10.293   8.480  67.505  1.00  0.00    -0.334 A  
HETATM   28  C   UNL     1     -10.853   8.355  68.786  1.00  0.00     0.013 A  
HETATM   29  F   UNL     1     -11.352  10.081  71.770  1.00  0.00    -0.385 F  
HETATM   30  C   UNL     1      -9.751   7.264  66.791  1.00  0.00    -0.198 C  
HETATM   31  F   UNL     1     -12.000   8.060  71.303  1.00  0.00    -0.283 F  
HETATM   32  C   UNL     1     -11.997   9.338  70.831  1.00  0.00    -0.257 C  
HETATM   33  F   UNL     1      -8.745   6.660  67.479  1.00  0.00    -0.118 F  
HETATM   34  F   UNL     1     -10.703   6.311  66.600  1.00  0.00    -0.301 F  
HETATM   35  C   UNL     1     -11.345  10.722  68.823  1.00  0.00    -0.352 A  
HETATM   36  C   UNL     1     -11.381   9.469  69.458  1.00  0.00    -0.025 A  
ENDBRANCH   2  23
TORSDOF 5
ENDMDL
MODEL       30
REMARK 921   NORMALIZED FREE ENERGY PREDICTED BY IDOCK:   -6.96 KCAL/MOL
REMARK 922        TOTAL FREE ENERGY PREDICTED BY IDOCK:  -11.86 KCAL/MOL
REMARK 923 INTER-LIGAND FREE ENERGY PREDICTED BY IDOCK:   -9.57 KCAL/MOL
REMARK 924 INTRA-LIGAND FREE ENERGY PREDICTED BY IDOCK:   -2.30 KCAL/MOL
REMARK 927      BINDING AFFINITY PREDICTED BY RF-SCORE:    0.00 PKD
ROOT
HETATM    1  C   UNL     1     -12.559  13.424  69.904  1.00  0.00    -0.034 C  
HETATM    2  C   UNL     1     -11.393  12.743  69.188  1.00  0.00    -0.281 C  
ENDROOT
BRANCH   2   3
HETATM    3  O   UNL     1     -11.606  11.336  69.080  1.00  0.00    -0.259 OA 
BRANCH   3   4
HETATM    4  C   UNL     1     -10.968  10.567  70.111  1.00  0.00    -0.270 C  
BRANCH   4   5
HETATM    5  C   UNL     1     -10.111   9.425  69.456  1.00  0.00    -0.205 C  
HETATM    6  C   UNL     1     -10.165   7.313  71.585  1.00  0.00    -0.192 C  
HETATM    7  C   UNL     1      -9.218   8.519  71.690  1.00  0.00    -0.304 C  
HETATM    8  N   UNL     1     -10.631   6.950  72.904  1.00  0.00    -0.240 NA 
HETATM    9  H   UNL     1     -10.480   7.486  68.793  1.00  0.00     0.000 HD 
HETATM   10  C   UNL     1      -8.866   9.103  70.319  1.00  0.00    -0.238 C  
HETATM   11  O   UNL     1     -11.139   5.062  74.106  1.00  0.00    -0.275 OA 
HETATM   12  C   UNL     1     -11.358   7.642  70.649  1.00  0.00    -0.272 C  
HETATM   13  C   UNL     1      -9.426   6.044  71.116  1.00  0.00    -0.182 C  
HETATM   14  C   UNL     1     -10.639   5.597  73.133  1.00  0.00    -0.247 C  
HETATM   15  C   UNL     1      -9.959   4.906  71.987  1.00  0.00    -0.245 C  
HETATM   16  N   UNL     1     -10.951   8.196  69.353  1.00  0.00    -0.082 NA 
BRANCH   5  17
HETATM   17  C   UNL     1      -9.611   9.840  68.046  1.00  0.00    -0.160 A  
HETATM   18  C   UNL     1      -8.738  10.587  65.457  1.00  0.00    -0.197 A  
HETATM   19  C   UNL     1      -9.649   9.546  65.614  1.00  0.00    -0.346 A  
HETATM   20  C   UNL     1     -10.074   9.176  66.895  1.00  0.00    -0.328 A  
HETATM   21  C   UNL     1      -8.661  10.862  67.857  1.00  0.00    -0.131 A  
HETATM   22  C   UNL     1      -8.239  11.238  66.577  1.00  0.00    -0.165 A  
ENDBRANCH   5  17
ENDBRANCH   4   5
ENDBRANCH   3   4
ENDBRANCH   2   3
BRANCH   2  23
HETATM   23  C   UNL     1     -11.255  13.326  67.790  1.00  0.00    -0.308 A  
HETATM   24  F   UNL     1      -9.697  17.180  67.373  1.00  0.00    -0.239 F  
HETATM   25  C   UNL     1     -10.722  14.613  67.627  1.00  0.00    -0.271 A  
HETATM   26  F   UNL     1     -13.499  12.122  64.317  1.00  0.00    -0.412 F  
HETATM   27  C   UNL     1     -10.658  15.221  66.363  1.00  0.00    -0.308 A  
HETATM   28  C   UNL     1     -11.131  14.516  65.245  1.00  0.00    -0.355 A  
HETATM   29  F   UNL     1     -11.516  11.301  63.961  1.00  0.00    -0.418 F  
HETATM   30  C   UNL     1     -10.111  16.620  66.202  1.00  0.00    -0.345 C  
HETATM   31  F   UNL     1     -12.106  13.167  63.016  1.00  0.00    -0.615 F  
HETATM   32  C   UNL     1     -12.187  12.464  64.181  1.00  0.00    -0.468 C  
HETATM   33  F   UNL     1      -9.039  16.668  65.365  1.00  0.00    -0.057 F  
HETATM   34  F   UNL     1     -11.032  17.479  65.685  1.00  0.00    -0.284 F  
HETATM   35  C   UNL     1     -11.719  12.641  66.655  1.00  0.00    -0.464 A  
HETATM   36  C   UNL     1     -11.663  13.223  65.378  1.00  0.00    -0.370 A  
ENDBRANCH   2  23
TORSDOF 5
ENDMDL
MODEL       31
REMARK 921   NORMALIZED FREE ENERGY PREDICTED BY IDOCK:   -6.96 KCAL/MOL
REMARK 922        TOTAL FREE ENERGY PREDICTED BY IDOCK:  -11.86 KCAL/MOL
REMARK 923 INTER-LIGAND FREE ENERGY PREDICTED BY IDOCK:   -9.13 KCAL/MOL
REMARK 924 INTRA-LIGAND FREE ENERGY PREDICTED BY IDOCK:   -2.73 KCAL/MOL
REMARK 927      BINDING AFFINITY PREDICTED BY RF-SCORE:    0.00 PKD
ROOT
HETATM    1  C   UNL     1      -6.672  14.232  68.921  1.00  0.00    -0.100 C  
HETATM    2  C   UNL     1      -7.847  13.867  68.015  1.00  0.00    -0.154 C  
ENDROOT
BRANCH   2   3
HETATM    3  O   UNL     1      -8.261  12.518  68.225  1.00  0.00    -0.162 OA 
BRANCH   3   4
HETATM    4  C   UNL     1      -8.232  11.705  67.042  1.00  0.00    -0.170 C  
BRANCH   4   5
HETATM    5  C   UNL     1      -9.683  11.201  66.719  1.00  0.00    -0.193 C  
HETATM    6  C   UNL     1      -9.509   8.299  67.453  1.00  0.00    -0.151 C  
HETATM    7  C   UNL     1      -8.952   8.813  66.115  1.00  0.00    -0.225 C  
HETATM    8  N   UNL     1      -8.665   7.234  67.949  1.00  0.00    -0.123 NA 
HETATM    9  H   UNL     1     -11.279  10.455  67.831  1.00  0.00     0.000 HD 
HETATM   10  C   UNL     1      -9.656  10.087  65.644  1.00  0.00    -0.313 C  
HETATM   11  O   UNL     1      -8.865   5.241  69.068  1.00  0.00    -0.099 OA 
HETATM   12  C   UNL     1      -9.598   9.456  68.481  1.00  0.00    -0.147 C  
HETATM   13  C   UNL     1     -10.874   7.606  67.276  1.00  0.00    -0.263 C  
HETATM   14  C   UNL     1      -9.364   6.168  68.456  1.00  0.00    -0.117 C  
HETATM   15  C   UNL     1     -10.822   6.353  68.153  1.00  0.00    -0.386 C  
HETATM   16  N   UNL     1     -10.286  10.645  67.966  1.00  0.00    -0.169 NA 
BRANCH   5  17
HETATM   17  C   UNL     1     -10.569  12.356  66.177  1.00  0.00    -0.283 A  
HETATM   18  C   UNL     1     -12.167  14.456  65.148  1.00  0.00    -0.393 A  
HETATM   19  C   UNL     1     -10.879  14.256  64.661  1.00  0.00    -0.384 A  
HETATM   20  C   UNL     1     -10.089  13.220  65.174  1.00  0.00    -0.249 A  
HETATM   21  C   UNL     1     -11.861  12.609  66.676  1.00  0.00    -0.449 A  
HETATM   22  C   UNL     1     -12.654  13.640  66.160  1.00  0.00    -0.391 A  
ENDBRANCH   5  17
ENDBRANCH   4   5
ENDBRANCH   3   4
ENDBRANCH   2   3
BRANCH   2  23
HETATM   23  C   UNL     1      -9.017  14.791  68.316  1.00  0.00    -0.181 A  
HETATM   24  F   UNL     1      -8.859  18.734  66.943  1.00  0.00    -0.264 F  
HETATM   25  C   UNL     1      -8.990  16.115  67.852  1.00  0.00    -0.183 A  
HETATM   26  F   UNL     1     -11.837  14.330  71.538  1.00  0.00    -0.386 F  
HETATM   27  C   UNL     1     -10.008  17.024  68.182  1.00  0.00    -0.287 A  
HETATM   28  C   UNL     1     -11.074  16.587  68.985  1.00  0.00    -0.284 A  
HETATM   29  F   UNL     1     -12.978  13.778  69.769  1.00  0.00    -0.183 F  
HETATM   30  C   UNL     1      -9.954  18.456  67.705  1.00  0.00    -0.338 C  
HETATM   31  F   UNL     1     -13.176  15.771  70.614  1.00  0.00    -0.511 F  
HETATM   32  C   UNL     1     -12.269  14.794  70.332  1.00  0.00    -0.336 C  
HETATM   33  F   UNL     1     -11.032  18.794  66.947  1.00  0.00    -0.441 F  
HETATM   34  F   UNL     1      -9.924  19.344  68.736  1.00  0.00    -0.417 F  
HETATM   35  C   UNL     1     -10.096  14.379  69.115  1.00  0.00    -0.108 A  
HETATM   36  C   UNL     1     -11.131  15.266  69.456  1.00  0.00    -0.286 A  
ENDBRANCH   2  23
TORSDOF 5
ENDMDL
MODEL       32
REMARK 921   NORMALIZED FREE ENERGY PREDICTED BY IDOCK:   -6.95 KCAL/MOL
REMARK 922        TOTAL FREE ENERGY PREDICTED BY IDOCK:  -11.84 KCAL/MOL
REMARK 923 INTER-LIGAND FREE ENERGY PREDICTED BY IDOCK:  -11.19 KCAL/MOL
REMARK 924 INTRA-LIGAND FREE ENERGY PREDICTED BY IDOCK:   -0.65 KCAL/MOL
REMARK 927      BINDING AFFINITY PREDICTED BY RF-SCORE:    0.00 PKD
ROOT
HETATM    1  C   UNL     1      -9.263   9.923  69.088  1.00  0.00    -0.184 C  
HETATM    2  C   UNL     1     -10.246  11.021  68.689  1.00  0.00    -0.199 C  
ENDROOT
BRANCH   2   3
HETATM    3  O   UNL     1     -10.866  10.729  67.437  1.00  0.00    -0.252 OA 
BRANCH   3   4
HETATM    4  C   UNL     1     -11.452  11.871  66.793  1.00  0.00    -0.316 C  
BRANCH   4   5
HETATM    5  C   UNL     1     -10.402  12.519  65.823  1.00  0.00    -0.265 C  
HETATM    6  C   UNL     1     -10.360  15.365  66.769  1.00  0.00    -0.279 C  
HETATM    7  C   UNL     1     -11.487  14.849  65.859  1.00  0.00    -0.276 C  
HETATM    8  N   UNL     1     -10.899  16.328  67.704  1.00  0.00    -0.319 NA 
HETATM    9  H   UNL     1      -8.513  13.372  66.034  1.00  0.00     0.000 HD 
HETATM   10  C   UNL     1     -11.042  13.664  64.999  1.00  0.00    -0.338 C  
HETATM   11  O   UNL     1     -10.283  18.290  68.722  1.00  0.00    -0.378 OA 
HETATM   12  C   UNL     1      -9.687  14.185  67.518  1.00  0.00    -0.234 C  
HETATM   13  C   UNL     1      -9.321  16.188  65.983  1.00  0.00    -0.368 C  
HETATM   14  C   UNL     1     -10.107  17.435  67.872  1.00  0.00    -0.326 C  
HETATM   15  C   UNL     1      -8.998  17.399  66.861  1.00  0.00    -0.260 C  
HETATM   16  N   UNL     1      -9.285  13.085  66.636  1.00  0.00    -0.241 NA 
BRANCH   5  17
HETATM   17  C   UNL     1      -9.845  11.473  64.821  1.00  0.00    -0.286 A  
HETATM   18  C   UNL     1      -8.828   9.595  62.960  1.00  0.00    -0.254 A  
HETATM   19  C   UNL     1      -9.683  10.607  62.535  1.00  0.00    -0.172 A  
HETATM   20  C   UNL     1     -10.188  11.530  63.456  1.00  0.00    -0.462 A  
HETATM   21  C   UNL     1      -9.010  10.415  65.227  1.00  0.00    -0.212 A  
HETATM   22  C   UNL     1      -8.499   9.494  64.305  1.00  0.00    -0.193 A  
ENDBRANCH   5  17
ENDBRANCH   4   5
ENDBRANCH   3   4
ENDBRANCH   2   3
BRANCH   2  23
HETATM   23  C   UNL     1     -11.326  11.138  69.754  1.00  0.00    -0.354 A  
HETATM   24  F   UNL     1     -12.437  14.944  71.070  1.00  0.00    -0.305 F  
HETATM   25  C   UNL     1     -11.723  12.407  70.200  1.00  0.00    -0.266 A  
HETATM   26  F   UNL     1     -12.427   8.082  72.583  1.00  0.00    -0.309 F  
HETATM   27  C   UNL     1     -12.652  12.556  71.242  1.00  0.00    -0.332 A  
HETATM   28  C   UNL     1     -13.196  11.406  71.837  1.00  0.00    -0.485 A  
HETATM   29  F   UNL     1     -14.085   8.105  71.174  1.00  0.00    -0.354 F  
HETATM   30  C   UNL     1     -13.050  13.927  71.737  1.00  0.00    -0.377 C  
HETATM   31  F   UNL     1     -14.255   9.150  73.072  1.00  0.00    -0.385 F  
HETATM   32  C   UNL     1     -13.393   8.882  72.051  1.00  0.00    -0.421 C  
HETATM   33  F   UNL     1     -14.386  14.156  71.621  1.00  0.00    -0.461 F  
HETATM   34  F   UNL     1     -12.749  14.110  73.051  1.00  0.00    -0.455 F  
HETATM   35  C   UNL     1     -11.887  10.004  70.365  1.00  0.00    -0.343 A  
HETATM   36  C   UNL     1     -12.823  10.124  71.406  1.00  0.00    -0.530 A  
ENDBRANCH   2  23
TORSDOF 5
ENDMDL
MODEL       33
REMARK 921   NORMALIZED FREE ENERGY PREDICTED BY IDOCK:   -6.90 KCAL/MOL
REMARK 922        TOTAL FREE ENERGY PREDICTED BY IDOCK:  -11.78 KCAL/MOL
REMARK 923 INTER-LIGAND FREE ENERGY PREDICTED BY IDOCK:   -8.70 KCAL/MOL
REMARK 924 INTRA-LIGAND FREE ENERGY PREDICTED BY IDOCK:   -3.07 KCAL/MOL
REMARK 927      BINDING AFFINITY PREDICTED BY RF-SCORE:    0.00 PKD
ROOT
HETATM    1  C   UNL     1     -12.209  13.122  70.678  1.00  0.00    -0.402 C  
HETATM    2  C   UNL     1     -12.225  12.494  69.285  1.00  0.00    -0.036 C  
ENDROOT
BRANCH   2   3
HETATM    3  O   UNL     1     -11.509  13.299  68.348  1.00  0.00    -0.271 OA 
BRANCH   3   4
HETATM    4  C   UNL     1     -10.606  14.238  68.951  1.00  0.00    -0.245 C  
BRANCH   4   5
HETATM    5  C   UNL     1      -9.326  14.380  68.055  1.00  0.00    -0.200 C  
HETATM    6  C   UNL     1      -9.451  17.267  67.252  1.00  0.00    -0.250 C  
HETATM    7  C   UNL     1     -10.320  16.212  66.550  1.00  0.00    -0.311 C  
HETATM    8  N   UNL     1     -10.185  18.509  67.348  1.00  0.00    -0.353 NA 
HETATM    9  H   UNL     1      -7.531  15.431  68.184  1.00  0.00     0.000 HD 
HETATM   10  C   UNL     1      -9.702  14.813  66.616  1.00  0.00    -0.281 C  
HETATM   11  O   UNL     1      -9.797  20.768  67.221  1.00  0.00    -0.474 OA 
HETATM   12  C   UNL     1      -9.024  16.769  68.658  1.00  0.00    -0.251 C  
HETATM   13  C   UNL     1      -8.223  17.654  66.405  1.00  0.00    -0.298 C  
HETATM   14  C   UNL     1      -9.433  19.618  67.051  1.00  0.00    -0.349 C  
HETATM   15  C   UNL     1      -8.103  19.175  66.514  1.00  0.00    -0.309 C  
HETATM   16  N   UNL     1      -8.439  15.424  68.649  1.00  0.00    -0.160 NA 
BRANCH   5  17
HETATM   17  C   UNL     1      -8.559  13.033  67.955  1.00  0.00    -0.186 A  
HETATM   18  C   UNL     1      -7.149  10.587  67.733  1.00  0.00    -0.083 A  
HETATM   19  C   UNL     1      -7.795  11.124  66.624  1.00  0.00    -0.155 A  
HETATM   20  C   UNL     1      -8.496  12.330  66.737  1.00  0.00    -0.119 A  
HETATM   21  C   UNL     1      -7.928  12.445  69.068  1.00  0.00     0.266 A  
HETATM   22  C   UNL     1      -7.222  11.242  68.955  1.00  0.00    -0.112 A  
ENDBRANCH   5  17
ENDBRANCH   4   5
ENDBRANCH   3   4
ENDBRANCH   2   3
BRANCH   2  23
HETATM   23  C   UNL     1     -11.574  11.120  69.348  1.00  0.00    -0.388 A  
HETATM   24  F   UNL     1     -10.535   9.234  65.768  1.00  0.00    -0.281 F  
HETATM   25  C   UNL     1     -11.205  10.475  68.158  1.00  0.00    -0.357 A  
HETATM   26  F   UNL     1     -11.896   8.317  72.601  1.00  0.00    -0.415 F  
HETATM   27  C   UNL     1     -10.682   9.173  68.167  1.00  0.00    -0.186 A  
HETATM   28  C   UNL     1     -10.521   8.514  69.397  1.00  0.00    -0.223 A  
HETATM   29  F   UNL     1      -9.863   9.074  72.771  1.00  0.00    -0.207 F  
HETATM   30  C   UNL     1     -10.317   8.474  66.879  1.00  0.00    -0.297 C  
HETATM   31  F   UNL     1     -10.234   7.160  71.810  1.00  0.00    -0.193 F  
HETATM   32  C   UNL     1     -10.716   8.430  71.929  1.00  0.00    -0.303 C  
HETATM   33  F   UNL     1      -9.006   8.113  66.834  1.00  0.00    -0.125 F  
HETATM   34  F   UNL     1     -11.030   7.330  66.691  1.00  0.00    -0.400 F  
HETATM   35  C   UNL     1     -11.399  10.441  70.565  1.00  0.00    -0.424 A  
HETATM   36  C   UNL     1     -10.874   9.138  70.604  1.00  0.00    -0.321 A  
ENDBRANCH   2  23
TORSDOF 5
ENDMDL
MODEL       34
REMARK 921   NORMALIZED FREE ENERGY PREDICTED BY IDOCK:   -6.89 KCAL/MOL
REMARK 922        TOTAL FREE ENERGY PREDICTED BY IDOCK:  -11.76 KCAL/MOL
REMARK 923 INTER-LIGAND FREE ENERGY PREDICTED BY IDOCK:  -10.30 KCAL/MOL
REMARK 924 INTRA-LIGAND FREE ENERGY PREDICTED BY IDOCK:   -1.46 KCAL/MOL
REMARK 927      BINDING AFFINITY PREDICTED BY RF-SCORE:    0.00 PKD
ROOT
HETATM    1  C   UNL     1     -11.517  12.339  67.522  1.00  0.00    -0.414 C  
HETATM    2  C   UNL     1     -11.892  12.202  68.997  1.00  0.00    -0.306 C  
ENDROOT
BRANCH   2   3
HETATM    3  O   UNL     1     -11.055  11.252  69.656  1.00  0.00    -0.249 OA 
BRANCH   3   4
HETATM    4  C   UNL     1     -11.487   9.891  69.510  1.00  0.00    -0.068 C  
BRANCH   4   5
HETATM    5  C   UNL     1     -10.246   8.979  69.208  1.00  0.00    -0.205 C  
HETATM    6  C   UNL     1     -10.300   7.073  71.523  1.00  0.00    -0.203 C  
HETATM    7  C   UNL     1      -9.730   8.492  71.678  1.00  0.00    -0.322 C  
HETATM    8  N   UNL     1     -10.970   6.686  72.744  1.00  0.00    -0.251 NA 
HETATM    9  H   UNL     1      -9.959   6.972  68.730  1.00  0.00     0.000 HD 
HETATM   10  C   UNL     1      -9.209   9.057  70.355  1.00  0.00    -0.243 C  
HETATM   11  O   UNL     1     -11.280   4.814  74.035  1.00  0.00    -0.273 OA 
HETATM   12  C   UNL     1     -11.273   7.010  70.316  1.00  0.00    -0.298 C  
HETATM   13  C   UNL     1      -9.183   6.019  71.390  1.00  0.00    -0.152 C  
HETATM   14  C   UNL     1     -10.704   5.398  73.134  1.00  0.00    -0.266 C  
HETATM   15  C   UNL     1      -9.618   4.839  72.262  1.00  0.00    -0.195 C  
HETATM   16  N   UNL     1     -10.710   7.565  69.080  1.00  0.00    -0.192 NA 
BRANCH   5  17
HETATM   17  C   UNL     1      -9.534   9.418  67.899  1.00  0.00    -0.150 A  
HETATM   18  C   UNL     1      -8.275  10.225  65.494  1.00  0.00    -0.158 A  
HETATM   19  C   UNL     1      -9.471   9.515  65.452  1.00  0.00    -0.336 A  
HETATM   20  C   UNL     1     -10.088   9.113  66.642  1.00  0.00    -0.343 A  
HETATM   21  C   UNL     1      -8.305  10.104  67.908  1.00  0.00    -0.117 A  
HETATM   22  C   UNL     1      -7.689  10.512  66.719  1.00  0.00    -0.118 A  
ENDBRANCH   5  17
ENDBRANCH   4   5
ENDBRANCH   3   4
ENDBRANCH   2   3
BRANCH   2  23
HETATM   23  C   UNL     1     -11.733  13.552  69.681  1.00  0.00    -0.378 A  
HETATM   24  F   UNL     1     -13.481  14.110  73.434  1.00  0.00    -0.434 F  
HETATM   25  C   UNL     1     -12.301  13.755  70.948  1.00  0.00    -0.456 A  
HETATM   26  F   UNL     1     -10.917  17.299  67.722  1.00  0.00    -0.360 F  
HETATM   27  C   UNL     1     -12.252  15.011  71.575  1.00  0.00    -0.399 A  
HETATM   28  C   UNL     1     -11.613  16.074  70.918  1.00  0.00    -0.453 A  
HETATM   29  F   UNL     1      -9.034  16.802  68.693  1.00  0.00    -0.215 F  
HETATM   30  C   UNL     1     -12.894  15.229  72.925  1.00  0.00    -0.438 C  
HETATM   31  F   UNL     1     -10.399  18.216  69.623  1.00  0.00    -0.234 F  
HETATM   32  C   UNL     1     -10.352  17.040  68.935  1.00  0.00    -0.337 C  
HETATM   33  F   UNL     1     -12.003  15.645  73.865  1.00  0.00    -0.520 F  
HETATM   34  F   UNL     1     -13.871  16.176  72.886  1.00  0.00    -0.630 F  
HETATM   35  C   UNL     1     -11.097  14.631  69.047  1.00  0.00    -0.273 A  
HETATM   36  C   UNL     1     -11.029  15.897  69.653  1.00  0.00    -0.319 A  
ENDBRANCH   2  23
TORSDOF 5
ENDMDL
MODEL       35
REMARK 921   NORMALIZED FREE ENERGY PREDICTED BY IDOCK:   -6.84 KCAL/MOL
REMARK 922        TOTAL FREE ENERGY PREDICTED BY IDOCK:  -11.70 KCAL/MOL
REMARK 923 INTER-LIGAND FREE ENERGY PREDICTED BY IDOCK:   -9.27 KCAL/MOL
REMARK 924 INTRA-LIGAND FREE ENERGY PREDICTED BY IDOCK:   -2.43 KCAL/MOL
REMARK 927      BINDING AFFINITY PREDICTED BY RF-SCORE:    0.00 PKD
ROOT
HETATM    1  C   UNL     1     -13.780  10.261  71.894  1.00  0.00    -0.164 C  
HETATM    2  C   UNL     1     -12.308  10.502  71.565  1.00  0.00    -0.341 C  
ENDROOT
BRANCH   2   3
HETATM    3  O   UNL     1     -11.696   9.324  71.043  1.00  0.00    -0.280 OA 
BRANCH   3   4
HETATM    4  C   UNL     1     -10.541   8.890  71.776  1.00  0.00    -0.362 C  
BRANCH   4   5
HETATM    5  C   UNL     1      -9.672   7.946  70.872  1.00  0.00    -0.164 C  
HETATM    6  C   UNL     1      -9.959   5.310  72.273  1.00  0.00    -0.177 C  
HETATM    7  C   UNL     1      -8.986   6.381  72.791  1.00  0.00    -0.124 C  
HETATM    8  N   UNL     1     -10.539   4.603  73.393  1.00  0.00    -0.203 NA 
HETATM    9  H   UNL     1     -10.048   6.307  69.642  1.00  0.00     0.000 HD 
HETATM   10  C   UNL     1      -8.509   7.319  71.681  1.00  0.00    -0.114 C  
HETATM   11  O   UNL     1     -11.199   2.476  73.947  1.00  0.00    -0.196 OA 
HETATM   12  C   UNL     1     -11.064   5.961  71.400  1.00  0.00    -0.248 C  
HETATM   13  C   UNL     1      -9.226   4.196  71.500  1.00  0.00    -0.194 C  
HETATM   14  C   UNL     1     -10.608   3.244  73.210  1.00  0.00    -0.182 C  
HETATM   15  C   UNL     1      -9.862   2.883  71.959  1.00  0.00    -0.242 C  
HETATM   16  N   UNL     1     -10.540   6.846  70.355  1.00  0.00    -0.213 NA 
BRANCH   5  17
HETATM   17  C   UNL     1      -9.050   8.727  69.683  1.00  0.00    -0.149 A  
HETATM   18  C   UNL     1      -7.942  10.132  67.487  1.00  0.00    -0.106 A  
HETATM   19  C   UNL     1      -8.395   8.827  67.324  1.00  0.00    -0.104 A  
HETATM   20  C   UNL     1      -8.937   8.133  68.412  1.00  0.00    -0.136 A  
HETATM   21  C   UNL     1      -8.548  10.035  69.824  1.00  0.00    -0.192 A  
HETATM   22  C   UNL     1      -8.011  10.733  68.737  1.00  0.00    -0.136 A  
ENDBRANCH   5  17
ENDBRANCH   4   5
ENDBRANCH   3   4
ENDBRANCH   2   3
BRANCH   2  23
HETATM   23  C   UNL     1     -12.202  11.610  70.527  1.00  0.00    -0.451 A  
HETATM   24  F   UNL     1     -11.096  10.598  66.628  1.00  0.00    -0.287 F  
HETATM   25  C   UNL     1     -11.846  11.289  69.209  1.00  0.00    -0.423 A  
HETATM   26  F   UNL     1     -11.545  15.786  71.345  1.00  0.00    -0.333 F  
HETATM   27  C   UNL     1     -11.652  12.289  68.243  1.00  0.00    -0.385 A  
HETATM   28  C   UNL     1     -11.831  13.633  68.610  1.00  0.00    -0.409 A  
HETATM   29  F   UNL     1     -13.638  15.698  70.755  1.00  0.00    -0.524 F  
HETATM   30  C   UNL     1     -11.237  11.937  66.833  1.00  0.00    -0.325 C  
HETATM   31  F   UNL     1     -12.126  16.307  69.317  1.00  0.00    -0.271 F  
HETATM   32  C   UNL     1     -12.375  15.426  70.326  1.00  0.00    -0.388 C  
HETATM   33  F   UNL     1     -12.132  12.366  65.903  1.00  0.00    -0.456 F  
HETATM   34  F   UNL     1     -10.043  12.493  66.492  1.00  0.00    -0.223 F  
HETATM   35  C   UNL     1     -12.378  12.961  70.868  1.00  0.00    -0.365 A  
HETATM   36  C   UNL     1     -12.195  13.982  69.920  1.00  0.00    -0.399 A  
ENDBRANCH   2  23
TORSDOF 5
ENDMDL
MODEL       36
REMARK 921   NORMALIZED FREE ENERGY PREDICTED BY IDOCK:   -6.84 KCAL/MOL
REMARK 922        TOTAL FREE ENERGY PREDICTED BY IDOCK:  -11.70 KCAL/MOL
REMARK 923 INTER-LIGAND FREE ENERGY PREDICTED BY IDOCK:  -10.31 KCAL/MOL
REMARK 924 INTRA-LIGAND FREE ENERGY PREDICTED BY IDOCK:   -1.39 KCAL/MOL
REMARK 927      BINDING AFFINITY PREDICTED BY RF-SCORE:    0.00 PKD
ROOT
HETATM    1  C   UNL     1      -9.148  10.145  66.796  1.00  0.00    -0.159 C  
HETATM    2  C   UNL     1      -9.048  11.046  68.026  1.00  0.00    -0.152 C  
ENDROOT
BRANCH   2   3
HETATM    3  O   UNL     1      -9.828  12.230  67.863  1.00  0.00    -0.189 OA 
BRANCH   3   4
HETATM    4  C   UNL     1      -9.085  13.359  67.379  1.00  0.00    -0.216 C  
BRANCH   4   5
HETATM    5  C   UNL     1     -10.039  14.301  66.563  1.00  0.00    -0.278 C  
HETATM    6  C   UNL     1      -9.414  16.986  67.743  1.00  0.00    -0.245 C  
HETATM    7  C   UNL     1     -10.344  15.999  68.468  1.00  0.00    -0.241 C  
HETATM    8  N   UNL     1      -8.635  17.718  68.717  1.00  0.00    -0.250 NA 
HETATM    9  H   UNL     1      -9.782  15.850  65.194  1.00  0.00     0.000 HD 
HETATM   10  C   UNL     1     -11.031  15.032  67.501  1.00  0.00    -0.307 C  
HETATM   11  O   UNL     1      -7.798  19.831  69.036  1.00  0.00    -0.292 OA 
HETATM   12  C   UNL     1      -8.490  16.231  66.752  1.00  0.00    -0.247 C  
HETATM   13  C   UNL     1     -10.206  18.097  67.026  1.00  0.00    -0.373 C  
HETATM   14  C   UNL     1      -8.532  19.059  68.446  1.00  0.00    -0.348 C  
HETATM   15  C   UNL     1      -9.446  19.396  67.304  1.00  0.00    -0.398 C  
HETATM   16  N   UNL     1      -9.212  15.323  65.855  1.00  0.00    -0.281 NA 
BRANCH   5  17
HETATM   17  C   UNL     1     -10.874  13.495  65.531  1.00  0.00    -0.293 A  
HETATM   18  C   UNL     1     -12.367  11.994  63.649  1.00  0.00    -0.648 A  
HETATM   19  C   UNL     1     -10.979  12.042  63.562  1.00  0.00    -0.514 A  
HETATM   20  C   UNL     1     -10.244  12.788  64.490  1.00  0.00    -0.333 A  
HETATM   21  C   UNL     1     -12.281  13.459  65.570  1.00  0.00    -0.499 A  
HETATM   22  C   UNL     1     -13.017  12.708  64.646  1.00  0.00    -0.225 A  
ENDBRANCH   5  17
ENDBRANCH   4   5
ENDBRANCH   3   4
ENDBRANCH   2   3
BRANCH   2  23
HETATM   23  C   UNL     1      -9.556  10.289  69.244  1.00  0.00    -0.239 A  
HETATM   24  F   UNL     1     -13.607  10.566  70.226  1.00  0.00    -0.218 F  
HETATM   25  C   UNL     1     -10.916  10.358  69.583  1.00  0.00    -0.325 A  
HETATM   26  F   UNL     1      -7.178   9.017  72.602  1.00  0.00    -0.012 F  
HETATM   27  C   UNL     1     -11.408   9.747  70.747  1.00  0.00    -0.416 A  
HETATM   28  C   UNL     1     -10.517   9.047  71.577  1.00  0.00    -0.410 A  
HETATM   29  F   UNL     1      -7.584   7.170  71.526  1.00  0.00    -0.083 F  
HETATM   30  C   UNL     1     -12.868   9.853  71.121  1.00  0.00    -0.368 C  
HETATM   31  F   UNL     1      -8.770   7.697  73.269  1.00  0.00    -0.160 F  
HETATM   32  C   UNL     1      -8.186   8.217  72.153  1.00  0.00    -0.149 C  
HETATM   33  F   UNL     1     -13.471   8.637  71.219  1.00  0.00    -0.337 F  
HETATM   34  F   UNL     1     -13.051  10.463  72.323  1.00  0.00    -0.522 F  
HETATM   35  C   UNL     1      -8.686   9.581  70.089  1.00  0.00    -0.258 A  
HETATM   36  C   UNL     1      -9.153   8.956  71.258  1.00  0.00    -0.323 A  
ENDBRANCH   2  23
TORSDOF 5
ENDMDL
MODEL       37
REMARK 921   NORMALIZED FREE ENERGY PREDICTED BY IDOCK:   -6.83 KCAL/MOL
REMARK 922        TOTAL FREE ENERGY PREDICTED BY IDOCK:  -11.70 KCAL/MOL
REMARK 923 INTER-LIGAND FREE ENERGY PREDICTED BY IDOCK:   -9.80 KCAL/MOL
REMARK 924 INTRA-LIGAND FREE ENERGY PREDICTED BY IDOCK:   -1.89 KCAL/MOL
REMARK 927      BINDING AFFINITY PREDICTED BY RF-SCORE:    0.00 PKD
ROOT
HETATM    1  C   UNL     1     -13.259   9.940  71.393  1.00  0.00    -0.487 C  
HETATM    2  C   UNL     1     -11.886  10.403  70.911  1.00  0.00    -0.377 C  
ENDROOT
BRANCH   2   3
HETATM    3  O   UNL     1     -11.382   9.547  69.886  1.00  0.00    -0.217 OA 
BRANCH   3   4
HETATM    4  C   UNL     1     -10.036   9.099  70.107  1.00  0.00    -0.200 C  
BRANCH   4   5
HETATM    5  C   UNL     1      -9.555   8.262  68.869  1.00  0.00    -0.153 C  
HETATM    6  C   UNL     1      -9.397   5.496  70.016  1.00  0.00    -0.148 C  
HETATM    7  C   UNL     1      -8.281   6.523  70.268  1.00  0.00    -0.126 C  
HETATM    8  N   UNL     1      -9.568   4.672  71.193  1.00  0.00    -0.159 NA 
HETATM    9  H   UNL     1     -10.369   6.750  67.691  1.00  0.00     0.000 HD 
HETATM   10  C   UNL     1      -8.198   7.574  69.159  1.00  0.00    -0.131 C  
HETATM   11  O   UNL     1     -10.042   2.492  71.729  1.00  0.00    -0.160 OA 
HETATM   12  C   UNL     1     -10.721   6.216  69.649  1.00  0.00    -0.319 C  
HETATM   13  C   UNL     1      -9.001   4.475  68.932  1.00  0.00    -0.151 C  
HETATM   14  C   UNL     1      -9.726   3.338  70.913  1.00  0.00    -0.117 C  
HETATM   15  C   UNL     1      -9.467   3.114  69.451  1.00  0.00    -0.189 C  
HETATM   16  N   UNL     1     -10.571   7.208  68.580  1.00  0.00    -0.202 NA 
BRANCH   5  17
HETATM   17  C   UNL     1      -9.366   9.167  67.621  1.00  0.00    -0.154 A  
HETATM   18  C   UNL     1      -8.977  10.808  65.345  1.00  0.00    -0.211 A  
HETATM   19  C   UNL     1      -8.014  10.766  66.349  1.00  0.00    -0.151 A  
HETATM   20  C   UNL     1      -8.211   9.958  67.474  1.00  0.00    -0.114 A  
HETATM   21  C   UNL     1     -10.339   9.261  66.608  1.00  0.00    -0.292 A  
HETATM   22  C   UNL     1     -10.141  10.063  65.479  1.00  0.00    -0.325 A  
ENDBRANCH   5  17
ENDBRANCH   4   5
ENDBRANCH   3   4
ENDBRANCH   2   3
BRANCH   2  23
HETATM   23  C   UNL     1     -12.000  11.815  70.356  1.00  0.00    -0.422 A  
HETATM   24  F   UNL     1     -13.478  14.829  72.843  1.00  0.00    -0.458 F  
HETATM   25  C   UNL     1     -12.481  12.845  71.179  1.00  0.00    -0.344 A  
HETATM   26  F   UNL     1     -12.311  12.878  66.194  1.00  0.00    -0.467 F  
HETATM   27  C   UNL     1     -12.684  14.141  70.681  1.00  0.00    -0.389 A  
HETATM   28  C   UNL     1     -12.388  14.406  69.334  1.00  0.00    -0.228 A  
HETATM   29  F   UNL     1     -10.283  13.458  66.726  1.00  0.00    -0.245 F  
HETATM   30  C   UNL     1     -13.232  15.236  71.566  1.00  0.00    -0.459 C  
HETATM   31  F   UNL     1     -11.860  14.953  66.658  1.00  0.00    -0.356 F  
HETATM   32  C   UNL     1     -11.591  13.671  67.036  1.00  0.00    -0.359 C  
HETATM   33  F   UNL     1     -12.388  16.297  71.668  1.00  0.00    -0.478 F  
HETATM   34  F   UNL     1     -14.411  15.734  71.102  1.00  0.00    -0.439 F  
HETATM   35  C   UNL     1     -11.709  12.107  69.013  1.00  0.00    -0.377 A  
HETATM   36  C   UNL     1     -11.898  13.397  68.490  1.00  0.00    -0.401 A  
ENDBRANCH   2  23
TORSDOF 5
ENDMDL
MODEL       38
REMARK 921   NORMALIZED FREE ENERGY PREDICTED BY IDOCK:   -6.81 KCAL/MOL
REMARK 922        TOTAL FREE ENERGY PREDICTED BY IDOCK:  -11.66 KCAL/MOL
REMARK 923 INTER-LIGAND FREE ENERGY PREDICTED BY IDOCK:   -8.20 KCAL/MOL
REMARK 924 INTRA-LIGAND FREE ENERGY PREDICTED BY IDOCK:   -3.46 KCAL/MOL
REMARK 927      BINDING AFFINITY PREDICTED BY RF-SCORE:    0.00 PKD
ROOT
HETATM    1  C   UNL     1      -5.817  12.557  67.339  1.00  0.00    -0.137 C  
HETATM    2  C   UNL     1      -6.734  12.504  68.560  1.00  0.00    -0.078 C  
ENDROOT
BRANCH   2   3
HETATM    3  O   UNL     1      -7.483  13.712  68.695  1.00  0.00    -0.113 OA 
BRANCH   3   4
HETATM    4  C   UNL     1      -7.398  14.584  67.558  1.00  0.00    -0.189 C  
BRANCH   4   5
HETATM    5  C   UNL     1      -8.815  15.187  67.255  1.00  0.00    -0.200 C  
HETATM    6  C   UNL     1      -8.313  18.129  67.554  1.00  0.00    -0.237 C  
HETATM    7  C   UNL     1      -8.511  17.230  68.785  1.00  0.00    -0.233 C  
HETATM    8  N   UNL     1      -7.342  19.156  67.858  1.00  0.00    -0.246 NA 
HETATM    9  H   UNL     1      -9.628  16.397  65.767  1.00  0.00     0.000 HD 
HETATM   10  C   UNL     1      -9.347  15.988  68.469  1.00  0.00    -0.213 C  
HETATM   11  O   UNL     1      -6.960  21.372  67.399  1.00  0.00    -0.572 OA 
HETATM   12  C   UNL     1      -7.858  17.284  66.335  1.00  0.00    -0.310 C  
HETATM   13  C   UNL     1      -9.583  18.937  67.225  1.00  0.00    -0.346 C  
HETATM   14  C   UNL     1      -7.694  20.400  67.397  1.00  0.00    -0.328 C  
HETATM   15  C   UNL     1      -9.102  20.348  66.881  1.00  0.00    -0.412 C  
HETATM   16  N   UNL     1      -8.703  16.111  66.087  1.00  0.00    -0.337 NA 
BRANCH   5  17
HETATM   17  C   UNL     1      -9.845  14.067  66.943  1.00  0.00    -0.267 A  
HETATM   18  C   UNL     1     -11.751  12.044  66.400  1.00  0.00    -0.326 A  
HETATM   19  C   UNL     1     -11.681  12.616  67.667  1.00  0.00    -0.420 A  
HETATM   20  C   UNL     1     -10.734  13.612  67.934  1.00  0.00    -0.257 A  
HETATM   21  C   UNL     1      -9.915  13.443  65.683  1.00  0.00    -0.249 A  
HETATM   22  C   UNL     1     -10.865  12.451  65.412  1.00  0.00    -0.320 A  
ENDBRANCH   5  17
ENDBRANCH   4   5
ENDBRANCH   3   4
ENDBRANCH   2   3
BRANCH   2  23
HETATM   23  C   UNL     1      -7.704  11.342  68.408  1.00  0.00    -0.127 A  
HETATM   24  F   UNL     1      -8.108   9.549  64.657  1.00  0.00    -0.115 F  
HETATM   25  C   UNL     1      -7.844  10.717  67.160  1.00  0.00    -0.124 A  
HETATM   26  F   UNL     1     -11.086  10.525  70.946  1.00  0.00    -0.371 F  
HETATM   27  C   UNL     1      -8.790   9.700  66.957  1.00  0.00    -0.142 A  
HETATM   28  C   UNL     1      -9.600   9.301  68.032  1.00  0.00    -0.161 A  
HETATM   29  F   UNL     1      -9.642   8.996  71.501  1.00  0.00    -0.298 F  
HETATM   30  C   UNL     1      -8.956   9.054  65.601  1.00  0.00    -0.202 C  
HETATM   31  F   UNL     1     -11.256   8.520  70.126  1.00  0.00    -0.254 F  
HETATM   32  C   UNL     1     -10.354   9.488  70.452  1.00  0.00    -0.276 C  
HETATM   33  F   UNL     1      -8.740   7.712  65.632  1.00  0.00    -0.149 F  
HETATM   34  F   UNL     1     -10.210   9.223  65.099  1.00  0.00    -0.156 F  
HETATM   35  C   UNL     1      -8.524  10.922  69.468  1.00  0.00     0.191 A  
HETATM   36  C   UNL     1      -9.476   9.903  69.294  1.00  0.00    -0.218 A  
ENDBRANCH   2  23
TORSDOF 5
ENDMDL
MODEL       39
REMARK 921   NORMALIZED FREE ENERGY PREDICTED BY IDOCK:   -6.80 KCAL/MOL
REMARK 922        TOTAL FREE ENERGY PREDICTED BY IDOCK:  -11.65 KCAL/MOL
REMARK 923 INTER-LIGAND FREE ENERGY PREDICTED BY IDOCK:  -10.46 KCAL/MOL
REMARK 924 INTRA-LIGAND FREE ENERGY PREDICTED BY IDOCK:   -1.19 KCAL/MOL
REMARK 927      BINDING AFFINITY PREDICTED BY RF-SCORE:    0.00 PKD
ROOT
HETATM    1  C   UNL     1     -14.020   9.084  71.641  1.00  0.00    -0.386 C  
HETATM    2  C   UNL     1     -12.683   9.729  72.000  1.00  0.00    -0.376 C  
ENDROOT
BRANCH   2   3
HETATM    3  O   UNL     1     -11.588   8.922  71.566  1.00  0.00    -0.272 OA 
BRANCH   3   4
HETATM    4  C   UNL     1     -11.973   7.634  71.063  1.00  0.00    -0.273 C  
BRANCH   4   5
HETATM    5  C   UNL     1     -10.690   6.763  70.822  1.00  0.00    -0.233 C  
HETATM    6  C   UNL     1      -9.955   7.509  68.011  1.00  0.00    -0.172 C  
HETATM    7  C   UNL     1     -11.080   6.501  68.295  1.00  0.00    -0.332 C  
HETATM    8  N   UNL     1     -10.298   8.299  66.850  1.00  0.00    -0.321 NA 
HETATM    9  H   UNL     1      -8.670   7.152  70.491  1.00  0.00     0.000 HD 
HETATM   10  C   UNL     1     -10.897   5.788  69.636  1.00  0.00    -0.418 C  
HETATM   11  O   UNL     1      -9.267   9.250  65.033  1.00  0.00    -0.235 OA 
HETATM   12  C   UNL     1      -9.718   8.416  69.247  1.00  0.00    -0.177 C  
HETATM   13  C   UNL     1      -8.652   6.806  67.581  1.00  0.00    -0.121 C  
HETATM   14  C   UNL     1      -9.250   8.490  65.985  1.00  0.00    -0.202 C  
HETATM   15  C   UNL     1      -8.097   7.633  66.420  1.00  0.00    -0.113 C  
HETATM   16  N   UNL     1      -9.549   7.670  70.498  1.00  0.00    -0.168 NA 
BRANCH   5  17
HETATM   17  C   UNL     1     -10.347   5.913  72.075  1.00  0.00    -0.250 A  
HETATM   18  C   UNL     1      -9.688   4.391  74.371  1.00  0.00    -0.160 A  
HETATM   19  C   UNL     1      -8.687   5.028  73.645  1.00  0.00    -0.106 A  
HETATM   20  C   UNL     1      -9.014   5.776  72.508  1.00  0.00    -0.133 A  
HETATM   21  C   UNL     1     -11.332   5.224  72.808  1.00  0.00    -0.342 A  
HETATM   22  C   UNL     1     -11.007   4.482  73.949  1.00  0.00    -0.326 A  
ENDBRANCH   5  17
ENDBRANCH   4   5
ENDBRANCH   3   4
ENDBRANCH   2   3
BRANCH   2  23
HETATM   23  C   UNL     1     -12.586  11.089  71.328  1.00  0.00    -0.517 A  
HETATM   24  F   UNL     1     -11.087  11.294  67.433  1.00  0.00    -0.267 F  
HETATM   25  C   UNL     1     -12.098  11.179  70.015  1.00  0.00    -0.437 A  
HETATM   26  F   UNL     1     -12.346  14.891  73.337  1.00  0.00    -0.443 F  
HETATM   27  C   UNL     1     -11.911  12.422  69.390  1.00  0.00    -0.365 A  
HETATM   28  C   UNL     1     -12.229  13.592  70.097  1.00  0.00    -0.413 A  
HETATM   29  F   UNL     1     -14.369  14.855  72.538  1.00  0.00    -0.510 F  
HETATM   30  C   UNL     1     -11.355  12.510  67.988  1.00  0.00    -0.289 C  
HETATM   31  F   UNL     1     -12.802  15.934  71.486  1.00  0.00    -0.456 F  
HETATM   32  C   UNL     1     -13.058  14.789  72.180  1.00  0.00    -0.341 C  
HETATM   33  F   UNL     1     -12.205  13.134  67.129  1.00  0.00    -0.411 F  
HETATM   34  F   UNL     1     -10.187  13.206  67.938  1.00  0.00    -0.212 F  
HETATM   35  C   UNL     1     -12.899  12.275  72.012  1.00  0.00    -0.260 A  
HETATM   36  C   UNL     1     -12.726  13.533  71.409  1.00  0.00    -0.423 A  
ENDBRANCH   2  23
TORSDOF 5
ENDMDL
MODEL       40
REMARK 921   NORMALIZED FREE ENERGY PREDICTED BY IDOCK:   -6.80 KCAL/MOL
REMARK 922        TOTAL FREE ENERGY PREDICTED BY IDOCK:  -11.65 KCAL/MOL
REMARK 923 INTER-LIGAND FREE ENERGY PREDICTED BY IDOCK:  -10.33 KCAL/MOL
REMARK 924 INTRA-LIGAND FREE ENERGY PREDICTED BY IDOCK:   -1.32 KCAL/MOL
REMARK 927      BINDING AFFINITY PREDICTED BY RF-SCORE:    0.00 PKD
ROOT
HETATM    1  C   UNL     1      -8.340   9.402  68.284  1.00  0.00    -0.119 C  
HETATM    2  C   UNL     1      -9.004  10.403  69.227  1.00  0.00    -0.163 C  
ENDROOT
BRANCH   2   3
HETATM    3  O   UNL     1      -9.985  11.183  68.545  1.00  0.00    -0.186 OA 
BRANCH   3   4
HETATM    4  C   UNL     1      -9.917  12.589  68.830  1.00  0.00    -0.015 C  
BRANCH   4   5
HETATM    5  C   UNL     1     -11.279  13.266  68.443  1.00  0.00    -0.280 C  
HETATM    6  C   UNL     1     -12.292  14.186  71.112  1.00  0.00    -0.372 C  
HETATM    7  C   UNL     1     -12.432  12.719  70.674  1.00  0.00    -0.328 C  
HETATM    8  N   UNL     1     -12.045  14.243  72.535  1.00  0.00     0.034 NA 
HETATM    9  H   UNL     1     -12.044  15.203  68.499  1.00  0.00     0.000 HD 
HETATM   10  C   UNL     1     -12.466  12.568  69.152  1.00  0.00     0.356 C  
HETATM   11  O   UNL     1     -12.591  15.551  74.340  1.00  0.00    -0.583 OA 
HETATM   12  C   UNL     1     -11.149  14.878  70.325  1.00  0.00    -0.192 C  
HETATM   13  C   UNL     1     -13.618  14.957  70.958  1.00  0.00    -0.402 C  
HETATM   14  C   UNL     1     -12.761  15.220  73.180  1.00  0.00    -0.474 C  
HETATM   15  C   UNL     1     -13.751  15.812  72.220  1.00  0.00    -0.487 C  
HETATM   16  N   UNL     1     -11.243  14.695  68.873  1.00  0.00    -0.253 NA 
BRANCH   5  17
HETATM   17  C   UNL     1     -11.531  13.183  66.913  1.00  0.00    -0.384 A  
HETATM   18  C   UNL     1     -11.975  13.073  64.118  1.00  0.00    -0.494 A  
HETATM   19  C   UNL     1     -12.150  14.270  64.806  1.00  0.00    -0.457 A  
HETATM   20  C   UNL     1     -11.935  14.321  66.188  1.00  0.00    -0.422 A  
HETATM   21  C   UNL     1     -11.401  11.979  66.195  1.00  0.00    -0.407 A  
HETATM   22  C   UNL     1     -11.610  11.928  64.812  1.00  0.00    -0.302 A  
ENDBRANCH   5  17
ENDBRANCH   4   5
ENDBRANCH   3   4
ENDBRANCH   2   3
BRANCH   2  23
HETATM   23  C   UNL     1      -9.681   9.649  70.362  1.00  0.00    -0.304 A  
HETATM   24  F   UNL     1     -13.850   9.730  70.610  1.00  0.00    -0.336 F  
HETATM   25  C   UNL     1     -11.081   9.652  70.455  1.00  0.00    -0.369 A  
HETATM   26  F   UNL     1      -7.874   8.587  74.124  1.00  0.00    -0.252 F  
HETATM   27  C   UNL     1     -11.740   9.043  71.534  1.00  0.00    -0.415 A  
HETATM   28  C   UNL     1     -10.976   8.412  72.529  1.00  0.00    -0.388 A  
HETATM   29  F   UNL     1      -7.991   6.696  73.054  1.00  0.00    -0.101 F  
HETATM   30  C   UNL     1     -13.247   9.078  71.643  1.00  0.00    -0.371 C  
HETATM   31  F   UNL     1      -9.492   7.198  74.545  1.00  0.00    -0.255 F  
HETATM   32  C   UNL     1      -8.745   7.723  73.532  1.00  0.00    -0.241 C  
HETATM   33  F   UNL     1     -13.797   7.835  71.674  1.00  0.00    -0.366 F  
HETATM   34  F   UNL     1     -13.668   9.706  72.774  1.00  0.00    -0.400 F  
HETATM   35  C   UNL     1      -8.940   9.009  71.369  1.00  0.00    -0.243 A  
HETATM   36  C   UNL     1      -9.574   8.387  72.457  1.00  0.00    -0.358 A  
ENDBRANCH   2  23
TORSDOF 5
ENDMDL
MODEL       41
REMARK 921   NORMALIZED FREE ENERGY PREDICTED BY IDOCK:   -6.79 KCAL/MOL
REMARK 922        TOTAL FREE ENERGY PREDICTED BY IDOCK:  -11.64 KCAL/MOL
REMARK 923 INTER-LIGAND FREE ENERGY PREDICTED BY IDOCK:  -10.28 KCAL/MOL
REMARK 924 INTRA-LIGAND FREE ENERGY PREDICTED BY IDOCK:   -1.36 KCAL/MOL
REMARK 927      BINDING AFFINITY PREDICTED BY RF-SCORE:    0.00 PKD
ROOT
HETATM    1  C   UNL     1     -14.218   9.028  71.338  1.00  0.00    -0.185 C  
HETATM    2  C   UNL     1     -12.972   9.652  71.961  1.00  0.00    -0.428 C  
ENDROOT
BRANCH   2   3
HETATM    3  O   UNL     1     -11.843   8.787  71.836  1.00  0.00    -0.319 OA 
BRANCH   3   4
HETATM    4  C   UNL     1     -12.136   7.531  71.206  1.00  0.00    -0.323 C  
BRANCH   4   5
HETATM    5  C   UNL     1     -10.795   6.767  70.917  1.00  0.00    -0.249 C  
HETATM    6  C   UNL     1     -10.158   7.669  68.129  1.00  0.00    -0.186 C  
HETATM    7  C   UNL     1     -11.201   6.570  68.387  1.00  0.00    -0.274 C  
HETATM    8  N   UNL     1     -10.575   8.474  67.002  1.00  0.00    -0.290 NA 
HETATM    9  H   UNL     1      -8.815   7.317  70.578  1.00  0.00     0.000 HD 
HETATM   10  C   UNL     1     -10.947   5.824  69.698  1.00  0.00    -0.385 C  
HETATM   11  O   UNL     1      -9.643   9.565  65.211  1.00  0.00    -0.283 OA 
HETATM   12  C   UNL     1      -9.971   8.545  69.395  1.00  0.00    -0.194 C  
HETATM   13  C   UNL     1      -8.813   7.082  67.657  1.00  0.00    -0.119 C  
HETATM   14  C   UNL     1      -9.556   8.774  66.133  1.00  0.00    -0.253 C  
HETATM   15  C   UNL     1      -8.337   7.990  66.521  1.00  0.00    -0.121 C  
HETATM   16  N   UNL     1      -9.729   7.768  70.615  1.00  0.00    -0.177 NA 
BRANCH   5  17
HETATM   17  C   UNL     1     -10.372   5.899  72.133  1.00  0.00    -0.241 A  
HETATM   18  C   UNL     1      -9.566   4.344  74.359  1.00  0.00    -0.143 A  
HETATM   19  C   UNL     1      -8.612   4.960  73.555  1.00  0.00    -0.105 A  
HETATM   20  C   UNL     1      -9.012   5.724  72.453  1.00  0.00    -0.141 A  
HETATM   21  C   UNL     1     -11.311   5.232  72.942  1.00  0.00    -0.368 A  
HETATM   22  C   UNL     1     -10.913   4.473  74.048  1.00  0.00    -0.269 A  
ENDBRANCH   5  17
ENDBRANCH   4   5
ENDBRANCH   3   4
ENDBRANCH   2   3
BRANCH   2  23
HETATM   23  C   UNL     1     -12.663  10.965  71.257  1.00  0.00    -0.542 A  
HETATM   24  F   UNL     1     -13.907  14.533  73.038  1.00  0.00    -0.489 F  
HETATM   25  C   UNL     1     -13.060  12.175  71.845  1.00  0.00    -0.475 A  
HETATM   26  F   UNL     1     -11.906  11.457  67.046  1.00  0.00    -0.309 F  
HETATM   27  C   UNL     1     -12.872  13.401  71.187  1.00  0.00    -0.372 A  
HETATM   28  C   UNL     1     -12.265  13.407  69.921  1.00  0.00    -0.337 A  
HETATM   29  F   UNL     1      -9.946  11.706  67.956  1.00  0.00    -0.169 F  
HETATM   30  C   UNL     1     -13.331  14.696  71.814  1.00  0.00    -0.360 C  
HETATM   31  F   UNL     1     -11.112  13.450  67.390  1.00  0.00    -0.263 F  
HETATM   32  C   UNL     1     -11.210  12.209  67.944  1.00  0.00    -0.272 C  
HETATM   33  F   UNL     1     -12.312  15.579  71.995  1.00  0.00    -0.338 F  
HETATM   34  F   UNL     1     -14.257  15.340  71.052  1.00  0.00    -0.487 F  
HETATM   35  C   UNL     1     -12.055  10.998  69.991  1.00  0.00    -0.441 A  
HETATM   36  C   UNL     1     -11.850  12.211  69.312  1.00  0.00    -0.370 A  
ENDBRANCH   2  23
TORSDOF 5
ENDMDL
MODEL       42
REMARK 921   NORMALIZED FREE ENERGY PREDICTED BY IDOCK:   -6.78 KCAL/MOL
REMARK 922        TOTAL FREE ENERGY PREDICTED BY IDOCK:  -11.63 KCAL/MOL
REMARK 923 INTER-LIGAND FREE ENERGY PREDICTED BY IDOCK:   -9.35 KCAL/MOL
REMARK 924 INTRA-LIGAND FREE ENERGY PREDICTED BY IDOCK:   -2.28 KCAL/MOL
REMARK 927      BINDING AFFINITY PREDICTED BY RF-SCORE:    0.00 PKD
ROOT
HETATM    1  C   UNL     1     -12.344  13.030  65.095  1.00  0.00    -0.536 C  
HETATM    2  C   UNL     1     -11.967  12.537  66.490  1.00  0.00    -0.296 C  
ENDROOT
BRANCH   2   3
HETATM    3  O   UNL     1     -10.816  11.694  66.446  1.00  0.00    -0.266 OA 
BRANCH   3   4
HETATM    4  C   UNL     1     -10.917  10.520  67.266  1.00  0.00    -0.260 C  
BRANCH   4   5
HETATM    5  C   UNL     1      -9.901  10.626  68.457  1.00  0.00    -0.168 C  
HETATM    6  C   UNL     1     -11.176   8.860  70.518  1.00  0.00    -0.252 C  
HETATM    7  C   UNL     1     -11.677  10.294  70.285  1.00  0.00    -0.388 C  
HETATM    8  N   UNL     1     -12.297   8.004  70.838  1.00  0.00    -0.140 NA 
HETATM    9  H   UNL     1      -8.616   9.310  69.436  1.00  0.00     0.000 HD 
HETATM   10  C   UNL     1     -10.585  11.206  69.720  1.00  0.00     0.020 C  
HETATM   11  O   UNL     1     -12.784   6.219  72.196  1.00  0.00    -0.214 OA 
HETATM   12  C   UNL     1     -10.425   8.339  69.264  1.00  0.00    -0.210 C  
HETATM   13  C   UNL     1     -10.292   8.759  71.776  1.00  0.00    -0.413 C  
HETATM   14  C   UNL     1     -12.047   7.132  71.867  1.00  0.00    -0.321 C  
HETATM   15  C   UNL     1     -10.726   7.478  72.490  1.00  0.00    -0.335 C  
HETATM   16  N   UNL     1      -9.392   9.259  68.776  1.00  0.00    -0.138 NA 
BRANCH   5  17
HETATM   17  C   UNL     1      -8.712  11.558  68.097  1.00  0.00    -0.157 A  
HETATM   18  C   UNL     1      -6.542  13.241  67.401  1.00  0.00    -0.066 A  
HETATM   19  C   UNL     1      -6.615  11.948  66.893  1.00  0.00    -0.083 A  
HETATM   20  C   UNL     1      -7.685  11.117  67.242  1.00  0.00    -0.130 A  
HETATM   21  C   UNL     1      -8.590  12.858  68.626  1.00  0.00     0.053 A  
HETATM   22  C   UNL     1      -7.524  13.692  68.273  1.00  0.00    -0.124 A  
ENDBRANCH   5  17
ENDBRANCH   4   5
ENDBRANCH   3   4
ENDBRANCH   2   3
BRANCH   2  23
HETATM   23  C   UNL     1     -11.664  13.733  67.379  1.00  0.00    -0.417 A  
HETATM   24  F   UNL     1     -13.043  13.695  71.323  1.00  0.00    -0.389 F  
HETATM   25  C   UNL     1     -12.106  13.734  68.711  1.00  0.00    -0.344 A  
HETATM   26  F   UNL     1     -10.780  17.726  66.030  1.00  0.00    -0.349 F  
HETATM   27  C   UNL     1     -11.923  14.854  69.538  1.00  0.00    -0.347 A  
HETATM   28  C   UNL     1     -11.275  15.985  69.017  1.00  0.00    -0.347 A  
HETATM   29  F   UNL     1      -8.857  16.974  66.715  1.00  0.00    -0.214 F  
HETATM   30  C   UNL     1     -12.431  14.858  70.961  1.00  0.00    -0.330 C  
HETATM   31  F   UNL     1     -10.042  18.263  68.003  1.00  0.00    -0.298 F  
HETATM   32  C   UNL     1     -10.130  17.228  67.120  1.00  0.00    -0.297 C  
HETATM   33  F   UNL     1     -11.437  15.056  71.869  1.00  0.00    -0.408 F  
HETATM   34  F   UNL     1     -13.344  15.842  71.181  1.00  0.00    -0.543 F  
HETATM   35  C   UNL     1     -11.016  14.877  66.884  1.00  0.00    -0.327 A  
HETATM   36  C   UNL     1     -10.815  16.009  67.691  1.00  0.00    -0.311 A  
ENDBRANCH   2  23
TORSDOF 5
ENDMDL
MODEL       43
REMARK 921   NORMALIZED FREE ENERGY PREDICTED BY IDOCK:   -6.77 KCAL/MOL
REMARK 922        TOTAL FREE ENERGY PREDICTED BY IDOCK:  -11.61 KCAL/MOL
REMARK 923 INTER-LIGAND FREE ENERGY PREDICTED BY IDOCK:  -10.23 KCAL/MOL
REMARK 924 INTRA-LIGAND FREE ENERGY PREDICTED BY IDOCK:   -1.38 KCAL/MOL
REMARK 927      BINDING AFFINITY PREDICTED BY RF-SCORE:    0.00 PKD
ROOT
HETATM    1  C   UNL     1     -12.460  14.206  65.742  1.00  0.00    -0.490 C  
HETATM    2  C   UNL     1     -12.103  13.513  67.056  1.00  0.00    -0.354 C  
ENDROOT
BRANCH   2   3
HETATM    3  O   UNL     1     -11.001  12.622  66.887  1.00  0.00    -0.249 OA 
BRANCH   3   4
HETATM    4  C   UNL     1     -11.375  11.238  66.806  1.00  0.00    -0.111 C  
BRANCH   4   5
HETATM    5  C   UNL     1     -10.388  10.379  67.673  1.00  0.00    -0.219 C  
HETATM    6  C   UNL     1      -8.152   9.866  65.742  1.00  0.00    -0.123 C  
HETATM    7  C   UNL     1      -9.453   9.050  65.682  1.00  0.00    -0.273 C  
HETATM    8  N   UNL     1      -7.652  10.075  64.401  1.00  0.00    -0.143 NA 
HETATM    9  H   UNL     1      -8.465  10.638  68.431  1.00  0.00     0.000 HD 
HETATM   10  C   UNL     1     -10.161   8.985  67.037  1.00  0.00    -0.318 C  
HETATM   11  O   UNL     1      -5.644  10.180  63.295  1.00  0.00    -0.105 OA 
HETATM   12  C   UNL     1      -8.396  11.222  66.456  1.00  0.00    -0.168 C  
HETATM   13  C   UNL     1      -7.013   9.080  66.419  1.00  0.00    -0.080 C  
HETATM   14  C   UNL     1      -6.296   9.901  64.286  1.00  0.00    -0.125 C  
HETATM   15  C   UNL     1      -5.765   9.342  65.573  1.00  0.00    -0.053 C  
HETATM   16  N   UNL     1      -9.076  11.088  67.749  1.00  0.00    -0.145 NA 
BRANCH   5  17
HETATM   17  C   UNL     1     -10.949  10.157  69.104  1.00  0.00    -0.270 A  
HETATM   18  C   UNL     1     -11.931   9.750  71.730  1.00  0.00    -0.388 A  
HETATM   19  C   UNL     1     -10.753   9.131  71.321  1.00  0.00    -0.401 A  
HETATM   20  C   UNL     1     -10.273   9.330  70.021  1.00  0.00    -0.244 A  
HETATM   21  C   UNL     1     -12.157  10.738  69.536  1.00  0.00    -0.344 A  
HETATM   22  C   UNL     1     -12.635  10.545  70.837  1.00  0.00    -0.493 A  
ENDBRANCH   5  17
ENDBRANCH   4   5
ENDBRANCH   3   4
ENDBRANCH   2   3
BRANCH   2  23
HETATM   23  C   UNL     1     -11.729  14.564  68.090  1.00  0.00    -0.369 A  
HETATM   24  F   UNL     1     -12.811  13.926  72.074  1.00  0.00    -0.379 F  
HETATM   25  C   UNL     1     -12.071  14.363  69.436  1.00  0.00    -0.338 A  
HETATM   26  F   UNL     1     -10.926  18.720  67.295  1.00  0.00    -0.472 F  
HETATM   27  C   UNL     1     -11.821  15.346  70.406  1.00  0.00    -0.366 A  
HETATM   28  C   UNL     1     -11.208  16.547  70.015  1.00  0.00    -0.159 A  
HETATM   29  F   UNL     1      -8.962  17.885  67.714  1.00  0.00    -0.242 F  
HETATM   30  C   UNL     1     -12.222  15.133  71.847  1.00  0.00    -0.361 C  
HETATM   31  F   UNL     1     -10.041  18.959  69.266  1.00  0.00    -0.415 F  
HETATM   32  C   UNL     1     -10.200  18.068  68.246  1.00  0.00    -0.395 C  
HETATM   33  F   UNL     1     -11.163  15.198  72.699  1.00  0.00    -0.512 F  
HETATM   34  F   UNL     1     -13.112  16.068  72.280  1.00  0.00    -0.481 F  
HETATM   35  C   UNL     1     -11.114  15.773  67.725  1.00  0.00    -0.313 A  
HETATM   36  C   UNL     1     -10.848  16.772  68.677  1.00  0.00    -0.336 A  
ENDBRANCH   2  23
TORSDOF 5
ENDMDL
MODEL       44
REMARK 921   NORMALIZED FREE ENERGY PREDICTED BY IDOCK:   -6.76 KCAL/MOL
REMARK 922        TOTAL FREE ENERGY PREDICTED BY IDOCK:  -11.60 KCAL/MOL
REMARK 923 INTER-LIGAND FREE ENERGY PREDICTED BY IDOCK:  -10.50 KCAL/MOL
REMARK 924 INTRA-LIGAND FREE ENERGY PREDICTED BY IDOCK:   -1.10 KCAL/MOL
REMARK 927      BINDING AFFINITY PREDICTED BY RF-SCORE:    0.00 PKD
ROOT
HETATM    1  C   UNL     1     -12.640  13.895  65.819  1.00  0.00    -0.533 C  
HETATM    2  C   UNL     1     -11.762  13.336  66.937  1.00  0.00    -0.388 C  
ENDROOT
BRANCH   2   3
HETATM    3  O   UNL     1     -10.492  12.919  66.436  1.00  0.00    -0.261 OA 
BRANCH   3   4
HETATM    4  C   UNL     1      -9.672  12.249  67.405  1.00  0.00    -0.185 C  
BRANCH   4   5
HETATM    5  C   UNL     1      -9.582  10.723  67.048  1.00  0.00    -0.169 C  
HETATM    6  C   UNL     1     -10.365   9.433  69.639  1.00  0.00    -0.216 C  
HETATM    7  C   UNL     1      -8.946   9.983  69.425  1.00  0.00    -0.205 C  
HETATM    8  N   UNL     1     -10.761   9.644  71.014  1.00  0.00    -0.331 NA 
HETATM    9  H   UNL     1     -10.939   9.150  66.898  1.00  0.00     0.000 HD 
HETATM   10  C   UNL     1      -8.548  10.003  67.948  1.00  0.00    -0.121 C  
HETATM   11  O   UNL     1     -11.955   8.577  72.659  1.00  0.00    -0.373 OA 
HETATM   12  C   UNL     1     -11.362  10.117  68.667  1.00  0.00    -0.112 C  
HETATM   13  C   UNL     1     -10.413   7.900  69.495  1.00  0.00    -0.226 C  
HETATM   14  C   UNL     1     -11.397   8.566  71.576  1.00  0.00    -0.283 C  
HETATM   15  C   UNL     1     -11.308   7.402  70.632  1.00  0.00    -0.304 C  
HETATM   16  N   UNL     1     -10.921  10.100  67.268  1.00  0.00    -0.237 NA 
BRANCH   5  17
HETATM   17  C   UNL     1      -9.144  10.519  65.572  1.00  0.00    -0.214 A  
HETATM   18  C   UNL     1      -8.316  10.117  62.893  1.00  0.00    -0.169 A  
HETATM   19  C   UNL     1      -7.385  10.073  63.927  1.00  0.00    -0.131 A  
HETATM   20  C   UNL     1      -7.796  10.277  65.249  1.00  0.00    -0.145 A  
HETATM   21  C   UNL     1     -10.055  10.595  64.501  1.00  0.00    -0.421 A  
HETATM   22  C   UNL     1      -9.647  10.386  63.179  1.00  0.00    -0.346 A  
ENDBRANCH   5  17
ENDBRANCH   4   5
ENDBRANCH   3   4
ENDBRANCH   2   3
BRANCH   2  23
HETATM   23  C   UNL     1     -11.543  14.414  67.988  1.00  0.00    -0.357 A  
HETATM   24  F   UNL     1     -12.881  13.712  71.883  1.00  0.00    -0.390 F  
HETATM   25  C   UNL     1     -11.973  14.193  69.305  1.00  0.00    -0.382 A  
HETATM   26  F   UNL     1     -10.979  18.614  67.222  1.00  0.00    -0.457 F  
HETATM   27  C   UNL     1     -11.868  15.194  70.284  1.00  0.00    -0.352 A  
HETATM   28  C   UNL     1     -11.314  16.435  69.930  1.00  0.00    -0.175 A  
HETATM   29  F   UNL     1      -8.998  17.923  67.796  1.00  0.00    -0.242 F  
HETATM   30  C   UNL     1     -12.362  14.957  71.692  1.00  0.00    -0.340 C  
HETATM   31  F   UNL     1     -10.267  18.921  69.252  1.00  0.00    -0.410 F  
HETATM   32  C   UNL     1     -10.284  18.018  68.231  1.00  0.00    -0.395 C  
HETATM   33  F   UNL     1     -11.379  15.100  72.621  1.00  0.00    -0.511 F  
HETATM   34  F   UNL     1     -13.347  15.827  72.047  1.00  0.00    -0.458 F  
HETATM   35  C   UNL     1     -10.989  15.663  67.661  1.00  0.00    -0.315 A  
HETATM   36  C   UNL     1     -10.868  16.681  68.622  1.00  0.00    -0.344 A  
ENDBRANCH   2  23
TORSDOF 5
ENDMDL
MODEL       45
REMARK 921   NORMALIZED FREE ENERGY PREDICTED BY IDOCK:   -6.74 KCAL/MOL
REMARK 922        TOTAL FREE ENERGY PREDICTED BY IDOCK:  -11.58 KCAL/MOL
REMARK 923 INTER-LIGAND FREE ENERGY PREDICTED BY IDOCK:  -10.23 KCAL/MOL
REMARK 924 INTRA-LIGAND FREE ENERGY PREDICTED BY IDOCK:   -1.35 KCAL/MOL
REMARK 927      BINDING AFFINITY PREDICTED BY RF-SCORE:    0.00 PKD
ROOT
HETATM    1  C   UNL     1     -12.720   9.272  71.752  1.00  0.00    -0.462 C  
HETATM    2  C   UNL     1     -11.487   9.720  70.969  1.00  0.00    -0.383 C  
ENDROOT
BRANCH   2   3
HETATM    3  O   UNL     1     -11.131   8.762  69.973  1.00  0.00    -0.237 OA 
BRANCH   3   4
HETATM    4  C   UNL     1      -9.813   8.217  70.129  1.00  0.00    -0.184 C  
BRANCH   4   5
HETATM    5  C   UNL     1      -9.908   6.660  70.304  1.00  0.00    -0.174 C  
HETATM    6  C   UNL     1      -9.580   5.699  67.482  1.00  0.00    -0.118 C  
HETATM    7  C   UNL     1     -10.927   6.246  67.981  1.00  0.00    -0.418 C  
HETATM    8  N   UNL     1      -9.389   6.077  66.099  1.00  0.00    -0.148 NA 
HETATM    9  H   UNL     1      -8.609   5.053  70.044  1.00  0.00     0.000 HD 
HETATM   10  C   UNL     1     -11.096   6.084  69.493  1.00  0.00    -0.468 C  
HETATM   11  O   UNL     1      -8.503   5.207  64.170  1.00  0.00    -0.134 OA 
HETATM   12  C   UNL     1      -8.421   6.231  68.365  1.00  0.00    -0.115 C  
HETATM   13  C   UNL     1      -9.573   4.159  67.425  1.00  0.00    -0.222 C  
HETATM   14  C   UNL     1      -8.889   5.068  65.316  1.00  0.00    -0.153 C  
HETATM   15  C   UNL     1      -8.881   3.794  66.110  1.00  0.00    -0.127 C  
HETATM   16  N   UNL     1      -8.645   6.043  69.802  1.00  0.00    -0.129 NA 
BRANCH   5  17
HETATM   17  C   UNL     1     -10.126   6.276  71.793  1.00  0.00    -0.211 A  
HETATM   18  C   UNL     1     -10.513   5.534  74.499  1.00  0.00    -0.185 A  
HETATM   19  C   UNL     1     -10.897   4.672  73.476  1.00  0.00    -0.362 A  
HETATM   20  C   UNL     1     -10.709   5.043  72.140  1.00  0.00    -0.227 A  
HETATM   21  C   UNL     1      -9.784   7.142  72.849  1.00  0.00    -0.200 A  
HETATM   22  C   UNL     1      -9.965   6.770  74.185  1.00  0.00    -0.373 A  
ENDBRANCH   5  17
ENDBRANCH   4   5
ENDBRANCH   3   4
ENDBRANCH   2   3
BRANCH   2  23
HETATM   23  C   UNL     1     -11.782  11.048  70.288  1.00  0.00    -0.445 A  
HETATM   24  F   UNL     1     -11.040  11.404  66.192  1.00  0.00    -0.333 F  
HETATM   25  C   UNL     1     -11.553  11.184  68.910  1.00  0.00    -0.385 A  
HETATM   26  F   UNL     1     -11.974  14.892  72.220  1.00  0.00    -0.385 F  
HETATM   27  C   UNL     1     -11.729  12.416  68.261  1.00  0.00    -0.398 A  
HETATM   28  C   UNL     1     -12.152  13.526  69.011  1.00  0.00    -0.330 A  
HETATM   29  F   UNL     1     -14.055  14.428  71.785  1.00  0.00    -0.420 F  
HETATM   30  C   UNL     1     -11.449  12.561  66.783  1.00  0.00    -0.362 C  
HETATM   31  F   UNL     1     -12.939  15.756  70.474  1.00  0.00    -0.483 F  
HETATM   32  C   UNL     1     -12.838  14.609  71.204  1.00  0.00    -0.343 C  
HETATM   33  F   UNL     1     -12.541  12.973  66.084  1.00  0.00    -0.441 F  
HETATM   34  F   UNL     1     -10.471  13.473  66.529  1.00  0.00    -0.271 F  
HETATM   35  C   UNL     1     -12.207  12.173  71.014  1.00  0.00    -0.227 A  
HETATM   36  C   UNL     1     -12.396  13.416  70.389  1.00  0.00    -0.382 A  
ENDBRANCH   2  23
TORSDOF 5
ENDMDL
MODEL       46
REMARK 921   NORMALIZED FREE ENERGY PREDICTED BY IDOCK:   -6.73 KCAL/MOL
REMARK 922        TOTAL FREE ENERGY PREDICTED BY IDOCK:  -11.55 KCAL/MOL
REMARK 923 INTER-LIGAND FREE ENERGY PREDICTED BY IDOCK:  -10.27 KCAL/MOL
REMARK 924 INTRA-LIGAND FREE ENERGY PREDICTED BY IDOCK:   -1.28 KCAL/MOL
REMARK 927      BINDING AFFINITY PREDICTED BY RF-SCORE:    0.00 PKD
ROOT
HETATM    1  C   UNL     1     -10.965  13.535  65.435  1.00  0.00    -0.300 C  
HETATM    2  C   UNL     1     -11.951  13.421  66.596  1.00  0.00    -0.399 C  
ENDROOT
BRANCH   2   3
HETATM    3  O   UNL     1     -11.811  12.171  67.271  1.00  0.00    -0.530 OA 
BRANCH   3   4
HETATM    4  C   UNL     1     -10.571  12.026  67.981  1.00  0.00    -0.208 C  
BRANCH   4   5
HETATM    5  C   UNL     1     -10.410  10.536  68.450  1.00  0.00    -0.176 C  
HETATM    6  C   UNL     1      -8.559   9.428  66.367  1.00  0.00    -0.134 C  
HETATM    7  C   UNL     1     -10.060   9.602  66.082  1.00  0.00    -0.328 C  
HETATM    8  N   UNL     1      -7.806   9.700  65.163  1.00  0.00    -0.112 NA 
HETATM    9  H   UNL     1      -8.843   9.366  69.167  1.00  0.00     0.000 HD 
HETATM   10  C   UNL     1     -10.903   9.555  67.358  1.00  0.00    -0.215 C  
HETATM   11  O   UNL     1      -5.933   8.935  64.079  1.00  0.00    -0.070 OA 
HETATM   12  C   UNL     1      -8.116  10.367  67.520  1.00  0.00    -0.107 C  
HETATM   13  C   UNL     1      -8.202   7.962  66.677  1.00  0.00    -0.119 C  
HETATM   14  C   UNL     1      -6.789   8.808  64.936  1.00  0.00    -0.073 C  
HETATM   15  C   UNL     1      -6.900   7.682  65.923  1.00  0.00    -0.057 C  
HETATM   16  N   UNL     1      -8.965  10.271  68.712  1.00  0.00    -0.147 NA 
BRANCH   5  17
HETATM   17  C   UNL     1     -11.236  10.262  69.736  1.00  0.00    -0.339 A  
HETATM   18  C   UNL     1     -12.776   9.786  72.066  1.00  0.00    -0.463 A  
HETATM   19  C   UNL     1     -12.835  11.023  71.430  1.00  0.00    -0.548 A  
HETATM   20  C   UNL     1     -12.070  11.257  70.282  1.00  0.00    -0.459 A  
HETATM   21  C   UNL     1     -11.169   9.035  70.424  1.00  0.00    -0.275 A  
HETATM   22  C   UNL     1     -11.938   8.797  71.569  1.00  0.00    -0.386 A  
ENDBRANCH   5  17
ENDBRANCH   4   5
ENDBRANCH   3   4
ENDBRANCH   2   3
BRANCH   2  23
HETATM   23  C   UNL     1     -11.691  14.545  67.587  1.00  0.00    -0.410 A  
HETATM   24  F   UNL     1      -8.999  17.560  66.532  1.00  0.00    -0.243 F  
HETATM   25  C   UNL     1     -10.801  15.574  67.246  1.00  0.00    -0.313 A  
HETATM   26  F   UNL     1     -12.281  14.344  71.848  1.00  0.00    -0.372 F  
HETATM   27  C   UNL     1     -10.467  16.582  68.165  1.00  0.00    -0.313 A  
HETATM   28  C   UNL     1     -11.048  16.556  69.443  1.00  0.00    -0.253 A  
HETATM   29  F   UNL     1     -13.923  15.593  71.157  1.00  0.00    -0.550 F  
HETATM   30  C   UNL     1      -9.483  17.669  67.801  1.00  0.00    -0.260 C  
HETATM   31  F   UNL     1     -12.140  16.507  72.001  1.00  0.00    -0.498 F  
HETATM   32  C   UNL     1     -12.565  15.501  71.187  1.00  0.00    -0.448 C  
HETATM   33  F   UNL     1     -10.025  18.914  67.888  1.00  0.00    -0.320 F  
HETATM   34  F   UNL     1      -8.393  17.673  68.615  1.00  0.00    -0.267 F  
HETATM   35  C   UNL     1     -12.260  14.543  68.871  1.00  0.00    -0.194 A  
HETATM   36  C   UNL     1     -11.948  15.543  69.808  1.00  0.00    -0.384 A  
ENDBRANCH   2  23
TORSDOF 5
ENDMDL
MODEL       47
REMARK 921   NORMALIZED FREE ENERGY PREDICTED BY IDOCK:   -6.72 KCAL/MOL
REMARK 922        TOTAL FREE ENERGY PREDICTED BY IDOCK:  -11.55 KCAL/MOL
REMARK 923 INTER-LIGAND FREE ENERGY PREDICTED BY IDOCK:  -10.19 KCAL/MOL
REMARK 924 INTRA-LIGAND FREE ENERGY PREDICTED BY IDOCK:   -1.36 KCAL/MOL
REMARK 927      BINDING AFFINITY PREDICTED BY RF-SCORE:    0.00 PKD
ROOT
HETATM    1  C   UNL     1      -8.398  10.465  67.272  1.00  0.00    -0.122 C  
HETATM    2  C   UNL     1      -9.094  11.140  68.453  1.00  0.00    -0.168 C  
ENDROOT
BRANCH   2   3
HETATM    3  O   UNL     1      -9.900  12.235  68.019  1.00  0.00    -0.192 OA 
BRANCH   3   4
HETATM    4  C   UNL     1      -9.173  13.257  67.320  1.00  0.00    -0.222 C  
BRANCH   4   5
HETATM    5  C   UNL     1     -10.181  14.175  66.542  1.00  0.00    -0.278 C  
HETATM    6  C   UNL     1      -9.681  16.851  67.801  1.00  0.00    -0.250 C  
HETATM    7  C   UNL     1     -10.553  15.796  68.501  1.00  0.00    -0.253 C  
HETATM    8  N   UNL     1      -8.931  17.590  68.791  1.00  0.00    -0.250 NA 
HETATM    9  H   UNL     1     -10.016  15.777  65.220  1.00  0.00     0.000 HD 
HETATM   10  C   UNL     1     -11.200  14.826  67.510  1.00  0.00    -0.339 C  
HETATM   11  O   UNL     1      -8.198  19.732  69.169  1.00  0.00    -0.221 OA 
HETATM   12  C   UNL     1      -8.730  16.174  66.779  1.00  0.00    -0.240 C  
HETATM   13  C   UNL     1     -10.535  17.942  67.125  1.00  0.00    -0.359 C  
HETATM   14  C   UNL     1      -8.898  18.942  68.560  1.00  0.00    -0.352 C  
HETATM   15  C   UNL     1      -9.838  19.268  67.436  1.00  0.00    -0.425 C  
HETATM   16  N   UNL     1      -9.413  15.258  65.859  1.00  0.00    -0.334 NA 
BRANCH   5  17
HETATM   17  C   UNL     1     -10.985  13.359  65.493  1.00  0.00    -0.294 A  
HETATM   18  C   UNL     1     -12.418  11.843  63.577  1.00  0.00    -0.609 A  
HETATM   19  C   UNL     1     -11.031  11.923  63.508  1.00  0.00    -0.505 A  
HETATM   20  C   UNL     1     -10.325  12.677  64.453  1.00  0.00    -0.386 A  
HETATM   21  C   UNL     1     -12.391  13.291  65.512  1.00  0.00    -0.533 A  
HETATM   22  C   UNL     1     -13.098  12.532  64.572  1.00  0.00    -0.044 A  
ENDBRANCH   5  17
ENDBRANCH   4   5
ENDBRANCH   3   4
ENDBRANCH   2   3
BRANCH   2  23
HETATM   23  C   UNL     1      -9.982  10.127  69.158  1.00  0.00    -0.221 A  
HETATM   24  F   UNL     1     -13.062  11.528  71.608  1.00  0.00    -0.490 F  
HETATM   25  C   UNL     1     -11.031  10.576  69.974  1.00  0.00    -0.351 A  
HETATM   26  F   UNL     1      -8.933   6.052  70.077  1.00  0.00    -0.137 F  
HETATM   27  C   UNL     1     -11.818   9.677  70.710  1.00  0.00    -0.378 A  
HETATM   28  C   UNL     1     -11.550   8.302  70.613  1.00  0.00    -0.199 A  
HETATM   29  F   UNL     1     -10.349   5.864  68.436  1.00  0.00    -0.168 F  
HETATM   30  C   UNL     1     -12.925  10.172  71.612  1.00  0.00    -0.456 C  
HETATM   31  F   UNL     1     -11.014   5.575  70.485  1.00  0.00    -0.342 F  
HETATM   32  C   UNL     1     -10.209   6.346  69.700  1.00  0.00    -0.189 C  
HETATM   33  F   UNL     1     -14.142   9.672  71.267  1.00  0.00    -0.310 F  
HETATM   34  F   UNL     1     -12.728   9.823  72.912  1.00  0.00    -0.167 F  
HETATM   35  C   UNL     1      -9.736   8.746  69.076  1.00  0.00    -0.172 A  
HETATM   36  C   UNL     1     -10.512   7.823  69.798  1.00  0.00    -0.233 A  
ENDBRANCH   2  23
TORSDOF 5
ENDMDL
MODEL       48
REMARK 921   NORMALIZED FREE ENERGY PREDICTED BY IDOCK:   -6.71 KCAL/MOL
REMARK 922        TOTAL FREE ENERGY PREDICTED BY IDOCK:  -11.53 KCAL/MOL
REMARK 923 INTER-LIGAND FREE ENERGY PREDICTED BY IDOCK:  -10.36 KCAL/MOL
REMARK 924 INTRA-LIGAND FREE ENERGY PREDICTED BY IDOCK:   -1.17 KCAL/MOL
REMARK 927      BINDING AFFINITY PREDICTED BY RF-SCORE:    0.00 PKD
ROOT
HETATM    1  C   UNL     1      -6.908  12.288  67.502  1.00  0.00    -0.135 C  
HETATM    2  C   UNL     1      -8.378  11.880  67.431  1.00  0.00    -0.163 C  
ENDROOT
BRANCH   2   3
HETATM    3  O   UNL     1      -8.872  11.505  68.717  1.00  0.00    -0.138 OA 
BRANCH   3   4
HETATM    4  C   UNL     1      -8.736  10.106  69.012  1.00  0.00    -0.161 C  
BRANCH   4   5
HETATM    5  C   UNL     1     -10.148   9.423  68.968  1.00  0.00    -0.194 C  
HETATM    6  C   UNL     1      -9.704   7.211  66.992  1.00  0.00    -0.170 C  
HETATM    7  C   UNL     1      -9.939   8.656  66.523  1.00  0.00    -0.353 C  
HETATM    8  N   UNL     1      -8.763   6.565  66.105  1.00  0.00    -0.144 NA 
HETATM    9  H   UNL     1     -10.917   7.564  69.507  1.00  0.00     0.000 HD 
HETATM   10  C   UNL     1     -10.743   9.472  67.538  1.00  0.00    -0.311 C  
HETATM   11  O   UNL     1      -8.395   4.500  65.172  1.00  0.00    -0.115 OA 
HETATM   12  C   UNL     1      -9.186   7.194  68.454  1.00  0.00    -0.133 C  
HETATM   13  C   UNL     1     -10.971   6.347  66.843  1.00  0.00    -0.413 C  
HETATM   14  C   UNL     1      -9.113   5.281  65.771  1.00  0.00    -0.157 C  
HETATM   15  C   UNL     1     -10.498   5.006  66.280  1.00  0.00    -0.352 C  
HETATM   16  N   UNL     1     -10.001   7.994  69.374  1.00  0.00    -0.186 NA 
BRANCH   5  17
HETATM   17  C   UNL     1     -11.146  10.140  69.917  1.00  0.00    -0.346 A  
HETATM   18  C   UNL     1     -12.981  11.471  71.615  1.00  0.00    -0.499 A  
HETATM   19  C   UNL     1     -12.349  12.165  70.588  1.00  0.00    -0.385 A  
HETATM   20  C   UNL     1     -11.439  11.507  69.754  1.00  0.00    -0.362 A  
HETATM   21  C   UNL     1     -11.772   9.474  70.989  1.00  0.00    -0.419 A  
HETATM   22  C   UNL     1     -12.687  10.130  71.820  1.00  0.00    -0.534 A  
ENDBRANCH   5  17
ENDBRANCH   4   5
ENDBRANCH   3   4
ENDBRANCH   2   3
BRANCH   2  23
HETATM   23  C   UNL     1      -9.199  13.051  66.914  1.00  0.00    -0.236 A  
HETATM   24  F   UNL     1     -12.813  12.261  64.974  1.00  0.00    -0.498 F  
HETATM   25  C   UNL     1     -10.422  12.808  66.271  1.00  0.00    -0.273 A  
HETATM   26  F   UNL     1      -7.686  16.966  65.948  1.00  0.00    -0.335 F  
HETATM   27  C   UNL     1     -11.167  13.854  65.703  1.00  0.00    -0.306 A  
HETATM   28  C   UNL     1     -10.674  15.166  65.793  1.00  0.00    -0.359 A  
HETATM   29  F   UNL     1      -8.772  17.276  67.808  1.00  0.00    -0.214 F  
HETATM   30  C   UNL     1     -12.468  13.579  64.986  1.00  0.00    -0.417 C  
HETATM   31  F   UNL     1      -9.705  17.770  65.907  1.00  0.00    -0.263 F  
HETATM   32  C   UNL     1      -8.915  16.847  66.524  1.00  0.00    -0.272 C  
HETATM   33  F   UNL     1     -13.520  14.236  65.543  1.00  0.00    -0.467 F  
HETATM   34  F   UNL     1     -12.430  13.964  63.681  1.00  0.00    -0.484 F  
HETATM   35  C   UNL     1      -8.730  14.373  66.992  1.00  0.00    -0.244 A  
HETATM   36  C   UNL     1      -9.457  15.439  66.437  1.00  0.00    -0.325 A  
ENDBRANCH   2  23
TORSDOF 5
ENDMDL
MODEL       49
REMARK 921   NORMALIZED FREE ENERGY PREDICTED BY IDOCK:   -6.70 KCAL/MOL
REMARK 922        TOTAL FREE ENERGY PREDICTED BY IDOCK:  -11.52 KCAL/MOL
REMARK 923 INTER-LIGAND FREE ENERGY PREDICTED BY IDOCK:   -9.38 KCAL/MOL
REMARK 924 INTRA-LIGAND FREE ENERGY PREDICTED BY IDOCK:   -2.15 KCAL/MOL
REMARK 927      BINDING AFFINITY PREDICTED BY RF-SCORE:    0.00 PKD
ROOT
HETATM    1  C   UNL     1     -12.155  11.796  70.184  1.00  0.00    -0.398 C  
HETATM    2  C   UNL     1     -11.748  11.948  68.720  1.00  0.00    -0.321 C  
ENDROOT
BRANCH   2   3
HETATM    3  O   UNL     1     -10.764  12.970  68.562  1.00  0.00    -0.243 OA 
BRANCH   3   4
HETATM    4  C   UNL     1     -11.286  14.214  68.071  1.00  0.00    -0.281 C  
BRANCH   4   5
HETATM    5  C   UNL     1     -10.572  14.584  66.722  1.00  0.00    -0.276 C  
HETATM    6  C   UNL     1      -8.787  16.842  67.566  1.00  0.00    -0.200 C  
HETATM    7  C   UNL     1     -10.285  17.070  67.306  1.00  0.00    -0.310 C  
HETATM    8  N   UNL     1      -8.353  17.686  68.657  1.00  0.00    -0.286 NA 
HETATM    9  H   UNL     1      -8.618  14.505  66.005  1.00  0.00     0.000 HD 
HETATM   10  C   UNL     1     -10.866  16.052  66.324  1.00  0.00    -0.166 C  
HETATM   11  O   UNL     1      -6.515  18.913  69.275  1.00  0.00    -0.271 OA 
HETATM   12  C   UNL     1      -8.515  15.347  67.882  1.00  0.00    -0.147 C  
HETATM   13  C   UNL     1      -7.921  17.325  66.386  1.00  0.00    -0.338 C  
HETATM   14  C   UNL     1      -7.142  18.293  68.435  1.00  0.00    -0.257 C  
HETATM   15  C   UNL     1      -6.727  18.046  67.014  1.00  0.00    -0.204 C  
HETATM   16  N   UNL     1      -9.098  14.426  66.902  1.00  0.00    -0.241 NA 
BRANCH   5  17
HETATM   17  C   UNL     1     -11.061  13.675  65.562  1.00  0.00    -0.301 A  
HETATM   18  C   UNL     1     -11.915  11.995  63.448  1.00  0.00    -0.571 A  
HETATM   19  C   UNL     1     -10.576  12.360  63.553  1.00  0.00    -0.451 A  
HETATM   20  C   UNL     1     -10.158  13.194  64.596  1.00  0.00    -0.248 A  
HETATM   21  C   UNL     1     -12.414  13.319  65.407  1.00  0.00    -0.543 A  
HETATM   22  C   UNL     1     -12.834  12.480  64.368  1.00  0.00    -0.366 A  
ENDBRANCH   5  17
ENDBRANCH   4   5
ENDBRANCH   3   4
ENDBRANCH   2   3
BRANCH   2  23
HETATM   23  C   UNL     1     -11.171  10.632  68.221  1.00  0.00    -0.362 A  
HETATM   24  F   UNL     1     -11.519   7.247  70.644  1.00  0.00    -0.283 F  
HETATM   25  C   UNL     1     -11.289   9.481  69.013  1.00  0.00     0.116 A  
HETATM   26  F   UNL     1      -8.040  10.192  65.297  1.00  0.00    -0.127 F  
HETATM   27  C   UNL     1     -10.695   8.268  68.629  1.00  0.00    -0.068 A  
HETATM   28  C   UNL     1      -9.979   8.214  67.423  1.00  0.00    -0.271 A  
HETATM   29  F   UNL     1      -9.835   9.589  64.226  1.00  0.00    -0.184 F  
HETATM   30  C   UNL     1     -10.801   7.041  69.504  1.00  0.00    -0.238 C  
HETATM   31  F   UNL     1      -8.510   8.084  65.064  1.00  0.00    -0.147 F  
HETATM   32  C   UNL     1      -9.070   9.301  65.314  1.00  0.00    -0.215 C  
HETATM   33  F   UNL     1     -11.399   5.997  68.869  1.00  0.00    -0.414 F  
HETATM   34  F   UNL     1      -9.584   6.589  69.910  1.00  0.00    -0.152 F  
HETATM   35  C   UNL     1     -10.451  10.551  67.017  1.00  0.00    -0.304 A  
HETATM   36  C   UNL     1      -9.851   9.349  66.606  1.00  0.00    -0.309 A  
ENDBRANCH   2  23
TORSDOF 5
ENDMDL
MODEL       50
REMARK 921   NORMALIZED FREE ENERGY PREDICTED BY IDOCK:   -6.67 KCAL/MOL
REMARK 922        TOTAL FREE ENERGY PREDICTED BY IDOCK:  -11.48 KCAL/MOL
REMARK 923 INTER-LIGAND FREE ENERGY PREDICTED BY IDOCK:  -10.23 KCAL/MOL
REMARK 924 INTRA-LIGAND FREE ENERGY PREDICTED BY IDOCK:   -1.25 KCAL/MOL
REMARK 927      BINDING AFFINITY PREDICTED BY RF-SCORE:    0.00 PKD
ROOT
HETATM    1  C   UNL     1      -7.022  12.929  68.198  1.00  0.00    -0.102 C  
HETATM    2  C   UNL     1      -8.297  12.253  67.696  1.00  0.00    -0.166 C  
ENDROOT
BRANCH   2   3
HETATM    3  O   UNL     1      -9.067  11.735  68.780  1.00  0.00    -0.110 OA 
BRANCH   3   4
HETATM    4  C   UNL     1      -8.879  10.330  69.013  1.00  0.00    -0.168 C  
BRANCH   4   5
HETATM    5  C   UNL     1     -10.273   9.609  69.011  1.00  0.00    -0.199 C  
HETATM    6  C   UNL     1      -9.820   7.390  67.045  1.00  0.00    -0.209 C  
HETATM    7  C   UNL     1     -10.106   8.824  66.570  1.00  0.00    -0.349 C  
HETATM    8  N   UNL     1      -8.885   6.760  66.140  1.00  0.00    -0.151 NA 
HETATM    9  H   UNL     1     -10.978   7.736  69.588  1.00  0.00     0.000 HD 
HETATM   10  C   UNL     1     -10.905   9.628  67.597  1.00  0.00    -0.276 C  
HETATM   11  O   UNL     1      -8.486   4.697  65.218  1.00  0.00    -0.119 OA 
HETATM   12  C   UNL     1      -9.265   7.402  68.494  1.00  0.00    -0.142 C  
HETATM   13  C   UNL     1     -11.067   6.492  66.937  1.00  0.00    -0.342 C  
HETATM   14  C   UNL     1      -9.209   5.464  65.827  1.00  0.00    -0.138 C  
HETATM   15  C   UNL     1     -10.572   5.158  66.375  1.00  0.00    -0.336 C  
HETATM   16  N   UNL     1     -10.078   8.189  69.427  1.00  0.00    -0.190 NA 
BRANCH   5  17
HETATM   17  C   UNL     1     -11.266  10.309  69.979  1.00  0.00    -0.376 A  
HETATM   18  C   UNL     1     -13.063  11.558  71.777  1.00  0.00    -0.503 A  
HETATM   19  C   UNL     1     -12.790  10.198  71.894  1.00  0.00    -0.526 A  
HETATM   20  C   UNL     1     -11.906   9.582  71.001  1.00  0.00    -0.408 A  
HETATM   21  C   UNL     1     -11.592  11.673  69.863  1.00  0.00    -0.366 A  
HETATM   22  C   UNL     1     -12.471  12.292  70.759  1.00  0.00    -0.356 A  
ENDBRANCH   5  17
ENDBRANCH   4   5
ENDBRANCH   3   4
ENDBRANCH   2   3
BRANCH   2  23
HETATM   23  C   UNL     1      -9.138  13.271  66.941  1.00  0.00    -0.235 A  
HETATM   24  F   UNL     1      -8.901  17.289  68.059  1.00  0.00    -0.217 F  
HETATM   25  C   UNL     1      -9.063  14.627  67.292  1.00  0.00    -0.215 A  
HETATM   26  F   UNL     1     -12.741  12.433  64.736  1.00  0.00    -0.530 F  
HETATM   27  C   UNL     1      -9.886  15.585  66.679  1.00  0.00    -0.268 A  
HETATM   28  C   UNL     1     -10.793  15.169  65.691  1.00  0.00    -0.367 A  
HETATM   29  F   UNL     1     -11.259  12.795  63.185  1.00  0.00    -0.497 F  
HETATM   30  C   UNL     1      -9.821  17.039  67.086  1.00  0.00    -0.269 C  
HETATM   31  F   UNL     1     -12.636  14.374  63.765  1.00  0.00    -0.440 F  
HETATM   32  C   UNL     1     -11.867  13.364  64.261  1.00  0.00    -0.423 C  
HETATM   33  F   UNL     1      -9.499  17.857  66.048  1.00  0.00    -0.275 F  
HETATM   34  F   UNL     1     -11.008  17.494  67.571  1.00  0.00    -0.342 F  
HETATM   35  C   UNL     1     -10.052  12.882  65.947  1.00  0.00    -0.295 A  
HETATM   36  C   UNL     1     -10.884  13.820  65.314  1.00  0.00    -0.326 A  
ENDBRANCH   2  23
TORSDOF 5
ENDMDL
MODEL       51
REMARK 921   NORMALIZED FREE ENERGY PREDICTED BY IDOCK:   -6.65 KCAL/MOL
REMARK 922        TOTAL FREE ENERGY PREDICTED BY IDOCK:  -11.45 KCAL/MOL
REMARK 923 INTER-LIGAND FREE ENERGY PREDICTED BY IDOCK:   -9.99 KCAL/MOL
REMARK 924 INTRA-LIGAND FREE ENERGY PREDICTED BY IDOCK:   -1.46 KCAL/MOL
REMARK 927      BINDING AFFINITY PREDICTED BY RF-SCORE:    0.00 PKD
ROOT
HETATM    1  C   UNL     1     -11.719  12.175  67.483  1.00  0.00    -0.385 C  
HETATM    2  C   UNL     1     -12.035  12.229  68.976  1.00  0.00    -0.248 C  
ENDROOT
BRANCH   2   3
HETATM    3  O   UNL     1     -11.179  11.360  69.717  1.00  0.00    -0.251 OA 
BRANCH   3   4
HETATM    4  C   UNL     1     -11.518   9.969  69.605  1.00  0.00    -0.155 C  
BRANCH   4   5
HETATM    5  C   UNL     1     -10.212   9.130  69.370  1.00  0.00    -0.210 C  
HETATM    6  C   UNL     1     -10.187   7.338  71.775  1.00  0.00    -0.194 C  
HETATM    7  C   UNL     1      -9.718   8.799  71.871  1.00  0.00    -0.386 C  
HETATM    8  N   UNL     1     -10.855   6.966  73.002  1.00  0.00    -0.284 NA 
HETATM    9  H   UNL     1      -9.780   7.127  68.998  1.00  0.00     0.000 HD 
HETATM   10  C   UNL     1      -9.207   9.334  70.531  1.00  0.00    -0.311 C  
HETATM   11  O   UNL     1     -11.066   5.141  74.377  1.00  0.00    -0.125 OA 
HETATM   12  C   UNL     1     -11.127   7.151  70.556  1.00  0.00    -0.271 C  
HETATM   13  C   UNL     1      -8.999   6.358  71.715  1.00  0.00    -0.139 C  
HETATM   14  C   UNL     1     -10.512   5.719  73.460  1.00  0.00    -0.256 C  
HETATM   15  C   UNL     1      -9.373   5.194  72.635  1.00  0.00    -0.152 C  
HETATM   16  N   UNL     1     -10.577   7.684  69.305  1.00  0.00    -0.220 NA 
BRANCH   5  17
HETATM   17  C   UNL     1      -9.504   9.554  68.055  1.00  0.00    -0.147 A  
HETATM   18  C   UNL     1      -8.173  10.328  65.677  1.00  0.00    -0.153 A  
HETATM   19  C   UNL     1      -7.755  10.829  66.906  1.00  0.00    -0.130 A  
HETATM   20  C   UNL     1      -8.417  10.449  68.079  1.00  0.00    -0.119 A  
HETATM   21  C   UNL     1      -9.927   9.095  66.793  1.00  0.00    -0.322 A  
HETATM   22  C   UNL     1      -9.263   9.469  65.620  1.00  0.00    -0.281 A  
ENDBRANCH   5  17
ENDBRANCH   4   5
ENDBRANCH   3   4
ENDBRANCH   2   3
BRANCH   2  23
HETATM   23  C   UNL     1     -11.841  13.652  69.478  1.00  0.00    -0.394 A  
HETATM   24  F   UNL     1      -9.928  16.408  66.988  1.00  0.00    -0.239 F  
HETATM   25  C   UNL     1     -11.213  14.596  68.652  1.00  0.00    -0.293 A  
HETATM   26  F   UNL     1     -11.748  14.886  73.603  1.00  0.00    -0.435 F  
HETATM   27  C   UNL     1     -10.936  15.894  69.109  1.00  0.00    -0.284 A  
HETATM   28  C   UNL     1     -11.307  16.248  70.417  1.00  0.00    -0.313 A  
HETATM   29  F   UNL     1     -13.674  15.606  72.891  1.00  0.00    -0.532 F  
HETATM   30  C   UNL     1     -10.231  16.895  68.224  1.00  0.00    -0.318 C  
HETATM   31  F   UNL     1     -11.983  16.966  73.018  1.00  0.00    -0.542 F  
HETATM   32  C   UNL     1     -12.333  15.695  72.675  1.00  0.00    -0.427 C  
HETATM   33  F   UNL     1     -10.971  18.017  68.012  1.00  0.00    -0.366 F  
HETATM   34  F   UNL     1      -9.052  17.316  68.757  1.00  0.00    -0.256 F  
HETATM   35  C   UNL     1     -12.204  14.031  70.781  1.00  0.00    -0.438 A  
HETATM   36  C   UNL     1     -11.944  15.325  71.262  1.00  0.00    -0.409 A  
ENDBRANCH   2  23
TORSDOF 5
ENDMDL
MODEL       52
REMARK 921   NORMALIZED FREE ENERGY PREDICTED BY IDOCK:   -6.64 KCAL/MOL
REMARK 922        TOTAL FREE ENERGY PREDICTED BY IDOCK:  -11.45 KCAL/MOL
REMARK 923 INTER-LIGAND FREE ENERGY PREDICTED BY IDOCK:   -8.93 KCAL/MOL
REMARK 924 INTRA-LIGAND FREE ENERGY PREDICTED BY IDOCK:   -2.51 KCAL/MOL
REMARK 927      BINDING AFFINITY PREDICTED BY RF-SCORE:    0.00 PKD
ROOT
HETATM    1  C   UNL     1      -7.120   9.918  70.206  1.00  0.00    -0.155 C  
HETATM    2  C   UNL     1      -8.161   9.121  69.422  1.00  0.00    -0.118 C  
ENDROOT
BRANCH   2   3
HETATM    3  O   UNL     1      -8.445   7.876  70.060  1.00  0.00    -0.130 OA 
BRANCH   3   4
HETATM    4  C   UNL     1      -8.212   6.727  69.231  1.00  0.00    -0.124 C  
BRANCH   4   5
HETATM    5  C   UNL     1      -9.570   5.981  68.979  1.00  0.00    -0.131 C  
HETATM    6  C   UNL     1      -9.374   5.307  66.063  1.00  0.00    -0.158 C  
HETATM    7  C   UNL     1      -9.769   6.719  66.525  1.00  0.00    -0.183 C  
HETATM    8  N   UNL     1      -8.577   5.399  64.861  1.00  0.00    -0.148 NA 
HETATM    9  H   UNL     1     -10.125   4.041  68.462  1.00  0.00     0.000 HD 
HETATM   10  C   UNL     1     -10.417   6.716  67.911  1.00  0.00    -0.267 C  
HETATM   11  O   UNL     1      -8.274   4.264  62.889  1.00  0.00    -0.079 OA 
HETATM   12  C   UNL     1      -8.598   4.568  67.185  1.00  0.00    -0.104 C  
HETATM   13  C   UNL     1     -10.599   4.491  65.607  1.00  0.00    -0.231 C  
HETATM   14  C   UNL     1      -8.912   4.473  63.905  1.00  0.00    -0.136 C  
HETATM   15  C   UNL     1     -10.164   3.763  64.333  1.00  0.00    -0.227 C  
HETATM   16  N   UNL     1      -9.274   4.603  68.486  1.00  0.00    -0.121 NA 
BRANCH   5  17
HETATM   17  C   UNL     1     -10.415   5.904  70.279  1.00  0.00    -0.327 A  
HETATM   18  C   UNL     1     -11.921   5.761  72.674  1.00  0.00    -0.130 A  
HETATM   19  C   UNL     1     -10.717   5.072  72.564  1.00  0.00    -0.271 A  
HETATM   20  C   UNL     1      -9.978   5.140  71.378  1.00  0.00    -0.252 A  
HETATM   21  C   UNL     1     -11.656   6.557  70.407  1.00  0.00    -0.470 A  
HETATM   22  C   UNL     1     -12.394   6.496  71.595  1.00  0.00    -0.315 A  
ENDBRANCH   5  17
ENDBRANCH   4   5
ENDBRANCH   3   4
ENDBRANCH   2   3
BRANCH   2  23
HETATM   23  C   UNL     1      -9.447   9.929  69.332  1.00  0.00    -0.226 A  
HETATM   24  F   UNL     1     -12.256   9.569  72.403  1.00  0.00    -0.377 F  
HETATM   25  C   UNL     1     -10.397   9.833  70.360  1.00  0.00    -0.354 A  
HETATM   26  F   UNL     1     -11.212  11.479  65.722  1.00  0.00    -0.350 F  
HETATM   27  C   UNL     1     -11.633  10.494  70.274  1.00  0.00    -0.417 A  
HETATM   28  C   UNL     1     -11.910  11.271  69.138  1.00  0.00    -0.423 A  
HETATM   29  F   UNL     1     -10.397  13.244  66.698  1.00  0.00    -0.259 F  
HETATM   30  C   UNL     1     -12.663  10.359  71.371  1.00  0.00    -0.446 C  
HETATM   31  F   UNL     1     -12.513  12.779  66.879  1.00  0.00    -0.312 F  
HETATM   32  C   UNL     1     -11.272  12.215  66.867  1.00  0.00    -0.320 C  
HETATM   33  F   UNL     1     -12.996  11.556  71.924  1.00  0.00    -0.521 F  
HETATM   34  F   UNL     1     -13.827   9.814  70.922  1.00  0.00    -0.400 F  
HETATM   35  C   UNL     1      -9.748  10.716  68.208  1.00  0.00    -0.169 A  
HETATM   36  C   UNL     1     -10.974  11.392  68.098  1.00  0.00    -0.284 A  
ENDBRANCH   2  23
TORSDOF 5
ENDMDL
MODEL       53
REMARK 921   NORMALIZED FREE ENERGY PREDICTED BY IDOCK:   -6.64 KCAL/MOL
REMARK 922        TOTAL FREE ENERGY PREDICTED BY IDOCK:  -11.44 KCAL/MOL
REMARK 923 INTER-LIGAND FREE ENERGY PREDICTED BY IDOCK:   -8.67 KCAL/MOL
REMARK 924 INTRA-LIGAND FREE ENERGY PREDICTED BY IDOCK:   -2.77 KCAL/MOL
REMARK 927      BINDING AFFINITY PREDICTED BY RF-SCORE:    0.00 PKD
ROOT
HETATM    1  C   UNL     1     -12.860   9.966  71.324  1.00  0.00    -0.486 C  
HETATM    2  C   UNL     1     -11.557  10.269  70.585  1.00  0.00    -0.347 C  
ENDROOT
BRANCH   2   3
HETATM    3  O   UNL     1     -11.179   9.182  69.740  1.00  0.00    -0.181 OA 
BRANCH   3   4
HETATM    4  C   UNL     1      -9.927   8.574  70.092  1.00  0.00    -0.181 C  
BRANCH   4   5
HETATM    5  C   UNL     1      -9.066   8.363  68.797  1.00  0.00    -0.143 C  
HETATM    6  C   UNL     1      -8.972   5.372  68.597  1.00  0.00    -0.107 C  
HETATM    7  C   UNL     1      -8.057   6.130  69.572  1.00  0.00    -0.112 C  
HETATM    8  N   UNL     1      -9.373   4.116  69.191  1.00  0.00    -0.152 NA 
HETATM    9  H   UNL     1      -9.406   7.574  66.899  1.00  0.00     0.000 HD 
HETATM   10  C   UNL     1      -7.778   7.563  69.112  1.00  0.00    -0.113 C  
HETATM   11  O   UNL     1      -9.777   1.948  68.555  1.00  0.00    -0.155 OA 
HETATM   12  C   UNL     1     -10.212   6.233  68.239  1.00  0.00    -0.169 C  
HETATM   13  C   UNL     1      -8.217   4.931  67.328  1.00  0.00    -0.106 C  
HETATM   14  C   UNL     1      -9.333   3.057  68.319  1.00  0.00    -0.195 C  
HETATM   15  C   UNL     1      -8.681   3.502  67.042  1.00  0.00    -0.128 C  
HETATM   16  N   UNL     1      -9.874   7.593  67.805  1.00  0.00    -0.151 NA 
BRANCH   5  17
HETATM   17  C   UNL     1      -8.636   9.723  68.183  1.00  0.00    -0.118 A  
HETATM   18  C   UNL     1      -7.880  12.196  67.029  1.00  0.00    -0.123 A  
HETATM   19  C   UNL     1      -8.186  11.110  66.214  1.00  0.00    -0.153 A  
HETATM   20  C   UNL     1      -8.554   9.888  66.787  1.00  0.00    -0.133 A  
HETATM   21  C   UNL     1      -8.283  10.828  68.980  1.00  0.00    -0.139 A  
HETATM   22  C   UNL     1      -7.920  12.053  68.409  1.00  0.00    -0.152 A  
ENDBRANCH   5  17
ENDBRANCH   4   5
ENDBRANCH   3   4
ENDBRANCH   2   3
BRANCH   2  23
HETATM   23  C   UNL     1     -11.743  11.513  69.730  1.00  0.00    -0.426 A  
HETATM   24  F   UNL     1     -11.435  11.152  65.579  1.00  0.00    -0.167 F  
HETATM   25  C   UNL     1     -11.657  11.411  68.333  1.00  0.00    -0.385 A  
HETATM   26  F   UNL     1     -11.185  15.580  71.029  1.00  0.00    -0.304 F  
HETATM   27  C   UNL     1     -11.736  12.547  67.513  1.00  0.00    -0.439 A  
HETATM   28  C   UNL     1     -11.914  13.805  68.111  1.00  0.00    -0.394 A  
HETATM   29  F   UNL     1     -13.345  15.381  70.868  1.00  0.00    -0.456 F  
HETATM   30  C   UNL     1     -11.611  12.432  66.012  1.00  0.00    -0.401 C  
HETATM   31  F   UNL     1     -12.216  16.319  69.264  1.00  0.00    -0.241 F  
HETATM   32  C   UNL     1     -12.189  15.288  70.156  1.00  0.00    -0.364 C  
HETATM   33  F   UNL     1     -12.708  12.900  65.359  1.00  0.00    -0.527 F  
HETATM   34  F   UNL     1     -10.553  13.136  65.526  1.00  0.00    -0.270 F  
HETATM   35  C   UNL     1     -11.924  12.782  70.302  1.00  0.00    -0.358 A  
HETATM   36  C   UNL     1     -12.012  13.936  69.505  1.00  0.00    -0.396 A  
ENDBRANCH   2  23
TORSDOF 5
ENDMDL
MODEL       54
REMARK 921   NORMALIZED FREE ENERGY PREDICTED BY IDOCK:   -6.59 KCAL/MOL
REMARK 922        TOTAL FREE ENERGY PREDICTED BY IDOCK:  -11.38 KCAL/MOL
REMARK 923 INTER-LIGAND FREE ENERGY PREDICTED BY IDOCK:   -9.85 KCAL/MOL
REMARK 924 INTRA-LIGAND FREE ENERGY PREDICTED BY IDOCK:   -1.53 KCAL/MOL
REMARK 927      BINDING AFFINITY PREDICTED BY RF-SCORE:    0.00 PKD
ROOT
HETATM    1  C   UNL     1     -12.199  14.628  64.603  1.00  0.00    -0.447 C  
HETATM    2  C   UNL     1     -11.780  13.889  65.872  1.00  0.00    -0.359 C  
ENDROOT
BRANCH   2   3
HETATM    3  O   UNL     1     -10.595  13.123  65.655  1.00  0.00    -0.270 OA 
BRANCH   3   4
HETATM    4  C   UNL     1     -10.831  11.716  65.486  1.00  0.00    -0.279 C  
BRANCH   4   5
HETATM    5  C   UNL     1      -9.679  10.907  66.180  1.00  0.00    -0.210 C  
HETATM    6  C   UNL     1     -10.651  10.754  69.013  1.00  0.00    -0.219 C  
HETATM    7  C   UNL     1      -9.982  12.027  68.474  1.00  0.00    -0.188 C  
HETATM    8  N   UNL     1     -11.695  11.116  69.946  1.00  0.00    -0.323 NA 
HETATM    9  H   UNL     1      -9.515   9.040  67.091  1.00  0.00     0.000 HD 
HETATM   10  C   UNL     1      -9.026  11.735  67.315  1.00  0.00    -0.172 C  
HETATM   11  O   UNL     1     -12.603  10.360  71.913  1.00  0.00    -0.397 OA 
HETATM   12  C   UNL     1     -11.224   9.907  67.846  1.00  0.00    -0.038 C  
HETATM   13  C   UNL     1      -9.685   9.922  69.879  1.00  0.00    -0.274 C  
HETATM   14  C   UNL     1     -11.719  10.339  71.076  1.00  0.00    -0.370 C  
HETATM   15  C   UNL     1     -10.502   9.460  71.088  1.00  0.00    -0.392 C  
HETATM   16  N   UNL     1     -10.256   9.663  66.771  1.00  0.00    -0.239 NA 
BRANCH   5  17
HETATM   17  C   UNL     1      -8.563  10.538  65.165  1.00  0.00    -0.187 A  
HETATM   18  C   UNL     1      -6.548   9.890  63.284  1.00  0.00    -0.125 A  
HETATM   19  C   UNL     1      -7.868  10.042  62.869  1.00  0.00    -0.140 A  
HETATM   20  C   UNL     1      -8.862  10.358  63.802  1.00  0.00    -0.222 A  
HETATM   21  C   UNL     1      -7.226  10.339  65.559  1.00  0.00    -0.149 A  
HETATM   22  C   UNL     1      -6.229  10.030  64.627  1.00  0.00    -0.124 A  
ENDBRANCH   5  17
ENDBRANCH   4   5
ENDBRANCH   3   4
ENDBRANCH   2   3
BRANCH   2  23
HETATM   23  C   UNL     1     -11.512  14.901  66.976  1.00  0.00    -0.333 A  
HETATM   24  F   UNL     1      -8.946  18.100  66.178  1.00  0.00    -0.281 F  
HETATM   25  C   UNL     1     -10.664  15.990  66.724  1.00  0.00    -0.259 A  
HETATM   26  F   UNL     1     -11.930  14.200  71.204  1.00  0.00    -0.376 F  
HETATM   27  C   UNL     1     -10.323  16.898  67.739  1.00  0.00    -0.327 A  
HETATM   28  C   UNL     1     -10.852  16.709  69.026  1.00  0.00    -0.314 A  
HETATM   29  F   UNL     1     -13.631  15.467  70.719  1.00  0.00    -0.493 F  
HETATM   30  C   UNL     1      -9.384  18.049  67.467  1.00  0.00    -0.257 C  
HETATM   31  F   UNL     1     -11.843  16.336  71.599  1.00  0.00    -0.452 F  
HETATM   32  C   UNL     1     -12.272  15.415  70.690  1.00  0.00    -0.385 C  
HETATM   33  F   UNL     1      -9.955  19.259  67.716  1.00  0.00    -0.350 F  
HETATM   34  F   UNL     1      -8.263  17.996  68.238  1.00  0.00    -0.254 F  
HETATM   35  C   UNL     1     -12.031  14.736  68.270  1.00  0.00    -0.258 A  
HETATM   36  C   UNL     1     -11.710  15.632  69.304  1.00  0.00    -0.388 A  
ENDBRANCH   2  23
TORSDOF 5
ENDMDL
MODEL       55
REMARK 921   NORMALIZED FREE ENERGY PREDICTED BY IDOCK:   -6.59 KCAL/MOL
REMARK 922        TOTAL FREE ENERGY PREDICTED BY IDOCK:  -11.38 KCAL/MOL
REMARK 923 INTER-LIGAND FREE ENERGY PREDICTED BY IDOCK:   -9.78 KCAL/MOL
REMARK 924 INTRA-LIGAND FREE ENERGY PREDICTED BY IDOCK:   -1.61 KCAL/MOL
REMARK 927      BINDING AFFINITY PREDICTED BY RF-SCORE:    0.00 PKD
ROOT
HETATM    1  C   UNL     1      -8.156   9.722  67.234  1.00  0.00    -0.117 C  
HETATM    2  C   UNL     1      -9.632  10.004  67.508  1.00  0.00    -0.153 C  
ENDROOT
BRANCH   2   3
HETATM    3  O   UNL     1      -9.952   9.786  68.882  1.00  0.00    -0.163 OA 
BRANCH   3   4
HETATM    4  C   UNL     1     -11.353   9.598  69.133  1.00  0.00     0.071 C  
BRANCH   4   5
HETATM    5  C   UNL     1     -11.651   9.863  70.652  1.00  0.00    -0.335 C  
HETATM    6  C   UNL     1     -10.926   7.231  71.893  1.00  0.00    -0.230 C  
HETATM    7  C   UNL     1     -12.272   7.425  71.177  1.00  0.00    -0.357 C  
HETATM    8  N   UNL     1     -10.447   5.886  71.663  1.00  0.00    -0.225 NA 
HETATM    9  H   UNL     1     -10.513   9.970  72.393  1.00  0.00     0.000 HD 
HETATM   10  C   UNL     1     -12.729   8.885  71.183  1.00  0.00    -0.201 C  
HETATM   11  O   UNL     1      -9.328   4.227  72.786  1.00  0.00    -0.118 OA 
HETATM   12  C   UNL     1      -9.894   8.277  71.396  1.00  0.00    -0.184 C  
HETATM   13  C   UNL     1     -11.079   7.287  73.425  1.00  0.00    -0.185 C  
HETATM   14  C   UNL     1      -9.929   5.286  72.783  1.00  0.00    -0.160 C  
HETATM   15  C   UNL     1     -10.206   6.157  73.974  1.00  0.00    -0.309 C  
HETATM   16  N   UNL     1     -10.394   9.655  71.430  1.00  0.00    -0.144 NA 
BRANCH   5  17
HETATM   17  C   UNL     1     -12.176  11.307  70.876  1.00  0.00    -0.460 A  
HETATM   18  C   UNL     1     -13.130  13.935  71.327  1.00  0.00    -0.385 A  
HETATM   19  C   UNL     1     -13.507  12.900  72.177  1.00  0.00    -0.619 A  
HETATM   20  C   UNL     1     -13.038  11.601  71.949  1.00  0.00    -0.490 A  
HETATM   21  C   UNL     1     -11.844  12.368  70.012  1.00  0.00    -0.363 A  
HETATM   22  C   UNL     1     -12.307  13.669  70.242  1.00  0.00    -0.392 A  
ENDBRANCH   5  17
ENDBRANCH   4   5
ENDBRANCH   3   4
ENDBRANCH   2   3
BRANCH   2  23
HETATM   23  C   UNL     1      -9.938  11.452  67.158  1.00  0.00    -0.217 A  
HETATM   24  F   UNL     1     -13.166  12.259  64.632  1.00  0.00    -0.502 F  
HETATM   25  C   UNL     1     -11.026  11.746  66.322  1.00  0.00    -0.346 A  
HETATM   26  F   UNL     1      -7.148  14.730  67.286  1.00  0.00    -0.202 F  
HETATM   27  C   UNL     1     -11.291  13.060  65.904  1.00  0.00    -0.344 A  
HETATM   28  C   UNL     1     -10.450  14.095  66.345  1.00  0.00    -0.283 A  
HETATM   29  F   UNL     1      -8.431  15.076  69.008  1.00  0.00    -0.162 F  
HETATM   30  C   UNL     1     -12.446  13.362  64.979  1.00  0.00    -0.428 C  
HETATM   31  F   UNL     1      -8.776  16.163  67.157  1.00  0.00    -0.181 F  
HETATM   32  C   UNL     1      -8.443  14.938  67.654  1.00  0.00    -0.167 C  
HETATM   33  F   UNL     1     -13.336  14.235  65.523  1.00  0.00    -0.520 F  
HETATM   34  F   UNL     1     -12.037  13.922  63.808  1.00  0.00    -0.479 F  
HETATM   35  C   UNL     1      -9.115  12.506  67.586  1.00  0.00    -0.187 A  
HETATM   36  C   UNL     1      -9.359  13.831  67.188  1.00  0.00    -0.240 A  
ENDBRANCH   2  23
TORSDOF 5
ENDMDL
MODEL       56
REMARK 921   NORMALIZED FREE ENERGY PREDICTED BY IDOCK:   -6.58 KCAL/MOL
REMARK 922        TOTAL FREE ENERGY PREDICTED BY IDOCK:  -11.37 KCAL/MOL
REMARK 923 INTER-LIGAND FREE ENERGY PREDICTED BY IDOCK:   -9.61 KCAL/MOL
REMARK 924 INTRA-LIGAND FREE ENERGY PREDICTED BY IDOCK:   -1.76 KCAL/MOL
REMARK 927      BINDING AFFINITY PREDICTED BY RF-SCORE:    0.00 PKD
ROOT
HETATM    1  C   UNL     1      -7.997   9.501  66.976  1.00  0.00    -0.109 C  
HETATM    2  C   UNL     1      -9.466   9.828  67.232  1.00  0.00    -0.153 C  
ENDROOT
BRANCH   2   3
HETATM    3  O   UNL     1      -9.776   9.758  68.624  1.00  0.00    -0.150 OA 
BRANCH   3   4
HETATM    4  C   UNL     1     -11.155   9.475  68.904  1.00  0.00    -0.013 C  
BRANCH   4   5
HETATM    5  C   UNL     1     -11.463   9.813  70.406  1.00  0.00    -0.280 C  
HETATM    6  C   UNL     1     -10.787   7.231  71.773  1.00  0.00    -0.224 C  
HETATM    7  C   UNL     1     -12.124   7.411  71.036  1.00  0.00    -0.330 C  
HETATM    8  N   UNL     1     -10.325   5.871  71.609  1.00  0.00    -0.212 NA 
HETATM    9  H   UNL     1     -10.339   9.984  72.151  1.00  0.00     0.000 HD 
HETATM   10  C   UNL     1     -12.559   8.876  70.971  1.00  0.00    -0.141 C  
HETATM   11  O   UNL     1      -9.240   4.249  72.818  1.00  0.00    -0.114 OA 
HETATM   12  C   UNL     1      -9.735   8.239  71.239  1.00  0.00    -0.176 C  
HETATM   13  C   UNL     1     -10.953   7.360  73.299  1.00  0.00    -0.367 C  
HETATM   14  C   UNL     1      -9.826   5.316  72.760  1.00  0.00    -0.158 C  
HETATM   15  C   UNL     1     -10.102   6.244  73.907  1.00  0.00    -0.283 C  
HETATM   16  N   UNL     1     -10.216   9.624  71.205  1.00  0.00    -0.219 NA 
BRANCH   5  17
HETATM   17  C   UNL     1     -11.969  11.273  70.558  1.00  0.00    -0.467 A  
HETATM   18  C   UNL     1     -12.889  13.933  70.880  1.00  0.00    -0.370 A  
HETATM   19  C   UNL     1     -13.269  12.948  71.786  1.00  0.00    -0.479 A  
HETATM   20  C   UNL     1     -12.817  11.633  71.622  1.00  0.00    -0.454 A  
HETATM   21  C   UNL     1     -11.633  12.284  69.637  1.00  0.00    -0.348 A  
HETATM   22  C   UNL     1     -12.079  13.600  69.803  1.00  0.00    -0.396 A  
ENDBRANCH   5  17
ENDBRANCH   4   5
ENDBRANCH   3   4
ENDBRANCH   2   3
BRANCH   2  23
HETATM   23  C   UNL     1      -9.760  11.236  66.736  1.00  0.00    -0.218 A  
HETATM   24  F   UNL     1      -7.727  14.439  68.486  1.00  0.00    -0.109 F  
HETATM   25  C   UNL     1      -9.078  12.324  67.301  1.00  0.00    -0.184 A  
HETATM   26  F   UNL     1     -13.361  12.518  64.752  1.00  0.00    -0.410 F  
HETATM   27  C   UNL     1      -9.381  13.645  66.933  1.00  0.00    -0.261 A  
HETATM   28  C   UNL     1     -10.382  13.870  65.974  1.00  0.00    -0.310 A  
HETATM   29  F   UNL     1     -11.881  12.472  63.158  1.00  0.00    -0.514 F  
HETATM   30  C   UNL     1      -8.664  14.812  67.570  1.00  0.00    -0.186 C  
HETATM   31  F   UNL     1     -12.393  14.356  64.114  1.00  0.00    -0.481 F  
HETATM   32  C   UNL     1     -12.162  13.036  64.364  1.00  0.00    -0.406 C  
HETATM   33  F   UNL     1      -8.011  15.583  66.659  1.00  0.00    -0.255 F  
HETATM   34  F   UNL     1      -9.515  15.645  68.228  1.00  0.00    -0.192 F  
HETATM   35  C   UNL     1     -10.754  11.489  65.777  1.00  0.00    -0.325 A  
HETATM   36  C   UNL     1     -11.075  12.800  65.387  1.00  0.00    -0.317 A  
ENDBRANCH   2  23
TORSDOF 5
ENDMDL
MODEL       57
REMARK 921   NORMALIZED FREE ENERGY PREDICTED BY IDOCK:   -6.58 KCAL/MOL
REMARK 922        TOTAL FREE ENERGY PREDICTED BY IDOCK:  -11.37 KCAL/MOL
REMARK 923 INTER-LIGAND FREE ENERGY PREDICTED BY IDOCK:  -10.22 KCAL/MOL
REMARK 924 INTRA-LIGAND FREE ENERGY PREDICTED BY IDOCK:   -1.15 KCAL/MOL
REMARK 927      BINDING AFFINITY PREDICTED BY RF-SCORE:    0.00 PKD
ROOT
HETATM    1  C   UNL     1      -9.800  13.446  68.446  1.00  0.00    -0.216 C  
HETATM    2  C   UNL     1     -11.111  12.704  68.192  1.00  0.00    -0.249 C  
ENDROOT
BRANCH   2   3
HETATM    3  O   UNL     1     -10.873  11.404  67.654  1.00  0.00    -0.209 OA 
BRANCH   3   4
HETATM    4  C   UNL     1      -9.484  11.054  67.562  1.00  0.00    -0.163 C  
BRANCH   4   5
HETATM    5  C   UNL     1      -9.339   9.688  66.802  1.00  0.00    -0.152 C  
HETATM    6  C   UNL     1      -9.217   7.729  69.069  1.00  0.00    -0.143 C  
HETATM    7  C   UNL     1      -7.982   8.549  68.664  1.00  0.00    -0.116 C  
HETATM    8  N   UNL     1      -9.228   7.551  70.504  1.00  0.00    -0.156 NA 
HETATM    9  H   UNL     1     -10.510   7.979  66.581  1.00  0.00     0.000 HD 
HETATM   10  C   UNL     1      -8.023   8.973  67.194  1.00  0.00    -0.102 C  
HETATM   11  O   UNL     1      -9.788   5.949  72.049  1.00  0.00    -0.157 OA 
HETATM   12  C   UNL     1     -10.514   8.432  68.591  1.00  0.00    -0.166 C  
HETATM   13  C   UNL     1      -9.142   6.283  68.540  1.00  0.00    -0.125 C  
HETATM   14  C   UNL     1      -9.562   6.280  70.899  1.00  0.00    -0.176 C  
HETATM   15  C   UNL     1      -9.621   5.394  69.689  1.00  0.00    -0.217 C  
HETATM   16  N   UNL     1     -10.487   8.809  67.174  1.00  0.00    -0.292 NA 
BRANCH   5  17
HETATM   17  C   UNL     1      -9.318   9.903  65.264  1.00  0.00    -0.309 A  
HETATM   18  C   UNL     1      -9.276  10.250  62.454  1.00  0.00    -0.311 A  
HETATM   19  C   UNL     1      -8.549   9.219  63.041  1.00  0.00    -0.217 A  
HETATM   20  C   UNL     1      -8.567   9.052  64.430  1.00  0.00    -0.174 A  
HETATM   21  C   UNL     1     -10.011  10.959  64.644  1.00  0.00    -0.369 A  
HETATM   22  C   UNL     1      -9.999  11.124  63.254  1.00  0.00    -0.419 A  
ENDBRANCH   5  17
ENDBRANCH   4   5
ENDBRANCH   3   4
ENDBRANCH   2   3
BRANCH   2  23
HETATM   23  C   UNL     1     -11.867  12.560  69.505  1.00  0.00    -0.375 A  
HETATM   24  F   UNL     1     -12.709  16.001  71.719  1.00  0.00    -0.460 F  
HETATM   25  C   UNL     1     -12.172  13.704  70.257  1.00  0.00    -0.423 A  
HETATM   26  F   UNL     1     -12.062   9.007  71.931  1.00  0.00    -0.357 F  
HETATM   27  C   UNL     1     -12.790  13.607  71.513  1.00  0.00    -0.445 A  
HETATM   28  C   UNL     1     -13.114  12.336  72.015  1.00  0.00    -0.461 A  
HETATM   29  F   UNL     1     -14.038   9.126  71.029  1.00  0.00    -0.386 F  
HETATM   30  C   UNL     1     -13.086  14.843  72.330  1.00  0.00    -0.366 C  
HETATM   31  F   UNL     1     -13.725   9.832  73.061  1.00  0.00    -0.172 F  
HETATM   32  C   UNL     1     -13.162   9.803  71.820  1.00  0.00    -0.436 C  
HETATM   33  F   UNL     1     -14.411  14.980  72.608  1.00  0.00    -0.505 F  
HETATM   34  F   UNL     1     -12.447  14.833  73.532  1.00  0.00    -0.488 F  
HETATM   35  C   UNL     1     -12.205  11.300  70.027  1.00  0.00    -0.389 A  
HETATM   36  C   UNL     1     -12.829  11.174  71.280  1.00  0.00    -0.515 A  
ENDBRANCH   2  23
TORSDOF 5
ENDMDL
MODEL       58
REMARK 921   NORMALIZED FREE ENERGY PREDICTED BY IDOCK:   -6.52 KCAL/MOL
REMARK 922        TOTAL FREE ENERGY PREDICTED BY IDOCK:  -11.29 KCAL/MOL
REMARK 923 INTER-LIGAND FREE ENERGY PREDICTED BY IDOCK:   -9.41 KCAL/MOL
REMARK 924 INTRA-LIGAND FREE ENERGY PREDICTED BY IDOCK:   -1.88 KCAL/MOL
REMARK 927      BINDING AFFINITY PREDICTED BY RF-SCORE:    0.00 PKD
ROOT
HETATM    1  C   UNL     1     -10.563  13.726  65.216  1.00  0.00    -0.363 C  
HETATM    2  C   UNL     1     -11.242  14.879  65.953  1.00  0.00    -0.328 C  
ENDROOT
BRANCH   2   3
HETATM    3  O   UNL     1     -12.002  14.405  67.064  1.00  0.00    -0.409 OA 
BRANCH   3   4
HETATM    4  C   UNL     1     -11.906  12.989  67.278  1.00  0.00    -0.363 C  
BRANCH   4   5
HETATM    5  C   UNL     1     -11.351  12.715  68.720  1.00  0.00    -0.289 C  
HETATM    6  C   UNL     1      -9.843  10.153  68.328  1.00  0.00    -0.145 C  
HETATM    7  C   UNL     1     -11.373  10.157  68.477  1.00  0.00    -0.172 C  
HETATM    8  N   UNL     1      -9.452   9.121  67.393  1.00  0.00    -0.140 NA 
HETATM    9  H   UNL     1      -9.463  12.637  69.596  1.00  0.00     0.000 HD 
HETATM   10  C   UNL     1     -11.876  11.365  69.269  1.00  0.00    -0.417 C  
HETATM   11  O   UNL     1      -7.764   7.595  67.101  1.00  0.00    -0.107 OA 
HETATM   12  C   UNL     1      -9.342  11.543  67.855  1.00  0.00    -0.171 C  
HETATM   13  C   UNL     1      -9.142   9.725  69.631  1.00  0.00    -0.235 C  
HETATM   14  C   UNL     1      -8.358   8.398  67.797  1.00  0.00    -0.130 C  
HETATM   15  C   UNL     1      -8.017   8.778  69.208  1.00  0.00    -0.108 C  
HETATM   16  N   UNL     1      -9.861  12.656  68.657  1.00  0.00    -0.131 NA 
BRANCH   5  17
HETATM   17  C   UNL     1     -11.792  13.828  69.710  1.00  0.00    -0.394 A  
HETATM   18  C   UNL     1     -12.614  15.827  71.540  1.00  0.00    -0.517 A  
HETATM   19  C   UNL     1     -13.423  14.719  71.306  1.00  0.00    -0.478 A  
HETATM   20  C   UNL     1     -13.017  13.735  70.398  1.00  0.00    -0.048 A  
HETATM   21  C   UNL     1     -11.014  14.979  69.939  1.00  0.00    -0.282 A  
HETATM   22  C   UNL     1     -11.416  15.961  70.852  1.00  0.00    -0.444 A  
ENDBRANCH   5  17
ENDBRANCH   4   5
ENDBRANCH   3   4
ENDBRANCH   2   3
BRANCH   2  23
HETATM   23  C   UNL     1     -10.180  15.843  66.462  1.00  0.00    -0.297 A  
HETATM   24  F   UNL     1     -10.682  19.929  65.756  1.00  0.00    -0.561 F  
HETATM   25  C   UNL     1     -10.336  17.220  66.247  1.00  0.00    -0.323 A  
HETATM   26  F   UNL     1      -6.076  14.858  67.318  1.00  0.00    -0.116 F  
HETATM   27  C   UNL     1      -9.339  18.134  66.623  1.00  0.00    -0.300 A  
HETATM   28  C   UNL     1      -8.170  17.651  67.234  1.00  0.00    -0.225 A  
HETATM   29  F   UNL     1      -6.969  15.107  69.286  1.00  0.00    -0.115 F  
HETATM   30  C   UNL     1      -9.502  19.613  66.360  1.00  0.00    -0.395 C  
HETATM   31  F   UNL     1      -5.821  16.726  68.400  1.00  0.00    -0.117 F  
HETATM   32  C   UNL     1      -6.730  15.752  68.112  1.00  0.00    -0.122 C  
HETATM   33  F   UNL     1      -9.454  20.354  67.499  1.00  0.00    -0.459 F  
HETATM   34  F   UNL     1      -8.526  20.103  65.548  1.00  0.00    -0.283 F  
HETATM   35  C   UNL     1      -9.003  15.386  67.077  1.00  0.00    -0.253 A  
HETATM   36  C   UNL     1      -7.991  16.279  67.469  1.00  0.00    -0.171 A  
ENDBRANCH   2  23
TORSDOF 5
ENDMDL
MODEL       59
REMARK 921   NORMALIZED FREE ENERGY PREDICTED BY IDOCK:   -6.46 KCAL/MOL
REMARK 922        TOTAL FREE ENERGY PREDICTED BY IDOCK:  -11.21 KCAL/MOL
REMARK 923 INTER-LIGAND FREE ENERGY PREDICTED BY IDOCK:   -8.49 KCAL/MOL
REMARK 924 INTRA-LIGAND FREE ENERGY PREDICTED BY IDOCK:   -2.72 KCAL/MOL
REMARK 927      BINDING AFFINITY PREDICTED BY RF-SCORE:    0.00 PKD
ROOT
HETATM    1  C   UNL     1     -12.510  12.650  69.899  1.00  0.00     0.002 C  
HETATM    2  C   UNL     1     -11.259  12.072  69.241  1.00  0.00    -0.229 C  
ENDROOT
BRANCH   2   3
HETATM    3  O   UNL     1     -11.464  10.717  68.842  1.00  0.00    -0.262 OA 
BRANCH   3   4
HETATM    4  C   UNL     1     -10.910   9.750  69.747  1.00  0.00    -0.257 C  
BRANCH   4   5
HETATM    5  C   UNL     1      -9.983   8.763  68.952  1.00  0.00    -0.192 C  
HETATM    6  C   UNL     1      -9.902   6.384  70.777  1.00  0.00    -0.184 C  
HETATM    7  C   UNL     1      -9.034   7.623  71.051  1.00  0.00    -0.148 C  
HETATM    8  N   UNL     1     -10.344   5.818  72.032  1.00  0.00    -0.201 NA 
HETATM    9  H   UNL     1     -10.227   6.911  68.031  1.00  0.00     0.000 HD 
HETATM   10  C   UNL     1      -8.720   8.406  69.774  1.00  0.00    -0.133 C  
HETATM   11  O   UNL     1     -10.731   3.758  72.964  1.00  0.00    -0.172 OA 
HETATM   12  C   UNL     1     -11.114   6.760  69.884  1.00  0.00    -0.323 C  
HETATM   13  C   UNL     1      -9.084   5.240  70.148  1.00  0.00    -0.168 C  
HETATM   14  C   UNL     1     -10.266   4.449  72.076  1.00  0.00    -0.163 C  
HETATM   15  C   UNL     1      -9.543   3.963  70.854  1.00  0.00    -0.258 C  
HETATM   16  N   UNL     1     -10.743   7.508  68.678  1.00  0.00    -0.132 NA 
BRANCH   5  17
HETATM   17  C   UNL     1      -9.510   9.395  67.614  1.00  0.00    -0.154 A  
HETATM   18  C   UNL     1      -8.606  10.539  65.186  1.00  0.00    -0.187 A  
HETATM   19  C   UNL     1      -7.881  10.727  66.359  1.00  0.00    -0.148 A  
HETATM   20  C   UNL     1      -8.333  10.164  67.559  1.00  0.00    -0.118 A  
HETATM   21  C   UNL     1     -10.241   9.256  66.419  1.00  0.00    -0.298 A  
HETATM   22  C   UNL     1      -9.788   9.812  65.218  1.00  0.00    -0.335 A  
ENDBRANCH   5  17
ENDBRANCH   4   5
ENDBRANCH   3   4
ENDBRANCH   2   3
BRANCH   2  23
HETATM   23  C   UNL     1     -10.913  12.897  68.011  1.00  0.00    -0.271 A  
HETATM   24  F   UNL     1     -12.633  11.849  64.350  1.00  0.00    -0.406 F  
HETATM   25  C   UNL     1     -11.490  12.570  66.774  1.00  0.00    -0.422 A  
HETATM   26  F   UNL     1      -7.374  15.295  67.489  1.00  0.00    -0.141 F  
HETATM   27  C   UNL     1     -11.131  13.250  65.600  1.00  0.00    -0.299 A  
HETATM   28  C   UNL     1     -10.182  14.282  65.676  1.00  0.00    -0.366 A  
HETATM   29  F   UNL     1      -8.952  16.762  67.791  1.00  0.00    -0.206 F  
HETATM   30  C   UNL     1     -11.734  12.871  64.268  1.00  0.00    -0.386 C  
HETATM   31  F   UNL     1      -8.268  16.298  65.780  1.00  0.00    -0.287 F  
HETATM   32  C   UNL     1      -8.562  15.736  66.987  1.00  0.00    -0.218 C  
HETATM   33  F   UNL     1     -12.396  13.904  63.681  1.00  0.00    -0.513 F  
HETATM   34  F   UNL     1     -10.794  12.467  63.371  1.00  0.00    -0.426 F  
HETATM   35  C   UNL     1      -9.968  13.935  68.059  1.00  0.00    -0.241 A  
HETATM   36  C   UNL     1      -9.594  14.636  66.901  1.00  0.00    -0.253 A  
ENDBRANCH   2  23
TORSDOF 5
ENDMDL
MODEL       60
REMARK 921   NORMALIZED FREE ENERGY PREDICTED BY IDOCK:   -6.45 KCAL/MOL
REMARK 922        TOTAL FREE ENERGY PREDICTED BY IDOCK:  -11.20 KCAL/MOL
REMARK 923 INTER-LIGAND FREE ENERGY PREDICTED BY IDOCK:   -9.89 KCAL/MOL
REMARK 924 INTRA-LIGAND FREE ENERGY PREDICTED BY IDOCK:   -1.31 KCAL/MOL
REMARK 927      BINDING AFFINITY PREDICTED BY RF-SCORE:    0.00 PKD
ROOT
HETATM    1  C   UNL     1     -13.080   9.541  71.450  1.00  0.00    -0.449 C  
HETATM    2  C   UNL     1     -11.739   9.919  70.823  1.00  0.00    -0.341 C  
ENDROOT
BRANCH   2   3
HETATM    3  O   UNL     1     -11.281   8.902  69.931  1.00  0.00    -0.189 OA 
BRANCH   3   4
HETATM    4  C   UNL     1      -9.966   8.411  70.230  1.00  0.00    -0.186 C  
BRANCH   4   5
HETATM    5  C   UNL     1      -9.827   6.938  69.705  1.00  0.00    -0.166 C  
HETATM    6  C   UNL     1      -8.995   7.372  66.856  1.00  0.00    -0.135 C  
HETATM    7  C   UNL     1     -10.466   7.512  67.282  1.00  0.00    -0.391 C  
HETATM    8  N   UNL     1      -8.697   8.343  65.827  1.00  0.00    -0.162 NA 
HETATM    9  H   UNL     1      -8.260   5.742  69.031  1.00  0.00     0.000 HD 
HETATM   10  C   UNL     1     -10.793   6.678  68.522  1.00  0.00    -0.319 C  
HETATM   11  O   UNL     1      -7.446   8.510  63.910  1.00  0.00    -0.106 OA 
HETATM   12  C   UNL     1      -8.058   7.558  68.078  1.00  0.00    -0.124 C  
HETATM   13  C   UNL     1      -8.730   6.027  66.153  1.00  0.00    -0.146 C  
HETATM   14  C   UNL     1      -7.945   7.839  64.796  1.00  0.00    -0.142 C  
HETATM   15  C   UNL     1      -7.829   6.352  64.959  1.00  0.00    -0.112 C  
HETATM   16  N   UNL     1      -8.427   6.728  69.231  1.00  0.00    -0.128 NA 
BRANCH   5  17
HETATM   17  C   UNL     1     -10.163   5.912  70.821  1.00  0.00    -0.268 A  
HETATM   18  C   UNL     1     -10.813   4.063  72.866  1.00  0.00    -0.189 A  
HETATM   19  C   UNL     1     -11.130   5.409  73.015  1.00  0.00    -0.368 A  
HETATM   20  C   UNL     1     -10.804   6.322  72.006  1.00  0.00    -0.286 A  
HETATM   21  C   UNL     1      -9.821   4.550  70.717  1.00  0.00    -0.280 A  
HETATM   22  C   UNL     1     -10.152   3.636  71.722  1.00  0.00    -0.160 A  
ENDBRANCH   5  17
ENDBRANCH   4   5
ENDBRANCH   3   4
ENDBRANCH   2   3
BRANCH   2  23
HETATM   23  C   UNL     1     -11.898  11.217  70.045  1.00  0.00    -0.441 A  
HETATM   24  F   UNL     1     -11.175  11.185  65.930  1.00  0.00    -0.285 F  
HETATM   25  C   UNL     1     -11.673  11.224  68.660  1.00  0.00    -0.391 A  
HETATM   26  F   UNL     1     -11.650  15.192  71.683  1.00  0.00    -0.353 F  
HETATM   27  C   UNL     1     -11.723  12.417  67.921  1.00  0.00    -0.421 A  
HETATM   28  C   UNL     1     -12.015  13.618  68.587  1.00  0.00    -0.395 A  
HETATM   29  F   UNL     1     -13.774  14.924  71.294  1.00  0.00    -0.402 F  
HETATM   30  C   UNL     1     -11.449  12.420  66.435  1.00  0.00    -0.373 C  
HETATM   31  F   UNL     1     -12.539  16.023  69.883  1.00  0.00    -0.313 F  
HETATM   32  C   UNL     1     -12.552  14.929  70.696  1.00  0.00    -0.363 C  
HETATM   33  F   UNL     1     -12.498  12.895  65.711  1.00  0.00    -0.483 F  
HETATM   34  F   UNL     1     -10.382  13.199  66.109  1.00  0.00    -0.262 F  
HETATM   35  C   UNL     1     -12.190  12.431  70.687  1.00  0.00    -0.368 A  
HETATM   36  C   UNL     1     -12.252  13.638  69.970  1.00  0.00    -0.395 A  
ENDBRANCH   2  23
TORSDOF 5
ENDMDL
MODEL       61
REMARK 921   NORMALIZED FREE ENERGY PREDICTED BY IDOCK:   -6.45 KCAL/MOL
REMARK 922        TOTAL FREE ENERGY PREDICTED BY IDOCK:  -11.20 KCAL/MOL
REMARK 923 INTER-LIGAND FREE ENERGY PREDICTED BY IDOCK:   -7.77 KCAL/MOL
REMARK 924 INTRA-LIGAND FREE ENERGY PREDICTED BY IDOCK:   -3.42 KCAL/MOL
REMARK 927      BINDING AFFINITY PREDICTED BY RF-SCORE:    0.00 PKD
ROOT
HETATM    1  C   UNL     1     -12.421  11.167  70.802  1.00  0.00    -0.479 C  
HETATM    2  C   UNL     1     -11.740  11.162  69.435  1.00  0.00    -0.332 C  
ENDROOT
BRANCH   2   3
HETATM    3  O   UNL     1     -11.111  12.415  69.167  1.00  0.00    -0.244 OA 
BRANCH   3   4
HETATM    4  C   UNL     1     -11.456  12.984  67.895  1.00  0.00    -0.311 C  
BRANCH   4   5
HETATM    5  C   UNL     1     -10.148  13.236  67.064  1.00  0.00    -0.242 C  
HETATM    6  C   UNL     1      -9.908  16.223  67.180  1.00  0.00    -0.243 C  
HETATM    7  C   UNL     1     -10.882  15.544  66.204  1.00  0.00    -0.295 C  
HETATM    8  N   UNL     1     -10.489  17.457  67.661  1.00  0.00    -0.361 NA 
HETATM    9  H   UNL     1      -8.244  13.972  67.477  1.00  0.00     0.000 HD 
HETATM   10  C   UNL     1     -10.439  14.128  65.831  1.00  0.00    -0.313 C  
HETATM   11  O   UNL     1      -9.829  19.582  68.221  1.00  0.00    -0.363 OA 
HETATM   12  C   UNL     1      -9.575  15.273  68.360  1.00  0.00    -0.206 C  
HETATM   13  C   UNL     1      -8.624  16.697  66.470  1.00  0.00    -0.320 C  
HETATM   14  C   UNL     1      -9.602  18.503  67.704  1.00  0.00    -0.286 C  
HETATM   15  C   UNL     1      -8.325  18.087  67.035  1.00  0.00    -0.248 C  
HETATM   16  N   UNL     1      -9.155  13.934  67.933  1.00  0.00    -0.186 NA 
BRANCH   5  17
HETATM   17  C   UNL     1      -9.548  11.901  66.546  1.00  0.00    -0.226 A  
HETATM   18  C   UNL     1      -8.423   9.465  65.637  1.00  0.00    -0.145 A  
HETATM   19  C   UNL     1      -7.615  10.428  66.233  1.00  0.00    -0.127 A  
HETATM   20  C   UNL     1      -8.172  11.633  66.677  1.00  0.00    -0.140 A  
HETATM   21  C   UNL     1     -10.332  10.924  65.905  1.00  0.00    -0.310 A  
HETATM   22  C   UNL     1      -9.778   9.716  65.465  1.00  0.00    -0.372 A  
ENDBRANCH   5  17
ENDBRANCH   4   5
ENDBRANCH   3   4
ENDBRANCH   2   3
BRANCH   2  23
HETATM   23  C   UNL     1     -10.684  10.068  69.405  1.00  0.00    -0.258 A  
HETATM   24  F   UNL     1      -6.783  11.021  70.556  1.00  0.00    -0.135 F  
HETATM   25  C   UNL     1      -9.371  10.364  69.801  1.00  0.00    -0.019 A  
HETATM   26  F   UNL     1     -10.819   6.489  67.014  1.00  0.00    -0.307 F  
HETATM   27  C   UNL     1      -8.348   9.407  69.706  1.00  0.00    -0.161 A  
HETATM   28  C   UNL     1      -8.657   8.129  69.213  1.00  0.00    -0.135 A  
HETATM   29  F   UNL     1     -11.221   5.779  69.031  1.00  0.00    -0.386 F  
HETATM   30  C   UNL     1      -6.930   9.744  70.104  1.00  0.00    -0.118 C  
HETATM   31  F   UNL     1      -9.223   5.603  68.194  1.00  0.00    -0.111 F  
HETATM   32  C   UNL     1     -10.300   6.434  68.273  1.00  0.00    -0.191 C  
HETATM   33  F   UNL     1      -6.462   8.940  71.096  1.00  0.00    -0.042 F  
HETATM   34  F   UNL     1      -6.057   9.613  69.068  1.00  0.00    -0.041 F  
HETATM   35  C   UNL     1     -10.967   8.781  68.918  1.00  0.00     0.062 A  
HETATM   36  C   UNL     1      -9.964   7.803  68.818  1.00  0.00    -0.181 A  
ENDBRANCH   2  23
TORSDOF 5
ENDMDL
MODEL       62
REMARK 921   NORMALIZED FREE ENERGY PREDICTED BY IDOCK:   -6.44 KCAL/MOL
REMARK 922        TOTAL FREE ENERGY PREDICTED BY IDOCK:  -11.18 KCAL/MOL
REMARK 923 INTER-LIGAND FREE ENERGY PREDICTED BY IDOCK:   -8.10 KCAL/MOL
REMARK 924 INTRA-LIGAND FREE ENERGY PREDICTED BY IDOCK:   -3.09 KCAL/MOL
REMARK 927      BINDING AFFINITY PREDICTED BY RF-SCORE:    0.00 PKD
ROOT
HETATM    1  C   UNL     1     -12.581  10.269  71.683  1.00  0.00    -0.534 C  
HETATM    2  C   UNL     1     -11.933  10.041  70.319  1.00  0.00    -0.187 C  
ENDROOT
BRANCH   2   3
HETATM    3  O   UNL     1     -11.493  11.271  69.744  1.00  0.00    -0.274 OA 
BRANCH   3   4
HETATM    4  C   UNL     1     -11.892  11.454  68.377  1.00  0.00    -0.274 C  
BRANCH   4   5
HETATM    5  C   UNL     1     -10.619  11.675  67.487  1.00  0.00    -0.209 C  
HETATM    6  C   UNL     1     -10.611  14.654  67.143  1.00  0.00    -0.282 C  
HETATM    7  C   UNL     1     -11.541  13.762  66.305  1.00  0.00    -0.369 C  
HETATM    8  N   UNL     1     -11.282  15.899  67.445  1.00  0.00    -0.204 NA 
HETATM    9  H   UNL     1      -8.773  12.607  67.738  1.00  0.00     0.000 HD 
HETATM   10  C   UNL     1     -10.993  12.343  66.140  1.00  0.00    -0.321 C  
HETATM   11  O   UNL     1     -10.784  18.129  67.661  1.00  0.00    -0.416 OA 
HETATM   12  C   UNL     1     -10.191  13.923  68.445  1.00  0.00    -0.243 C  
HETATM   13  C   UNL     1      -9.378  15.109  66.339  1.00  0.00    -0.332 C  
HETATM   14  C   UNL     1     -10.479  17.004  67.308  1.00  0.00    -0.301 C  
HETATM   15  C   UNL     1      -9.181  16.588  66.680  1.00  0.00    -0.275 C  
HETATM   16  N   UNL     1      -9.673  12.570  68.216  1.00  0.00    -0.224 NA 
BRANCH   5  17
HETATM   17  C   UNL     1      -9.921  10.325  67.164  1.00  0.00    -0.243 A  
HETATM   18  C   UNL     1      -8.683   7.853  66.550  1.00  0.00    -0.162 A  
HETATM   19  C   UNL     1     -10.065   7.925  66.695  1.00  0.00    -0.310 A  
HETATM   20  C   UNL     1     -10.674   9.147  67.003  1.00  0.00    -0.189 A  
HETATM   21  C   UNL     1      -8.522  10.212  67.049  1.00  0.00    -0.129 A  
HETATM   22  C   UNL     1      -7.912   8.992  66.735  1.00  0.00    -0.107 A  
ENDBRANCH   5  17
ENDBRANCH   4   5
ENDBRANCH   3   4
ENDBRANCH   2   3
BRANCH   2  23
HETATM   23  C   UNL     1     -10.732   9.121  70.482  1.00  0.00    -0.289 A  
HETATM   24  F   UNL     1      -6.909  10.805  70.507  1.00  0.00    -0.145 F  
HETATM   25  C   UNL     1      -9.441   9.668  70.507  1.00  0.00    -0.243 A  
HETATM   26  F   UNL     1     -10.624   4.917  69.551  1.00  0.00    -0.309 F  
HETATM   27  C   UNL     1      -8.303   8.847  70.568  1.00  0.00    -0.177 A  
HETATM   28  C   UNL     1      -8.472   7.454  70.615  1.00  0.00    -0.136 A  
HETATM   29  F   UNL     1     -10.640   4.965  71.726  1.00  0.00    -0.265 F  
HETATM   30  C   UNL     1      -6.915   9.443  70.563  1.00  0.00    -0.105 C  
HETATM   31  F   UNL     1      -8.767   4.688  70.657  1.00  0.00    -0.094 F  
HETATM   32  C   UNL     1      -9.941   5.381  70.635  1.00  0.00    -0.214 C  
HETATM   33  F   UNL     1      -6.200   9.111  71.671  1.00  0.00    -0.071 F  
HETATM   34  F   UNL     1      -6.177   9.026  69.498  1.00  0.00    -0.038 F  
HETATM   35  C   UNL     1     -10.874   7.724  70.533  1.00  0.00    -0.245 A  
HETATM   36  C   UNL     1      -9.753   6.880  70.600  1.00  0.00    -0.180 A  
ENDBRANCH   2  23
TORSDOF 5
ENDMDL
MODEL       63
REMARK 921   NORMALIZED FREE ENERGY PREDICTED BY IDOCK:   -6.43 KCAL/MOL
REMARK 922        TOTAL FREE ENERGY PREDICTED BY IDOCK:  -11.17 KCAL/MOL
REMARK 923 INTER-LIGAND FREE ENERGY PREDICTED BY IDOCK:   -9.51 KCAL/MOL
REMARK 924 INTRA-LIGAND FREE ENERGY PREDICTED BY IDOCK:   -1.65 KCAL/MOL
REMARK 927      BINDING AFFINITY PREDICTED BY RF-SCORE:    0.00 PKD
ROOT
HETATM    1  C   UNL     1      -8.076  10.135  68.721  1.00  0.00    -0.111 C  
HETATM    2  C   UNL     1      -9.238   9.619  67.874  1.00  0.00    -0.124 C  
ENDROOT
BRANCH   2   3
HETATM    3  O   UNL     1      -9.965   8.600  68.561  1.00  0.00    -0.172 OA 
BRANCH   3   4
HETATM    4  C   UNL     1      -9.399   8.231  69.827  1.00  0.00    -0.158 C  
BRANCH   4   5
HETATM    5  C   UNL     1     -10.420   7.333  70.613  1.00  0.00    -0.214 C  
HETATM    6  C   UNL     1      -9.080   4.652  70.528  1.00  0.00    -0.120 C  
HETATM    7  C   UNL     1      -9.861   5.186  69.316  1.00  0.00    -0.260 C  
HETATM    8  N   UNL     1      -7.937   3.895  70.069  1.00  0.00    -0.051 NA 
HETATM    9  H   UNL     1     -10.396   6.280  72.410  1.00  0.00     0.000 HD 
HETATM   10  C   UNL     1     -10.949   6.184  69.720  1.00  0.00    -0.459 C  
HETATM   11  O   UNL     1      -6.753   2.017  70.651  1.00  0.00    -0.030 OA 
HETATM   12  C   UNL     1      -8.635   5.822  71.443  1.00  0.00    -0.129 C  
HETATM   13  C   UNL     1      -9.894   3.608  71.318  1.00  0.00    -0.211 C  
HETATM   14  C   UNL     1      -7.738   2.725  70.759  1.00  0.00    -0.042 C  
HETATM   15  C   UNL     1      -8.910   2.489  71.666  1.00  0.00    -0.123 C  
HETATM   16  N   UNL     1      -9.726   6.739  71.793  1.00  0.00    -0.161 NA 
BRANCH   5  17
HETATM   17  C   UNL     1     -11.645   8.162  71.086  1.00  0.00    -0.306 A  
HETATM   18  C   UNL     1     -13.867   9.707  71.924  1.00  0.00    -0.291 A  
HETATM   19  C   UNL     1     -12.646  10.322  71.666  1.00  0.00    -0.534 A  
HETATM   20  C   UNL     1     -11.548   9.556  71.257  1.00  0.00    -0.445 A  
HETATM   21  C   UNL     1     -12.883   7.564  71.392  1.00  0.00    -0.381 A  
HETATM   22  C   UNL     1     -13.983   8.330  71.795  1.00  0.00    -0.476 A  
ENDBRANCH   5  17
ENDBRANCH   4   5
ENDBRANCH   3   4
ENDBRANCH   2   3
BRANCH   2  23
HETATM   23  C   UNL     1     -10.184  10.771  67.567  1.00  0.00    -0.231 A  
HETATM   24  F   UNL     1     -11.465  11.312  63.627  1.00  0.00    -0.471 F  
HETATM   25  C   UNL     1     -10.636  10.962  66.253  1.00  0.00    -0.276 A  
HETATM   26  F   UNL     1     -10.641  14.358  69.906  1.00  0.00    -0.170 F  
HETATM   27  C   UNL     1     -11.439  12.062  65.911  1.00  0.00    -0.392 A  
HETATM   28  C   UNL     1     -11.797  12.979  66.913  1.00  0.00    -0.442 A  
HETATM   29  F   UNL     1     -12.457  13.234  70.323  1.00  0.00    -0.360 F  
HETATM   30  C   UNL     1     -11.895  12.277  64.487  1.00  0.00    -0.369 C  
HETATM   31  F   UNL     1     -12.484  14.842  68.861  1.00  0.00    -0.225 F  
HETATM   32  C   UNL     1     -11.735  13.799  69.317  1.00  0.00    -0.327 C  
HETATM   33  F   UNL     1     -13.251  12.303  64.372  1.00  0.00    -0.501 F  
HETATM   34  F   UNL     1     -11.451  13.457  63.974  1.00  0.00    -0.375 F  
HETATM   35  C   UNL     1     -10.559  11.701  68.551  1.00  0.00    -0.241 A  
HETATM   36  C   UNL     1     -11.365  12.808  68.238  1.00  0.00    -0.335 A  
ENDBRANCH   2  23
TORSDOF 5
ENDMDL
MODEL       64
REMARK 921   NORMALIZED FREE ENERGY PREDICTED BY IDOCK:   -6.42 KCAL/MOL
REMARK 922        TOTAL FREE ENERGY PREDICTED BY IDOCK:  -11.16 KCAL/MOL
REMARK 923 INTER-LIGAND FREE ENERGY PREDICTED BY IDOCK:   -9.74 KCAL/MOL
REMARK 924 INTRA-LIGAND FREE ENERGY PREDICTED BY IDOCK:   -1.42 KCAL/MOL
REMARK 927      BINDING AFFINITY PREDICTED BY RF-SCORE:    0.00 PKD
ROOT
HETATM    1  C   UNL     1      -8.101   8.035  69.056  1.00  0.00    -0.123 C  
HETATM    2  C   UNL     1      -8.825   9.289  69.542  1.00  0.00    -0.151 C  
ENDROOT
BRANCH   2   3
HETATM    3  O   UNL     1      -9.505   9.940  68.470  1.00  0.00    -0.142 OA 
BRANCH   3   4
HETATM    4  C   UNL     1      -8.759  11.008  67.866  1.00  0.00    -0.133 C  
BRANCH   4   5
HETATM    5  C   UNL     1      -9.689  11.806  66.885  1.00  0.00    -0.198 C  
HETATM    6  C   UNL     1     -10.935  13.826  68.719  1.00  0.00    -0.264 C  
HETATM    7  C   UNL     1     -11.446  12.377  68.672  1.00  0.00    -0.348 C  
HETATM    8  N   UNL     1     -11.023  14.324  70.073  1.00  0.00    -0.028 NA 
HETATM    9  H   UNL     1      -9.759  13.758  66.162  1.00  0.00     0.000 HD 
HETATM   10  C   UNL     1     -11.171  11.707  67.323  1.00  0.00    -0.365 C  
HETATM   11  O   UNL     1     -11.511  16.278  71.174  1.00  0.00    -0.420 OA 
HETATM   12  C   UNL     1      -9.476  13.901  68.197  1.00  0.00    -0.207 C  
HETATM   13  C   UNL     1     -11.854  14.783  67.935  1.00  0.00    -0.327 C  
HETATM   14  C   UNL     1     -11.504  15.607  70.158  1.00  0.00    -0.348 C  
HETATM   15  C   UNL     1     -11.988  16.035  68.803  1.00  0.00    -0.088 C  
HETATM   16  N   UNL     1      -9.282  13.242  66.901  1.00  0.00    -0.236 NA 
BRANCH   5  17
HETATM   17  C   UNL     1      -9.588  11.247  65.440  1.00  0.00    -0.261 A  
HETATM   18  C   UNL     1      -9.410  10.269  62.787  1.00  0.00    -0.340 A  
HETATM   19  C   UNL     1     -10.269  11.322  63.087  1.00  0.00    -0.367 A  
HETATM   20  C   UNL     1     -10.359  11.801  64.399  1.00  0.00    -0.353 A  
HETATM   21  C   UNL     1      -8.758  10.158  65.112  1.00  0.00    -0.189 A  
HETATM   22  C   UNL     1      -8.663   9.682  63.799  1.00  0.00    -0.241 A  
ENDBRANCH   5  17
ENDBRANCH   4   5
ENDBRANCH   3   4
ENDBRANCH   2   3
BRANCH   2  23
HETATM   23  C   UNL     1      -9.844   8.900  70.603  1.00  0.00    -0.261 A  
HETATM   24  F   UNL     1      -9.109   5.513  72.936  1.00  0.00    -0.124 F  
HETATM   25  C   UNL     1      -9.610   7.774  71.406  1.00  0.00    -0.182 A  
HETATM   26  F   UNL     1     -14.012   9.985  70.623  1.00  0.00    -0.267 F  
HETATM   27  C   UNL     1     -10.564   7.331  72.336  1.00  0.00    -0.273 A  
HETATM   28  C   UNL     1     -11.769   8.040  72.463  1.00  0.00    -0.446 A  
HETATM   29  F   UNL     1     -13.146  11.227  72.185  1.00  0.00    -0.576 F  
HETATM   30  C   UNL     1     -10.316   6.099  73.174  1.00  0.00    -0.219 C  
HETATM   31  F   UNL     1     -14.188   9.392  72.706  1.00  0.00    -0.422 F  
HETATM   32  C   UNL     1     -13.327   9.934  71.800  1.00  0.00    -0.404 C  
HETATM   33  F   UNL     1     -10.348   6.361  74.509  1.00  0.00    -0.320 F  
HETATM   34  F   UNL     1     -11.248   5.130  72.958  1.00  0.00    -0.280 F  
HETATM   35  C   UNL     1     -11.056   9.593  70.752  1.00  0.00    -0.403 A  
HETATM   36  C   UNL     1     -12.027   9.175  71.678  1.00  0.00    -0.437 A  
ENDBRANCH   2  23
TORSDOF 5
ENDMDL
MODEL       65
REMARK 921   NORMALIZED FREE ENERGY PREDICTED BY IDOCK:   -6.40 KCAL/MOL
REMARK 922        TOTAL FREE ENERGY PREDICTED BY IDOCK:  -11.13 KCAL/MOL
REMARK 923 INTER-LIGAND FREE ENERGY PREDICTED BY IDOCK:   -8.56 KCAL/MOL
REMARK 924 INTRA-LIGAND FREE ENERGY PREDICTED BY IDOCK:   -2.57 KCAL/MOL
REMARK 927      BINDING AFFINITY PREDICTED BY RF-SCORE:    0.00 PKD
ROOT
HETATM    1  C   UNL     1     -11.733  11.151  69.956  1.00  0.00    -0.438 C  
HETATM    2  C   UNL     1     -11.408  12.107  68.809  1.00  0.00    -0.288 C  
ENDROOT
BRANCH   2   3
HETATM    3  O   UNL     1     -10.353  13.000  69.165  1.00  0.00    -0.016 OA 
BRANCH   3   4
HETATM    4  C   UNL     1     -10.362  14.237  68.437  1.00  0.00    -0.247 C  
BRANCH   4   5
HETATM    5  C   UNL     1      -8.910  14.557  67.933  1.00  0.00    -0.176 C  
HETATM    6  C   UNL     1      -9.117  17.471  67.255  1.00  0.00    -0.239 C  
HETATM    7  C   UNL     1      -9.651  16.395  66.296  1.00  0.00    -0.338 C  
HETATM    8  N   UNL     1      -9.976  18.633  67.201  1.00  0.00    -0.316 NA 
HETATM    9  H   UNL     1      -7.336  15.751  68.595  1.00  0.00     0.000 HD 
HETATM   10  C   UNL     1      -8.930  15.056  66.467  1.00  0.00    -0.310 C  
HETATM   11  O   UNL     1      -9.808  20.920  67.286  1.00  0.00    -0.444 OA 
HETATM   12  C   UNL     1      -9.034  16.913  68.701  1.00  0.00    -0.266 C  
HETATM   13  C   UNL     1      -7.755  18.024  66.795  1.00  0.00    -0.252 C  
HETATM   14  C   UNL     1      -9.293  19.822  67.172  1.00  0.00    -0.351 C  
HETATM   15  C   UNL     1      -7.829  19.539  67.000  1.00  0.00    -0.286 C  
HETATM   16  N   UNL     1      -8.330  15.630  68.793  1.00  0.00    -0.174 NA 
BRANCH   5  17
HETATM   17  C   UNL     1      -8.008  13.294  67.987  1.00  0.00    -0.152 A  
HETATM   18  C   UNL     1      -6.377  10.983  68.127  1.00  0.00    -0.056 A  
HETATM   19  C   UNL     1      -6.592  11.756  69.264  1.00  0.00    -0.112 A  
HETATM   20  C   UNL     1      -7.394  12.900  69.191  1.00  0.00     0.147 A  
HETATM   21  C   UNL     1      -7.739  12.513  66.847  1.00  0.00     0.050 A  
HETATM   22  C   UNL     1      -6.942  11.366  66.919  1.00  0.00    -0.140 A  
ENDBRANCH   5  17
ENDBRANCH   4   5
ENDBRANCH   3   4
ENDBRANCH   2   3
BRANCH   2  23
HETATM   23  C   UNL     1     -10.978  11.302  67.592  1.00  0.00    -0.312 A  
HETATM   24  F   UNL     1      -9.140   7.599  68.190  1.00  0.00    -0.132 F  
HETATM   25  C   UNL     1     -10.372  10.050  67.771  1.00  0.00    -0.261 A  
HETATM   26  F   UNL     1     -10.144  12.890  63.677  1.00  0.00    -0.392 F  
HETATM   27  C   UNL     1      -9.882   9.315  66.680  1.00  0.00    -0.311 A  
HETATM   28  C   UNL     1     -10.015   9.848  65.387  1.00  0.00    -0.349 A  
HETATM   29  F   UNL     1     -12.055  11.882  63.429  1.00  0.00    -0.537 F  
HETATM   30  C   UNL     1      -9.202   7.982  66.884  1.00  0.00    -0.154 C  
HETATM   31  F   UNL     1     -10.217  10.895  62.818  1.00  0.00    -0.304 F  
HETATM   32  C   UNL     1     -10.759  11.680  63.792  1.00  0.00    -0.419 C  
HETATM   33  F   UNL     1      -9.829   6.969  66.227  1.00  0.00    -0.214 F  
HETATM   34  F   UNL     1      -7.917   7.983  66.437  1.00  0.00    -0.093 F  
HETATM   35  C   UNL     1     -11.102  11.811  66.289  1.00  0.00    -0.364 A  
HETATM   36  C   UNL     1     -10.626  11.095  65.178  1.00  0.00    -0.319 A  
ENDBRANCH   2  23
TORSDOF 5
ENDMDL
MODEL       66
REMARK 921   NORMALIZED FREE ENERGY PREDICTED BY IDOCK:   -6.35 KCAL/MOL
REMARK 922        TOTAL FREE ENERGY PREDICTED BY IDOCK:  -11.07 KCAL/MOL
REMARK 923 INTER-LIGAND FREE ENERGY PREDICTED BY IDOCK:   -8.97 KCAL/MOL
REMARK 924 INTRA-LIGAND FREE ENERGY PREDICTED BY IDOCK:   -2.10 KCAL/MOL
REMARK 927      BINDING AFFINITY PREDICTED BY RF-SCORE:    0.00 PKD
ROOT
HETATM    1  C   UNL     1      -9.031  10.985  68.504  1.00  0.00    -0.163 C  
HETATM    2  C   UNL     1     -10.422  10.430  68.204  1.00  0.00    -0.188 C  
ENDROOT
BRANCH   2   3
HETATM    3  O   UNL     1     -10.404   9.004  68.135  1.00  0.00    -0.199 OA 
BRANCH   3   4
HETATM    4  C   UNL     1      -9.129   8.419  68.439  1.00  0.00    -0.135 C  
BRANCH   4   5
HETATM    5  C   UNL     1      -9.345   7.033  69.143  1.00  0.00    -0.140 C  
HETATM    6  C   UNL     1      -9.363   5.148  66.811  1.00  0.00    -0.134 C  
HETATM    7  C   UNL     1     -10.605   5.980  67.166  1.00  0.00    -0.374 C  
HETATM    8  N   UNL     1      -9.267   5.015  65.374  1.00  0.00    -0.156 NA 
HETATM    9  H   UNL     1      -8.221   5.295  69.380  1.00  0.00     0.000 HD 
HETATM   10  C   UNL     1     -10.647   6.357  68.649  1.00  0.00    -0.300 C  
HETATM   11  O   UNL     1      -8.641   3.451  63.815  1.00  0.00    -0.090 OA 
HETATM   12  C   UNL     1      -8.085   5.810  67.390  1.00  0.00    -0.102 C  
HETATM   13  C   UNL     1      -9.496   3.689  67.287  1.00  0.00    -0.235 C  
HETATM   14  C   UNL     1      -8.932   3.751  64.959  1.00  0.00    -0.131 C  
HETATM   15  C   UNL     1      -8.963   2.826  66.141  1.00  0.00    -0.145 C  
HETATM   16  N   UNL     1      -8.192   6.143  68.814  1.00  0.00    -0.107 NA 
BRANCH   5  17
HETATM   17  C   UNL     1      -9.457   7.199  70.683  1.00  0.00    -0.161 A  
HETATM   18  C   UNL     1      -9.666   7.460  73.496  1.00  0.00    -0.338 A  
HETATM   19  C   UNL     1     -10.404   6.488  72.828  1.00  0.00    -0.224 A  
HETATM   20  C   UNL     1     -10.303   6.364  71.437  1.00  0.00    -0.240 A  
HETATM   21  C   UNL     1      -8.753   8.198  71.383  1.00  0.00    -0.179 A  
HETATM   22  C   UNL     1      -8.849   8.319  72.774  1.00  0.00    -0.310 A  
ENDBRANCH   5  17
ENDBRANCH   4   5
ENDBRANCH   3   4
ENDBRANCH   2   3
BRANCH   2  23
HETATM   23  C   UNL     1     -11.379  10.854  69.307  1.00  0.00    -0.345 A  
HETATM   24  F   UNL     1     -11.841  14.931  70.096  1.00  0.00    -0.266 F  
HETATM   25  C   UNL     1     -11.559  12.219  69.579  1.00  0.00    -0.366 A  
HETATM   26  F   UNL     1     -12.639   8.427  72.634  1.00  0.00    -0.393 F  
HETATM   27  C   UNL     1     -12.366  12.650  70.644  1.00  0.00    -0.375 A  
HETATM   28  C   UNL     1     -13.008  11.689  71.442  1.00  0.00    -0.426 A  
HETATM   29  F   UNL     1     -14.394   8.495  71.350  1.00  0.00    -0.444 F  
HETATM   30  C   UNL     1     -12.528  14.120  70.949  1.00  0.00    -0.365 C  
HETATM   31  F   UNL     1     -14.255   9.812  73.073  1.00  0.00    -0.083 F  
HETATM   32  C   UNL     1     -13.530   9.278  72.051  1.00  0.00    -0.451 C  
HETATM   33  F   UNL     1     -13.825  14.526  70.887  1.00  0.00    -0.395 F  
HETATM   34  F   UNL     1     -12.092  14.441  72.198  1.00  0.00    -0.362 F  
HETATM   35  C   UNL     1     -12.035   9.914  70.118  1.00  0.00    -0.146 A  
HETATM   36  C   UNL     1     -12.852  10.317  71.188  1.00  0.00    -0.504 A  
ENDBRANCH   2  23
TORSDOF 5
ENDMDL
MODEL       67
REMARK 921   NORMALIZED FREE ENERGY PREDICTED BY IDOCK:   -6.35 KCAL/MOL
REMARK 922        TOTAL FREE ENERGY PREDICTED BY IDOCK:  -11.06 KCAL/MOL
REMARK 923 INTER-LIGAND FREE ENERGY PREDICTED BY IDOCK:   -7.65 KCAL/MOL
REMARK 924 INTRA-LIGAND FREE ENERGY PREDICTED BY IDOCK:   -3.41 KCAL/MOL
REMARK 927      BINDING AFFINITY PREDICTED BY RF-SCORE:    0.00 PKD
ROOT
HETATM    1  C   UNL     1      -5.239  12.736  67.554  1.00  0.00    -0.072 C  
HETATM    2  C   UNL     1      -6.357  12.637  68.590  1.00  0.00    -0.074 C  
ENDROOT
BRANCH   2   3
HETATM    3  O   UNL     1      -7.105  13.850  68.660  1.00  0.00    -0.097 OA 
BRANCH   3   4
HETATM    4  C   UNL     1      -7.337  14.470  67.386  1.00  0.00    -0.157 C  
BRANCH   4   5
HETATM    5  C   UNL     1      -8.812  15.005  67.326  1.00  0.00    -0.201 C  
HETATM    6  C   UNL     1      -8.399  17.972  67.467  1.00  0.00    -0.233 C  
HETATM    7  C   UNL     1      -8.335  17.102  68.733  1.00  0.00    -0.236 C  
HETATM    8  N   UNL     1      -7.437  19.047  67.573  1.00  0.00    -0.230 NA 
HETATM    9  H   UNL     1      -9.929  16.136  65.980  1.00  0.00     0.000 HD 
HETATM   10  C   UNL     1      -9.157  15.819  68.598  1.00  0.00    -0.204 C  
HETATM   11  O   UNL     1      -7.243  21.262  67.005  1.00  0.00    -0.423 OA 
HETATM   12  C   UNL     1      -8.128  17.111  66.206  1.00  0.00    -0.290 C  
HETATM   13  C   UNL     1      -9.743  18.718  67.352  1.00  0.00    -0.340 C  
HETATM   14  C   UNL     1      -7.921  20.261  67.154  1.00  0.00    -0.339 C  
HETATM   15  C   UNL     1      -9.394  20.137  66.897  1.00  0.00    -0.522 C  
HETATM   16  N   UNL     1      -8.949  15.898  66.138  1.00  0.00    -0.341 NA 
BRANCH   5  17
HETATM   17  C   UNL     1      -9.828  13.835  67.226  1.00  0.00    -0.241 A  
HETATM   18  C   UNL     1     -11.658  11.684  67.012  1.00  0.00    -0.268 A  
HETATM   19  C   UNL     1     -10.987  12.145  65.884  1.00  0.00    -0.332 A  
HETATM   20  C   UNL     1     -10.088  13.212  65.991  1.00  0.00    -0.286 A  
HETATM   21  C   UNL     1     -10.550  13.371  68.342  1.00  0.00    -0.259 A  
HETATM   22  C   UNL     1     -11.446  12.300  68.238  1.00  0.00    -0.367 A  
ENDBRANCH   5  17
ENDBRANCH   4   5
ENDBRANCH   3   4
ENDBRANCH   2   3
BRANCH   2  23
HETATM   23  C   UNL     1      -7.297  11.504  68.206  1.00  0.00    -0.091 A  
HETATM   24  F   UNL     1      -9.428   9.559  71.227  1.00  0.00    -0.310 F  
HETATM   25  C   UNL     1      -8.032  10.847  69.204  1.00  0.00    -0.114 A  
HETATM   26  F   UNL     1      -7.047   9.116  64.630  1.00  0.00    -0.086 F  
HETATM   27  C   UNL     1      -8.843   9.741  68.902  1.00  0.00    -0.140 A  
HETATM   28  C   UNL     1      -8.921   9.298  67.572  1.00  0.00    -0.127 A  
HETATM   29  F   UNL     1      -8.764  10.404  64.273  1.00  0.00    -0.165 F  
HETATM   30  C   UNL     1      -9.606   9.020  69.988  1.00  0.00    -0.186 C  
HETATM   31  F   UNL     1      -9.059   8.361  64.956  1.00  0.00    -0.150 F  
HETATM   32  C   UNL     1      -8.270   9.461  65.121  1.00  0.00    -0.135 C  
HETATM   33  F   UNL     1     -10.949   9.020  69.770  1.00  0.00    -0.233 F  
HETATM   34  F   UNL     1      -9.241   7.714  70.096  1.00  0.00    -0.151 F  
HETATM   35  C   UNL     1      -7.394  11.043  66.883  1.00  0.00    -0.133 A  
HETATM   36  C   UNL     1      -8.202   9.942  66.552  1.00  0.00    -0.121 A  
ENDBRANCH   2  23
TORSDOF 5
ENDMDL
MODEL       68
REMARK 921   NORMALIZED FREE ENERGY PREDICTED BY IDOCK:   -6.33 KCAL/MOL
REMARK 922        TOTAL FREE ENERGY PREDICTED BY IDOCK:  -11.04 KCAL/MOL
REMARK 923 INTER-LIGAND FREE ENERGY PREDICTED BY IDOCK:   -8.87 KCAL/MOL
REMARK 924 INTRA-LIGAND FREE ENERGY PREDICTED BY IDOCK:   -2.17 KCAL/MOL
REMARK 927      BINDING AFFINITY PREDICTED BY RF-SCORE:    0.00 PKD
ROOT
HETATM    1  C   UNL     1     -12.694  11.381  71.537  1.00  0.00    -0.462 C  
HETATM    2  C   UNL     1     -12.128  10.887  70.207  1.00  0.00    -0.355 C  
ENDROOT
BRANCH   2   3
HETATM    3  O   UNL     1     -11.411  11.923  69.535  1.00  0.00    -0.279 OA 
BRANCH   3   4
HETATM    4  C   UNL     1     -11.850  12.160  68.189  1.00  0.00    -0.299 C  
BRANCH   4   5
HETATM    5  C   UNL     1     -10.600  12.357  67.260  1.00  0.00    -0.223 C  
HETATM    6  C   UNL     1     -10.428  15.346  67.081  1.00  0.00    -0.290 C  
HETATM    7  C   UNL     1     -11.441  14.558  66.234  1.00  0.00    -0.358 C  
HETATM    8  N   UNL     1     -11.011  16.608  67.478  1.00  0.00    -0.214 NA 
HETATM    9  H   UNL     1      -8.694  13.167  67.486  1.00  0.00     0.000 HD 
HETATM   10  C   UNL     1     -10.984  13.122  65.969  1.00  0.00    -0.295 C  
HETATM   11  O   UNL     1     -10.374  18.790  67.796  1.00  0.00    -0.371 OA 
HETATM   12  C   UNL     1     -10.003  14.519  68.322  1.00  0.00    -0.229 C  
HETATM   13  C   UNL     1      -9.201  15.775  66.253  1.00  0.00    -0.368 C  
HETATM   14  C   UNL     1     -10.151  17.671  67.369  1.00  0.00    -0.331 C  
HETATM   15  C   UNL     1      -8.904  17.218  66.666  1.00  0.00    -0.280 C  
HETATM   16  N   UNL     1      -9.576  13.154  67.998  1.00  0.00    -0.215 NA 
BRANCH   5  17
HETATM   17  C   UNL     1      -9.997  10.991  66.835  1.00  0.00    -0.231 A  
HETATM   18  C   UNL     1      -8.857   8.513  66.072  1.00  0.00    -0.208 A  
HETATM   19  C   UNL     1      -8.140   9.693  65.903  1.00  0.00    -0.112 A  
HETATM   20  C   UNL     1      -8.707  10.917  66.276  1.00  0.00    -0.175 A  
HETATM   21  C   UNL     1     -10.712   9.784  66.957  1.00  0.00    -0.236 A  
HETATM   22  C   UNL     1     -10.144   8.559  66.590  1.00  0.00    -0.364 A  
ENDBRANCH   5  17
ENDBRANCH   4   5
ENDBRANCH   3   4
ENDBRANCH   2   3
BRANCH   2  23
HETATM   23  C   UNL     1     -11.181   9.726  70.466  1.00  0.00    -0.381 A  
HETATM   24  F   UNL     1     -12.720   6.226  72.151  1.00  0.00    -0.369 F  
HETATM   25  C   UNL     1     -11.680   8.537  71.019  1.00  0.00    -0.310 A  
HETATM   26  F   UNL     1      -6.915  10.009  70.984  1.00  0.00    -0.079 F  
HETATM   27  C   UNL     1     -10.826   7.474  71.354  1.00  0.00    -0.251 A  
HETATM   28  C   UNL     1      -9.448   7.609  71.119  1.00  0.00    -0.163 A  
HETATM   29  F   UNL     1      -7.138   9.134  69.005  1.00  0.00    -0.062 F  
HETATM   30  C   UNL     1     -11.369   6.209  71.978  1.00  0.00    -0.297 C  
HETATM   31  F   UNL     1      -6.708   7.863  70.715  1.00  0.00    -0.038 F  
HETATM   32  C   UNL     1      -7.439   8.942  70.318  1.00  0.00    -0.074 C  
HETATM   33  F   UNL     1     -11.101   5.103  71.232  1.00  0.00    -0.214 F  
HETATM   34  F   UNL     1     -10.840   5.972  73.209  1.00  0.00    -0.240 F  
HETATM   35  C   UNL     1      -9.799   9.834  70.239  1.00  0.00    -0.296 A  
HETATM   36  C   UNL     1      -8.922   8.785  70.560  1.00  0.00    -0.203 A  
ENDBRANCH   2  23
TORSDOF 5
ENDMDL
MODEL       69
REMARK 921   NORMALIZED FREE ENERGY PREDICTED BY IDOCK:   -6.32 KCAL/MOL
REMARK 922        TOTAL FREE ENERGY PREDICTED BY IDOCK:  -11.03 KCAL/MOL
REMARK 923 INTER-LIGAND FREE ENERGY PREDICTED BY IDOCK:   -9.54 KCAL/MOL
REMARK 924 INTRA-LIGAND FREE ENERGY PREDICTED BY IDOCK:   -1.49 KCAL/MOL
REMARK 927      BINDING AFFINITY PREDICTED BY RF-SCORE:    0.00 PKD
ROOT
HETATM    1  C   UNL     1      -8.255   9.249  67.054  1.00  0.00    -0.116 C  
HETATM    2  C   UNL     1      -9.747   9.107  66.759  1.00  0.00    -0.210 C  
ENDROOT
BRANCH   2   3
HETATM    3  O   UNL     1     -10.433   8.496  67.851  1.00  0.00    -0.224 OA 
BRANCH   3   4
HETATM    4  C   UNL     1      -9.627   8.322  69.026  1.00  0.00    -0.156 C  
BRANCH   4   5
HETATM    5  C   UNL     1     -10.434   7.508  70.098  1.00  0.00    -0.222 C  
HETATM    6  C   UNL     1      -9.167   4.797  69.900  1.00  0.00    -0.124 C  
HETATM    7  C   UNL     1     -10.212   5.260  68.872  1.00  0.00    -0.248 C  
HETATM    8  N   UNL     1      -8.171   3.983  69.241  1.00  0.00    -0.061 NA 
HETATM    9  H   UNL     1      -9.986   6.588  71.912  1.00  0.00     0.000 HD 
HETATM   10  C   UNL     1     -11.167   6.309  69.447  1.00  0.00    -0.489 C  
HETATM   11  O   UNL     1      -6.891   2.126  69.665  1.00  0.00    -0.033 OA 
HETATM   12  C   UNL     1      -8.510   6.021  70.592  1.00  0.00    -0.133 C  
HETATM   13  C   UNL     1      -9.773   3.833  70.938  1.00  0.00    -0.248 C  
HETATM   14  C   UNL     1      -7.818   2.863  69.950  1.00  0.00    -0.042 C  
HETATM   15  C   UNL     1      -8.740   2.720  71.125  1.00  0.00    -0.117 C  
HETATM   16  N   UNL     1      -9.481   6.985  71.121  1.00  0.00    -0.165 NA 
BRANCH   5  17
HETATM   17  C   UNL     1     -11.506   8.397  70.785  1.00  0.00    -0.277 A  
HETATM   18  C   UNL     1     -13.461  10.045  72.004  1.00  0.00    -0.448 A  
HETATM   19  C   UNL     1     -12.452  10.613  71.231  1.00  0.00    -0.515 A  
HETATM   20  C   UNL     1     -11.485   9.797  70.634  1.00  0.00    -0.397 A  
HETATM   21  C   UNL     1     -12.516   7.857  71.604  1.00  0.00    -0.344 A  
HETATM   22  C   UNL     1     -13.488   8.671  72.197  1.00  0.00    -0.434 A  
ENDBRANCH   5  17
ENDBRANCH   4   5
ENDBRANCH   3   4
ENDBRANCH   2   3
BRANCH   2  23
HETATM   23  C   UNL     1     -10.342  10.486  66.516  1.00  0.00    -0.294 A  
HETATM   24  F   UNL     1     -10.976  12.998  69.794  1.00  0.00    -0.139 F  
HETATM   25  C   UNL     1     -10.551  11.350  67.602  1.00  0.00    -0.240 A  
HETATM   26  F   UNL     1     -12.730  11.646  63.125  1.00  0.00    -0.696 F  
HETATM   27  C   UNL     1     -11.177  12.595  67.432  1.00  0.00    -0.337 A  
HETATM   28  C   UNL     1     -11.592  12.977  66.146  1.00  0.00    -0.412 A  
HETATM   29  F   UNL     1     -10.819  12.621  62.769  1.00  0.00    -0.152 F  
HETATM   30  C   UNL     1     -11.426  13.505  68.612  1.00  0.00    -0.308 C  
HETATM   31  F   UNL     1     -12.472  13.745  63.622  1.00  0.00    -0.476 F  
HETATM   32  C   UNL     1     -11.846  12.535  63.657  1.00  0.00    -0.530 C  
HETATM   33  F   UNL     1     -10.824  14.717  68.471  1.00  0.00    -0.228 F  
HETATM   34  F   UNL     1     -12.749  13.761  68.798  1.00  0.00    -0.154 F  
HETATM   35  C   UNL     1     -10.764  10.893  65.240  1.00  0.00    -0.194 A  
HETATM   36  C   UNL     1     -11.390  12.136  65.041  1.00  0.00    -0.379 A  
ENDBRANCH   2  23
TORSDOF 5
ENDMDL
MODEL       70
REMARK 921   NORMALIZED FREE ENERGY PREDICTED BY IDOCK:   -6.32 KCAL/MOL
REMARK 922        TOTAL FREE ENERGY PREDICTED BY IDOCK:  -11.03 KCAL/MOL
REMARK 923 INTER-LIGAND FREE ENERGY PREDICTED BY IDOCK:   -9.07 KCAL/MOL
REMARK 924 INTRA-LIGAND FREE ENERGY PREDICTED BY IDOCK:   -1.96 KCAL/MOL
REMARK 927      BINDING AFFINITY PREDICTED BY RF-SCORE:    0.00 PKD
ROOT
HETATM    1  C   UNL     1     -12.032  11.482  70.098  1.00  0.00    -0.452 C  
HETATM    2  C   UNL     1     -11.508  11.664  68.675  1.00  0.00    -0.290 C  
ENDROOT
BRANCH   2   3
HETATM    3  O   UNL     1     -10.650  12.802  68.582  1.00  0.00    -0.247 OA 
BRANCH   3   4
HETATM    4  C   UNL     1     -11.317  14.006  68.173  1.00  0.00    -0.292 C  
BRANCH   4   5
HETATM    5  C   UNL     1     -10.713  14.499  66.810  1.00  0.00    -0.291 C  
HETATM    6  C   UNL     1      -9.113  16.885  67.669  1.00  0.00    -0.223 C  
HETATM    7  C   UNL     1     -10.637  16.975  67.493  1.00  0.00    -0.310 C  
HETATM    8  N   UNL     1      -8.706  17.723  68.775  1.00  0.00    -0.246 NA 
HETATM    9  H   UNL     1      -8.801  14.642  65.997  1.00  0.00     0.000 HD 
HETATM   10  C   UNL     1     -11.168  15.945  66.494  1.00  0.00     0.082 C  
HETATM   11  O   UNL     1      -6.965  19.099  69.360  1.00  0.00    -0.303 OA 
HETATM   12  C   UNL     1      -8.682  15.413  67.904  1.00  0.00    -0.160 C  
HETATM   13  C   UNL     1      -8.361  17.499  66.473  1.00  0.00    -0.304 C  
HETATM   14  C   UNL     1      -7.573  18.455  68.524  1.00  0.00    -0.301 C  
HETATM   15  C   UNL     1      -7.210  18.309  67.075  1.00  0.00    -0.220 C  
HETATM   16  N   UNL     1      -9.224  14.479  66.911  1.00  0.00    -0.239 NA 
BRANCH   5  17
HETATM   17  C   UNL     1     -11.172  13.594  65.635  1.00  0.00    -0.305 A  
HETATM   18  C   UNL     1     -11.971  11.921  63.492  1.00  0.00    -0.567 A  
HETATM   19  C   UNL     1     -10.640  12.307  63.619  1.00  0.00    -0.501 A  
HETATM   20  C   UNL     1     -10.249  13.137  64.675  1.00  0.00    -0.327 A  
HETATM   21  C   UNL     1     -12.518  13.218  65.457  1.00  0.00    -0.531 A  
HETATM   22  C   UNL     1     -12.910  12.383  64.405  1.00  0.00    -0.344 A  
ENDBRANCH   5  17
ENDBRANCH   4   5
ENDBRANCH   3   4
ENDBRANCH   2   3
BRANCH   2  23
HETATM   23  C   UNL     1     -10.723  10.426  68.268  1.00  0.00    -0.275 A  
HETATM   24  F   UNL     1      -8.367  10.593  64.822  1.00  0.00    -0.171 F  
HETATM   25  C   UNL     1      -9.916  10.465  67.121  1.00  0.00    -0.239 A  
HETATM   26  F   UNL     1     -11.648   6.370  69.380  1.00  0.00    -0.439 F  
HETATM   27  C   UNL     1      -9.245   9.320  66.663  1.00  0.00    -0.190 A  
HETATM   28  C   UNL     1      -9.384   8.120  67.377  1.00  0.00    -0.171 A  
HETATM   29  F   UNL     1      -9.897   6.848  70.579  1.00  0.00    -0.177 F  
HETATM   30  C   UNL     1      -8.402   9.364  65.410  1.00  0.00    -0.137 C  
HETATM   31  F   UNL     1      -9.678   5.712  68.739  1.00  0.00    -0.131 F  
HETATM   32  C   UNL     1     -10.345   6.761  69.298  1.00  0.00    -0.200 C  
HETATM   33  F   UNL     1      -7.106   9.023  65.640  1.00  0.00    -0.077 F  
HETATM   34  F   UNL     1      -8.854   8.508  64.453  1.00  0.00    -0.143 F  
HETATM   35  C   UNL     1     -10.844   9.213  68.966  1.00  0.00    -0.115 A  
HETATM   36  C   UNL     1     -10.180   8.053  68.532  1.00  0.00    -0.231 A  
ENDBRANCH   2  23
TORSDOF 5
ENDMDL
MODEL       71
REMARK 921   NORMALIZED FREE ENERGY PREDICTED BY IDOCK:   -6.27 KCAL/MOL
REMARK 922        TOTAL FREE ENERGY PREDICTED BY IDOCK:  -10.97 KCAL/MOL
REMARK 923 INTER-LIGAND FREE ENERGY PREDICTED BY IDOCK:   -8.79 KCAL/MOL
REMARK 924 INTRA-LIGAND FREE ENERGY PREDICTED BY IDOCK:   -2.18 KCAL/MOL
REMARK 927      BINDING AFFINITY PREDICTED BY RF-SCORE:    0.00 PKD
ROOT
HETATM    1  C   UNL     1     -11.157   6.745  67.206  1.00  0.00    -0.394 C  
HETATM    2  C   UNL     1     -10.087   6.294  68.198  1.00  0.00    -0.152 C  
ENDROOT
BRANCH   2   3
HETATM    3  O   UNL     1      -8.972   7.185  68.197  1.00  0.00    -0.129 OA 
BRANCH   3   4
HETATM    4  C   UNL     1      -9.182   8.383  67.434  1.00  0.00    -0.140 C  
BRANCH   4   5
HETATM    5  C   UNL     1      -9.058   9.631  68.378  1.00  0.00    -0.123 C  
HETATM    6  C   UNL     1     -10.614  11.705  66.870  1.00  0.00    -0.241 C  
HETATM    7  C   UNL     1      -9.171  11.353  66.474  1.00  0.00    -0.200 C  
HETATM    8  N   UNL     1     -11.381  12.001  65.681  1.00  0.00    -0.340 NA 
HETATM    9  H   UNL     1     -10.381  10.771  69.515  1.00  0.00     0.000 HD 
HETATM   10  C   UNL     1      -8.361  10.808  67.653  1.00  0.00    -0.119 C  
HETATM   11  O   UNL     1     -13.045  13.428  65.001  1.00  0.00    -0.734 OA 
HETATM   12  C   UNL     1     -11.256  10.538  67.665  1.00  0.00    -0.265 C  
HETATM   13  C   UNL     1     -10.684  13.023  67.666  1.00  0.00    -0.239 C  
HETATM   14  C   UNL     1     -12.199  13.095  65.811  1.00  0.00    -0.456 C  
HETATM   15  C   UNL     1     -11.890  13.782  67.110  1.00  0.00    -0.441 C  
HETATM   16  N   UNL     1     -10.429  10.065  68.781  1.00  0.00    -0.198 NA 
BRANCH   5  17
HETATM   17  C   UNL     1      -8.221   9.296  69.642  1.00  0.00    -0.126 A  
HETATM   18  C   UNL     1      -6.663   8.714  71.935  1.00  0.00    -0.078 A  
HETATM   19  C   UNL     1      -6.042   9.010  70.726  1.00  0.00    -0.044 A  
HETATM   20  C   UNL     1      -6.814   9.292  69.593  1.00  0.00    -0.055 A  
HETATM   21  C   UNL     1      -8.819   8.954  70.870  1.00  0.00    -0.268 A  
HETATM   22  C   UNL     1      -8.049   8.678  72.005  1.00  0.00    -0.131 A  
ENDBRANCH   5  17
ENDBRANCH   4   5
ENDBRANCH   3   4
ENDBRANCH   2   3
BRANCH   2  23
HETATM   23  C   UNL     1     -10.683   6.259  69.597  1.00  0.00    -0.367 A  
HETATM   24  F   UNL     1     -13.356   9.272  70.707  1.00  0.00    -0.213 F  
HETATM   25  C   UNL     1     -11.594   7.254  69.985  1.00  0.00    -0.088 A  
HETATM   26  F   UNL     1      -8.976   4.290  73.026  1.00  0.00    -0.106 F  
HETATM   27  C   UNL     1     -12.100   7.308  71.294  1.00  0.00    -0.373 A  
HETATM   28  C   UNL     1     -11.689   6.338  72.222  1.00  0.00    -0.344 A  
HETATM   29  F   UNL     1     -10.658   3.021  72.486  1.00  0.00    -0.227 F  
HETATM   30  C   UNL     1     -13.055   8.401  71.711  1.00  0.00    -0.351 C  
HETATM   31  F   UNL     1     -10.857   4.463  74.101  1.00  0.00    -0.278 F  
HETATM   32  C   UNL     1     -10.328   4.288  72.857  1.00  0.00    -0.175 C  
HETATM   33  F   UNL     1     -14.245   7.913  72.153  1.00  0.00    -0.399 F  
HETATM   34  F   UNL     1     -12.559   9.161  72.725  1.00  0.00    -0.401 F  
HETATM   35  C   UNL     1     -10.291   5.299  70.544  1.00  0.00    -0.336 A  
HETATM   36  C   UNL     1     -10.785   5.326  71.859  1.00  0.00    -0.252 A  
ENDBRANCH   2  23
TORSDOF 5
ENDMDL
MODEL       72
REMARK 921   NORMALIZED FREE ENERGY PREDICTED BY IDOCK:   -6.27 KCAL/MOL
REMARK 922        TOTAL FREE ENERGY PREDICTED BY IDOCK:  -10.96 KCAL/MOL
REMARK 923 INTER-LIGAND FREE ENERGY PREDICTED BY IDOCK:   -9.05 KCAL/MOL
REMARK 924 INTRA-LIGAND FREE ENERGY PREDICTED BY IDOCK:   -1.91 KCAL/MOL
REMARK 927      BINDING AFFINITY PREDICTED BY RF-SCORE:    0.00 PKD
ROOT
HETATM    1  C   UNL     1      -9.097  10.793  66.805  1.00  0.00    -0.167 C  
HETATM    2  C   UNL     1     -10.553  10.387  67.028  1.00  0.00    -0.245 C  
ENDROOT
BRANCH   2   3
HETATM    3  O   UNL     1     -10.654   9.014  67.402  1.00  0.00    -0.275 OA 
BRANCH   3   4
HETATM    4  C   UNL     1      -9.389   8.346  67.525  1.00  0.00    -0.147 C  
BRANCH   4   5
HETATM    5  C   UNL     1      -9.567   7.044  68.385  1.00  0.00    -0.135 C  
HETATM    6  C   UNL     1      -9.426   4.898  66.295  1.00  0.00    -0.158 C  
HETATM    7  C   UNL     1     -10.715   5.707  66.514  1.00  0.00    -0.296 C  
HETATM    8  N   UNL     1      -9.278   4.600  64.888  1.00  0.00    -0.155 NA 
HETATM    9  H   UNL     1      -8.377   5.401  68.858  1.00  0.00     0.000 HD 
HETATM   10  C   UNL     1     -10.822   6.254  67.939  1.00  0.00    -0.417 C  
HETATM   11  O   UNL     1      -8.535   2.895  63.545  1.00  0.00    -0.085 OA 
HETATM   12  C   UNL     1      -8.198   5.683  66.825  1.00  0.00    -0.105 C  
HETATM   13  C   UNL     1      -9.511   3.500  66.939  1.00  0.00    -0.198 C  
HETATM   14  C   UNL     1      -8.875   3.313  64.636  1.00  0.00    -0.113 C  
HETATM   15  C   UNL     1      -8.904   2.534  65.919  1.00  0.00    -0.131 C  
HETATM   16  N   UNL     1      -8.366   6.177  68.196  1.00  0.00    -0.114 NA 
BRANCH   5  17
HETATM   17  C   UNL     1      -9.737   7.386  69.890  1.00  0.00    -0.171 A  
HETATM   18  C   UNL     1     -10.043   8.053  72.626  1.00  0.00    -0.370 A  
HETATM   19  C   UNL     1      -9.215   8.817  71.809  1.00  0.00    -0.332 A  
HETATM   20  C   UNL     1      -9.061   8.482  70.459  1.00  0.00    -0.174 A  
HETATM   21  C   UNL     1     -10.537   6.611  70.750  1.00  0.00    -0.265 A  
HETATM   22  C   UNL     1     -10.697   6.947  72.099  1.00  0.00    -0.248 A  
ENDBRANCH   5  17
ENDBRANCH   4   5
ENDBRANCH   3   4
ENDBRANCH   2   3
BRANCH   2  23
HETATM   23  C   UNL     1     -11.146  11.242  68.138  1.00  0.00    -0.319 A  
HETATM   24  F   UNL     1     -10.567  15.377  68.007  1.00  0.00    -0.242 F  
HETATM   25  C   UNL     1     -10.975  12.634  68.105  1.00  0.00    -0.265 A  
HETATM   26  F   UNL     1     -12.160   9.892  72.100  1.00  0.00    -0.415 F  
HETATM   27  C   UNL     1     -11.431  13.449  69.153  1.00  0.00    -0.351 A  
HETATM   28  C   UNL     1     -12.079  12.851  70.247  1.00  0.00    -0.377 A  
HETATM   29  F   UNL     1     -14.091  10.150  71.132  1.00  0.00    -0.102 F  
HETATM   30  C   UNL     1     -11.214  14.944  69.125  1.00  0.00    -0.279 C  
HETATM   31  F   UNL     1     -13.321  11.695  72.451  1.00  0.00    -0.599 F  
HETATM   32  C   UNL     1     -12.954  10.810  71.482  1.00  0.00    -0.456 C  
HETATM   33  F   UNL     1     -12.381  15.641  69.176  1.00  0.00    -0.332 F  
HETATM   34  F   UNL     1     -10.468  15.378  70.177  1.00  0.00    -0.268 F  
HETATM   35  C   UNL     1     -11.800  10.669  69.241  1.00  0.00    -0.309 A  
HETATM   36  C   UNL     1     -12.271  11.461  70.302  1.00  0.00    -0.433 A  
ENDBRANCH   2  23
TORSDOF 5
ENDMDL
MODEL       73
REMARK 921   NORMALIZED FREE ENERGY PREDICTED BY IDOCK:   -6.26 KCAL/MOL
REMARK 922        TOTAL FREE ENERGY PREDICTED BY IDOCK:  -10.96 KCAL/MOL
REMARK 923 INTER-LIGAND FREE ENERGY PREDICTED BY IDOCK:   -9.17 KCAL/MOL
REMARK 924 INTRA-LIGAND FREE ENERGY PREDICTED BY IDOCK:   -1.79 KCAL/MOL
REMARK 927      BINDING AFFINITY PREDICTED BY RF-SCORE:    0.00 PKD
ROOT
HETATM    1  C   UNL     1     -11.353  14.655  67.628  1.00  0.00    -0.350 C  
HETATM    2  C   UNL     1     -11.300  13.156  67.916  1.00  0.00    -0.286 C  
ENDROOT
BRANCH   2   3
HETATM    3  O   UNL     1      -9.954  12.681  67.932  1.00  0.00    -0.214 OA 
BRANCH   3   4
HETATM    4  C   UNL     1      -9.730  11.530  67.103  1.00  0.00    -0.183 C  
BRANCH   4   5
HETATM    5  C   UNL     1      -8.567  10.669  67.710  1.00  0.00    -0.123 C  
HETATM    6  C   UNL     1      -9.595   7.878  67.322  1.00  0.00    -0.159 C  
HETATM    7  C   UNL     1     -10.097   8.754  68.482  1.00  0.00    -0.210 C  
HETATM    8  N   UNL     1     -10.680   7.055  66.836  1.00  0.00    -0.331 NA 
HETATM    9  H   UNL     1      -7.189   9.295  66.963  1.00  0.00     0.000 HD 
HETATM   10  C   UNL     1      -9.072   9.812  68.897  1.00  0.00    -0.148 C  
HETATM   11  O   UNL     1     -11.018   4.938  66.017  1.00  0.00    -0.245 OA 
HETATM   12  C   UNL     1      -9.021   8.764  66.185  1.00  0.00    -0.185 C  
HETATM   13  C   UNL     1      -8.557   6.842  67.795  1.00  0.00    -0.121 C  
HETATM   14  C   UNL     1     -10.314   5.758  66.579  1.00  0.00    -0.209 C  
HETATM   15  C   UNL     1      -8.918   5.536  67.083  1.00  0.00    -0.112 C  
HETATM   16  N   UNL     1      -8.045   9.755  66.651  1.00  0.00    -0.116 NA 
BRANCH   5  17
HETATM   17  C   UNL     1      -7.418  11.571  68.237  1.00  0.00    -0.103 A  
HETATM   18  C   UNL     1      -5.336  13.249  69.171  1.00  0.00    -0.073 A  
HETATM   19  C   UNL     1      -5.699  13.268  67.828  1.00  0.00    -0.121 A  
HETATM   20  C   UNL     1      -6.725  12.435  67.368  1.00  0.00    -0.152 A  
HETATM   21  C   UNL     1      -7.002  11.547  69.582  1.00  0.00     0.016 A  
HETATM   22  C   UNL     1      -5.980  12.384  70.045  1.00  0.00    -0.149 A  
ENDBRANCH   5  17
ENDBRANCH   4   5
ENDBRANCH   3   4
ENDBRANCH   2   3
BRANCH   2  23
HETATM   23  C   UNL     1     -11.931  12.884  69.273  1.00  0.00    -0.313 A  
HETATM   24  F   UNL     1     -12.760  16.122  71.779  1.00  0.00    -0.491 F  
HETATM   25  C   UNL     1     -12.230  13.958  70.124  1.00  0.00    -0.425 A  
HETATM   26  F   UNL     1     -11.726   9.179  71.459  1.00  0.00    -0.330 F  
HETATM   27  C   UNL     1     -12.731  13.745  71.418  1.00  0.00    -0.450 A  
HETATM   28  C   UNL     1     -12.943  12.428  71.857  1.00  0.00    -0.407 A  
HETATM   29  F   UNL     1     -13.776   9.238  70.734  1.00  0.00    -0.243 F  
HETATM   30  C   UNL     1     -13.021  14.907  72.339  1.00  0.00    -0.352 C  
HETATM   31  F   UNL     1     -13.327   9.831  72.776  1.00  0.00    -0.380 F  
HETATM   32  C   UNL     1     -12.872   9.914  71.494  1.00  0.00    -0.421 C  
HETATM   33  F   UNL     1     -14.322  14.949  72.734  1.00  0.00    -0.452 F  
HETATM   34  F   UNL     1     -12.281  14.859  73.481  1.00  0.00    -0.464 F  
HETATM   35  C   UNL     1     -12.155  11.576  69.735  1.00  0.00    -0.374 A  
HETATM   36  C   UNL     1     -12.660  11.334  71.023  1.00  0.00    -0.495 A  
ENDBRANCH   2  23
TORSDOF 5
ENDMDL
MODEL       74
REMARK 921   NORMALIZED FREE ENERGY PREDICTED BY IDOCK:   -6.26 KCAL/MOL
REMARK 922        TOTAL FREE ENERGY PREDICTED BY IDOCK:  -10.96 KCAL/MOL
REMARK 923 INTER-LIGAND FREE ENERGY PREDICTED BY IDOCK:   -8.70 KCAL/MOL
REMARK 924 INTRA-LIGAND FREE ENERGY PREDICTED BY IDOCK:   -2.25 KCAL/MOL
REMARK 927      BINDING AFFINITY PREDICTED BY RF-SCORE:    0.00 PKD
ROOT
HETATM    1  C   UNL     1     -11.914  14.941  70.019  1.00  0.00    -0.377 C  
HETATM    2  C   UNL     1     -10.811  15.054  68.967  1.00  0.00    -0.242 C  
ENDROOT
BRANCH   2   3
HETATM    3  O   UNL     1      -9.521  15.101  69.576  1.00  0.00    -0.212 OA 
BRANCH   3   4
HETATM    4  C   UNL     1      -8.747  16.256  69.220  1.00  0.00    -0.151 C  
BRANCH   4   5
HETATM    5  C   UNL     1      -7.432  15.801  68.493  1.00  0.00    -0.129 C  
HETATM    6  C   UNL     1      -7.073  17.966  66.449  1.00  0.00    -0.257 C  
HETATM    7  C   UNL     1      -8.076  16.822  66.224  1.00  0.00    -0.365 C  
HETATM    8  N   UNL     1      -7.605  19.189  65.889  1.00  0.00    -0.419 NA 
HETATM    9  H   UNL     1      -5.499  16.556  68.308  1.00  0.00     0.000 HD 
HETATM   10  C   UNL     1      -7.689  15.553  66.986  1.00  0.00    -0.246 C  
HETATM   11  O   UNL     1      -6.860  21.056  64.782  1.00  0.00    -0.090 OA 
HETATM   12  C   UNL     1      -6.776  18.135  67.962  1.00  0.00    -0.206 C  
HETATM   13  C   UNL     1      -5.774  17.753  65.648  1.00  0.00    -0.123 C  
HETATM   14  C   UNL     1      -6.677  19.925  65.196  1.00  0.00    -0.272 C  
HETATM   15  C   UNL     1      -5.418  19.120  65.060  1.00  0.00    -0.232 C  
HETATM   16  N   UNL     1      -6.411  16.881  68.630  1.00  0.00    -0.155 NA 
BRANCH   5  17
HETATM   17  C   UNL     1      -6.885  14.481  69.101  1.00  0.00    -0.123 A  
HETATM   18  C   UNL     1      -5.875  12.060  70.169  1.00  0.00    -0.162 A  
HETATM   19  C   UNL     1      -6.434  12.082  68.895  1.00  0.00    -0.083 A  
HETATM   20  C   UNL     1      -6.937  13.278  68.371  1.00  0.00    -0.105 A  
HETATM   21  C   UNL     1      -6.349  14.418  70.401  1.00  0.00    -0.144 A  
HETATM   22  C   UNL     1      -5.840  13.224  70.924  1.00  0.00    -0.099 A  
ENDBRANCH   5  17
ENDBRANCH   4   5
ENDBRANCH   3   4
ENDBRANCH   2   3
BRANCH   2  23
HETATM   23  C   UNL     1     -10.873  13.846  68.045  1.00  0.00    -0.259 A  
HETATM   24  F   UNL     1     -12.171  14.396  64.112  1.00  0.00    -0.470 F  
HETATM   25  C   UNL     1     -11.293  14.011  66.717  1.00  0.00    -0.346 A  
HETATM   26  F   UNL     1     -11.215   9.735  69.283  1.00  0.00    -0.238 F  
HETATM   27  C   UNL     1     -11.448  12.911  65.859  1.00  0.00    -0.387 A  
HETATM   28  C   UNL     1     -11.166  11.625  66.346  1.00  0.00    -0.349 A  
HETATM   29  F   UNL     1      -9.154   9.902  68.607  1.00  0.00    -0.122 F  
HETATM   30  C   UNL     1     -11.931  13.095  64.439  1.00  0.00    -0.397 C  
HETATM   31  F   UNL     1     -10.665   9.057  67.293  1.00  0.00    -0.331 F  
HETATM   32  C   UNL     1     -10.445  10.047  68.203  1.00  0.00    -0.211 C  
HETATM   33  F   UNL     1     -11.039  12.637  63.521  1.00  0.00    -0.425 F  
HETATM   34  F   UNL     1     -13.095  12.432  64.199  1.00  0.00    -0.454 F  
HETATM   35  C   UNL     1     -10.595  12.549  68.507  1.00  0.00    -0.262 A  
HETATM   36  C   UNL     1     -10.737  11.430  67.668  1.00  0.00    -0.261 A  
ENDBRANCH   2  23
TORSDOF 5
ENDMDL
MODEL       75
REMARK 921   NORMALIZED FREE ENERGY PREDICTED BY IDOCK:   -6.22 KCAL/MOL
REMARK 922        TOTAL FREE ENERGY PREDICTED BY IDOCK:  -10.90 KCAL/MOL
REMARK 923 INTER-LIGAND FREE ENERGY PREDICTED BY IDOCK:   -9.97 KCAL/MOL
REMARK 924 INTRA-LIGAND FREE ENERGY PREDICTED BY IDOCK:   -0.93 KCAL/MOL
REMARK 927      BINDING AFFINITY PREDICTED BY RF-SCORE:    0.00 PKD
ROOT
HETATM    1  C   UNL     1      -9.989   9.006  71.410  1.00  0.00    -0.388 C  
HETATM    2  C   UNL     1     -10.993   8.541  70.356  1.00  0.00    -0.238 C  
ENDROOT
BRANCH   2   3
HETATM    3  O   UNL     1     -10.962   9.387  69.207  1.00  0.00    -0.208 OA 
BRANCH   3   4
HETATM    4  C   UNL     1     -10.229  10.606  69.396  1.00  0.00    -0.192 C  
BRANCH   4   5
HETATM    5  C   UNL     1     -11.099  11.819  68.911  1.00  0.00    -0.243 C  
HETATM    6  C   UNL     1     -10.325  12.021  66.021  1.00  0.00    -0.238 C  
HETATM    7  C   UNL     1      -9.419  12.589  67.125  1.00  0.00    -0.208 C  
HETATM    8  N   UNL     1      -9.508  11.483  64.957  1.00  0.00    -0.196 NA 
HETATM    9  H   UNL     1     -12.674  12.078  67.572  1.00  0.00     0.000 HD 
HETATM   10  C   UNL     1     -10.204  12.968  68.383  1.00  0.00    -0.246 C  
HETATM   11  O   UNL     1      -9.525  11.326  62.667  1.00  0.00    -0.337 OA 
HETATM   12  C   UNL     1     -11.265  10.931  66.600  1.00  0.00     0.016 C  
HETATM   13  C   UNL     1     -11.130  13.130  65.315  1.00  0.00    -0.304 C  
HETATM   14  C   UNL     1      -9.960  11.801  63.701  1.00  0.00    -0.381 C  
HETATM   15  C   UNL     1     -11.076  12.798  63.822  1.00  0.00    -0.475 C  
HETATM   16  N   UNL     1     -11.987  11.359  67.803  1.00  0.00    -0.646 NA 
BRANCH   5  17
HETATM   17  C   UNL     1     -11.959  12.390  70.072  1.00  0.00    -0.372 A  
HETATM   18  C   UNL     1     -13.516  13.396  72.213  1.00  0.00    -0.683 A  
HETATM   19  C   UNL     1     -13.401  12.023  72.018  1.00  0.00    -0.447 A  
HETATM   20  C   UNL     1     -12.635  11.529  70.957  1.00  0.00    -0.457 A  
HETATM   21  C   UNL     1     -12.127  13.773  70.272  1.00  0.00    -0.425 A  
HETATM   22  C   UNL     1     -12.887  14.270  71.336  1.00  0.00    -0.415 A  
ENDBRANCH   5  17
ENDBRANCH   4   5
ENDBRANCH   3   4
ENDBRANCH   2   3
BRANCH   2  23
HETATM   23  C   UNL     1     -10.650   7.122  69.929  1.00  0.00    -0.246 A  
HETATM   24  F   UNL     1      -9.573   4.354  72.867  1.00  0.00    -0.138 F  
HETATM   25  C   UNL     1     -10.299   6.173  70.902  1.00  0.00    -0.267 A  
HETATM   26  F   UNL     1      -9.307   5.913  66.020  1.00  0.00    -0.164 F  
HETATM   27  C   UNL     1      -9.892   4.878  70.543  1.00  0.00    -0.297 A  
HETATM   28  C   UNL     1      -9.848   4.533  69.182  1.00  0.00    -0.222 A  
HETATM   29  F   UNL     1     -11.355   5.185  66.111  1.00  0.00    -0.192 F  
HETATM   30  C   UNL     1      -9.486   3.873  71.595  1.00  0.00    -0.151 C  
HETATM   31  F   UNL     1      -9.701   3.829  66.495  1.00  0.00    -0.201 F  
HETATM   32  C   UNL     1     -10.143   5.098  66.723  1.00  0.00    -0.232 C  
HETATM   33  F   UNL     1     -10.251   2.749  71.566  1.00  0.00    -0.223 F  
HETATM   34  F   UNL     1      -8.199   3.458  71.442  1.00  0.00    -0.060 F  
HETATM   35  C   UNL     1     -10.600   6.750  68.576  1.00  0.00    -0.265 A  
HETATM   36  C   UNL     1     -10.202   5.459  68.189  1.00  0.00    -0.226 A  
ENDBRANCH   2  23
TORSDOF 5
ENDMDL
MODEL       76
REMARK 921   NORMALIZED FREE ENERGY PREDICTED BY IDOCK:   -6.21 KCAL/MOL
REMARK 922        TOTAL FREE ENERGY PREDICTED BY IDOCK:  -10.89 KCAL/MOL
REMARK 923 INTER-LIGAND FREE ENERGY PREDICTED BY IDOCK:   -9.35 KCAL/MOL
REMARK 924 INTRA-LIGAND FREE ENERGY PREDICTED BY IDOCK:   -1.54 KCAL/MOL
REMARK 927      BINDING AFFINITY PREDICTED BY RF-SCORE:    0.00 PKD
ROOT
HETATM    1  C   UNL     1      -8.531  13.552  68.452  1.00  0.00    -0.143 C  
HETATM    2  C   UNL     1      -8.608  12.069  68.095  1.00  0.00    -0.173 C  
ENDROOT
BRANCH   2   3
HETATM    3  O   UNL     1      -9.402  11.351  69.039  1.00  0.00    -0.094 OA 
BRANCH   3   4
HETATM    4  C   UNL     1      -9.008   9.982  69.215  1.00  0.00    -0.178 C  
BRANCH   4   5
HETATM    5  C   UNL     1     -10.286   9.072  69.259  1.00  0.00    -0.219 C  
HETATM    6  C   UNL     1      -9.582   6.920  67.292  1.00  0.00    -0.142 C  
HETATM    7  C   UNL     1     -10.080   8.294  66.818  1.00  0.00    -0.373 C  
HETATM    8  N   UNL     1      -8.593   6.419  66.364  1.00  0.00    -0.129 NA 
HETATM    9  H   UNL     1     -10.703   7.123  69.866  1.00  0.00     0.000 HD 
HETATM   10  C   UNL     1     -10.955   8.988  67.864  1.00  0.00    -0.001 C  
HETATM   11  O   UNL     1      -7.934   4.424  65.441  1.00  0.00    -0.096 OA 
HETATM   12  C   UNL     1      -8.992   7.023  68.724  1.00  0.00    -0.131 C  
HETATM   13  C   UNL     1     -10.693   5.854  67.226  1.00  0.00    -0.380 C  
HETATM   14  C   UNL     1      -8.741   5.087  66.067  1.00  0.00    -0.127 C  
HETATM   15  C   UNL     1     -10.031   4.597  66.657  1.00  0.00    -0.260 C  
HETATM   16  N   UNL     1      -9.881   7.697  69.676  1.00  0.00    -0.179 NA 
BRANCH   5  17
HETATM   17  C   UNL     1     -11.340   9.634  70.252  1.00  0.00    -0.311 A  
HETATM   18  C   UNL     1     -13.245  10.632  72.095  1.00  0.00    -0.379 A  
HETATM   19  C   UNL     1     -12.849   9.299  72.152  1.00  0.00    -0.485 A  
HETATM   20  C   UNL     1     -11.912   8.807  71.238  1.00  0.00    -0.353 A  
HETATM   21  C   UNL     1     -11.789  10.967  70.195  1.00  0.00    -0.438 A  
HETATM   22  C   UNL     1     -12.722  11.462  71.113  1.00  0.00    -0.479 A  
ENDBRANCH   5  17
ENDBRANCH   4   5
ENDBRANCH   3   4
ENDBRANCH   2   3
BRANCH   2  23
HETATM   23  C   UNL     1      -9.231  11.918  66.716  1.00  0.00    -0.194 A  
HETATM   24  F   UNL     1     -12.840  13.868  65.926  1.00  0.00    -0.499 F  
HETATM   25  C   UNL     1     -10.436  12.575  66.426  1.00  0.00    -0.269 A  
HETATM   26  F   UNL     1      -8.524   8.682  63.963  1.00  0.00    -0.168 F  
HETATM   27  C   UNL     1     -11.088  12.393  65.196  1.00  0.00    -0.348 A  
HETATM   28  C   UNL     1     -10.511  11.540  64.241  1.00  0.00    -0.393 A  
HETATM   29  F   UNL     1      -7.448  10.354  63.082  1.00  0.00    -0.144 F  
HETATM   30  C   UNL     1     -12.401  13.080  64.904  1.00  0.00    -0.459 C  
HETATM   31  F   UNL     1      -9.422   9.820  62.345  1.00  0.00    -0.286 F  
HETATM   32  C   UNL     1      -8.683   9.947  63.483  1.00  0.00    -0.214 C  
HETATM   33  F   UNL     1     -12.336  13.887  63.811  1.00  0.00    -0.498 F  
HETATM   34  F   UNL     1     -13.405  12.194  64.661  1.00  0.00    -0.373 F  
HETATM   35  C   UNL     1      -8.673  11.073  65.742  1.00  0.00    -0.179 A  
HETATM   36  C   UNL     1      -9.302  10.876  64.501  1.00  0.00    -0.256 A  
ENDBRANCH   2  23
TORSDOF 5
ENDMDL
MODEL       77
REMARK 921   NORMALIZED FREE ENERGY PREDICTED BY IDOCK:   -6.18 KCAL/MOL
REMARK 922        TOTAL FREE ENERGY PREDICTED BY IDOCK:  -10.84 KCAL/MOL
REMARK 923 INTER-LIGAND FREE ENERGY PREDICTED BY IDOCK:   -9.59 KCAL/MOL
REMARK 924 INTRA-LIGAND FREE ENERGY PREDICTED BY IDOCK:   -1.25 KCAL/MOL
REMARK 927      BINDING AFFINITY PREDICTED BY RF-SCORE:    0.00 PKD
ROOT
HETATM    1  C   UNL     1      -7.542  11.491  67.231  1.00  0.00    -0.143 C  
HETATM    2  C   UNL     1      -8.743  11.770  68.132  1.00  0.00    -0.168 C  
ENDROOT
BRANCH   2   3
HETATM    3  O   UNL     1      -9.695  12.610  67.479  1.00  0.00    -0.190 OA 
BRANCH   3   4
HETATM    4  C   UNL     1      -9.166  13.876  67.058  1.00  0.00    -0.250 C  
BRANCH   4   5
HETATM    5  C   UNL     1     -10.206  14.592  66.125  1.00  0.00    -0.305 C  
HETATM    6  C   UNL     1      -9.872  17.466  66.915  1.00  0.00    -0.289 C  
HETATM    7  C   UNL     1     -10.699  16.499  67.776  1.00  0.00    -0.329 C  
HETATM    8  N   UNL     1      -9.180  18.403  67.772  1.00  0.00    -0.274 NA 
HETATM    9  H   UNL     1     -10.101  15.953  64.552  1.00  0.00     0.000 HD 
HETATM   10  C   UNL     1     -11.276  15.340  66.959  1.00  0.00    -0.275 C  
HETATM   11  O   UNL     1      -8.568  20.614  67.786  1.00  0.00    -0.174 OA 
HETATM   12  C   UNL     1      -8.867  16.679  66.033  1.00  0.00    -0.207 C  
HETATM   13  C   UNL     1     -10.768  18.378  66.055  1.00  0.00    -0.218 C  
HETATM   14  C   UNL     1      -9.214  19.696  67.314  1.00  0.00    -0.328 C  
HETATM   15  C   UNL     1     -10.149  19.774  66.143  1.00  0.00    -0.600 C  
HETATM   16  N   UNL     1      -9.484  15.584  65.276  1.00  0.00    -0.160 NA 
BRANCH   5  17
HETATM   17  C   UNL     1     -10.946  13.567  65.223  1.00  0.00    -0.303 A  
HETATM   18  C   UNL     1     -12.330  11.726  63.575  1.00  0.00    -0.495 A  
HETATM   19  C   UNL     1     -13.024  12.478  64.518  1.00  0.00    -0.215 A  
HETATM   20  C   UNL     1     -12.337  13.384  65.334  1.00  0.00    -0.522 A  
HETATM   21  C   UNL     1     -10.267  12.764  64.287  1.00  0.00    -0.352 A  
HETATM   22  C   UNL     1     -10.953  11.862  63.465  1.00  0.00    -0.505 A  
ENDBRANCH   5  17
ENDBRANCH   4   5
ENDBRANCH   3   4
ENDBRANCH   2   3
BRANCH   2  23
HETATM   23  C   UNL     1      -9.416  10.454  68.491  1.00  0.00    -0.159 A  
HETATM   24  F   UNL     1      -9.153   7.272  65.796  1.00  0.00    -0.173 F  
HETATM   25  C   UNL     1      -9.328   9.369  67.606  1.00  0.00    -0.146 A  
HETATM   26  F   UNL     1     -12.696   9.958  71.237  1.00  0.00    -0.354 F  
HETATM   27  C   UNL     1     -10.007   8.166  67.858  1.00  0.00    -0.225 A  
HETATM   28  C   UNL     1     -10.779   8.053  69.025  1.00  0.00    -0.107 A  
HETATM   29  F   UNL     1     -10.988   9.158  72.322  1.00  0.00    -0.404 F  
HETATM   30  C   UNL     1      -9.932   7.014  66.883  1.00  0.00    -0.217 C  
HETATM   31  F   UNL     1     -12.358   7.812  71.303  1.00  0.00    -0.308 F  
HETATM   32  C   UNL     1     -11.719   9.010  71.183  1.00  0.00    -0.302 C  
HETATM   33  F   UNL     1      -9.424   5.885  67.448  1.00  0.00    -0.114 F  
HETATM   34  F   UNL     1     -11.155   6.673  66.391  1.00  0.00    -0.273 F  
HETATM   35  C   UNL     1     -10.193  10.314  69.653  1.00  0.00    -0.268 A  
HETATM   36  C   UNL     1     -10.879   9.120  69.932  1.00  0.00    -0.242 A  
ENDBRANCH   2  23
TORSDOF 5
ENDMDL
MODEL       78
REMARK 921   NORMALIZED FREE ENERGY PREDICTED BY IDOCK:   -6.17 KCAL/MOL
REMARK 922        TOTAL FREE ENERGY PREDICTED BY IDOCK:  -10.83 KCAL/MOL
REMARK 923 INTER-LIGAND FREE ENERGY PREDICTED BY IDOCK:   -8.78 KCAL/MOL
REMARK 924 INTRA-LIGAND FREE ENERGY PREDICTED BY IDOCK:   -2.05 KCAL/MOL
REMARK 927      BINDING AFFINITY PREDICTED BY RF-SCORE:    0.00 PKD
ROOT
HETATM    1  C   UNL     1      -6.940  13.866  68.755  1.00  0.00    -0.108 C  
HETATM    2  C   UNL     1      -7.845  13.126  67.772  1.00  0.00    -0.152 C  
ENDROOT
BRANCH   2   3
HETATM    3  O   UNL     1      -8.657  12.162  68.443  1.00  0.00    -0.171 OA 
BRANCH   3   4
HETATM    4  C   UNL     1      -8.066  10.857  68.530  1.00  0.00    -0.137 C  
BRANCH   4   5
HETATM    5  C   UNL     1      -8.975   9.821  67.781  1.00  0.00    -0.128 C  
HETATM    6  C   UNL     1      -9.986   8.133  70.044  1.00  0.00    -0.192 C  
HETATM    7  C   UNL     1      -8.576   7.924  69.468  1.00  0.00    -0.137 C  
HETATM    8  N   UNL     1      -9.963   7.899  71.471  1.00  0.00    -0.170 NA 
HETATM    9  H   UNL     1     -11.013   9.386  67.742  1.00  0.00     0.000 HD 
HETATM   10  C   UNL     1      -8.472   8.374  68.009  1.00  0.00    -0.132 C  
HETATM   11  O   UNL     1     -11.299   6.992  73.102  1.00  0.00    -0.209 OA 
HETATM   12  C   UNL     1     -10.493   9.564  69.727  1.00  0.00    -0.231 C  
HETATM   13  C   UNL     1     -10.976   7.068  69.534  1.00  0.00    -0.251 C  
HETATM   14  C   UNL     1     -11.031   7.169  71.927  1.00  0.00    -0.231 C  
HETATM   15  C   UNL     1     -11.809   6.656  70.750  1.00  0.00    -0.441 C  
HETATM   16  N   UNL     1     -10.366   9.931  68.313  1.00  0.00    -0.190 NA 
BRANCH   5  17
HETATM   17  C   UNL     1      -8.977  10.081  66.250  1.00  0.00    -0.170 A  
HETATM   18  C   UNL     1      -8.946  10.528  63.453  1.00  0.00    -0.232 A  
HETATM   19  C   UNL     1      -7.759  10.273  64.132  1.00  0.00    -0.097 A  
HETATM   20  C   UNL     1      -7.776  10.058  65.515  1.00  0.00    -0.135 A  
HETATM   21  C   UNL     1     -10.156  10.379  65.540  1.00  0.00    -0.352 A  
HETATM   22  C   UNL     1     -10.141  10.589  64.157  1.00  0.00    -0.351 A  
ENDBRANCH   5  17
ENDBRANCH   4   5
ENDBRANCH   3   4
ENDBRANCH   2   3
BRANCH   2  23
HETATM   23  C   UNL     1      -8.751  14.128  67.074  1.00  0.00    -0.222 A  
HETATM   24  F   UNL     1      -8.284  18.189  67.937  1.00  0.00    -0.231 F  
HETATM   25  C   UNL     1      -8.601  15.497  67.339  1.00  0.00    -0.196 A  
HETATM   26  F   UNL     1     -12.620  13.286  65.381  1.00  0.00    -0.456 F  
HETATM   27  C   UNL     1      -9.473  16.447  66.783  1.00  0.00    -0.265 A  
HETATM   28  C   UNL     1     -10.506  16.009  65.938  1.00  0.00    -0.373 A  
HETATM   29  F   UNL     1     -11.336  13.526  63.641  1.00  0.00    -0.356 F  
HETATM   30  C   UNL     1      -9.324  17.917  67.099  1.00  0.00    -0.265 C  
HETATM   31  F   UNL     1     -12.593  15.172  64.301  1.00  0.00    -0.492 F  
HETATM   32  C   UNL     1     -11.791  14.166  64.752  1.00  0.00    -0.417 C  
HETATM   33  F   UNL     1      -9.116  18.672  65.987  1.00  0.00    -0.287 F  
HETATM   34  F   UNL     1     -10.430  18.430  67.703  1.00  0.00    -0.356 F  
HETATM   35  C   UNL     1      -9.790  13.716  66.223  1.00  0.00    -0.310 A  
HETATM   36  C   UNL     1     -10.674  14.645  65.649  1.00  0.00    -0.340 A  
ENDBRANCH   2  23
TORSDOF 5
ENDMDL
MODEL       79
REMARK 921   NORMALIZED FREE ENERGY PREDICTED BY IDOCK:   -6.13 KCAL/MOL
REMARK 922        TOTAL FREE ENERGY PREDICTED BY IDOCK:  -10.78 KCAL/MOL
REMARK 923 INTER-LIGAND FREE ENERGY PREDICTED BY IDOCK:   -9.34 KCAL/MOL
REMARK 924 INTRA-LIGAND FREE ENERGY PREDICTED BY IDOCK:   -1.44 KCAL/MOL
REMARK 927      BINDING AFFINITY PREDICTED BY RF-SCORE:    0.00 PKD
ROOT
HETATM    1  C   UNL     1      -7.895   9.907  67.630  1.00  0.00    -0.098 C  
HETATM    2  C   UNL     1      -8.515  10.829  68.678  1.00  0.00    -0.143 C  
ENDROOT
BRANCH   2   3
HETATM    3  O   UNL     1      -9.721  11.422  68.196  1.00  0.00    -0.179 OA 
BRANCH   3   4
HETATM    4  C   UNL     1      -9.754  12.853  68.305  1.00  0.00    -0.217 C  
BRANCH   4   5
HETATM    5  C   UNL     1     -11.203  13.367  67.989  1.00  0.00    -0.268 C  
HETATM    6  C   UNL     1     -12.213  14.091  70.718  1.00  0.00    -0.367 C  
HETATM    7  C   UNL     1     -12.190  12.629  70.244  1.00  0.00    -0.347 C  
HETATM    8  N   UNL     1     -11.917  14.143  72.133  1.00  0.00     0.132 NA 
HETATM    9  H   UNL     1     -12.195  15.194  68.129  1.00  0.00     0.000 HD 
HETATM   10  C   UNL     1     -12.267  12.511  68.720  1.00  0.00     0.019 C  
HETATM   11  O   UNL     1     -12.546  15.330  73.993  1.00  0.00    -0.552 OA 
HETATM   12  C   UNL     1     -11.194  14.937  69.911  1.00  0.00    -0.275 C  
HETATM   13  C   UNL     1     -13.627  14.697  70.636  1.00  0.00     0.018 C  
HETATM   14  C   UNL     1     -12.720  15.009  72.832  1.00  0.00    -0.425 C  
HETATM   15  C   UNL     1     -13.812  15.498  71.926  1.00  0.00    -0.589 C  
HETATM   16  N   UNL     1     -11.323  14.779  68.458  1.00  0.00    -0.276 NA 
BRANCH   5  17
HETATM   17  C   UNL     1     -11.504  13.291  66.467  1.00  0.00    -0.372 A  
HETATM   18  C   UNL     1     -12.032  13.192  63.686  1.00  0.00    -0.580 A  
HETATM   19  C   UNL     1     -12.024  14.413  64.352  1.00  0.00    -0.471 A  
HETATM   20  C   UNL     1     -11.768  14.460  65.727  1.00  0.00    -0.362 A  
HETATM   21  C   UNL     1     -11.556  12.068  65.772  1.00  0.00    -0.353 A  
HETATM   22  C   UNL     1     -11.807  12.021  64.396  1.00  0.00    -0.395 A  
ENDBRANCH   5  17
ENDBRANCH   4   5
ENDBRANCH   3   4
ENDBRANCH   2   3
BRANCH   2  23
HETATM   23  C   UNL     1      -8.832  10.023  69.929  1.00  0.00    -0.177 A  
HETATM   24  F   UNL     1      -5.723   7.993  71.843  1.00  0.00    -0.035 F  
HETATM   25  C   UNL     1      -7.800   9.345  70.594  1.00  0.00    -0.178 A  
HETATM   26  F   UNL     1     -12.686   8.422  70.994  1.00  0.00    -0.278 F  
HETATM   27  C   UNL     1      -8.064   8.521  71.700  1.00  0.00    -0.195 A  
HETATM   28  C   UNL     1      -9.389   8.386  72.146  1.00  0.00    -0.339 A  
HETATM   29  F   UNL     1     -12.420  10.087  72.368  1.00  0.00    -0.358 F  
HETATM   30  C   UNL     1      -6.951   7.769  72.391  1.00  0.00    -0.069 C  
HETATM   31  F   UNL     1     -12.007   8.057  73.026  1.00  0.00    -0.391 F  
HETATM   32  C   UNL     1     -11.869   8.908  71.971  1.00  0.00    -0.368 C  
HETATM   33  F   UNL     1      -6.838   8.097  73.707  1.00  0.00    -0.111 F  
HETATM   34  F   UNL     1      -7.135   6.422  72.352  1.00  0.00    -0.076 F  
HETATM   35  C   UNL     1     -10.148   9.874  70.397  1.00  0.00    -0.258 A  
HETATM   36  C   UNL     1     -10.440   9.060  71.504  1.00  0.00    -0.410 A  
ENDBRANCH   2  23
TORSDOF 5
ENDMDL
MODEL       80
REMARK 921   NORMALIZED FREE ENERGY PREDICTED BY IDOCK:   -6.10 KCAL/MOL
REMARK 922        TOTAL FREE ENERGY PREDICTED BY IDOCK:  -10.75 KCAL/MOL
REMARK 923 INTER-LIGAND FREE ENERGY PREDICTED BY IDOCK:   -9.03 KCAL/MOL
REMARK 924 INTRA-LIGAND FREE ENERGY PREDICTED BY IDOCK:   -1.72 KCAL/MOL
REMARK 927      BINDING AFFINITY PREDICTED BY RF-SCORE:    0.00 PKD
ROOT
HETATM    1  C   UNL     1     -11.822  12.680  65.311  1.00  0.00    -0.452 C  
HETATM    2  C   UNL     1     -12.179  12.563  66.792  1.00  0.00     0.094 C  
ENDROOT
BRANCH   2   3
HETATM    3  O   UNL     1     -11.546  11.431  67.388  1.00  0.00    -0.509 OA 
BRANCH   3   4
HETATM    4  C   UNL     1     -10.535  10.826  66.568  1.00  0.00    -0.240 C  
BRANCH   4   5
HETATM    5  C   UNL     1      -9.503  10.074  67.480  1.00  0.00    -0.148 C  
HETATM    6  C   UNL     1      -7.212  12.008  67.547  1.00  0.00    -0.127 C  
HETATM    7  C   UNL     1      -7.433  11.083  66.340  1.00  0.00    -0.131 C  
HETATM    8  N   UNL     1      -6.703  13.282  67.091  1.00  0.00    -0.105 NA 
HETATM    9  H   UNL     1      -8.658  10.407  69.355  1.00  0.00     0.000 HD 
HETATM   10  C   UNL     1      -8.182   9.804  66.717  1.00  0.00    -0.120 C  
HETATM   11  O   UNL     1      -5.217  14.897  67.763  1.00  0.00    -0.243 OA 
HETATM   12  C   UNL     1      -8.535  12.193  68.336  1.00  0.00    -0.145 C  
HETATM   13  C   UNL     1      -6.087  11.493  68.465  1.00  0.00    -0.049 C  
HETATM   14  C   UNL     1      -5.683  13.776  67.865  1.00  0.00    -0.114 C  
HETATM   15  C   UNL     1      -5.266  12.725  68.851  1.00  0.00    -0.067 C  
HETATM   16  N   UNL     1      -9.201  10.929  68.667  1.00  0.00    -0.180 NA 
BRANCH   5  17
HETATM   17  C   UNL     1     -10.064   8.704  67.949  1.00  0.00    -0.254 A  
HETATM   18  C   UNL     1     -11.100   6.223  68.841  1.00  0.00    -0.434 A  
HETATM   19  C   UNL     1     -10.527   7.108  69.749  1.00  0.00    -0.238 A  
HETATM   20  C   UNL     1     -10.011   8.331  69.305  1.00  0.00    -0.192 A  
HETATM   21  C   UNL     1     -10.615   7.771  67.049  1.00  0.00    -0.396 A  
HETATM   22  C   UNL     1     -11.137   6.551  67.492  1.00  0.00    -0.396 A  
ENDBRANCH   5  17
ENDBRANCH   4   5
ENDBRANCH   3   4
ENDBRANCH   2   3
BRANCH   2  23
HETATM   23  C   UNL     1     -11.722  13.819  67.518  1.00  0.00    -0.410 A  
HETATM   24  F   UNL     1      -8.855  16.251  65.697  1.00  0.00    -0.315 F  
HETATM   25  C   UNL     1     -10.770  14.656  66.918  1.00  0.00    -0.294 A  
HETATM   26  F   UNL     1     -11.938  14.504  71.764  1.00  0.00    -0.366 F  
HETATM   27  C   UNL     1     -10.257  15.777  67.591  1.00  0.00    -0.266 A  
HETATM   28  C   UNL     1     -10.719  16.061  68.886  1.00  0.00    -0.275 A  
HETATM   29  F   UNL     1     -13.506  15.776  70.955  1.00  0.00    -0.548 F  
HETATM   30  C   UNL     1      -9.209  16.655  66.949  1.00  0.00    -0.227 C  
HETATM   31  F   UNL     1     -11.574  16.626  71.472  1.00  0.00    -0.459 F  
HETATM   32  C   UNL     1     -12.167  15.538  70.907  1.00  0.00    -0.400 C  
HETATM   33  F   UNL     1      -9.616  17.947  66.824  1.00  0.00    -0.265 F  
HETATM   34  F   UNL     1      -8.054  16.691  67.668  1.00  0.00    -0.162 F  
HETATM   35  C   UNL     1     -12.169  14.127  68.813  1.00  0.00    -0.234 A  
HETATM   36  C   UNL     1     -11.677  15.245  69.508  1.00  0.00    -0.359 A  
ENDBRANCH   2  23
TORSDOF 5
ENDMDL
MODEL       81
REMARK 921   NORMALIZED FREE ENERGY PREDICTED BY IDOCK:   -6.08 KCAL/MOL
REMARK 922        TOTAL FREE ENERGY PREDICTED BY IDOCK:  -10.72 KCAL/MOL
REMARK 923 INTER-LIGAND FREE ENERGY PREDICTED BY IDOCK:   -8.42 KCAL/MOL
REMARK 924 INTRA-LIGAND FREE ENERGY PREDICTED BY IDOCK:   -2.30 KCAL/MOL
REMARK 927      BINDING AFFINITY PREDICTED BY RF-SCORE:    0.00 PKD
ROOT
HETATM    1  C   UNL     1     -11.699  13.946  69.721  1.00  0.00    -0.372 C  
HETATM    2  C   UNL     1     -12.025  12.821  68.740  1.00  0.00    -0.240 C  
ENDROOT
BRANCH   2   3
HETATM    3  O   UNL     1     -12.194  13.325  67.415  1.00  0.00    -0.312 OA 
BRANCH   3   4
HETATM    4  C   UNL     1     -11.767  14.685  67.247  1.00  0.00    -0.385 C  
BRANCH   4   5
HETATM    5  C   UNL     1     -10.607  14.742  66.191  1.00  0.00    -0.311 C  
HETATM    6  C   UNL     1      -9.183  17.263  66.971  1.00  0.00    -0.243 C  
HETATM    7  C   UNL     1     -10.480  17.309  66.149  1.00  0.00    -0.279 C  
HETATM    8  N   UNL     1      -9.146  18.390  67.876  1.00  0.00    -0.278 NA 
HETATM    9  H   UNL     1      -8.529  14.619  66.259  1.00  0.00     0.000 HD 
HETATM   10  C   UNL     1     -10.698  16.030  65.336  1.00  0.00    -0.399 C  
HETATM   11  O   UNL     1      -7.619  19.864  68.749  1.00  0.00    -0.293 OA 
HETATM   12  C   UNL     1      -9.084  15.926  67.751  1.00  0.00    -0.196 C  
HETATM   13  C   UNL     1      -7.938  17.484  66.089  1.00  0.00    -0.261 C  
HETATM   14  C   UNL     1      -7.920  19.004  67.941  1.00  0.00    -0.277 C  
HETATM   15  C   UNL     1      -7.029  18.427  66.880  1.00  0.00    -0.214 C  
HETATM   16  N   UNL     1      -9.301  14.741  66.914  1.00  0.00    -0.228 NA 
BRANCH   5  17
HETATM   17  C   UNL     1     -10.672  13.530  65.222  1.00  0.00    -0.328 A  
HETATM   18  C   UNL     1     -10.801  11.346  63.423  1.00  0.00    -0.375 A  
HETATM   19  C   UNL     1     -11.685  12.413  63.291  1.00  0.00    -0.466 A  
HETATM   20  C   UNL     1     -11.622  13.489  64.184  1.00  0.00    -0.415 A  
HETATM   21  C   UNL     1      -9.818  12.418  65.353  1.00  0.00    -0.200 A  
HETATM   22  C   UNL     1      -9.876  11.345  64.457  1.00  0.00    -0.302 A  
ENDBRANCH   5  17
ENDBRANCH   4   5
ENDBRANCH   3   4
ENDBRANCH   2   3
BRANCH   2  23
HETATM   23  C   UNL     1     -10.886  11.813  68.739  1.00  0.00    -0.268 A  
HETATM   24  F   UNL     1      -6.984  13.200  69.291  1.00  0.00    -0.108 F  
HETATM   25  C   UNL     1      -9.570  12.256  68.936  1.00  0.00     0.165 A  
HETATM   26  F   UNL     1     -10.956   7.923  66.891  1.00  0.00    -0.403 F  
HETATM   27  C   UNL     1      -8.483  11.371  68.856  1.00  0.00    -0.028 A  
HETATM   28  C   UNL     1      -8.729  10.016  68.581  1.00  0.00    -0.127 A  
HETATM   29  F   UNL     1     -11.083   7.487  69.018  1.00  0.00    -0.165 F  
HETATM   30  C   UNL     1      -7.066  11.863  69.038  1.00  0.00    -0.092 C  
HETATM   31  F   UNL     1      -9.175   7.335  67.988  1.00  0.00    -0.133 F  
HETATM   32  C   UNL     1     -10.307   8.089  68.077  1.00  0.00    -0.206 C  
HETATM   33  F   UNL     1      -6.429  11.247  70.071  1.00  0.00    -0.112 F  
HETATM   34  F   UNL     1      -6.298  11.646  67.937  1.00  0.00    -0.049 F  
HETATM   35  C   UNL     1     -11.105  10.452  68.468  1.00  0.00    -0.318 A  
HETATM   36  C   UNL     1     -10.036   9.543  68.387  1.00  0.00    -0.199 A  
ENDBRANCH   2  23
TORSDOF 5
ENDMDL
MODEL       82
REMARK 921   NORMALIZED FREE ENERGY PREDICTED BY IDOCK:   -6.08 KCAL/MOL
REMARK 922        TOTAL FREE ENERGY PREDICTED BY IDOCK:  -10.72 KCAL/MOL
REMARK 923 INTER-LIGAND FREE ENERGY PREDICTED BY IDOCK:   -9.45 KCAL/MOL
REMARK 924 INTRA-LIGAND FREE ENERGY PREDICTED BY IDOCK:   -1.26 KCAL/MOL
REMARK 927      BINDING AFFINITY PREDICTED BY RF-SCORE:    0.00 PKD
ROOT
HETATM    1  C   UNL     1     -12.028  12.025  64.037  1.00  0.00    -0.499 C  
HETATM    2  C   UNL     1     -10.793  12.275  64.901  1.00  0.00    -0.302 C  
ENDROOT
BRANCH   2   3
HETATM    3  O   UNL     1     -11.159  12.735  66.202  1.00  0.00    -0.277 OA 
BRANCH   3   4
HETATM    4  C   UNL     1     -10.065  13.269  66.963  1.00  0.00    -0.242 C  
BRANCH   4   5
HETATM    5  C   UNL     1     -10.626  14.121  68.156  1.00  0.00    -0.246 C  
HETATM    6  C   UNL     1      -9.818  16.899  67.369  1.00  0.00    -0.261 C  
HETATM    7  C   UNL     1      -8.807  15.930  68.003  1.00  0.00    -0.178 C  
HETATM    8  N   UNL     1      -9.145  17.721  66.387  1.00  0.00    -0.377 NA 
HETATM    9  H   UNL     1     -12.092  15.584  68.378  1.00  0.00     0.000 HD 
HETATM   10  C   UNL     1      -9.486  14.877  68.882  1.00  0.00    -0.209 C  
HETATM   11  O   UNL     1      -9.192  19.879  65.608  1.00  0.00    -0.302 OA 
HETATM   12  C   UNL     1     -10.988  16.113  66.722  1.00  0.00    -0.080 C  
HETATM   13  C   UNL     1     -10.339  17.931  68.388  1.00  0.00    -0.380 C  
HETATM   14  C   UNL     1      -9.507  19.044  66.436  1.00  0.00    -0.347 C  
HETATM   15  C   UNL     1     -10.359  19.271  67.651  1.00  0.00    -0.532 C  
HETATM   16  N   UNL     1     -11.594  15.122  67.617  1.00  0.00    -0.318 NA 
BRANCH   5  17
HETATM   17  C   UNL     1     -11.333  13.218  69.204  1.00  0.00    -0.336 A  
HETATM   18  C   UNL     1     -12.657  11.598  71.113  1.00  0.00    -0.439 A  
HETATM   19  C   UNL     1     -12.861  12.975  71.103  1.00  0.00    -0.331 A  
HETATM   20  C   UNL     1     -12.202  13.773  70.162  1.00  0.00    -0.425 A  
HETATM   21  C   UNL     1     -11.117  11.828  69.265  1.00  0.00    -0.278 A  
HETATM   22  C   UNL     1     -11.780  11.027  70.201  1.00  0.00    -0.442 A  
ENDBRANCH   5  17
ENDBRANCH   4   5
ENDBRANCH   3   4
ENDBRANCH   2   3
BRANCH   2  23
HETATM   23  C   UNL     1     -10.010  10.979  65.042  1.00  0.00    -0.340 A  
HETATM   24  F   UNL     1      -6.911  10.211  62.349  1.00  0.00    -0.106 F  
HETATM   25  C   UNL     1      -8.956  10.708  64.156  1.00  0.00    -0.214 A  
HETATM   26  F   UNL     1     -11.404   7.378  66.948  1.00  0.00    -0.338 F  
HETATM   27  C   UNL     1      -8.266   9.486  64.197  1.00  0.00    -0.159 A  
HETATM   28  C   UNL     1      -8.638   8.527  65.153  1.00  0.00    -0.179 A  
HETATM   29  F   UNL     1      -9.955   8.181  68.358  1.00  0.00    -0.171 F  
HETATM   30  C   UNL     1      -7.153   9.191  63.219  1.00  0.00    -0.088 C  
HETATM   31  F   UNL     1      -9.381   6.584  67.000  1.00  0.00    -0.126 F  
HETATM   32  C   UNL     1     -10.097   7.741  67.079  1.00  0.00    -0.273 C  
HETATM   33  F   UNL     1      -5.969   8.936  63.837  1.00  0.00    -0.069 F  
HETATM   34  F   UNL     1      -7.419   8.101  62.448  1.00  0.00    -0.093 F  
HETATM   35  C   UNL     1     -10.360  10.004  65.991  1.00  0.00    -0.222 A  
HETATM   36  C   UNL     1      -9.683   8.775  66.057  1.00  0.00    -0.276 A  
ENDBRANCH   2  23
TORSDOF 5
ENDMDL
MODEL       83
REMARK 921   NORMALIZED FREE ENERGY PREDICTED BY IDOCK:   -6.06 KCAL/MOL
REMARK 922        TOTAL FREE ENERGY PREDICTED BY IDOCK:  -10.69 KCAL/MOL
REMARK 923 INTER-LIGAND FREE ENERGY PREDICTED BY IDOCK:   -7.35 KCAL/MOL
REMARK 924 INTRA-LIGAND FREE ENERGY PREDICTED BY IDOCK:   -3.34 KCAL/MOL
REMARK 927      BINDING AFFINITY PREDICTED BY RF-SCORE:    0.00 PKD
ROOT
HETATM    1  C   UNL     1     -11.882  11.870  70.535  1.00  0.00    -0.253 C  
HETATM    2  C   UNL     1     -11.975  11.092  69.223  1.00  0.00    -0.339 C  
ENDROOT
BRANCH   2   3
HETATM    3  O   UNL     1     -11.403  11.830  68.144  1.00  0.00    -0.239 OA 
BRANCH   3   4
HETATM    4  C   UNL     1     -10.819  13.081  68.535  1.00  0.00    -0.258 C  
BRANCH   4   5
HETATM    5  C   UNL     1      -9.438  13.262  67.810  1.00  0.00    -0.208 C  
HETATM    6  C   UNL     1      -9.541  16.147  66.993  1.00  0.00    -0.224 C  
HETATM    7  C   UNL     1     -10.283  15.068  66.187  1.00  0.00    -0.311 C  
HETATM    8  N   UNL     1     -10.317  17.367  66.993  1.00  0.00    -0.324 NA 
HETATM    9  H   UNL     1      -7.706  14.363  68.165  1.00  0.00     0.000 HD 
HETATM   10  C   UNL     1      -9.640  13.688  66.334  1.00  0.00    -0.280 C  
HETATM   11  O   UNL     1      -9.980  19.636  66.914  1.00  0.00    -0.345 OA 
HETATM   12  C   UNL     1      -9.284  15.657  68.443  1.00  0.00    -0.191 C  
HETATM   13  C   UNL     1      -8.227  16.569  66.309  1.00  0.00    -0.360 C  
HETATM   14  C   UNL     1      -9.564  18.497  66.793  1.00  0.00    -0.321 C  
HETATM   15  C   UNL     1      -8.165  18.093  66.431  1.00  0.00    -0.282 C  
HETATM   16  N   UNL     1      -8.665  14.329  68.511  1.00  0.00    -0.180 NA 
BRANCH   5  17
HETATM   17  C   UNL     1      -8.628  11.938  67.811  1.00  0.00    -0.154 A  
HETATM   18  C   UNL     1      -7.164   9.514  67.853  1.00  0.00    -0.082 A  
HETATM   19  C   UNL     1      -7.333  10.248  69.023  1.00  0.00    -0.092 A  
HETATM   20  C   UNL     1      -8.052  11.448  68.998  1.00  0.00    -0.005 A  
HETATM   21  C   UNL     1      -8.406  11.192  66.637  1.00  0.00    -0.160 A  
HETATM   22  C   UNL     1      -7.693   9.989  66.661  1.00  0.00    -0.104 A  
ENDBRANCH   5  17
ENDBRANCH   4   5
ENDBRANCH   3   4
ENDBRANCH   2   3
BRANCH   2  23
HETATM   23  C   UNL     1     -11.226   9.776  69.368  1.00  0.00    -0.154 A  
HETATM   24  F   UNL     1      -9.530   8.834  73.068  1.00  0.00    -0.264 F  
HETATM   25  C   UNL     1     -10.660   9.435  70.605  1.00  0.00    -0.354 A  
HETATM   26  F   UNL     1      -9.433   7.524  66.165  1.00  0.00    -0.217 F  
HETATM   27  C   UNL     1      -9.888   8.272  70.758  1.00  0.00    -0.205 A  
HETATM   28  C   UNL     1      -9.691   7.437  69.647  1.00  0.00    -0.163 A  
HETATM   29  F   UNL     1     -11.192   6.358  66.695  1.00  0.00    -0.423 F  
HETATM   30  C   UNL     1      -9.257   7.929  72.087  1.00  0.00    -0.158 C  
HETATM   31  F   UNL     1      -9.238   5.785  67.454  1.00  0.00    -0.114 F  
HETATM   32  C   UNL     1     -10.031   6.862  67.195  1.00  0.00    -0.183 C  
HETATM   33  F   UNL     1      -9.669   6.724  72.565  1.00  0.00    -0.154 F  
HETATM   34  F   UNL     1      -7.899   7.861  72.012  1.00  0.00    -0.083 F  
HETATM   35  C   UNL     1     -11.016   8.922  68.273  1.00  0.00     0.063 A  
HETATM   36  C   UNL     1     -10.252   7.750  68.398  1.00  0.00    -0.230 A  
ENDBRANCH   2  23
TORSDOF 5
ENDMDL
MODEL       84
REMARK 921   NORMALIZED FREE ENERGY PREDICTED BY IDOCK:   -6.06 KCAL/MOL
REMARK 922        TOTAL FREE ENERGY PREDICTED BY IDOCK:  -10.69 KCAL/MOL
REMARK 923 INTER-LIGAND FREE ENERGY PREDICTED BY IDOCK:   -8.63 KCAL/MOL
REMARK 924 INTRA-LIGAND FREE ENERGY PREDICTED BY IDOCK:   -2.05 KCAL/MOL
REMARK 927      BINDING AFFINITY PREDICTED BY RF-SCORE:    0.00 PKD
ROOT
HETATM    1  C   UNL     1     -11.858  11.702  63.444  1.00  0.00    -0.317 C  
HETATM    2  C   UNL     1     -10.567  12.175  64.111  1.00  0.00    -0.365 C  
ENDROOT
BRANCH   2   3
HETATM    3  O   UNL     1     -10.841  12.904  65.307  1.00  0.00    -0.283 OA 
BRANCH   3   4
HETATM    4  C   UNL     1      -9.673  13.447  65.942  1.00  0.00    -0.182 C  
BRANCH   4   5
HETATM    5  C   UNL     1     -10.060  14.001  67.359  1.00  0.00    -0.244 C  
HETATM    6  C   UNL     1      -9.702  16.955  66.987  1.00  0.00    -0.253 C  
HETATM    7  C   UNL     1      -8.494  16.035  67.228  1.00  0.00    -0.206 C  
HETATM    8  N   UNL     1      -9.326  18.014  66.077  1.00  0.00    -0.521 NA 
HETATM    9  H   UNL     1     -11.585  15.197  68.121  1.00  0.00     0.000 HD 
HETATM   10  C   UNL     1      -8.874  14.767  67.996  1.00  0.00    -0.169 C  
HETATM   11  O   UNL     1      -9.739  20.247  65.750  1.00  0.00    -0.323 OA 
HETATM   12  C   UNL     1     -10.897  16.142  66.425  1.00  0.00    -0.131 C  
HETATM   13  C   UNL     1     -10.102  17.720  68.264  1.00  0.00    -0.371 C  
HETATM   14  C   UNL     1      -9.797  19.249  66.445  1.00  0.00    -0.388 C  
HETATM   15  C   UNL     1     -10.402  19.151  67.815  1.00  0.00    -0.513 C  
HETATM   16  N   UNL     1     -11.209  14.941  67.208  1.00  0.00    -0.337 NA 
BRANCH   5  17
HETATM   17  C   UNL     1     -10.447  12.847  68.324  1.00  0.00    -0.250 A  
HETATM   18  C   UNL     1     -11.113  10.739  70.095  1.00  0.00    -0.298 A  
HETATM   19  C   UNL     1      -9.915  10.706  69.388  1.00  0.00    -0.183 A  
HETATM   20  C   UNL     1      -9.591  11.746  68.509  1.00  0.00    -0.173 A  
HETATM   21  C   UNL     1     -11.669  12.833  69.024  1.00  0.00    -0.371 A  
HETATM   22  C   UNL     1     -11.992  11.797  69.907  1.00  0.00    -0.405 A  
ENDBRANCH   5  17
ENDBRANCH   4   5
ENDBRANCH   3   4
ENDBRANCH   2   3
BRANCH   2  23
HETATM   23  C   UNL     1      -9.712  10.966  64.460  1.00  0.00    -0.334 A  
HETATM   24  F   UNL     1     -11.104   8.300  67.359  1.00  0.00    -0.258 F  
HETATM   25  C   UNL     1     -10.167  10.051  65.421  1.00  0.00    -0.226 A  
HETATM   26  F   UNL     1      -5.457  10.630  63.887  1.00  0.00    -0.135 F  
HETATM   27  C   UNL     1      -9.371   8.971  65.834  1.00  0.00    -0.306 A  
HETATM   28  C   UNL     1      -8.099   8.807  65.262  1.00  0.00    -0.129 A  
HETATM   29  F   UNL     1      -6.290   9.351  62.337  1.00  0.00    -0.098 F  
HETATM   30  C   UNL     1      -9.857   8.010  66.893  1.00  0.00    -0.248 C  
HETATM   31  F   UNL     1      -5.555   8.480  64.187  1.00  0.00    -0.058 F  
HETATM   32  C   UNL     1      -6.248   9.539  63.684  1.00  0.00    -0.098 C  
HETATM   33  F   UNL     1      -9.914   6.726  66.445  1.00  0.00    -0.220 F  
HETATM   34  F   UNL     1      -9.047   7.992  67.986  1.00  0.00    -0.130 F  
HETATM   35  C   UNL     1      -8.437  10.777  63.901  1.00  0.00     0.016 A  
HETATM   36  C   UNL     1      -7.621   9.702  64.293  1.00  0.00    -0.128 A  
ENDBRANCH   2  23
TORSDOF 5
ENDMDL
MODEL       85
REMARK 921   NORMALIZED FREE ENERGY PREDICTED BY IDOCK:   -6.05 KCAL/MOL
REMARK 922        TOTAL FREE ENERGY PREDICTED BY IDOCK:  -10.68 KCAL/MOL
REMARK 923 INTER-LIGAND FREE ENERGY PREDICTED BY IDOCK:   -8.75 KCAL/MOL
REMARK 924 INTRA-LIGAND FREE ENERGY PREDICTED BY IDOCK:   -1.93 KCAL/MOL
REMARK 927      BINDING AFFINITY PREDICTED BY RF-SCORE:    0.00 PKD
ROOT
HETATM    1  C   UNL     1     -10.797  10.801  65.263  1.00  0.00    -0.064 C  
HETATM    2  C   UNL     1      -9.454  10.991  65.965  1.00  0.00    -0.207 C  
ENDROOT
BRANCH   2   3
HETATM    3  O   UNL     1      -9.420  12.219  66.691  1.00  0.00    -0.215 OA 
BRANCH   3   4
HETATM    4  C   UNL     1     -10.654  12.953  66.659  1.00  0.00    -0.261 C  
BRANCH   4   5
HETATM    5  C   UNL     1     -10.831  13.737  68.007  1.00  0.00    -0.249 C  
HETATM    6  C   UNL     1      -9.676  16.418  67.321  1.00  0.00    -0.239 C  
HETATM    7  C   UNL     1      -8.766  15.227  67.662  1.00  0.00    -0.179 C  
HETATM    8  N   UNL     1      -9.046  17.229  66.304  1.00  0.00    -0.409 NA 
HETATM    9  H   UNL     1     -11.942  15.384  68.634  1.00  0.00     0.000 HD 
HETATM   10  C   UNL     1      -9.462  14.203  68.561  1.00  0.00    -0.202 C  
HETATM   11  O   UNL     1      -8.830  19.443  65.737  1.00  0.00    -0.393 OA 
HETATM   12  C   UNL     1     -11.066  15.918  66.847  1.00  0.00    -0.082 C  
HETATM   13  C   UNL     1      -9.812  17.392  68.507  1.00  0.00    -0.320 C  
HETATM   14  C   UNL     1      -9.144  18.578  66.536  1.00  0.00    -0.295 C  
HETATM   15  C   UNL     1      -9.714  18.796  67.907  1.00  0.00    -0.368 C  
HETATM   16  N   UNL     1     -11.677  14.940  67.754  1.00  0.00    -0.349 NA 
BRANCH   5  17
HETATM   17  C   UNL     1     -11.497  12.844  69.090  1.00  0.00    -0.360 A  
HETATM   18  C   UNL     1     -12.682  11.186  71.057  1.00  0.00    -0.476 A  
HETATM   19  C   UNL     1     -12.133  10.625  69.908  1.00  0.00    -0.372 A  
HETATM   20  C   UNL     1     -11.552  11.446  68.936  1.00  0.00    -0.388 A  
HETATM   21  C   UNL     1     -12.096  13.385  70.244  1.00  0.00    -0.419 A  
HETATM   22  C   UNL     1     -12.671  12.565  71.220  1.00  0.00    -0.350 A  
ENDBRANCH   5  17
ENDBRANCH   4   5
ENDBRANCH   3   4
ENDBRANCH   2   3
BRANCH   2  23
HETATM   23  C   UNL     1      -9.230   9.842  66.937  1.00  0.00    -0.171 A  
HETATM   24  F   UNL     1     -11.648   6.450  66.615  1.00  0.00    -0.318 F  
HETATM   25  C   UNL     1     -10.022   8.688  66.837  1.00  0.00    -0.330 A  
HETATM   26  F   UNL     1      -7.394  10.137  70.821  1.00  0.00    -0.121 F  
HETATM   27  C   UNL     1      -9.907   7.643  67.767  1.00  0.00    -0.196 A  
HETATM   28  C   UNL     1      -8.972   7.759  68.808  1.00  0.00    -0.141 A  
HETATM   29  F   UNL     1      -5.881   9.152  69.608  1.00  0.00    -0.032 F  
HETATM   30  C   UNL     1     -10.786   6.418  67.670  1.00  0.00    -0.339 C  
HETATM   31  F   UNL     1      -7.165   7.978  70.912  1.00  0.00    -0.050 F  
HETATM   32  C   UNL     1      -7.162   9.037  70.053  1.00  0.00    -0.058 C  
HETATM   33  F   UNL     1     -10.069   5.270  67.533  1.00  0.00    -0.156 F  
HETATM   34  F   UNL     1     -11.560   6.249  68.777  1.00  0.00    -0.412 F  
HETATM   35  C   UNL     1      -8.300   9.932  67.985  1.00  0.00    -0.113 A  
HETATM   36  C   UNL     1      -8.160   8.899  68.927  1.00  0.00    -0.112 A  
ENDBRANCH   2  23
TORSDOF 5
ENDMDL
MODEL       86
REMARK 921   NORMALIZED FREE ENERGY PREDICTED BY IDOCK:   -6.04 KCAL/MOL
REMARK 922        TOTAL FREE ENERGY PREDICTED BY IDOCK:  -10.66 KCAL/MOL
REMARK 923 INTER-LIGAND FREE ENERGY PREDICTED BY IDOCK:   -9.38 KCAL/MOL
REMARK 924 INTRA-LIGAND FREE ENERGY PREDICTED BY IDOCK:   -1.29 KCAL/MOL
REMARK 927      BINDING AFFINITY PREDICTED BY RF-SCORE:    0.00 PKD
ROOT
HETATM    1  C   UNL     1     -11.855  13.046  65.365  1.00  0.00    -0.428 C  
HETATM    2  C   UNL     1     -11.311  12.787  66.769  1.00  0.00    -0.313 C  
ENDROOT
BRANCH   2   3
HETATM    3  O   UNL     1      -9.941  12.388  66.726  1.00  0.00    -0.218 OA 
BRANCH   3   4
HETATM    4  C   UNL     1      -9.481  11.745  67.924  1.00  0.00    -0.191 C  
BRANCH   4   5
HETATM    5  C   UNL     1      -9.066  10.267  67.598  1.00  0.00    -0.137 C  
HETATM    6  C   UNL     1      -9.713   8.860  70.166  1.00  0.00    -0.179 C  
HETATM    7  C   UNL     1      -8.424   9.685  70.017  1.00  0.00    -0.223 C  
HETATM    8  N   UNL     1     -10.217   8.995  71.515  1.00  0.00    -0.326 NA 
HETATM    9  H   UNL     1     -10.067   8.451  67.404  1.00  0.00     0.000 HD 
HETATM   10  C   UNL     1      -7.958   9.777  68.562  1.00  0.00    -0.089 C  
HETATM   11  O   UNL     1     -11.259   7.718  73.112  1.00  0.00    -0.402 OA 
HETATM   12  C   UNL     1     -10.772   9.322  69.132  1.00  0.00    -0.183 C  
HETATM   13  C   UNL     1      -9.442   7.348  70.045  1.00  0.00    -0.161 C  
HETATM   14  C   UNL     1     -10.653   7.813  72.060  1.00  0.00    -0.228 C  
HETATM   15  C   UNL     1     -10.279   6.686  71.142  1.00  0.00    -0.216 C  
HETATM   16  N   UNL     1     -10.261   9.387  67.758  1.00  0.00    -0.208 NA 
BRANCH   5  17
HETATM   17  C   UNL     1      -8.516  10.147  66.150  1.00  0.00    -0.134 A  
HETATM   18  C   UNL     1      -7.473   9.918  63.527  1.00  0.00    -0.134 A  
HETATM   19  C   UNL     1      -6.680  10.425  64.552  1.00  0.00    -0.010 A  
HETATM   20  C   UNL     1      -7.199  10.542  65.846  1.00  0.00    -0.135 A  
HETATM   21  C   UNL     1      -9.305   9.674  65.084  1.00  0.00    -0.322 A  
HETATM   22  C   UNL     1      -8.785   9.551  63.791  1.00  0.00    -0.237 A  
ENDBRANCH   5  17
ENDBRANCH   4   5
ENDBRANCH   3   4
ENDBRANCH   2   3
BRANCH   2  23
HETATM   23  C   UNL     1     -11.425  14.060  67.594  1.00  0.00    -0.362 A  
HETATM   24  F   UNL     1      -9.636  17.547  66.148  1.00  0.00    -0.274 F  
HETATM   25  C   UNL     1     -10.843  15.245  67.119  1.00  0.00    -0.322 A  
HETATM   26  F   UNL     1     -12.142  14.268  71.835  1.00  0.00    -0.369 F  
HETATM   27  C   UNL     1     -10.849  16.419  67.889  1.00  0.00    -0.328 A  
HETATM   28  C   UNL     1     -11.461  16.399  69.153  1.00  0.00    -0.188 A  
HETATM   29  F   UNL     1     -14.032  14.896  70.960  1.00  0.00    -0.437 F  
HETATM   30  C   UNL     1     -10.192  17.682  67.384  1.00  0.00    -0.345 C  
HETATM   31  F   UNL     1     -12.620  16.382  71.682  1.00  0.00    -0.428 F  
HETATM   32  C   UNL     1     -12.706  15.198  71.014  1.00  0.00    -0.392 C  
HETATM   33  F   UNL     1     -11.064  18.722  67.290  1.00  0.00    -0.473 F  
HETATM   34  F   UNL     1      -9.188  18.104  68.199  1.00  0.00    -0.261 F  
HETATM   35  C   UNL     1     -12.033  14.067  68.860  1.00  0.00    -0.387 A  
HETATM   36  C   UNL     1     -12.058  15.229  69.649  1.00  0.00    -0.342 A  
ENDBRANCH   2  23
TORSDOF 5
ENDMDL
MODEL       87
REMARK 921   NORMALIZED FREE ENERGY PREDICTED BY IDOCK:   -6.03 KCAL/MOL
REMARK 922        TOTAL FREE ENERGY PREDICTED BY IDOCK:  -10.66 KCAL/MOL
REMARK 923 INTER-LIGAND FREE ENERGY PREDICTED BY IDOCK:   -9.01 KCAL/MOL
REMARK 924 INTRA-LIGAND FREE ENERGY PREDICTED BY IDOCK:   -1.65 KCAL/MOL
REMARK 927      BINDING AFFINITY PREDICTED BY RF-SCORE:    0.00 PKD
ROOT
HETATM    1  C   UNL     1     -10.155  12.945  66.218  1.00  0.00    -0.281 C  
HETATM    2  C   UNL     1     -11.252  11.948  66.589  1.00  0.00    -0.328 C  
ENDROOT
BRANCH   2   3
HETATM    3  O   UNL     1     -10.776  10.605  66.512  1.00  0.00    -0.224 OA 
BRANCH   3   4
HETATM    4  C   UNL     1      -9.389  10.494  66.159  1.00  0.00    -0.176 C  
BRANCH   4   5
HETATM    5  C   UNL     1      -8.695   9.441  67.093  1.00  0.00    -0.128 C  
HETATM    6  C   UNL     1      -6.736  11.144  68.596  1.00  0.00    -0.062 C  
HETATM    7  C   UNL     1      -6.439  10.671  67.163  1.00  0.00    -0.075 C  
HETATM    8  N   UNL     1      -6.198  12.473  68.785  1.00  0.00    -0.069 NA 
HETATM    9  H   UNL     1      -8.603   9.111  69.148  1.00  0.00     0.000 HD 
HETATM   10  C   UNL     1      -7.173   9.373  66.817  1.00  0.00    -0.083 C  
HETATM   11  O   UNL     1      -5.180  13.714  70.424  1.00  0.00    -0.097 OA 
HETATM   12  C   UNL     1      -8.263  11.123  68.866  1.00  0.00    -0.104 C  
HETATM   13  C   UNL     1      -5.975  10.309  69.643  1.00  0.00    -0.046 C  
HETATM   14  C   UNL     1      -5.563  12.643  69.989  1.00  0.00    -0.126 C  
HETATM   15  C   UNL     1      -5.444  11.311  70.670  1.00  0.00    -0.134 C  
HETATM   16  N   UNL     1      -8.903   9.851  68.514  1.00  0.00    -0.120 NA 
BRANCH   5  17
HETATM   17  C   UNL     1      -9.278   8.020  66.866  1.00  0.00    -0.191 A  
HETATM   18  C   UNL     1     -10.379   5.445  66.440  1.00  0.00    -0.298 A  
HETATM   19  C   UNL     1     -11.160   6.457  66.991  1.00  0.00    -0.405 A  
HETATM   20  C   UNL     1     -10.612   7.727  67.205  1.00  0.00    -0.376 A  
HETATM   21  C   UNL     1      -8.503   6.965  66.346  1.00  0.00    -0.130 A  
HETATM   22  C   UNL     1      -9.051   5.697  66.126  1.00  0.00    -0.158 A  
ENDBRANCH   5  17
ENDBRANCH   4   5
ENDBRANCH   3   4
ENDBRANCH   2   3
BRANCH   2  23
HETATM   23  C   UNL     1     -11.717  12.223  68.011  1.00  0.00    -0.417 A  
HETATM   24  F   UNL     1     -11.832  16.178  69.351  1.00  0.00    -0.320 F  
HETATM   25  C   UNL     1     -11.776  13.545  68.476  1.00  0.00    -0.392 A  
HETATM   26  F   UNL     1     -11.627   9.425  71.284  1.00  0.00    -0.322 F  
HETATM   27  C   UNL     1     -12.116  13.835  69.807  1.00  0.00    -0.400 A  
HETATM   28  C   UNL     1     -12.411  12.774  70.679  1.00  0.00    -0.381 A  
HETATM   29  F   UNL     1     -13.738   9.556  70.773  1.00  0.00    -0.326 F  
HETATM   30  C   UNL     1     -12.147  15.260  70.308  1.00  0.00    -0.350 C  
HETATM   31  F   UNL     1     -12.950  10.696  72.448  1.00  0.00    -0.491 F  
HETATM   32  C   UNL     1     -12.669  10.296  71.176  1.00  0.00    -0.403 C  
HETATM   33  F   UNL     1     -13.369  15.620  70.784  1.00  0.00    -0.518 F  
HETATM   34  F   UNL     1     -11.268  15.469  71.325  1.00  0.00    -0.333 F  
HETATM   35  C   UNL     1     -12.019  11.181  68.903  1.00  0.00    -0.367 A  
HETATM   36  C   UNL     1     -12.368  11.442  70.239  1.00  0.00    -0.379 A  
ENDBRANCH   2  23
TORSDOF 5
ENDMDL
MODEL       88
REMARK 921   NORMALIZED FREE ENERGY PREDICTED BY IDOCK:   -6.02 KCAL/MOL
REMARK 922        TOTAL FREE ENERGY PREDICTED BY IDOCK:  -10.65 KCAL/MOL
REMARK 923 INTER-LIGAND FREE ENERGY PREDICTED BY IDOCK:   -9.70 KCAL/MOL
REMARK 924 INTRA-LIGAND FREE ENERGY PREDICTED BY IDOCK:   -0.95 KCAL/MOL
REMARK 927      BINDING AFFINITY PREDICTED BY RF-SCORE:    0.00 PKD
ROOT
HETATM    1  C   UNL     1     -11.873  12.288  65.443  1.00  0.00    -0.418 C  
HETATM    2  C   UNL     1     -10.792  12.633  66.465  1.00  0.00    -0.258 C  
ENDROOT
BRANCH   2   3
HETATM    3  O   UNL     1     -11.359  12.887  67.750  1.00  0.00    -0.264 OA 
BRANCH   3   4
HETATM    4  C   UNL     1     -10.436  13.447  68.697  1.00  0.00    -0.225 C  
BRANCH   4   5
HETATM    5  C   UNL     1     -11.060  14.739  69.333  1.00  0.00    -0.281 C  
HETATM    6  C   UNL     1      -9.514  16.912  67.962  1.00  0.00    -0.243 C  
HETATM    7  C   UNL     1      -8.909  16.133  69.141  1.00  0.00    -0.239 C  
HETATM    8  N   UNL     1      -8.473  17.227  67.009  1.00  0.00    -0.211 NA 
HETATM    9  H   UNL     1     -12.188  16.344  68.632  1.00  0.00     0.000 HD 
HETATM   10  C   UNL     1      -9.982  15.568  70.075  1.00  0.00    -0.178 C  
HETATM   11  O   UNL     1      -7.873  18.934  65.596  1.00  0.00    -0.459 OA 
HETATM   12  C   UNL     1     -10.644  16.088  67.292  1.00  0.00    -0.313 C  
HETATM   13  C   UNL     1     -10.021  18.302  68.394  1.00  0.00    -0.401 C  
HETATM   14  C   UNL     1      -8.543  18.507  66.520  1.00  0.00    -0.276 C  
HETATM   15  C   UNL     1      -9.582  19.267  67.291  1.00  0.00    -0.394 C  
HETATM   16  N   UNL     1     -11.639  15.578  68.242  1.00  0.00    -0.359 NA 
BRANCH   5  17
HETATM   17  C   UNL     1     -12.166  14.379  70.362  1.00  0.00    -0.404 A  
HETATM   18  C   UNL     1     -14.156  13.692  72.257  1.00  0.00    -0.602 A  
HETATM   19  C   UNL     1     -13.285  12.720  71.776  1.00  0.00    -0.471 A  
HETATM   20  C   UNL     1     -12.305  13.060  70.836  1.00  0.00    -0.376 A  
HETATM   21  C   UNL     1     -13.087  15.331  70.838  1.00  0.00    -0.523 A  
HETATM   22  C   UNL     1     -14.063  14.994  71.782  1.00  0.00    -0.621 A  
ENDBRANCH   5  17
ENDBRANCH   4   5
ENDBRANCH   3   4
ENDBRANCH   2   3
BRANCH   2  23
HETATM   23  C   UNL     1      -9.821  11.467  66.580  1.00  0.00    -0.228 A  
HETATM   24  F   UNL     1     -11.368   7.596  66.850  1.00  0.00    -0.224 F  
HETATM   25  C   UNL     1     -10.320  10.158  66.659  1.00  0.00    -0.274 A  
HETATM   26  F   UNL     1      -5.775  11.681  68.040  1.00  0.00    -0.043 F  
HETATM   27  C   UNL     1      -9.463   9.063  66.853  1.00  0.00    -0.219 A  
HETATM   28  C   UNL     1      -8.082   9.291  66.960  1.00  0.00    -0.112 A  
HETATM   29  F   UNL     1      -5.537  11.417  65.894  1.00  0.00    -0.147 F  
HETATM   30  C   UNL     1     -10.011   7.660  66.967  1.00  0.00    -0.240 C  
HETATM   31  F   UNL     1      -5.345   9.711  67.228  1.00  0.00    -0.035 F  
HETATM   32  C   UNL     1      -6.071  10.843  67.007  1.00  0.00    -0.074 C  
HETATM   33  F   UNL     1      -9.514   6.825  66.015  1.00  0.00    -0.180 F  
HETATM   34  F   UNL     1      -9.715   7.085  68.165  1.00  0.00    -0.132 F  
HETATM   35  C   UNL     1      -8.435  11.668  66.688  1.00  0.00    -0.165 A  
HETATM   36  C   UNL     1      -7.555  10.590  66.878  1.00  0.00    -0.110 A  
ENDBRANCH   2  23
TORSDOF 5
ENDMDL
MODEL       89
REMARK 921   NORMALIZED FREE ENERGY PREDICTED BY IDOCK:   -6.01 KCAL/MOL
REMARK 922        TOTAL FREE ENERGY PREDICTED BY IDOCK:  -10.63 KCAL/MOL
REMARK 923 INTER-LIGAND FREE ENERGY PREDICTED BY IDOCK:   -8.09 KCAL/MOL
REMARK 924 INTRA-LIGAND FREE ENERGY PREDICTED BY IDOCK:   -2.54 KCAL/MOL
REMARK 927      BINDING AFFINITY PREDICTED BY RF-SCORE:    0.00 PKD
ROOT
HETATM    1  C   UNL     1     -12.653   9.307  71.036  1.00  0.00    -0.248 C  
HETATM    2  C   UNL     1     -11.456   9.933  70.322  1.00  0.00    -0.281 C  
ENDROOT
BRANCH   2   3
HETATM    3  O   UNL     1     -11.129   9.212  69.134  1.00  0.00    -0.098 OA 
BRANCH   3   4
HETATM    4  C   UNL     1      -9.973   8.371  69.259  1.00  0.00    -0.195 C  
BRANCH   4   5
HETATM    5  C   UNL     1      -9.044   8.571  68.010  1.00  0.00    -0.140 C  
HETATM    6  C   UNL     1      -8.976   5.810  66.840  1.00  0.00    -0.114 C  
HETATM    7  C   UNL     1      -8.106   6.178  68.053  1.00  0.00    -0.114 C  
HETATM    8  N   UNL     1      -9.424   4.441  66.966  1.00  0.00    -0.162 NA 
HETATM    9  H   UNL     1      -9.288   8.460  65.944  1.00  0.00     0.000 HD 
HETATM   10  C   UNL     1      -7.785   7.674  68.105  1.00  0.00    -0.119 C  
HETATM   11  O   UNL     1      -9.819   2.616  65.633  1.00  0.00     0.202 OA 
HETATM   12  C   UNL     1     -10.183   6.778  66.726  1.00  0.00    -0.202 C  
HETATM   13  C   UNL     1      -8.157   5.789  65.535  1.00  0.00    -0.128 C  
HETATM   14  C   UNL     1      -9.349   3.727  65.797  1.00  0.00    -0.164 C  
HETATM   15  C   UNL     1      -8.622   4.547  64.771  1.00  0.00    -0.137 C  
HETATM   16  N   UNL     1      -9.805   8.194  66.782  1.00  0.00    -0.236 NA 
BRANCH   5  17
HETATM   17  C   UNL     1      -8.564  10.044  67.899  1.00  0.00    -0.121 A  
HETATM   18  C   UNL     1      -7.656  12.721  67.726  1.00  0.00    -0.141 A  
HETATM   19  C   UNL     1      -7.556  12.026  68.927  1.00  0.00    -0.016 A  
HETATM   20  C   UNL     1      -8.010  10.705  69.012  1.00  0.00    -0.140 A  
HETATM   21  C   UNL     1      -8.687  10.786  66.709  1.00  0.00    -0.145 A  
HETATM   22  C   UNL     1      -8.228  12.105  66.621  1.00  0.00    -0.017 A  
ENDBRANCH   5  17
ENDBRANCH   4   5
ENDBRANCH   3   4
ENDBRANCH   2   3
BRANCH   2  23
HETATM   23  C   UNL     1     -11.791  11.368  69.946  1.00  0.00    -0.435 A  
HETATM   24  F   UNL     1     -11.297  12.565  65.974  1.00  0.00    -0.314 F  
HETATM   25  C   UNL     1     -11.645  11.786  68.615  1.00  0.00    -0.367 A  
HETATM   26  F   UNL     1     -11.867  14.732  72.634  1.00  0.00    -0.386 F  
HETATM   27  C   UNL     1     -11.860  13.123  68.244  1.00  0.00    -0.384 A  
HETATM   28  C   UNL     1     -12.237  14.050  69.229  1.00  0.00    -0.319 A  
HETATM   29  F   UNL     1     -13.970  14.341  72.236  1.00  0.00    -0.457 F  
HETATM   30  C   UNL     1     -11.669  13.571  66.814  1.00  0.00    -0.391 C  
HETATM   31  F   UNL     1     -12.935  15.923  71.163  1.00  0.00    -0.499 F  
HETATM   32  C   UNL     1     -12.790  14.653  71.635  1.00  0.00    -0.332 C  
HETATM   33  F   UNL     1     -12.801  14.105  66.279  1.00  0.00    -0.480 F  
HETATM   34  F   UNL     1     -10.709  14.528  66.695  1.00  0.00    -0.287 F  
HETATM   35  C   UNL     1     -12.172  12.314  70.912  1.00  0.00    -0.296 A  
HETATM   36  C   UNL     1     -12.398  13.657  70.567  1.00  0.00    -0.425 A  
ENDBRANCH   2  23
TORSDOF 5
ENDMDL
MODEL       90
REMARK 921   NORMALIZED FREE ENERGY PREDICTED BY IDOCK:   -5.97 KCAL/MOL
REMARK 922        TOTAL FREE ENERGY PREDICTED BY IDOCK:  -10.58 KCAL/MOL
REMARK 923 INTER-LIGAND FREE ENERGY PREDICTED BY IDOCK:   -9.14 KCAL/MOL
REMARK 924 INTRA-LIGAND FREE ENERGY PREDICTED BY IDOCK:   -1.44 KCAL/MOL
REMARK 927      BINDING AFFINITY PREDICTED BY RF-SCORE:    0.00 PKD
ROOT
HETATM    1  C   UNL     1     -12.466  13.399  70.750  1.00  0.00    -0.418 C  
HETATM    2  C   UNL     1     -11.798  12.777  69.525  1.00  0.00    -0.316 C  
ENDROOT
BRANCH   2   3
HETATM    3  O   UNL     1     -10.712  13.581  69.065  1.00  0.00    -0.228 OA 
BRANCH   3   4
HETATM    4  C   UNL     1     -11.000  14.331  67.876  1.00  0.00    -0.267 C  
BRANCH   4   5
HETATM    5  C   UNL     1      -9.796  14.209  66.877  1.00  0.00    -0.265 C  
HETATM    6  C   UNL     1      -8.024  16.459  67.767  1.00  0.00    -0.149 C  
HETATM    7  C   UNL     1      -9.256  16.722  66.886  1.00  0.00    -0.249 C  
HETATM    8  N   UNL     1      -7.851  17.557  68.692  1.00  0.00    -0.272 NA 
HETATM    9  H   UNL     1      -7.770  13.752  67.040  1.00  0.00     0.000 HD 
HETATM   10  C   UNL     1      -9.636  15.504  66.041  1.00  0.00    -0.380 C  
HETATM   11  O   UNL     1      -6.151  18.756  69.662  1.00  0.00    -0.260 OA 
HETATM   12  C   UNL     1      -8.180  15.116  68.528  1.00  0.00    -0.148 C  
HETATM   13  C   UNL     1      -6.719  16.485  66.949  1.00  0.00    -0.233 C  
HETATM   14  C   UNL     1      -6.547  17.964  68.826  1.00  0.00    -0.235 C  
HETATM   15  C   UNL     1      -5.710  17.261  67.798  1.00  0.00    -0.131 C  
HETATM   16  N   UNL     1      -8.544  13.991  67.660  1.00  0.00    -0.175 NA 
BRANCH   5  17
HETATM   17  C   UNL     1     -10.007  13.033  65.885  1.00  0.00    -0.270 A  
HETATM   18  C   UNL     1     -10.377  10.913  64.044  1.00  0.00    -0.417 A  
HETATM   19  C   UNL     1     -10.574  12.230  63.641  1.00  0.00    -0.501 A  
HETATM   20  C   UNL     1     -10.395  13.276  64.554  1.00  0.00    -0.394 A  
HETATM   21  C   UNL     1      -9.854  11.688  66.272  1.00  0.00    -0.245 A  
HETATM   22  C   UNL     1     -10.026  10.642  65.359  1.00  0.00    -0.343 A  
ENDBRANCH   5  17
ENDBRANCH   4   5
ENDBRANCH   3   4
ENDBRANCH   2   3
BRANCH   2  23
HETATM   23  C   UNL     1     -11.267  11.399  69.890  1.00  0.00    -0.221 A  
HETATM   24  F   UNL     1      -7.633  10.155  68.245  1.00  0.00    -0.083 F  
HETATM   25  C   UNL     1     -10.042  10.967  69.359  1.00  0.00    -0.060 A  
HETATM   26  F   UNL     1     -13.620   8.069  71.277  1.00  0.00    -0.331 F  
HETATM   27  C   UNL     1      -9.559   9.671  69.601  1.00  0.00    -0.225 A  
HETATM   28  C   UNL     1     -10.320   8.800  70.397  1.00  0.00    -0.230 A  
HETATM   29  F   UNL     1     -12.565   8.735  73.059  1.00  0.00    -0.395 F  
HETATM   30  C   UNL     1      -8.254   9.205  68.999  1.00  0.00    -0.115 C  
HETATM   31  F   UNL     1     -11.825   7.032  71.930  1.00  0.00    -0.285 F  
HETATM   32  C   UNL     1     -12.375   8.272  71.794  1.00  0.00    -0.328 C  
HETATM   33  F   UNL     1      -7.351   8.826  69.943  1.00  0.00    -0.048 F  
HETATM   34  F   UNL     1      -8.418   8.130  68.180  1.00  0.00    -0.121 F  
HETATM   35  C   UNL     1     -12.007  10.509  70.686  1.00  0.00    -0.455 A  
HETATM   36  C   UNL     1     -11.545   9.208  70.948  1.00  0.00    -0.350 A  
ENDBRANCH   2  23
TORSDOF 5
ENDMDL
MODEL       91
REMARK 921   NORMALIZED FREE ENERGY PREDICTED BY IDOCK:   -5.97 KCAL/MOL
REMARK 922        TOTAL FREE ENERGY PREDICTED BY IDOCK:  -10.57 KCAL/MOL
REMARK 923 INTER-LIGAND FREE ENERGY PREDICTED BY IDOCK:   -7.92 KCAL/MOL
REMARK 924 INTRA-LIGAND FREE ENERGY PREDICTED BY IDOCK:   -2.65 KCAL/MOL
REMARK 927      BINDING AFFINITY PREDICTED BY RF-SCORE:    0.00 PKD
ROOT
HETATM    1  C   UNL     1     -12.030  15.185  69.794  1.00  0.00    -0.367 C  
HETATM    2  C   UNL     1     -10.887  15.133  68.782  1.00  0.00    -0.247 C  
ENDROOT
BRANCH   2   3
HETATM    3  O   UNL     1      -9.622  15.289  69.423  1.00  0.00    -0.241 OA 
BRANCH   3   4
HETATM    4  C   UNL     1      -8.864  16.416  68.957  1.00  0.00    -0.240 C  
BRANCH   4   5
HETATM    5  C   UNL     1      -7.615  15.909  68.154  1.00  0.00    -0.131 C  
HETATM    6  C   UNL     1      -7.185  18.144  66.201  1.00  0.00    -0.281 C  
HETATM    7  C   UNL     1      -8.274  17.084  65.966  1.00  0.00    -0.179 C  
HETATM    8  N   UNL     1      -7.651  19.426  65.723  1.00  0.00    -0.431 NA 
HETATM    9  H   UNL     1      -5.642  16.538  67.922  1.00  0.00     0.000 HD 
HETATM   10  C   UNL     1      -7.948  15.755  66.649  1.00  0.00    -0.233 C  
HETATM   11  O   UNL     1      -6.821  21.292  64.674  1.00  0.00     0.076 OA 
HETATM   12  C   UNL     1      -6.817  18.216  67.706  1.00  0.00    -0.202 C  
HETATM   13  C   UNL     1      -5.937  17.883  65.336  1.00  0.00    -0.067 C  
HETATM   14  C   UNL     1      -6.702  20.132  65.026  1.00  0.00    -0.274 C  
HETATM   15  C   UNL     1      -5.509  19.250  64.798  1.00  0.00    -0.243 C  
HETATM   16  N   UNL     1      -6.515  16.908  68.298  1.00  0.00    -0.140 NA 
BRANCH   5  17
HETATM   17  C   UNL     1      -7.139  14.525  68.674  1.00  0.00    -0.113 A  
HETATM   18  C   UNL     1      -6.261  11.990  69.582  1.00  0.00    -0.131 A  
HETATM   19  C   UNL     1      -6.913  12.106  68.359  1.00  0.00    -0.078 A  
HETATM   20  C   UNL     1      -7.350  13.359  67.914  1.00  0.00    -0.140 A  
HETATM   21  C   UNL     1      -6.511  14.369  69.925  1.00  0.00    -0.152 A  
HETATM   22  C   UNL     1      -6.068  13.118  70.368  1.00  0.00    -0.049 A  
ENDBRANCH   5  17
ENDBRANCH   4   5
ENDBRANCH   3   4
ENDBRANCH   2   3
BRANCH   2  23
HETATM   23  C   UNL     1     -10.911  13.790  68.068  1.00  0.00    -0.268 A  
HETATM   24  F   UNL     1     -10.055  10.341  70.264  1.00  0.00    -0.293 F  
HETATM   25  C   UNL     1     -10.640  12.618  68.790  1.00  0.00    -0.214 A  
HETATM   26  F   UNL     1     -10.390  13.165  63.839  1.00  0.00    -0.426 F  
HETATM   27  C   UNL     1     -10.566  11.369  68.153  1.00  0.00    -0.220 A  
HETATM   28  C   UNL     1     -10.779  11.301  66.766  1.00  0.00    -0.323 A  
HETATM   29  F   UNL     1     -12.514  12.817  64.155  1.00  0.00    -0.444 F  
HETATM   30  C   UNL     1     -10.242  10.117  68.933  1.00  0.00    -0.199 C  
HETATM   31  F   UNL     1     -11.145  11.135  64.014  1.00  0.00    -0.438 F  
HETATM   32  C   UNL     1     -11.276  12.391  64.526  1.00  0.00    -0.323 C  
HETATM   33  F   UNL     1     -11.223   9.179  68.846  1.00  0.00    -0.130 F  
HETATM   34  F   UNL     1      -9.103   9.515  68.494  1.00  0.00    -0.128 F  
HETATM   35  C   UNL     1     -11.123  13.693  66.683  1.00  0.00    -0.312 A  
HETATM   36  C   UNL     1     -11.060  12.456  66.020  1.00  0.00    -0.344 A  
ENDBRANCH   2  23
TORSDOF 5
ENDMDL
MODEL       92
REMARK 921   NORMALIZED FREE ENERGY PREDICTED BY IDOCK:   -5.95 KCAL/MOL
REMARK 922        TOTAL FREE ENERGY PREDICTED BY IDOCK:  -10.55 KCAL/MOL
REMARK 923 INTER-LIGAND FREE ENERGY PREDICTED BY IDOCK:   -9.39 KCAL/MOL
REMARK 924 INTRA-LIGAND FREE ENERGY PREDICTED BY IDOCK:   -1.16 KCAL/MOL
REMARK 927      BINDING AFFINITY PREDICTED BY RF-SCORE:    0.00 PKD
ROOT
HETATM    1  C   UNL     1     -11.965  10.977  69.126  1.00  0.00    -0.394 C  
HETATM    2  C   UNL     1     -10.553  11.290  68.635  1.00  0.00    -0.202 C  
ENDROOT
BRANCH   2   3
HETATM    3  O   UNL     1      -9.867  10.101  68.246  1.00  0.00    -0.142 OA 
BRANCH   3   4
HETATM    4  C   UNL     1     -10.733   9.000  67.934  1.00  0.00    -0.138 C  
BRANCH   4   5
HETATM    5  C   UNL     1     -10.214   7.706  68.656  1.00  0.00    -0.199 C  
HETATM    6  C   UNL     1      -8.928   6.211  66.397  1.00  0.00    -0.150 C  
HETATM    7  C   UNL     1     -10.453   6.197  66.590  1.00  0.00    -0.267 C  
HETATM    8  N   UNL     1      -8.621   6.202  64.984  1.00  0.00    -0.069 NA 
HETATM    9  H   UNL     1      -8.345   6.883  69.067  1.00  0.00     0.000 HD 
HETATM   10  C   UNL     1     -10.856   6.436  68.046  1.00  0.00    -0.396 C  
HETATM   11  O   UNL     1      -7.068   5.306  63.552  1.00  0.00    -0.045 OA 
HETATM   12  C   UNL     1      -8.307   7.453  67.088  1.00  0.00    -0.118 C  
HETATM   13  C   UNL     1      -8.275   4.910  66.903  1.00  0.00    -0.107 C  
HETATM   14  C   UNL     1      -7.596   5.354  64.648  1.00  0.00    -0.081 C  
HETATM   15  C   UNL     1      -7.233   4.530  65.849  1.00  0.00    -0.076 C  
HETATM   16  N   UNL     1      -8.734   7.622  68.481  1.00  0.00    -0.128 NA 
BRANCH   5  17
HETATM   17  C   UNL     1     -10.564   7.730  70.169  1.00  0.00    -0.237 A  
HETATM   18  C   UNL     1     -11.182   7.813  72.932  1.00  0.00    -0.434 A  
HETATM   19  C   UNL     1      -9.970   8.318  72.472  1.00  0.00    -0.373 A  
HETATM   20  C   UNL     1      -9.665   8.272  71.107  1.00  0.00    -0.209 A  
HETATM   21  C   UNL     1     -11.765   7.192  70.670  1.00  0.00    -0.348 A  
HETATM   22  C   UNL     1     -12.074   7.243  72.034  1.00  0.00    -0.327 A  
ENDBRANCH   5  17
ENDBRANCH   4   5
ENDBRANCH   3   4
ENDBRANCH   2   3
BRANCH   2  23
HETATM   23  C   UNL     1     -10.635  12.223  67.437  1.00  0.00    -0.247 A  
HETATM   24  F   UNL     1      -9.139  16.105  67.817  1.00  0.00    -0.192 F  
HETATM   25  C   UNL     1     -10.126  13.527  67.539  1.00  0.00    -0.234 A  
HETATM   26  F   UNL     1     -13.409  11.890  64.159  1.00  0.00    -0.480 F  
HETATM   27  C   UNL     1     -10.260  14.446  66.487  1.00  0.00    -0.276 A  
HETATM   28  C   UNL     1     -10.909  14.041  65.309  1.00  0.00    -0.352 A  
HETATM   29  F   UNL     1     -11.513  11.263  63.297  1.00  0.00    -0.426 F  
HETATM   30  C   UNL     1      -9.737  15.857  66.618  1.00  0.00    -0.253 C  
HETATM   31  F   UNL     1     -12.234  13.289  62.982  1.00  0.00    -0.619 F  
HETATM   32  C   UNL     1     -12.133  12.303  63.917  1.00  0.00    -0.506 C  
HETATM   33  F   UNL     1      -8.811  16.161  65.668  1.00  0.00    -0.316 F  
HETATM   34  F   UNL     1     -10.722  16.787  66.495  1.00  0.00    -0.302 F  
HETATM   35  C   UNL     1     -11.278  11.843  66.247  1.00  0.00    -0.392 A  
HETATM   36  C   UNL     1     -11.421  12.741  65.176  1.00  0.00    -0.356 A  
ENDBRANCH   2  23
TORSDOF 5
ENDMDL
MODEL       93
REMARK 921   NORMALIZED FREE ENERGY PREDICTED BY IDOCK:   -5.94 KCAL/MOL
REMARK 922        TOTAL FREE ENERGY PREDICTED BY IDOCK:  -10.54 KCAL/MOL
REMARK 923 INTER-LIGAND FREE ENERGY PREDICTED BY IDOCK:   -9.43 KCAL/MOL
REMARK 924 INTRA-LIGAND FREE ENERGY PREDICTED BY IDOCK:   -1.11 KCAL/MOL
REMARK 927      BINDING AFFINITY PREDICTED BY RF-SCORE:    0.00 PKD
ROOT
HETATM    1  C   UNL     1     -12.641  10.096  70.137  1.00  0.00    -0.061 C  
HETATM    2  C   UNL     1     -11.368  10.716  69.565  1.00  0.00    -0.277 C  
ENDROOT
BRANCH   2   3
HETATM    3  O   UNL     1     -11.094  10.217  68.256  1.00  0.00    -0.260 OA 
BRANCH   3   4
HETATM    4  C   UNL     1      -9.699  10.002  67.991  1.00  0.00    -0.139 C  
BRANCH   4   5
HETATM    5  C   UNL     1      -9.543   9.080  66.731  1.00  0.00    -0.200 C  
HETATM    6  C   UNL     1      -9.254   6.368  67.979  1.00  0.00    -0.110 C  
HETATM    7  C   UNL     1      -8.067   7.342  67.917  1.00  0.00    -0.119 C  
HETATM    8  N   UNL     1      -9.194   5.614  69.211  1.00  0.00    -0.115 NA 
HETATM    9  H   UNL     1     -10.665   7.559  65.854  1.00  0.00     0.000 HD 
HETATM   10  C   UNL     1      -8.187   8.332  66.756  1.00  0.00    -0.103 C  
HETATM   11  O   UNL     1      -9.632   3.492  69.969  1.00  0.00    -0.188 OA 
HETATM   12  C   UNL     1     -10.594   7.142  67.870  1.00  0.00    -0.208 C  
HETATM   13  C   UNL     1      -9.155   5.275  66.897  1.00  0.00    -0.113 C  
HETATM   14  C   UNL     1      -9.469   4.278  69.053  1.00  0.00    -0.172 C  
HETATM   15  C   UNL     1      -9.552   3.969  67.587  1.00  0.00    -0.210 C  
HETATM   16  N   UNL     1     -10.643   8.071  66.736  1.00  0.00    -0.270 NA 
BRANCH   5  17
HETATM   17  C   UNL     1      -9.597   9.910  65.420  1.00  0.00    -0.350 A  
HETATM   18  C   UNL     1      -9.704  11.388  63.006  1.00  0.00    -0.393 A  
HETATM   19  C   UNL     1      -9.168  10.104  63.015  1.00  0.00    -0.317 A  
HETATM   20  C   UNL     1      -9.111   9.378  64.210  1.00  0.00    -0.159 A  
HETATM   21  C   UNL     1     -10.099  11.225  65.384  1.00  0.00    -0.314 A  
HETATM   22  C   UNL     1     -10.161  11.951  64.189  1.00  0.00    -0.364 A  
ENDBRANCH   5  17
ENDBRANCH   4   5
ENDBRANCH   3   4
ENDBRANCH   2   3
BRANCH   2  23
HETATM   23  C   UNL     1     -11.537  12.226  69.487  1.00  0.00    -0.366 A  
HETATM   24  F   UNL     1     -13.634  14.163  72.537  1.00  0.00    -0.461 F  
HETATM   25  C   UNL     1     -12.227  12.897  70.508  1.00  0.00    -0.395 A  
HETATM   26  F   UNL     1     -11.357  14.609  65.904  1.00  0.00    -0.322 F  
HETATM   27  C   UNL     1     -12.480  14.276  70.431  1.00  0.00    -0.426 A  
HETATM   28  C   UNL     1     -12.023  14.990  69.311  1.00  0.00    -0.322 A  
HETATM   29  F   UNL     1      -9.489  15.065  66.923  1.00  0.00    -0.207 F  
HETATM   30  C   UNL     1     -13.251  14.985  71.520  1.00  0.00    -0.402 C  
HETATM   31  F   UNL     1     -11.177  16.425  67.084  1.00  0.00    -0.208 F  
HETATM   32  C   UNL     1     -10.842  15.104  67.064  1.00  0.00    -0.314 C  
HETATM   33  F   UNL     1     -12.534  15.987  72.098  1.00  0.00    -0.436 F  
HETATM   34  F   UNL     1     -14.394  15.559  71.055  1.00  0.00    -0.520 F  
HETATM   35  C   UNL     1     -11.088  12.963  68.379  1.00  0.00    -0.293 A  
HETATM   36  C   UNL     1     -11.324  14.345  68.279  1.00  0.00    -0.311 A  
ENDBRANCH   2  23
TORSDOF 5
ENDMDL
MODEL       94
REMARK 921   NORMALIZED FREE ENERGY PREDICTED BY IDOCK:   -5.93 KCAL/MOL
REMARK 922        TOTAL FREE ENERGY PREDICTED BY IDOCK:  -10.53 KCAL/MOL
REMARK 923 INTER-LIGAND FREE ENERGY PREDICTED BY IDOCK:   -9.19 KCAL/MOL
REMARK 924 INTRA-LIGAND FREE ENERGY PREDICTED BY IDOCK:   -1.34 KCAL/MOL
REMARK 927      BINDING AFFINITY PREDICTED BY RF-SCORE:    0.00 PKD
ROOT
HETATM    1  C   UNL     1      -9.546   9.515  66.036  1.00  0.00    -0.316 C  
HETATM    2  C   UNL     1     -10.669   9.725  67.049  1.00  0.00    -0.166 C  
ENDROOT
BRANCH   2   3
HETATM    3  O   UNL     1     -10.311   9.210  68.331  1.00  0.00    -0.195 OA 
BRANCH   3   4
HETATM    4  C   UNL     1      -9.283   8.210  68.294  1.00  0.00    -0.134 C  
BRANCH   4   5
HETATM    5  C   UNL     1      -9.822   6.882  68.934  1.00  0.00    -0.147 C  
HETATM    6  C   UNL     1      -9.074   4.847  66.862  1.00  0.00    -0.118 C  
HETATM    7  C   UNL     1     -10.311   5.742  66.683  1.00  0.00    -0.300 C  
HETATM    8  N   UNL     1      -8.457   4.615  65.575  1.00  0.00    -0.120 NA 
HETATM    9  H   UNL     1      -8.965   5.128  69.661  1.00  0.00     0.000 HD 
HETATM   10  C   UNL     1     -10.882   6.217  68.021  1.00  0.00    -0.409 C  
HETATM   11  O   UNL     1      -7.383   2.932  64.444  1.00  0.00    -0.065 OA 
HETATM   12  C   UNL     1      -8.069   5.504  67.845  1.00  0.00    -0.100 C  
HETATM   13  C   UNL     1      -9.455   3.428  67.325  1.00  0.00    -0.211 C  
HETATM   14  C   UNL     1      -8.062   3.316  65.379  1.00  0.00    -0.090 C  
HETATM   15  C   UNL     1      -8.583   2.474  66.507  1.00  0.00    -0.114 C  
HETATM   16  N   UNL     1      -8.681   5.935  69.106  1.00  0.00    -0.118 NA 
BRANCH   5  17
HETATM   17  C   UNL     1     -10.491   7.155  70.309  1.00  0.00    -0.232 A  
HETATM   18  C   UNL     1     -11.689   7.690  72.819  1.00  0.00    -0.276 A  
HETATM   19  C   UNL     1     -10.392   8.122  72.558  1.00  0.00    -0.401 A  
HETATM   20  C   UNL     1      -9.800   7.852  71.319  1.00  0.00    -0.198 A  
HETATM   21  C   UNL     1     -11.786   6.698  70.617  1.00  0.00    -0.443 A  
HETATM   22  C   UNL     1     -12.382   6.972  71.853  1.00  0.00    -0.358 A  
ENDBRANCH   5  17
ENDBRANCH   4   5
ENDBRANCH   3   4
ENDBRANCH   2   3
BRANCH   2  23
HETATM   23  C   UNL     1     -10.952  11.214  67.182  1.00  0.00    -0.350 A  
HETATM   24  F   UNL     1     -11.932  12.738  70.946  1.00  0.00    -0.403 F  
HETATM   25  C   UNL     1     -11.270  11.748  68.440  1.00  0.00    -0.307 A  
HETATM   26  F   UNL     1     -12.226  13.837  64.012  1.00  0.00    -0.448 F  
HETATM   27  C   UNL     1     -11.622  13.099  68.590  1.00  0.00    -0.356 A  
HETATM   28  C   UNL     1     -11.646  13.925  67.455  1.00  0.00    -0.398 A  
HETATM   29  F   UNL     1     -10.151  14.398  64.345  1.00  0.00    -0.355 F  
HETATM   30  C   UNL     1     -11.993  13.658  69.943  1.00  0.00    -0.348 C  
HETATM   31  F   UNL     1     -11.751  15.579  65.221  1.00  0.00    -0.221 F  
HETATM   32  C   UNL     1     -11.361  14.300  64.958  1.00  0.00    -0.365 C  
HETATM   33  F   UNL     1     -11.183  14.682  70.325  1.00  0.00    -0.268 F  
HETATM   34  F   UNL     1     -13.262  14.151  69.969  1.00  0.00    -0.189 F  
HETATM   35  C   UNL     1     -10.980  12.063  66.063  1.00  0.00    -0.346 A  
HETATM   36  C   UNL     1     -11.325  13.420  66.185  1.00  0.00    -0.324 A  
ENDBRANCH   2  23
TORSDOF 5
ENDMDL
MODEL       95
REMARK 921   NORMALIZED FREE ENERGY PREDICTED BY IDOCK:   -5.90 KCAL/MOL
REMARK 922        TOTAL FREE ENERGY PREDICTED BY IDOCK:  -10.49 KCAL/MOL
REMARK 923 INTER-LIGAND FREE ENERGY PREDICTED BY IDOCK:   -9.08 KCAL/MOL
REMARK 924 INTRA-LIGAND FREE ENERGY PREDICTED BY IDOCK:   -1.41 KCAL/MOL
REMARK 927      BINDING AFFINITY PREDICTED BY RF-SCORE:    0.00 PKD
ROOT
HETATM    1  C   UNL     1      -9.311  10.107  66.788  1.00  0.00    -0.190 C  
HETATM    2  C   UNL     1     -10.760  10.435  67.143  1.00  0.00    -0.256 C  
ENDROOT
BRANCH   2   3
HETATM    3  O   UNL     1     -11.230   9.610  68.208  1.00  0.00    -0.111 OA 
BRANCH   3   4
HETATM    4  C   UNL     1     -10.185   8.984  68.969  1.00  0.00    -0.205 C  
BRANCH   4   5
HETATM    5  C   UNL     1     -10.763   7.731  69.717  1.00  0.00    -0.236 C  
HETATM    6  C   UNL     1      -8.999   5.532  68.692  1.00  0.00    -0.114 C  
HETATM    7  C   UNL     1     -10.164   6.072  67.847  1.00  0.00    -0.217 C  
HETATM    8  N   UNL     1      -7.896   5.184  67.825  1.00  0.00    -0.091 NA 
HETATM    9  H   UNL     1     -10.053   6.400  71.154  1.00  0.00     0.000 HD 
HETATM   10  C   UNL     1     -11.277   6.673  68.709  1.00  0.00    -0.256 C  
HETATM   11  O   UNL     1      -6.256   3.587  67.660  1.00  0.00    -0.031 OA 
HETATM   12  C   UNL     1      -8.562   6.585  69.745  1.00  0.00    -0.136 C  
HETATM   13  C   UNL     1      -9.351   4.190  69.363  1.00  0.00    -0.238 C  
HETATM   14  C   UNL     1      -7.294   3.994  68.149  1.00  0.00    -0.059 C  
HETATM   15  C   UNL     1      -8.111   3.308  69.205  1.00  0.00    -0.072 C  
HETATM   16  N   UNL     1      -9.675   7.119  70.536  1.00  0.00    -0.176 NA 
BRANCH   5  17
HETATM   17  C   UNL     1     -11.953   8.124  70.633  1.00  0.00    -0.036 A  
HETATM   18  C   UNL     1     -14.121   8.884  72.291  1.00  0.00    -0.512 A  
HETATM   19  C   UNL     1     -13.044   9.747  72.109  1.00  0.00    -0.513 A  
HETATM   20  C   UNL     1     -11.972   9.367  71.293  1.00  0.00    -0.430 A  
HETATM   21  C   UNL     1     -13.038   7.258  70.867  1.00  0.00    -0.084 A  
HETATM   22  C   UNL     1     -14.114   7.638  71.678  1.00  0.00    -0.547 A  
ENDBRANCH   5  17
ENDBRANCH   4   5
ENDBRANCH   3   4
ENDBRANCH   2   3
BRANCH   2  23
HETATM   23  C   UNL     1     -10.852  11.891  67.575  1.00  0.00    -0.283 A  
HETATM   24  F   UNL     1     -12.683  12.785  71.222  1.00  0.00    -0.431 F  
HETATM   25  C   UNL     1     -11.451  12.212  68.802  1.00  0.00    -0.359 A  
HETATM   26  F   UNL     1     -10.728  15.314  64.964  1.00  0.00    -0.350 F  
HETATM   27  C   UNL     1     -11.634  13.546  69.197  1.00  0.00    -0.359 A  
HETATM   28  C   UNL     1     -11.198  14.573  68.344  1.00  0.00    -0.290 A  
HETATM   29  F   UNL     1      -8.789  15.346  65.950  1.00  0.00    -0.343 F  
HETATM   30  C   UNL     1     -12.308  13.883  70.506  1.00  0.00    -0.369 C  
HETATM   31  F   UNL     1     -10.391  16.633  66.658  1.00  0.00    -0.281 F  
HETATM   32  C   UNL     1     -10.129  15.382  66.186  1.00  0.00    -0.305 C  
HETATM   33  F   UNL     1     -11.511  14.613  71.332  1.00  0.00    -0.352 F  
HETATM   34  F   UNL     1     -13.442  14.615  70.331  1.00  0.00    -0.307 F  
HETATM   35  C   UNL     1     -10.422  12.937  66.741  1.00  0.00    -0.262 A  
HETATM   36  C   UNL     1     -10.588  14.281  67.114  1.00  0.00    -0.279 A  
ENDBRANCH   2  23
TORSDOF 5
ENDMDL
MODEL       96
REMARK 921   NORMALIZED FREE ENERGY PREDICTED BY IDOCK:   -5.90 KCAL/MOL
REMARK 922        TOTAL FREE ENERGY PREDICTED BY IDOCK:  -10.48 KCAL/MOL
REMARK 923 INTER-LIGAND FREE ENERGY PREDICTED BY IDOCK:   -6.85 KCAL/MOL
REMARK 924 INTRA-LIGAND FREE ENERGY PREDICTED BY IDOCK:   -3.63 KCAL/MOL
REMARK 927      BINDING AFFINITY PREDICTED BY RF-SCORE:    0.00 PKD
ROOT
HETATM    1  C   UNL     1     -11.126   8.404  72.287  1.00  0.00    -0.438 C  
HETATM    2  C   UNL     1     -11.530   7.730  70.976  1.00  0.00    -0.281 C  
ENDROOT
BRANCH   2   3
HETATM    3  O   UNL     1     -11.575   8.672  69.905  1.00  0.00     0.041 OA 
BRANCH   3   4
HETATM    4  C   UNL     1     -10.823   9.871  70.146  1.00  0.00    -0.304 C  
BRANCH   4   5
HETATM    5  C   UNL     1      -9.682   9.996  69.076  1.00  0.00    -0.199 C  
HETATM    6  C   UNL     1     -10.953  11.774  67.022  1.00  0.00    -0.285 C  
HETATM    7  C   UNL     1     -11.284  10.274  67.086  1.00  0.00    -0.022 C  
HETATM    8  N   UNL     1     -12.136  12.512  66.640  1.00  0.00    -0.568 NA 
HETATM    9  H   UNL     1      -8.485  11.541  68.355  1.00  0.00     0.000 HD 
HETATM   10  C   UNL     1     -10.149   9.454  67.702  1.00  0.00    -0.262 C  
HETATM   11  O   UNL     1     -12.707  14.340  65.375  1.00  0.00    -0.507 OA 
HETATM   12  C   UNL     1     -10.412  12.267  68.390  1.00  0.00    -0.233 C  
HETATM   13  C   UNL     1      -9.962  12.093  65.886  1.00  0.00    -0.267 C  
HETATM   14  C   UNL     1     -11.896  13.498  65.716  1.00  0.00    -0.372 C  
HETATM   15  C   UNL     1     -10.483  13.372  65.226  1.00  0.00    -0.334 C  
HETATM   16  N   UNL     1      -9.326  11.438  68.923  1.00  0.00    -0.096 NA 
BRANCH   5  17
HETATM   17  C   UNL     1      -8.426   9.187  69.499  1.00  0.00    -0.128 A  
HETATM   18  C   UNL     1      -6.119   7.715  70.230  1.00  0.00    -0.030 A  
HETATM   19  C   UNL     1      -6.635   7.611  68.942  1.00  0.00    -0.049 A  
HETATM   20  C   UNL     1      -7.778   8.336  68.584  1.00  0.00    -0.114 A  
HETATM   21  C   UNL     1      -7.904   9.240  70.805  1.00  0.00    -0.174 A  
HETATM   22  C   UNL     1      -6.758   8.521  71.163  1.00  0.00    -0.061 A  
ENDBRANCH   5  17
ENDBRANCH   4   5
ENDBRANCH   3   4
ENDBRANCH   2   3
BRANCH   2  23
HETATM   23  C   UNL     1     -10.515   6.649  70.636  1.00  0.00    -0.253 A  
HETATM   24  F   UNL     1     -10.569   4.992  66.801  1.00  0.00    -0.264 F  
HETATM   25  C   UNL     1     -10.508   6.089  69.349  1.00  0.00    -0.331 A  
HETATM   26  F   UNL     1      -8.502   4.093  73.457  1.00  0.00    -0.090 F  
HETATM   27  C   UNL     1      -9.647   5.030  69.021  1.00  0.00    -0.214 A  
HETATM   28  C   UNL     1      -8.774   4.534  70.003  1.00  0.00    -0.115 A  
HETATM   29  F   UNL     1      -6.952   5.478  72.817  1.00  0.00    -0.073 F  
HETATM   30  C   UNL     1      -9.667   4.412  67.643  1.00  0.00    -0.146 C  
HETATM   31  F   UNL     1      -7.068   3.494  71.938  1.00  0.00    -0.036 F  
HETATM   32  C   UNL     1      -7.828   4.543  72.361  1.00  0.00    -0.090 C  
HETATM   33  F   UNL     1      -8.463   4.495  67.015  1.00  0.00    -0.105 F  
HETATM   34  F   UNL     1      -9.987   3.089  67.674  1.00  0.00    -0.142 F  
HETATM   35  C   UNL     1      -9.631   6.137  71.599  1.00  0.00    -0.166 A  
HETATM   36  C   UNL     1      -8.755   5.081  71.296  1.00  0.00    -0.140 A  
ENDBRANCH   2  23
TORSDOF 5
ENDMDL
MODEL       97
REMARK 921   NORMALIZED FREE ENERGY PREDICTED BY IDOCK:   -5.89 KCAL/MOL
REMARK 922        TOTAL FREE ENERGY PREDICTED BY IDOCK:  -10.48 KCAL/MOL
REMARK 923 INTER-LIGAND FREE ENERGY PREDICTED BY IDOCK:   -8.39 KCAL/MOL
REMARK 924 INTRA-LIGAND FREE ENERGY PREDICTED BY IDOCK:   -2.09 KCAL/MOL
REMARK 927      BINDING AFFINITY PREDICTED BY RF-SCORE:    0.00 PKD
ROOT
HETATM    1  C   UNL     1      -6.913  10.180  65.296  1.00  0.00    -0.137 C  
HETATM    2  C   UNL     1      -8.395   9.914  65.552  1.00  0.00    -0.140 C  
ENDROOT
BRANCH   2   3
HETATM    3  O   UNL     1      -8.583   9.119  66.722  1.00  0.00    -0.124 OA 
BRANCH   3   4
HETATM    4  C   UNL     1      -9.733   8.261  66.669  1.00  0.00    -0.251 C  
BRANCH   4   5
HETATM    5  C   UNL     1     -10.139   7.842  68.126  1.00  0.00    -0.185 C  
HETATM    6  C   UNL     1      -9.299   4.963  68.198  1.00  0.00    -0.130 C  
HETATM    7  C   UNL     1     -10.611   5.389  67.520  1.00  0.00    -0.204 C  
HETATM    8  N   UNL     1      -8.712   3.866  67.463  1.00  0.00    -0.102 NA 
HETATM    9  H   UNL     1      -9.116   7.243  69.839  1.00  0.00     0.000 HD 
HETATM   10  C   UNL     1     -11.172   6.688  68.103  1.00  0.00    -0.207 C  
HETATM   11  O   UNL     1      -7.544   1.933  67.872  1.00  0.00    -0.054 OA 
HETATM   12  C   UNL     1      -8.318   6.162  68.278  1.00  0.00    -0.114 C  
HETATM   13  C   UNL     1      -9.547   4.356  69.592  1.00  0.00    -0.275 C  
HETATM   14  C   UNL     1      -8.218   2.868  68.265  1.00  0.00    -0.065 C  
HETATM   15  C   UNL     1      -8.628   3.136  69.684  1.00  0.00    -0.113 C  
HETATM   16  N   UNL     1      -8.918   7.374  68.847  1.00  0.00    -0.131 NA 
BRANCH   5  17
HETATM   17  C   UNL     1     -10.779   9.031  68.893  1.00  0.00    -0.149 A  
HETATM   18  C   UNL     1     -11.919  11.191  70.326  1.00  0.00    -0.460 A  
HETATM   19  C   UNL     1     -11.503  10.048  71.001  1.00  0.00    -0.463 A  
HETATM   20  C   UNL     1     -10.945   8.980  70.290  1.00  0.00    -0.274 A  
HETATM   21  C   UNL     1     -11.245  10.185  68.235  1.00  0.00    -0.246 A  
HETATM   22  C   UNL     1     -11.798  11.256  68.945  1.00  0.00    -0.413 A  
ENDBRANCH   5  17
ENDBRANCH   4   5
ENDBRANCH   3   4
ENDBRANCH   2   3
BRANCH   2  23
HETATM   23  C   UNL     1      -9.117  11.240  65.741  1.00  0.00    -0.216 A  
HETATM   24  F   UNL     1      -7.824  13.806  68.774  1.00  0.00    -0.131 F  
HETATM   25  C   UNL     1      -8.690  12.122  66.745  1.00  0.00    -0.183 A  
HETATM   26  F   UNL     1     -13.146  12.125  64.505  1.00  0.00    -0.529 F  
HETATM   27  C   UNL     1      -9.381  13.315  67.009  1.00  0.00    -0.242 A  
HETATM   28  C   UNL     1     -10.516  13.627  66.243  1.00  0.00    -0.291 A  
HETATM   29  F   UNL     1     -11.917  13.217  63.081  1.00  0.00    -0.567 F  
HETATM   30  C   UNL     1      -8.933  14.244  68.113  1.00  0.00    -0.189 C  
HETATM   31  F   UNL     1     -12.797  14.252  64.778  1.00  0.00    -0.389 F  
HETATM   32  C   UNL     1     -12.189  13.090  64.408  1.00  0.00    -0.406 C  
HETATM   33  F   UNL     1      -8.630  15.489  67.657  1.00  0.00    -0.154 F  
HETATM   34  F   UNL     1      -9.890  14.414  69.066  1.00  0.00    -0.212 F  
HETATM   35  C   UNL     1     -10.253  11.577  64.987  1.00  0.00    -0.328 A  
HETATM   36  C   UNL     1     -10.961  12.767  65.227  1.00  0.00    -0.314 A  
ENDBRANCH   2  23
TORSDOF 5
ENDMDL
MODEL       98
REMARK 921   NORMALIZED FREE ENERGY PREDICTED BY IDOCK:   -5.89 KCAL/MOL
REMARK 922        TOTAL FREE ENERGY PREDICTED BY IDOCK:  -10.47 KCAL/MOL
REMARK 923 INTER-LIGAND FREE ENERGY PREDICTED BY IDOCK:   -8.54 KCAL/MOL
REMARK 924 INTRA-LIGAND FREE ENERGY PREDICTED BY IDOCK:   -1.93 KCAL/MOL
REMARK 927      BINDING AFFINITY PREDICTED BY RF-SCORE:    0.00 PKD
ROOT
HETATM    1  C   UNL     1     -11.700  11.940  69.954  1.00  0.00    -0.383 C  
HETATM    2  C   UNL     1     -11.602  12.814  68.705  1.00  0.00    -0.314 C  
ENDROOT
BRANCH   2   3
HETATM    3  O   UNL     1     -10.671  13.879  68.891  1.00  0.00    -0.247 OA 
BRANCH   3   4
HETATM    4  C   UNL     1     -10.363  14.605  67.691  1.00  0.00    -0.233 C  
BRANCH   4   5
HETATM    5  C   UNL     1      -8.840  14.983  67.686  1.00  0.00    -0.179 C  
HETATM    6  C   UNL     1      -8.939  17.952  67.272  1.00  0.00    -0.250 C  
HETATM    7  C   UNL     1      -9.120  16.981  66.094  1.00  0.00    -0.239 C  
HETATM    8  N   UNL     1      -9.784  19.109  67.076  1.00  0.00    -0.314 NA 
HETATM    9  H   UNL     1      -7.583  16.106  68.909  1.00  0.00     0.000 HD 
HETATM   10  C   UNL     1      -8.436  15.635  66.340  1.00  0.00    -0.271 C  
HETATM   11  O   UNL     1      -9.732  21.375  67.437  1.00  0.00    -0.131 OA 
HETATM   12  C   UNL     1      -9.274  17.244  68.611  1.00  0.00    -0.266 C  
HETATM   13  C   UNL     1      -7.522  18.556  67.304  1.00  0.00    -0.224 C  
HETATM   14  C   UNL     1      -9.167  20.298  67.375  1.00  0.00    -0.380 C  
HETATM   15  C   UNL     1      -7.710  20.040  67.627  1.00  0.00    -0.329 C  
HETATM   16  N   UNL     1      -8.585  15.961  68.784  1.00  0.00    -0.198 NA 
BRANCH   5  17
HETATM   17  C   UNL     1      -7.951  13.725  67.885  1.00  0.00    -0.157 A  
HETATM   18  C   UNL     1      -6.339  11.431  68.290  1.00  0.00    -0.046 A  
HETATM   19  C   UNL     1      -6.428  12.406  69.279  1.00  0.00    -0.107 A  
HETATM   20  C   UNL     1      -7.221  13.541  69.074  1.00  0.00    -0.031 A  
HETATM   21  C   UNL     1      -7.810  12.740  66.888  1.00  0.00     0.073 A  
HETATM   22  C   UNL     1      -7.022  11.602  67.094  1.00  0.00    -0.144 A  
ENDBRANCH   5  17
ENDBRANCH   4   5
ENDBRANCH   3   4
ENDBRANCH   2   3
BRANCH   2  23
HETATM   23  C   UNL     1     -11.141  11.961  67.532  1.00  0.00    -0.332 A  
HETATM   24  F   UNL     1     -11.802  13.368  63.654  1.00  0.00    -0.456 F  
HETATM   25  C   UNL     1     -11.342  12.422  66.222  1.00  0.00    -0.388 A  
HETATM   26  F   UNL     1     -10.494   7.704  67.602  1.00  0.00    -0.243 F  
HETATM   27  C   UNL     1     -11.011  11.628  65.112  1.00  0.00    -0.326 A  
HETATM   28  C   UNL     1     -10.461  10.354  65.328  1.00  0.00    -0.178 A  
HETATM   29  F   UNL     1      -8.483   8.532  67.541  1.00  0.00    -0.122 F  
HETATM   30  C   UNL     1     -11.259  12.119  63.705  1.00  0.00    -0.436 C  
HETATM   31  F   UNL     1      -9.417   7.805  65.718  1.00  0.00    -0.157 F  
HETATM   32  C   UNL     1      -9.664   8.496  66.866  1.00  0.00    -0.221 C  
HETATM   33  F   UNL     1     -10.120  12.176  62.964  1.00  0.00    -0.410 F  
HETATM   34  F   UNL     1     -12.115  11.314  63.020  1.00  0.00    -0.331 F  
HETATM   35  C   UNL     1     -10.587  10.684  67.720  1.00  0.00    -0.275 A  
HETATM   36  C   UNL     1     -10.242   9.871  66.628  1.00  0.00    -0.293 A  
ENDBRANCH   2  23
TORSDOF 5
ENDMDL
MODEL       99
REMARK 921   NORMALIZED FREE ENERGY PREDICTED BY IDOCK:   -5.88 KCAL/MOL
REMARK 922        TOTAL FREE ENERGY PREDICTED BY IDOCK:  -10.46 KCAL/MOL
REMARK 923 INTER-LIGAND FREE ENERGY PREDICTED BY IDOCK:   -8.58 KCAL/MOL
REMARK 924 INTRA-LIGAND FREE ENERGY PREDICTED BY IDOCK:   -1.89 KCAL/MOL
REMARK 927      BINDING AFFINITY PREDICTED BY RF-SCORE:    0.00 PKD
ROOT
HETATM    1  C   UNL     1     -11.384  11.855  69.613  1.00  0.00    -0.266 C  
HETATM    2  C   UNL     1     -11.822  10.718  68.692  1.00  0.00    -0.138 C  
ENDROOT
BRANCH   2   3
HETATM    3  O   UNL     1     -11.462  10.984  67.336  1.00  0.00    -0.475 OA 
BRANCH   3   4
HETATM    4  C   UNL     1     -11.564  12.367  66.965  1.00  0.00    -0.365 C  
BRANCH   4   5
HETATM    5  C   UNL     1     -10.263  12.800  66.201  1.00  0.00    -0.275 C  
HETATM    6  C   UNL     1     -10.234  15.764  66.659  1.00  0.00    -0.285 C  
HETATM    7  C   UNL     1     -11.142  15.137  65.589  1.00  0.00    -0.334 C  
HETATM    8  N   UNL     1     -10.908  16.893  67.261  1.00  0.00    -0.202 NA 
HETATM    9  H   UNL     1      -8.422  13.611  66.742  1.00  0.00     0.000 HD 
HETATM   10  C   UNL     1     -10.594  13.806  65.070  1.00  0.00    -0.402 C  
HETATM   11  O   UNL     1     -10.408  18.980  68.074  1.00  0.00    -0.379 OA 
HETATM   12  C   UNL     1      -9.856  14.710  67.732  1.00  0.00    -0.216 C  
HETATM   13  C   UNL     1      -8.975  16.402  66.040  1.00  0.00    -0.307 C  
HETATM   14  C   UNL     1     -10.098  17.985  67.444  1.00  0.00    -0.349 C  
HETATM   15  C   UNL     1      -8.783  17.735  66.765  1.00  0.00    -0.273 C  
HETATM   16  N   UNL     1      -9.337  13.460  67.168  1.00  0.00    -0.231 NA 
BRANCH   5  17
HETATM   17  C   UNL     1      -9.562  11.577  65.551  1.00  0.00    -0.252 A  
HETATM   18  C   UNL     1      -8.278   9.326  64.406  1.00  0.00    -0.151 A  
HETATM   19  C   UNL     1      -7.897   9.783  65.664  1.00  0.00    -0.114 A  
HETATM   20  C   UNL     1      -8.529  10.899  66.225  1.00  0.00    -0.166 A  
HETATM   21  C   UNL     1      -9.899  11.114  64.265  1.00  0.00    -0.335 A  
HETATM   22  C   UNL     1      -9.272   9.995  63.705  1.00  0.00    -0.314 A  
ENDBRANCH   5  17
ENDBRANCH   4   5
ENDBRANCH   3   4
ENDBRANCH   2   3
BRANCH   2  23
HETATM   23  C   UNL     1     -11.146   9.428  69.132  1.00  0.00    -0.039 A  
HETATM   24  F   UNL     1      -9.639   6.857  66.205  1.00  0.00    -0.196 F  
HETATM   25  C   UNL     1     -10.621   8.557  68.166  1.00  0.00    -0.181 A  
HETATM   26  F   UNL     1     -11.777   7.396  72.877  1.00  0.00    -0.294 F  
HETATM   27  C   UNL     1     -10.069   7.317  68.525  1.00  0.00    -0.182 A  
HETATM   28  C   UNL     1     -10.037   6.955  69.881  1.00  0.00    -0.200 A  
HETATM   29  F   UNL     1      -9.800   8.278  73.094  1.00  0.00    -0.337 F  
HETATM   30  C   UNL     1      -9.535   6.372  67.474  1.00  0.00    -0.117 C  
HETATM   31  F   UNL     1     -10.003   6.183  72.553  1.00  0.00    -0.172 F  
HETATM   32  C   UNL     1     -10.529   7.420  72.330  1.00  0.00    -0.223 C  
HETATM   33  F   UNL     1      -8.218   6.080  67.656  1.00  0.00    -0.106 F  
HETATM   34  F   UNL     1     -10.189   5.179  67.471  1.00  0.00    -0.185 F  
HETATM   35  C   UNL     1     -11.099   9.042  70.482  1.00  0.00    -0.297 A  
HETATM   36  C   UNL     1     -10.548   7.810  70.870  1.00  0.00    -0.220 A  
ENDBRANCH   2  23
TORSDOF 5
ENDMDL
MODEL      100
REMARK 921   NORMALIZED FREE ENERGY PREDICTED BY IDOCK:   -5.87 KCAL/MOL
REMARK 922        TOTAL FREE ENERGY PREDICTED BY IDOCK:  -10.45 KCAL/MOL
REMARK 923 INTER-LIGAND FREE ENERGY PREDICTED BY IDOCK:   -7.57 KCAL/MOL
REMARK 924 INTRA-LIGAND FREE ENERGY PREDICTED BY IDOCK:   -2.87 KCAL/MOL
REMARK 927      BINDING AFFINITY PREDICTED BY RF-SCORE:    0.00 PKD
ROOT
HETATM    1  C   UNL     1     -11.128   6.239  67.050  1.00  0.00    -0.379 C  
HETATM    2  C   UNL     1      -9.660   6.444  67.423  1.00  0.00    -0.120 C  
ENDROOT
BRANCH   2   3
HETATM    3  O   UNL     1      -9.123   7.602  66.785  1.00  0.00    -0.137 OA 
BRANCH   3   4
HETATM    4  C   UNL     1     -10.021   8.722  66.750  1.00  0.00    -0.268 C  
BRANCH   4   5
HETATM    5  C   UNL     1      -9.229  10.037  67.076  1.00  0.00    -0.146 C  
HETATM    6  C   UNL     1     -10.503  12.007  65.207  1.00  0.00    -0.284 C  
HETATM    7  C   UNL     1      -9.445  11.010  64.707  1.00  0.00    -0.267 C  
HETATM    8  N   UNL     1     -11.495  12.214  64.176  1.00  0.00    -0.360 NA 
HETATM    9  H   UNL     1      -9.701  11.890  67.903  1.00  0.00     0.000 HD 
HETATM   10  C   UNL     1      -8.493  10.566  65.820  1.00  0.00    -0.177 C  
HETATM   11  O   UNL     1     -12.786  13.911  63.327  1.00  0.00    -0.775 OA 
HETATM   12  C   UNL     1     -11.163  11.485  66.510  1.00  0.00    -0.259 C  
HETATM   13  C   UNL     1      -9.912  13.415  65.410  1.00  0.00    -0.211 C  
HETATM   14  C   UNL     1     -11.860  13.528  64.019  1.00  0.00    -0.427 C  
HETATM   15  C   UNL     1     -10.951  14.388  64.848  1.00  0.00    -0.416 C  
HETATM   16  N   UNL     1     -10.196  11.078  67.535  1.00  0.00    -0.183 NA 
BRANCH   5  17
HETATM   17  C   UNL     1      -8.161   9.790  68.176  1.00  0.00    -0.109 A  
HETATM   18  C   UNL     1      -6.246   9.326  70.211  1.00  0.00    -0.048 A  
HETATM   19  C   UNL     1      -7.507   9.817  70.537  1.00  0.00    -0.119 A  
HETATM   20  C   UNL     1      -8.450  10.050  69.530  1.00  0.00    -0.186 A  
HETATM   21  C   UNL     1      -6.865   9.331  67.875  1.00  0.00    -0.072 A  
HETATM   22  C   UNL     1      -5.923   9.091  68.882  1.00  0.00    -0.044 A  
ENDBRANCH   5  17
ENDBRANCH   4   5
ENDBRANCH   3   4
ENDBRANCH   2   3
BRANCH   2  23
HETATM   23  C   UNL     1      -9.546   6.618  68.929  1.00  0.00    -0.129 A  
HETATM   24  F   UNL     1      -6.066   5.311  70.836  1.00  0.00    -0.018 F  
HETATM   25  C   UNL     1      -8.380   6.198  69.587  1.00  0.00    -0.124 A  
HETATM   26  F   UNL     1     -12.832   7.007  71.686  1.00  0.00    -0.363 F  
HETATM   27  C   UNL     1      -8.269   6.261  70.985  1.00  0.00    -0.123 A  
HETATM   28  C   UNL     1      -9.348   6.763  71.730  1.00  0.00    -0.147 A  
HETATM   29  F   UNL     1     -12.001   9.015  71.585  1.00  0.00    -0.329 F  
HETATM   30  C   UNL     1      -7.022   5.777  71.687  1.00  0.00    -0.072 C  
HETATM   31  F   UNL     1     -11.485   7.706  73.242  1.00  0.00    -0.394 F  
HETATM   32  C   UNL     1     -11.694   7.727  71.895  1.00  0.00    -0.292 C  
HETATM   33  F   UNL     1      -6.425   6.754  72.422  1.00  0.00    -0.054 F  
HETATM   34  F   UNL     1      -7.278   4.758  72.552  1.00  0.00    -0.070 F  
HETATM   35  C   UNL     1     -10.609   7.120  69.698  1.00  0.00    -0.249 A  
HETATM   36  C   UNL     1     -10.524   7.198  71.098  1.00  0.00    -0.225 A  
ENDBRANCH   2  23
TORSDOF 5
ENDMDL
MODEL      101
REMARK 921   NORMALIZED FREE ENERGY PREDICTED BY IDOCK:   -5.85 KCAL/MOL
REMARK 922        TOTAL FREE ENERGY PREDICTED BY IDOCK:  -10.42 KCAL/MOL
REMARK 923 INTER-LIGAND FREE ENERGY PREDICTED BY IDOCK:   -8.77 KCAL/MOL
REMARK 924 INTRA-LIGAND FREE ENERGY PREDICTED BY IDOCK:   -1.65 KCAL/MOL
REMARK 927      BINDING AFFINITY PREDICTED BY RF-SCORE:    0.00 PKD
ROOT
HETATM    1  C   UNL     1     -13.179  10.206  71.000  1.00  0.00    -0.412 C  
HETATM    2  C   UNL     1     -11.761  10.617  70.608  1.00  0.00    -0.356 C  
ENDROOT
BRANCH   2   3
HETATM    3  O   UNL     1     -11.076   9.549  69.953  1.00  0.00    -0.236 OA 
BRANCH   3   4
HETATM    4  C   UNL     1      -9.798   9.235  70.525  1.00  0.00    -0.253 C  
BRANCH   4   5
HETATM    5  C   UNL     1      -8.948   8.420  69.487  1.00  0.00    -0.149 C  
HETATM    6  C   UNL     1      -7.384  10.588  68.128  1.00  0.00    -0.088 C  
HETATM    7  C   UNL     1      -8.849  10.315  67.754  1.00  0.00    -0.125 C  
HETATM    8  N   UNL     1      -7.122  12.008  68.045  1.00  0.00    -0.079 NA 
HETATM    9  H   UNL     1      -6.921   8.030  69.206  1.00  0.00     0.000 HD 
HETATM   10  C   UNL     1      -9.262   8.869  68.039  1.00  0.00    -0.147 C  
HETATM   11  O   UNL     1      -5.430  13.426  67.418  1.00  0.00    -0.345 OA 
HETATM   12  C   UNL     1      -7.081  10.054  69.553  1.00  0.00    -0.091 C  
HETATM   13  C   UNL     1      -6.409   9.994  67.094  1.00  0.00    -0.067 C  
HETATM   14  C   UNL     1      -5.924  12.313  67.449  1.00  0.00    -0.149 C  
HETATM   15  C   UNL     1      -5.332  11.059  66.876  1.00  0.00    -0.071 C  
HETATM   16  N   UNL     1      -7.500   8.663  69.758  1.00  0.00    -0.059 NA 
BRANCH   5  17
HETATM   17  C   UNL     1      -9.252   6.900  69.585  1.00  0.00    -0.146 A  
HETATM   18  C   UNL     1      -9.840   4.137  69.791  1.00  0.00    -0.220 A  
HETATM   19  C   UNL     1      -9.959   4.962  70.905  1.00  0.00    -0.287 A  
HETATM   20  C   UNL     1      -9.663   6.326  70.802  1.00  0.00    -0.202 A  
HETATM   21  C   UNL     1      -9.104   6.033  68.485  1.00  0.00    -0.112 A  
HETATM   22  C   UNL     1      -9.406   4.670  68.585  1.00  0.00    -0.193 A  
ENDBRANCH   5  17
ENDBRANCH   4   5
ENDBRANCH   3   4
ENDBRANCH   2   3
BRANCH   2  23
HETATM   23  C   UNL     1     -11.827  11.808  69.665  1.00  0.00    -0.407 A  
HETATM   24  F   UNL     1     -11.628  11.114  65.550  1.00  0.00    -0.104 F  
HETATM   25  C   UNL     1     -11.775  11.596  68.279  1.00  0.00    -0.374 A  
HETATM   26  F   UNL     1     -10.815  15.876  70.653  1.00  0.00    -0.299 F  
HETATM   27  C   UNL     1     -11.746  12.672  67.377  1.00  0.00    -0.432 A  
HETATM   28  C   UNL     1     -11.778  13.982  67.882  1.00  0.00    -0.397 A  
HETATM   29  F   UNL     1     -12.986  15.900  70.526  1.00  0.00    -0.468 F  
HETATM   30  C   UNL     1     -11.658  12.434  65.888  1.00  0.00    -0.396 C  
HETATM   31  F   UNL     1     -11.790  16.590  68.848  1.00  0.00    -0.264 F  
HETATM   32  C   UNL     1     -11.859  15.631  69.813  1.00  0.00    -0.363 C  
HETATM   33  F   UNL     1     -12.710  12.969  65.212  1.00  0.00    -0.508 F  
HETATM   34  F   UNL     1     -10.539  12.983  65.342  1.00  0.00    -0.273 F  
HETATM   35  C   UNL     1     -11.861  13.128  70.143  1.00  0.00    -0.328 A  
HETATM   36  C   UNL     1     -11.838  14.224  69.263  1.00  0.00    -0.372 A  
ENDBRANCH   2  23
TORSDOF 5
ENDMDL
MODEL      102
REMARK 921   NORMALIZED FREE ENERGY PREDICTED BY IDOCK:   -5.85 KCAL/MOL
REMARK 922        TOTAL FREE ENERGY PREDICTED BY IDOCK:  -10.42 KCAL/MOL
REMARK 923 INTER-LIGAND FREE ENERGY PREDICTED BY IDOCK:   -9.26 KCAL/MOL
REMARK 924 INTRA-LIGAND FREE ENERGY PREDICTED BY IDOCK:   -1.16 KCAL/MOL
REMARK 927      BINDING AFFINITY PREDICTED BY RF-SCORE:    0.00 PKD
ROOT
HETATM    1  C   UNL     1      -9.892   9.675  66.117  1.00  0.00    -0.334 C  
HETATM    2  C   UNL     1     -10.933   9.890  67.215  1.00  0.00    -0.117 C  
ENDROOT
BRANCH   2   3
HETATM    3  O   UNL     1     -10.407   9.550  68.498  1.00  0.00    -0.193 OA 
BRANCH   3   4
HETATM    4  C   UNL     1      -9.258   8.691  68.451  1.00  0.00    -0.138 C  
BRANCH   4   5
HETATM    5  C   UNL     1      -9.630   7.290  69.054  1.00  0.00    -0.147 C  
HETATM    6  C   UNL     1      -9.316   5.490  66.676  1.00  0.00    -0.141 C  
HETATM    7  C   UNL     1     -10.575   6.354  66.855  1.00  0.00    -0.379 C  
HETATM    8  N   UNL     1      -8.987   5.404  65.271  1.00  0.00    -0.137 NA 
HETATM    9  H   UNL     1      -8.613   5.505  69.402  1.00  0.00     0.000 HD 
HETATM   10  C   UNL     1     -10.852   6.679  68.325  1.00  0.00    -0.322 C  
HETATM   11  O   UNL     1      -8.159   3.874  63.774  1.00  0.00    -0.087 OA 
HETATM   12  C   UNL     1      -8.133   6.084  67.484  1.00  0.00    -0.102 C  
HETATM   13  C   UNL     1      -9.570   4.020  67.064  1.00  0.00    -0.231 C  
HETATM   14  C   UNL     1      -8.626   4.143  64.866  1.00  0.00    -0.118 C  
HETATM   15  C   UNL     1      -8.881   3.180  65.988  1.00  0.00    -0.140 C  
HETATM   16  N   UNL     1      -8.465   6.371  68.884  1.00  0.00    -0.121 NA 
BRANCH   5  17
HETATM   17  C   UNL     1      -9.991   7.406  70.560  1.00  0.00    -0.184 A  
HETATM   18  C   UNL     1     -10.665   7.578  73.306  1.00  0.00    -0.437 A  
HETATM   19  C   UNL     1     -11.457   6.833  72.437  1.00  0.00    -0.302 A  
HETATM   20  C   UNL     1     -11.125   6.754  71.080  1.00  0.00    -0.313 A  
HETATM   21  C   UNL     1      -9.232   8.183  71.456  1.00  0.00    -0.209 A  
HETATM   22  C   UNL     1      -9.559   8.258  72.815  1.00  0.00    -0.338 A  
ENDBRANCH   5  17
ENDBRANCH   4   5
ENDBRANCH   3   4
ENDBRANCH   2   3
BRANCH   2  23
HETATM   23  C   UNL     1     -11.352  11.352  67.229  1.00  0.00    -0.347 A  
HETATM   24  F   UNL     1     -11.374  13.462  63.624  1.00  0.00    -0.387 F  
HETATM   25  C   UNL     1     -11.379  12.075  66.027  1.00  0.00    -0.398 A  
HETATM   26  F   UNL     1     -11.204  13.991  70.628  1.00  0.00    -0.159 F  
HETATM   27  C   UNL     1     -11.677  13.447  66.008  1.00  0.00    -0.398 A  
HETATM   28  C   UNL     1     -11.960  14.097  67.220  1.00  0.00    -0.449 A  
HETATM   29  F   UNL     1     -13.327  13.584  70.382  1.00  0.00    -0.033 F  
HETATM   30  C   UNL     1     -11.672  14.224  64.713  1.00  0.00    -0.415 C  
HETATM   31  F   UNL     1     -12.476  15.428  69.608  1.00  0.00    -0.336 F  
HETATM   32  C   UNL     1     -12.238  14.093  69.746  1.00  0.00    -0.344 C  
HETATM   33  F   UNL     1     -12.875  14.802  64.447  1.00  0.00    -0.391 F  
HETATM   34  F   UNL     1     -10.761  15.235  64.720  1.00  0.00    -0.391 F  
HETATM   35  C   UNL     1     -11.642  12.025  68.427  1.00  0.00    -0.368 A  
HETATM   36  C   UNL     1     -11.948  13.397  68.437  1.00  0.00    -0.359 A  
ENDBRANCH   2  23
TORSDOF 5
ENDMDL
MODEL      103
REMARK 921   NORMALIZED FREE ENERGY PREDICTED BY IDOCK:   -5.84 KCAL/MOL
REMARK 922        TOTAL FREE ENERGY PREDICTED BY IDOCK:  -10.41 KCAL/MOL
REMARK 923 INTER-LIGAND FREE ENERGY PREDICTED BY IDOCK:   -9.31 KCAL/MOL
REMARK 924 INTRA-LIGAND FREE ENERGY PREDICTED BY IDOCK:   -1.10 KCAL/MOL
REMARK 927      BINDING AFFINITY PREDICTED BY RF-SCORE:    0.00 PKD
ROOT
HETATM    1  C   UNL     1      -7.718  10.050  69.497  1.00  0.00    -0.146 C  
HETATM    2  C   UNL     1      -9.209  10.359  69.374  1.00  0.00    -0.159 C  
ENDROOT
BRANCH   2   3
HETATM    3  O   UNL     1      -9.706   9.996  68.086  1.00  0.00    -0.139 OA 
BRANCH   3   4
HETATM    4  C   UNL     1     -10.459  11.031  67.436  1.00  0.00    -0.218 C  
BRANCH   4   5
HETATM    5  C   UNL     1      -9.577  11.695  66.320  1.00  0.00    -0.221 C  
HETATM    6  C   UNL     1     -10.139  14.611  66.739  1.00  0.00    -0.265 C  
HETATM    7  C   UNL     1     -11.134  13.713  65.987  1.00  0.00    -0.297 C  
HETATM    8  N   UNL     1     -10.866  15.595  67.510  1.00  0.00    -0.313 NA 
HETATM    9  H   UNL     1      -7.913  12.948  66.290  1.00  0.00     0.000 HD 
HETATM   10  C   UNL     1     -10.451  12.509  65.334  1.00  0.00    -0.308 C  
HETATM   11  O   UNL     1     -10.677  17.796  68.133  1.00  0.00    -0.366 OA 
HETATM   12  C   UNL     1      -9.225  13.756  67.657  1.00  0.00    -0.207 C  
HETATM   13  C   UNL     1      -9.304  15.474  65.774  1.00  0.00    -0.292 C  
HETATM   14  C   UNL     1     -10.328  16.855  67.442  1.00  0.00    -0.309 C  
HETATM   15  C   UNL     1      -9.242  16.866  66.406  1.00  0.00    -0.308 C  
HETATM   16  N   UNL     1      -8.601  12.621  66.968  1.00  0.00    -0.196 NA 
BRANCH   5  17
HETATM   17  C   UNL     1      -8.815  10.622  65.496  1.00  0.00    -0.202 A  
HETATM   18  C   UNL     1      -7.447   8.676  63.958  1.00  0.00    -0.118 A  
HETATM   19  C   UNL     1      -8.781   8.968  63.689  1.00  0.00    -0.101 A  
HETATM   20  C   UNL     1      -9.456   9.926  64.454  1.00  0.00    -0.304 A  
HETATM   21  C   UNL     1      -7.478  10.276  65.769  1.00  0.00    -0.144 A  
HETATM   22  C   UNL     1      -6.799   9.322  65.002  1.00  0.00    -0.086 A  
ENDBRANCH   5  17
ENDBRANCH   4   5
ENDBRANCH   3   4
ENDBRANCH   2   3
BRANCH   2  23
HETATM   23  C   UNL     1      -9.971   9.577  70.432  1.00  0.00    -0.325 A  
HETATM   24  F   UNL     1     -14.142   9.824  70.485  1.00  0.00    -0.208 F  
HETATM   25  C   UNL     1     -11.373   9.635  70.459  1.00  0.00    -0.360 A  
HETATM   26  F   UNL     1      -8.399   8.242  74.213  1.00  0.00    -0.291 F  
HETATM   27  C   UNL     1     -12.110   8.999  71.470  1.00  0.00    -0.410 A  
HETATM   28  C   UNL     1     -11.422   8.285  72.465  1.00  0.00    -0.454 A  
HETATM   29  F   UNL     1      -8.540   6.417  73.038  1.00  0.00    -0.120 F  
HETATM   30  C   UNL     1     -13.617   9.094  71.509  1.00  0.00    -0.345 C  
HETATM   31  F   UNL     1     -10.091   6.905  74.480  1.00  0.00    -0.346 F  
HETATM   32  C   UNL     1      -9.274   7.449  73.534  1.00  0.00    -0.227 C  
HETATM   33  F   UNL     1     -14.218   7.875  71.446  1.00  0.00    -0.412 F  
HETATM   34  F   UNL     1     -14.069   9.679  72.651  1.00  0.00    -0.399 F  
HETATM   35  C   UNL     1      -9.308   8.854  71.437  1.00  0.00    -0.338 A  
HETATM   36  C   UNL     1     -10.021   8.203  72.458  1.00  0.00    -0.372 A  
ENDBRANCH   2  23
TORSDOF 5
ENDMDL
MODEL      104
REMARK 921   NORMALIZED FREE ENERGY PREDICTED BY IDOCK:   -5.82 KCAL/MOL
REMARK 922        TOTAL FREE ENERGY PREDICTED BY IDOCK:  -10.38 KCAL/MOL
REMARK 923 INTER-LIGAND FREE ENERGY PREDICTED BY IDOCK:   -8.73 KCAL/MOL
REMARK 924 INTRA-LIGAND FREE ENERGY PREDICTED BY IDOCK:   -1.66 KCAL/MOL
REMARK 927      BINDING AFFINITY PREDICTED BY RF-SCORE:    0.00 PKD
ROOT
HETATM    1  C   UNL     1     -10.061   9.598  66.271  1.00  0.00    -0.322 C  
HETATM    2  C   UNL     1     -11.205   9.923  67.230  1.00  0.00     0.209 C  
ENDROOT
BRANCH   2   3
HETATM    3  O   UNL     1     -10.873   9.562  68.570  1.00  0.00    -0.203 OA 
BRANCH   3   4
HETATM    4  C   UNL     1      -9.754   8.669  68.676  1.00  0.00    -0.163 C  
BRANCH   4   5
HETATM    5  C   UNL     1      -8.962   8.980  69.995  1.00  0.00    -0.175 C  
HETATM    6  C   UNL     1     -10.198   7.051  71.930  1.00  0.00    -0.187 C  
HETATM    7  C   UNL     1     -10.903   8.366  71.563  1.00  0.00    -0.323 C  
HETATM    8  N   UNL     1     -11.185   6.013  72.125  1.00  0.00    -0.277 NA 
HETATM    9  H   UNL     1      -7.626   7.937  71.207  1.00  0.00     0.000 HD 
HETATM   10  C   UNL     1      -9.918   9.450  71.119  1.00  0.00    -0.311 C  
HETATM   11  O   UNL     1     -11.547   4.195  73.478  1.00  0.00    -0.229 OA 
HETATM   12  C   UNL     1      -9.189   6.651  70.822  1.00  0.00    -0.155 C  
HETATM   13  C   UNL     1      -9.507   7.136  73.305  1.00  0.00    -0.218 C  
HETATM   14  C   UNL     1     -10.942   5.219  73.218  1.00  0.00    -0.313 C  
HETATM   15  C   UNL     1      -9.810   5.811  74.007  1.00  0.00    -0.194 C  
HETATM   16  N   UNL     1      -8.273   7.734  70.445  1.00  0.00    -0.119 NA 
BRANCH   5  17
HETATM   17  C   UNL     1      -7.916  10.105  69.767  1.00  0.00    -0.172 A  
HETATM   18  C   UNL     1      -5.976  12.128  69.359  1.00  0.00    -0.095 A  
HETATM   19  C   UNL     1      -5.753  11.126  70.299  1.00  0.00    -0.128 A  
HETATM   20  C   UNL     1      -6.715  10.131  70.503  1.00  0.00    -0.100 A  
HETATM   21  C   UNL     1      -8.128  11.153  68.852  1.00  0.00    -0.115 A  
HETATM   22  C   UNL     1      -7.164  12.146  68.643  1.00  0.00    -0.109 A  
ENDBRANCH   5  17
ENDBRANCH   4   5
ENDBRANCH   3   4
ENDBRANCH   2   3
BRANCH   2  23
HETATM   23  C   UNL     1     -11.490  11.416  67.181  1.00  0.00    -0.268 A  
HETATM   24  F   UNL     1     -11.437  13.344  63.475  1.00  0.00    -0.398 F  
HETATM   25  C   UNL     1     -11.491  12.080  65.945  1.00  0.00    -0.392 A  
HETATM   26  F   UNL     1     -10.994  14.191  70.437  1.00  0.00    -0.100 F  
HETATM   27  C   UNL     1     -11.663  13.471  65.865  1.00  0.00    -0.380 A  
HETATM   28  C   UNL     1     -11.846  14.202  67.050  1.00  0.00    -0.458 A  
HETATM   29  F   UNL     1     -13.152  13.970  70.271  1.00  0.00    -0.321 F  
HETATM   30  C   UNL     1     -11.630  14.182  64.533  1.00  0.00    -0.389 C  
HETATM   31  F   UNL     1     -12.162  15.688  69.380  1.00  0.00    -0.352 F  
HETATM   32  C   UNL     1     -12.042  14.346  69.579  1.00  0.00    -0.322 C  
HETATM   33  F   UNL     1     -12.784  14.854  64.272  1.00  0.00    -0.471 F  
HETATM   34  F   UNL     1     -10.632  15.104  64.463  1.00  0.00    -0.386 F  
HETATM   35  C   UNL     1     -11.679  12.171  68.351  1.00  0.00    -0.388 A  
HETATM   36  C   UNL     1     -11.858  13.563  68.300  1.00  0.00    -0.401 A  
ENDBRANCH   2  23
TORSDOF 5
ENDMDL
MODEL      105
REMARK 921   NORMALIZED FREE ENERGY PREDICTED BY IDOCK:   -5.81 KCAL/MOL
REMARK 922        TOTAL FREE ENERGY PREDICTED BY IDOCK:  -10.37 KCAL/MOL
REMARK 923 INTER-LIGAND FREE ENERGY PREDICTED BY IDOCK:   -6.47 KCAL/MOL
REMARK 924 INTRA-LIGAND FREE ENERGY PREDICTED BY IDOCK:   -3.90 KCAL/MOL
REMARK 927      BINDING AFFINITY PREDICTED BY RF-SCORE:    0.00 PKD
ROOT
HETATM    1  C   UNL     1     -11.677   8.358  72.420  1.00  0.00    -0.452 C  
HETATM    2  C   UNL     1     -11.866   7.682  71.063  1.00  0.00    -0.285 C  
ENDROOT
BRANCH   2   3
HETATM    3  O   UNL     1     -11.777   8.629  69.999  1.00  0.00     0.055 OA 
BRANCH   3   4
HETATM    4  C   UNL     1     -11.002   9.795  70.316  1.00  0.00    -0.298 C  
BRANCH   4   5
HETATM    5  C   UNL     1      -9.830   9.940  69.282  1.00  0.00    -0.207 C  
HETATM    6  C   UNL     1     -11.085  11.645  67.158  1.00  0.00    -0.299 C  
HETATM    7  C   UNL     1     -11.372  10.137  67.235  1.00  0.00     0.215 C  
HETATM    8  N   UNL     1     -12.277  12.341  66.725  1.00  0.00    -0.470 NA 
HETATM    9  H   UNL     1      -8.657  11.510  68.575  1.00  0.00     0.000 HD 
HETATM   10  C   UNL     1     -10.234   9.362  67.902  1.00  0.00    -0.259 C  
HETATM   11  O   UNL     1     -12.860  14.130  65.411  1.00  0.00    -0.637 OA 
HETATM   12  C   UNL     1     -10.606  12.176  68.534  1.00  0.00    -0.233 C  
HETATM   13  C   UNL     1     -10.067  11.978  66.050  1.00  0.00    -0.257 C  
HETATM   14  C   UNL     1     -12.036  13.319  65.793  1.00  0.00    -0.417 C  
HETATM   15  C   UNL     1     -10.604  13.229  65.352  1.00  0.00    -0.304 C  
HETATM   16  N   UNL     1      -9.513  11.389  69.117  1.00  0.00     0.044 NA 
BRANCH   5  17
HETATM   17  C   UNL     1      -8.565   9.176  69.759  1.00  0.00    -0.144 A  
HETATM   18  C   UNL     1      -6.278   7.774  70.668  1.00  0.00    -0.037 A  
HETATM   19  C   UNL     1      -7.053   8.502  71.565  1.00  0.00    -0.096 A  
HETATM   20  C   UNL     1      -8.180   9.198  71.113  1.00  0.00    -0.142 A  
HETATM   21  C   UNL     1      -7.739   8.463  68.870  1.00  0.00    -0.105 A  
HETATM   22  C   UNL     1      -6.615   7.761  69.322  1.00  0.00    -0.040 A  
ENDBRANCH   5  17
ENDBRANCH   4   5
ENDBRANCH   3   4
ENDBRANCH   2   3
BRANCH   2  23
HETATM   23  C   UNL     1     -10.785   6.630  70.873  1.00  0.00    -0.278 A  
HETATM   24  F   UNL     1      -8.497   5.491  74.178  1.00  0.00    -0.113 F  
HETATM   25  C   UNL     1     -10.014   6.223  71.973  1.00  0.00    -0.187 A  
HETATM   26  F   UNL     1      -8.831   5.655  67.161  1.00  0.00    -0.111 F  
HETATM   27  C   UNL     1      -8.950   5.320  71.823  1.00  0.00    -0.147 A  
HETATM   28  C   UNL     1      -8.665   4.811  70.545  1.00  0.00    -0.130 A  
HETATM   29  F   UNL     1     -10.149   3.961  67.512  1.00  0.00    -0.187 F  
HETATM   30  C   UNL     1      -8.106   4.912  73.008  1.00  0.00    -0.101 C  
HETATM   31  F   UNL     1      -8.040   3.823  68.021  1.00  0.00    -0.081 F  
HETATM   32  C   UNL     1      -9.114   4.662  68.049  1.00  0.00    -0.120 C  
HETATM   33  F   UNL     1      -8.130   3.570  73.228  1.00  0.00    -0.070 F  
HETATM   34  F   UNL     1      -6.796   5.245  72.848  1.00  0.00    -0.069 F  
HETATM   35  C   UNL     1     -10.481   6.104  69.606  1.00  0.00    -0.312 A  
HETATM   36  C   UNL     1      -9.425   5.194  69.429  1.00  0.00    -0.198 A  
ENDBRANCH   2  23
TORSDOF 5
ENDMDL
MODEL      106
REMARK 921   NORMALIZED FREE ENERGY PREDICTED BY IDOCK:   -5.80 KCAL/MOL
REMARK 922        TOTAL FREE ENERGY PREDICTED BY IDOCK:  -10.35 KCAL/MOL
REMARK 923 INTER-LIGAND FREE ENERGY PREDICTED BY IDOCK:   -8.86 KCAL/MOL
REMARK 924 INTRA-LIGAND FREE ENERGY PREDICTED BY IDOCK:   -1.49 KCAL/MOL
REMARK 927      BINDING AFFINITY PREDICTED BY RF-SCORE:    0.00 PKD
ROOT
HETATM    1  C   UNL     1      -9.723   6.971  66.579  1.00  0.00    -0.189 C  
HETATM    2  C   UNL     1     -10.604   7.753  67.552  1.00  0.00    -0.248 C  
ENDROOT
BRANCH   2   3
HETATM    3  O   UNL     1     -10.171   7.571  68.900  1.00  0.00    -0.197 OA 
BRANCH   3   4
HETATM    4  C   UNL     1     -10.679   6.381  69.523  1.00  0.00    -0.289 C  
BRANCH   4   5
HETATM    5  C   UNL     1     -10.728   6.586  71.078  1.00  0.00    -0.243 C  
HETATM    6  C   UNL     1      -8.352   4.997  71.986  1.00  0.00    -0.124 C  
HETATM    7  C   UNL     1      -9.677   4.306  71.628  1.00  0.00    -0.243 C  
HETATM    8  N   UNL     1      -7.246   4.156  71.586  1.00  0.00    -0.052 NA 
HETATM    9  H   UNL     1      -9.512   7.511  72.494  1.00  0.00     0.000 HD 
HETATM   10  C   UNL     1     -10.883   5.230  71.811  1.00  0.00    -0.198 C  
HETATM   11  O   UNL     1      -5.155   3.570  72.328  1.00  0.00     0.000 OA 
HETATM   12  C   UNL     1      -8.264   6.386  71.301  1.00  0.00    -0.122 C  
HETATM   13  C   UNL     1      -8.163   5.117  73.511  1.00  0.00    -0.110 C  
HETATM   14  C   UNL     1      -6.242   4.085  72.518  1.00  0.00    -0.016 C  
HETATM   15  C   UNL     1      -6.700   4.759  73.779  1.00  0.00    -0.068 C  
HETATM   16  N   UNL     1      -9.451   7.222  71.518  1.00  0.00    -0.153 NA 
BRANCH   5  17
HETATM   17  C   UNL     1     -11.929   7.482  71.488  1.00  0.00    -0.336 A  
HETATM   18  C   UNL     1     -14.137   9.081  72.254  1.00  0.00    -0.485 A  
HETATM   19  C   UNL     1     -14.328   7.746  71.909  1.00  0.00    -0.545 A  
HETATM   20  C   UNL     1     -13.235   6.959  71.526  1.00  0.00    -0.322 A  
HETATM   21  C   UNL     1     -11.774   8.845  71.805  1.00  0.00    -0.432 A  
HETATM   22  C   UNL     1     -12.864   9.631  72.194  1.00  0.00    -0.460 A  
ENDBRANCH   5  17
ENDBRANCH   4   5
ENDBRANCH   3   4
ENDBRANCH   2   3
BRANCH   2  23
HETATM   23  C   UNL     1     -10.535   9.233  67.211  1.00  0.00    -0.334 A  
HETATM   24  F   UNL     1     -11.576  12.014  70.151  1.00  0.00    -0.359 F  
HETATM   25  C   UNL     1     -10.867  10.184  68.188  1.00  0.00    -0.310 A  
HETATM   26  F   UNL     1     -10.741  10.930  63.258  1.00  0.00    -0.381 F  
HETATM   27  C   UNL     1     -10.900  11.555  67.889  1.00  0.00    -0.257 A  
HETATM   28  C   UNL     1     -10.584  11.975  66.587  1.00  0.00    -0.266 A  
HETATM   29  F   UNL     1      -8.648  11.157  63.810  1.00  0.00    -0.089 F  
HETATM   30  C   UNL     1     -11.290  12.569  68.939  1.00  0.00    -0.297 C  
HETATM   31  F   UNL     1     -10.013  12.837  64.005  1.00  0.00    -0.370 F  
HETATM   32  C   UNL     1      -9.913  11.490  64.185  1.00  0.00    -0.287 C  
HETATM   33  F   UNL     1     -10.311  13.485  69.169  1.00  0.00    -0.191 F  
HETATM   34  F   UNL     1     -12.396  13.279  68.587  1.00  0.00    -0.346 F  
HETATM   35  C   UNL     1     -10.220   9.680  65.917  1.00  0.00    -0.219 A  
HETATM   36  C   UNL     1     -10.241  11.046  65.592  1.00  0.00    -0.318 A  
ENDBRANCH   2  23
TORSDOF 5
ENDMDL
MODEL      107
REMARK 921   NORMALIZED FREE ENERGY PREDICTED BY IDOCK:   -5.76 KCAL/MOL
REMARK 922        TOTAL FREE ENERGY PREDICTED BY IDOCK:  -10.31 KCAL/MOL
REMARK 923 INTER-LIGAND FREE ENERGY PREDICTED BY IDOCK:   -9.61 KCAL/MOL
REMARK 924 INTRA-LIGAND FREE ENERGY PREDICTED BY IDOCK:   -0.70 KCAL/MOL
REMARK 927      BINDING AFFINITY PREDICTED BY RF-SCORE:    0.00 PKD
ROOT
HETATM    1  C   UNL     1     -12.907  10.605  70.441  1.00  0.00    -0.277 C  
HETATM    2  C   UNL     1     -11.630  11.286  69.951  1.00  0.00    -0.334 C  
ENDROOT
BRANCH   2   3
HETATM    3  O   UNL     1     -11.446  11.089  68.549  1.00  0.00    -0.263 OA 
BRANCH   3   4
HETATM    4  C   UNL     1     -10.070  11.047  68.140  1.00  0.00    -0.179 C  
BRANCH   4   5
HETATM    5  C   UNL     1      -9.979  10.509  66.668  1.00  0.00    -0.211 C  
HETATM    6  C   UNL     1      -8.416   7.976  67.030  1.00  0.00    -0.120 C  
HETATM    7  C   UNL     1      -7.714   9.343  67.005  1.00  0.00    -0.091 C  
HETATM    8  N   UNL     1      -7.740   7.105  67.967  1.00  0.00    -0.111 NA 
HETATM    9  H   UNL     1     -10.707   8.846  65.646  1.00  0.00     0.000 HD 
HETATM   10  C   UNL     1      -8.504  10.387  66.213  1.00  0.00    -0.145 C  
HETATM   11  O   UNL     1      -7.172   4.892  68.177  1.00  0.00    -0.061 OA 
HETATM   12  C   UNL     1      -9.910   8.142  67.411  1.00  0.00    -0.184 C  
HETATM   13  C   UNL     1      -8.264   7.230  65.690  1.00  0.00    -0.138 C  
HETATM   14  C   UNL     1      -7.567   5.826  67.502  1.00  0.00    -0.093 C  
HETATM   15  C   UNL     1      -7.963   5.775  66.055  1.00  0.00    -0.103 C  
HETATM   16  N   UNL     1     -10.608   9.156  66.613  1.00  0.00    -0.155 NA 
BRANCH   5  17
HETATM   17  C   UNL     1     -10.699  11.464  65.678  1.00  0.00    -0.301 A  
HETATM   18  C   UNL     1     -12.022  13.172  63.846  1.00  0.00    -0.550 A  
HETATM   19  C   UNL     1     -11.323  12.061  63.385  1.00  0.00    -0.484 A  
HETATM   20  C   UNL     1     -10.666  11.222  64.292  1.00  0.00    -0.416 A  
HETATM   21  C   UNL     1     -11.383  12.617  66.110  1.00  0.00    -0.375 A  
HETATM   22  C   UNL     1     -12.045  13.454  65.205  1.00  0.00    -0.446 A  
ENDBRANCH   5  17
ENDBRANCH   4   5
ENDBRANCH   3   4
ENDBRANCH   2   3
BRANCH   2  23
HETATM   23  C   UNL     1     -11.721  12.779  70.227  1.00  0.00    -0.188 A  
HETATM   24  F   UNL     1      -9.738  15.412  67.660  1.00  0.00    -0.208 F  
HETATM   25  C   UNL     1     -11.073  13.681  69.370  1.00  0.00    -0.193 A  
HETATM   26  F   UNL     1     -12.580  14.597  74.035  1.00  0.00    -0.596 F  
HETATM   27  C   UNL     1     -11.059  15.059  69.638  1.00  0.00    -0.291 A  
HETATM   28  C   UNL     1     -11.716  15.535  70.784  1.00  0.00    -0.397 A  
HETATM   29  F   UNL     1     -14.409  14.893  72.897  1.00  0.00    -0.368 F  
HETATM   30  C   UNL     1     -10.333  16.020  68.726  1.00  0.00    -0.237 C  
HETATM   31  F   UNL     1     -12.964  16.507  73.072  1.00  0.00    -0.430 F  
HETATM   32  C   UNL     1     -13.075  15.160  72.898  1.00  0.00    -0.479 C  
HETATM   33  F   UNL     1     -11.157  16.968  68.203  1.00  0.00    -0.364 F  
HETATM   34  F   UNL     1      -9.342  16.694  69.369  1.00  0.00    -0.237 F  
HETATM   35  C   UNL     1     -12.373  13.281  71.366  1.00  0.00    -0.172 A  
HETATM   36  C   UNL     1     -12.379  14.656  71.655  1.00  0.00    -0.416 A  
ENDBRANCH   2  23
TORSDOF 5
ENDMDL
MODEL      108
REMARK 921   NORMALIZED FREE ENERGY PREDICTED BY IDOCK:   -5.75 KCAL/MOL
REMARK 922        TOTAL FREE ENERGY PREDICTED BY IDOCK:  -10.29 KCAL/MOL
REMARK 923 INTER-LIGAND FREE ENERGY PREDICTED BY IDOCK:   -8.94 KCAL/MOL
REMARK 924 INTRA-LIGAND FREE ENERGY PREDICTED BY IDOCK:   -1.34 KCAL/MOL
REMARK 927      BINDING AFFINITY PREDICTED BY RF-SCORE:    0.00 PKD
ROOT
HETATM    1  C   UNL     1     -12.070  14.235  66.379  1.00  0.00    -0.442 C  
HETATM    2  C   UNL     1     -11.148  14.358  67.591  1.00  0.00    -0.300 C  
ENDROOT
BRANCH   2   3
HETATM    3  O   UNL     1     -10.382  13.168  67.779  1.00  0.00    -0.222 OA 
BRANCH   3   4
HETATM    4  C   UNL     1     -11.124  11.956  67.580  1.00  0.00    -0.273 C  
BRANCH   4   5
HETATM    5  C   UNL     1     -10.148  10.816  67.120  1.00  0.00    -0.204 C  
HETATM    6  C   UNL     1      -9.525   9.451  69.717  1.00  0.00    -0.202 C  
HETATM    7  C   UNL     1      -8.827  10.763  69.324  1.00  0.00    -0.039 C  
HETATM    8  N   UNL     1      -9.744   9.432  71.146  1.00  0.00    -0.244 NA 
HETATM    9  H   UNL     1     -10.209   8.734  67.083  1.00  0.00     0.000 HD 
HETATM   10  C   UNL     1      -8.767  10.958  67.807  1.00  0.00    -0.129 C  
HETATM   11  O   UNL     1      -9.721   7.934  72.884  1.00  0.00    -0.221 OA 
HETATM   12  C   UNL     1     -10.865   9.301  68.951  1.00  0.00    -0.099 C  
HETATM   13  C   UNL     1      -8.615   8.229  69.489  1.00  0.00    -0.134 C  
HETATM   14  C   UNL     1      -9.459   8.224  71.731  1.00  0.00    -0.209 C  
HETATM   15  C   UNL     1      -8.803   7.334  70.716  1.00  0.00    -0.150 C  
HETATM   16  N   UNL     1     -10.737   9.498  67.503  1.00  0.00    -0.281 NA 
BRANCH   5  17
HETATM   17  C   UNL     1      -9.916  10.862  65.585  1.00  0.00    -0.305 A  
HETATM   18  C   UNL     1      -9.476  10.906  62.788  1.00  0.00    -0.359 A  
HETATM   19  C   UNL     1      -8.573  10.260  63.627  1.00  0.00    -0.196 A  
HETATM   20  C   UNL     1      -8.790  10.244  65.009  1.00  0.00    -0.209 A  
HETATM   21  C   UNL     1     -10.790  11.540  64.714  1.00  0.00    -0.360 A  
HETATM   22  C   UNL     1     -10.578  11.551  63.331  1.00  0.00    -0.460 A  
ENDBRANCH   5  17
ENDBRANCH   4   5
ENDBRANCH   3   4
ENDBRANCH   2   3
BRANCH   2  23
HETATM   23  C   UNL     1     -10.196  15.525  67.380  1.00  0.00    -0.255 A  
HETATM   24  F   UNL     1      -6.136  14.968  68.195  1.00  0.00    -0.097 F  
HETATM   25  C   UNL     1      -8.827  15.355  67.635  1.00  0.00    -0.179 A  
HETATM   26  F   UNL     1     -11.271  19.696  67.378  1.00  0.00    -0.554 F  
HETATM   27  C   UNL     1      -7.928  16.429  67.537  1.00  0.00    -0.172 A  
HETATM   28  C   UNL     1      -8.417  17.693  67.167  1.00  0.00    -0.239 A  
HETATM   29  F   UNL     1     -10.891  19.258  65.281  1.00  0.00    -0.522 F  
HETATM   30  C   UNL     1      -6.461  16.244  67.844  1.00  0.00    -0.140 C  
HETATM   31  F   UNL     1      -9.359  20.220  66.486  1.00  0.00    -0.427 F  
HETATM   32  C   UNL     1     -10.316  19.250  66.514  1.00  0.00    -0.450 C  
HETATM   33  F   UNL     1      -5.663  16.555  66.787  1.00  0.00    -0.183 F  
HETATM   34  F   UNL     1      -6.045  17.030  68.875  1.00  0.00    -0.146 F  
HETATM   35  C   UNL     1     -10.659  16.798  67.009  1.00  0.00    -0.234 A  
HETATM   36  C   UNL     1      -9.781  17.890  66.899  1.00  0.00    -0.309 A  
ENDBRANCH   2  23
TORSDOF 5
ENDMDL
MODEL      109
REMARK 921   NORMALIZED FREE ENERGY PREDICTED BY IDOCK:   -5.71 KCAL/MOL
REMARK 922        TOTAL FREE ENERGY PREDICTED BY IDOCK:  -10.24 KCAL/MOL
REMARK 923 INTER-LIGAND FREE ENERGY PREDICTED BY IDOCK:   -9.21 KCAL/MOL
REMARK 924 INTRA-LIGAND FREE ENERGY PREDICTED BY IDOCK:   -1.03 KCAL/MOL
REMARK 927      BINDING AFFINITY PREDICTED BY RF-SCORE:    0.00 PKD
ROOT
HETATM    1  C   UNL     1      -7.198  12.579  67.959  1.00  0.00    -0.105 C  
HETATM    2  C   UNL     1      -8.704  12.828  67.890  1.00  0.00    -0.185 C  
ENDROOT
BRANCH   2   3
HETATM    3  O   UNL     1      -8.996  14.225  67.896  1.00  0.00    -0.172 OA 
BRANCH   3   4
HETATM    4  C   UNL     1      -9.188  14.777  69.208  1.00  0.00    -0.031 C  
BRANCH   4   5
HETATM    5  C   UNL     1     -10.463  15.692  69.208  1.00  0.00    -0.247 C  
HETATM    6  C   UNL     1      -9.537  18.045  67.594  1.00  0.00    -0.271 C  
HETATM    7  C   UNL     1      -9.147  17.896  69.073  1.00  0.00    -0.029 C  
HETATM    8  N   UNL     1      -8.442  18.644  66.865  1.00  0.00    -0.265 NA 
HETATM    9  H   UNL     1     -11.800  16.378  67.764  1.00  0.00     0.000 HD 
HETATM   10  C   UNL     1     -10.161  17.064  69.861  1.00  0.00     0.245 C  
HETATM   11  O   UNL     1      -8.108  20.128  65.146  1.00  0.00    -0.026 OA 
HETATM   12  C   UNL     1      -9.911  16.665  66.992  1.00  0.00    -0.271 C  
HETATM   13  C   UNL     1     -10.679  19.061  67.403  1.00  0.00    -0.559 C  
HETATM   14  C   UNL     1      -8.836  19.610  65.974  1.00  0.00    -0.246 C  
HETATM   15  C   UNL     1     -10.296  19.893  66.177  1.00  0.00    -0.604 C  
HETATM   16  N   UNL     1     -10.888  15.921  67.795  1.00  0.00    -0.319 NA 
BRANCH   5  17
HETATM   17  C   UNL     1     -11.623  15.037  70.006  1.00  0.00    -0.324 A  
HETATM   18  C   UNL     1     -13.763  13.875  71.452  1.00  0.00    -0.241 A  
HETATM   19  C   UNL     1     -13.591  15.256  71.448  1.00  0.00    -0.598 A  
HETATM   20  C   UNL     1     -12.530  15.827  70.737  1.00  0.00    -0.420 A  
HETATM   21  C   UNL     1     -11.801  13.641  70.061  1.00  0.00    -0.378 A  
HETATM   22  C   UNL     1     -12.865  13.068  70.766  1.00  0.00    -0.150 A  
ENDBRANCH   5  17
ENDBRANCH   4   5
ENDBRANCH   3   4
ENDBRANCH   2   3
BRANCH   2  23
HETATM   23  C   UNL     1      -9.255  12.218  66.610  1.00  0.00    -0.208 A  
HETATM   24  F   UNL     1      -7.041   9.234  64.701  1.00  0.00    -0.089 F  
HETATM   25  C   UNL     1      -8.533  11.205  65.961  1.00  0.00    -0.138 A  
HETATM   26  F   UNL     1     -12.080  14.071  63.940  1.00  0.00    -0.473 F  
HETATM   27  C   UNL     1      -8.963  10.678  64.733  1.00  0.00    -0.218 A  
HETATM   28  C   UNL     1     -10.143  11.174  64.155  1.00  0.00    -0.388 A  
HETATM   29  F   UNL     1     -13.249  12.536  64.946  1.00  0.00    -0.487 F  
HETATM   30  C   UNL     1      -8.163   9.609  64.025  1.00  0.00    -0.159 C  
HETATM   31  F   UNL     1     -12.449  12.168  62.958  1.00  0.00    -0.574 F  
HETATM   32  C   UNL     1     -12.152  12.729  64.164  1.00  0.00    -0.438 C  
HETATM   33  F   UNL     1      -8.878   8.469  63.824  1.00  0.00    -0.089 F  
HETATM   34  F   UNL     1      -7.738  10.010  62.796  1.00  0.00    -0.119 F  
HETATM   35  C   UNL     1     -10.433  12.695  66.013  1.00  0.00    -0.288 A  
HETATM   36  C   UNL     1     -10.889  12.181  64.787  1.00  0.00    -0.351 A  
ENDBRANCH   2  23
TORSDOF 5
ENDMDL
MODEL      110
REMARK 921   NORMALIZED FREE ENERGY PREDICTED BY IDOCK:   -5.69 KCAL/MOL
REMARK 922        TOTAL FREE ENERGY PREDICTED BY IDOCK:  -10.22 KCAL/MOL
REMARK 923 INTER-LIGAND FREE ENERGY PREDICTED BY IDOCK:   -8.85 KCAL/MOL
REMARK 924 INTRA-LIGAND FREE ENERGY PREDICTED BY IDOCK:   -1.37 KCAL/MOL
REMARK 927      BINDING AFFINITY PREDICTED BY RF-SCORE:    0.00 PKD
ROOT
HETATM    1  C   UNL     1     -11.881   9.844  70.908  1.00  0.00    -0.443 C  
HETATM    2  C   UNL     1     -10.875  10.135  69.796  1.00  0.00    -0.279 C  
ENDROOT
BRANCH   2   3
HETATM    3  O   UNL     1     -10.897   9.113  68.800  1.00  0.00    -0.171 OA 
BRANCH   3   4
HETATM    4  C   UNL     1      -9.640   8.446  68.618  1.00  0.00    -0.149 C  
BRANCH   4   5
HETATM    5  C   UNL     1      -9.732   6.991  69.201  1.00  0.00    -0.156 C  
HETATM    6  C   UNL     1      -9.640   5.319  66.713  1.00  0.00    -0.148 C  
HETATM    7  C   UNL     1     -10.938   6.014  67.153  1.00  0.00    -0.360 C  
HETATM    8  N   UNL     1      -9.559   5.318  65.270  1.00  0.00     0.041 NA 
HETATM    9  H   UNL     1      -8.468   5.336  69.273  1.00  0.00     0.000 HD 
HETATM   10  C   UNL     1     -10.984   6.257  68.664  1.00  0.00    -0.423 C  
HETATM   11  O   UNL     1      -8.838   3.951  63.574  1.00  0.00    -0.098 OA 
HETATM   12  C   UNL     1      -8.409   6.030  67.334  1.00  0.00    -0.105 C  
HETATM   13  C   UNL     1      -9.647   3.818  67.062  1.00  0.00    -0.213 C  
HETATM   14  C   UNL     1      -9.131   4.126  64.743  1.00  0.00    -0.145 C  
HETATM   15  C   UNL     1      -9.068   3.104  65.840  1.00  0.00    -0.150 C  
HETATM   16  N   UNL     1      -8.517   6.230  68.784  1.00  0.00    -0.119 NA 
BRANCH   5  17
HETATM   17  C   UNL     1      -9.830   7.015  70.751  1.00  0.00    -0.190 A  
HETATM   18  C   UNL     1      -9.995   7.100  73.577  1.00  0.00    -0.344 A  
HETATM   19  C   UNL     1      -8.994   7.804  72.915  1.00  0.00    -0.243 A  
HETATM   20  C   UNL     1      -8.911   7.756  71.519  1.00  0.00    -0.156 A  
HETATM   21  C   UNL     1     -10.806   6.283  71.453  1.00  0.00    -0.312 A  
HETATM   22  C   UNL     1     -10.894   6.334  72.848  1.00  0.00    -0.284 A  
ENDBRANCH   5  17
ENDBRANCH   4   5
ENDBRANCH   3   4
ENDBRANCH   2   3
BRANCH   2  23
HETATM   23  C   UNL     1     -11.222  11.464  69.142  1.00  0.00    -0.335 A  
HETATM   24  F   UNL     1     -11.837  14.797  71.585  1.00  0.00    -0.349 F  
HETATM   25  C   UNL     1     -11.419  12.599  69.944  1.00  0.00    -0.153 A  
HETATM   26  F   UNL     1     -12.999  11.980  65.254  1.00  0.00    -0.022 F  
HETATM   27  C   UNL     1     -11.825  13.822  69.388  1.00  0.00    -0.392 A  
HETATM   28  C   UNL     1     -12.026  13.905  68.001  1.00  0.00    -0.390 A  
HETATM   29  F   UNL     1     -10.933  12.596  64.964  1.00  0.00    -0.293 F  
HETATM   30  C   UNL     1     -12.065  15.030  70.263  1.00  0.00    -0.329 C  
HETATM   31  F   UNL     1     -12.482  14.091  65.263  1.00  0.00    -0.395 F  
HETATM   32  C   UNL     1     -12.056  12.866  65.682  1.00  0.00    -0.458 C  
HETATM   33  F   UNL     1     -11.273  16.084  69.926  1.00  0.00    -0.268 F  
HETATM   34  F   UNL     1     -13.347  15.480  70.181  1.00  0.00    -0.243 F  
HETATM   35  C   UNL     1     -11.427  11.574  67.757  1.00  0.00    -0.357 A  
HETATM   36  C   UNL     1     -11.828  12.788  67.173  1.00  0.00    -0.415 A  
ENDBRANCH   2  23
TORSDOF 5
ENDMDL
MODEL      111
REMARK 921   NORMALIZED FREE ENERGY PREDICTED BY IDOCK:   -5.67 KCAL/MOL
REMARK 922        TOTAL FREE ENERGY PREDICTED BY IDOCK:  -10.19 KCAL/MOL
REMARK 923 INTER-LIGAND FREE ENERGY PREDICTED BY IDOCK:   -8.82 KCAL/MOL
REMARK 924 INTRA-LIGAND FREE ENERGY PREDICTED BY IDOCK:   -1.37 KCAL/MOL
REMARK 927      BINDING AFFINITY PREDICTED BY RF-SCORE:    0.00 PKD
ROOT
HETATM    1  C   UNL     1     -11.551  11.350  69.530  1.00  0.00    -0.399 C  
HETATM    2  C   UNL     1     -10.143  11.240  68.949  1.00  0.00    -0.170 C  
ENDROOT
BRANCH   2   3
HETATM    3  O   UNL     1      -9.496  10.045  69.386  1.00  0.00    -0.198 OA 
BRANCH   3   4
HETATM    4  C   UNL     1     -10.374   9.102  70.020  1.00  0.00    -0.207 C  
BRANCH   4   5
HETATM    5  C   UNL     1      -9.577   7.793  70.359  1.00  0.00    -0.175 C  
HETATM    6  C   UNL     1     -10.301   6.012  68.058  1.00  0.00    -0.202 C  
HETATM    7  C   UNL     1     -11.266   6.215  69.237  1.00  0.00    -0.438 C  
HETATM    8  N   UNL     1     -11.058   5.882  66.833  1.00  0.00    -0.203 NA 
HETATM    9  H   UNL     1      -7.995   6.750  69.493  1.00  0.00     0.000 HD 
HETATM   10  C   UNL     1     -10.535   6.589  70.528  1.00  0.00    -0.251 C  
HETATM   11  O   UNL     1     -10.983   4.704  64.864  1.00  0.00    -0.070 OA 
HETATM   12  C   UNL     1      -9.303   7.196  67.966  1.00  0.00    -0.129 C  
HETATM   13  C   UNL     1      -9.558   4.666  68.152  1.00  0.00    -0.204 C  
HETATM   14  C   UNL     1     -10.602   4.885  66.007  1.00  0.00    -0.261 C  
HETATM   15  C   UNL     1      -9.559   4.089  66.735  1.00  0.00    -0.234 C  
HETATM   16  N   UNL     1      -8.637   7.500  69.237  1.00  0.00    -0.136 NA 
BRANCH   5  17
HETATM   17  C   UNL     1      -8.781   7.950  71.683  1.00  0.00    -0.153 A  
HETATM   18  C   UNL     1      -7.353   8.203  74.116  1.00  0.00    -0.221 A  
HETATM   19  C   UNL     1      -8.699   7.853  74.130  1.00  0.00    -0.263 A  
HETATM   20  C   UNL     1      -9.404   7.734  72.927  1.00  0.00    -0.278 A  
HETATM   21  C   UNL     1      -7.428   8.341  71.705  1.00  0.00    -0.105 A  
HETATM   22  C   UNL     1      -6.721   8.455  72.906  1.00  0.00    -0.103 A  
ENDBRANCH   5  17
ENDBRANCH   4   5
ENDBRANCH   3   4
ENDBRANCH   2   3
BRANCH   2  23
HETATM   23  C   UNL     1     -10.229  11.221  67.430  1.00  0.00    -0.217 A  
HETATM   24  F   UNL     1     -13.186  13.508  65.565  1.00  0.00    -0.473 F  
HETATM   25  C   UNL     1     -11.206  11.993  66.783  1.00  0.00    -0.376 A  
HETATM   26  F   UNL     1      -8.752   8.103  64.853  1.00  0.00    -0.158 F  
HETATM   27  C   UNL     1     -11.375  11.936  65.391  1.00  0.00    -0.334 A  
HETATM   28  C   UNL     1     -10.538  11.096  64.638  1.00  0.00    -0.386 A  
HETATM   29  F   UNL     1      -7.336   9.728  64.560  1.00  0.00    -0.111 F  
HETATM   30  C   UNL     1     -12.450  12.747  64.706  1.00  0.00    -0.472 C  
HETATM   31  F   UNL     1      -8.933   9.404  63.122  1.00  0.00    -0.230 F  
HETATM   32  C   UNL     1      -8.653   9.402  64.456  1.00  0.00    -0.198 C  
HETATM   33  F   UNL     1     -11.946  13.607  63.781  1.00  0.00    -0.457 F  
HETATM   34  F   UNL     1     -13.345  11.963  64.045  1.00  0.00    -0.503 F  
HETATM   35  C   UNL     1      -9.403  10.391  66.654  1.00  0.00    -0.185 A  
HETATM   36  C   UNL     1      -9.547  10.319  65.258  1.00  0.00    -0.324 A  
ENDBRANCH   2  23
TORSDOF 5
ENDMDL
MODEL      112
REMARK 921   NORMALIZED FREE ENERGY PREDICTED BY IDOCK:   -5.67 KCAL/MOL
REMARK 922        TOTAL FREE ENERGY PREDICTED BY IDOCK:  -10.19 KCAL/MOL
REMARK 923 INTER-LIGAND FREE ENERGY PREDICTED BY IDOCK:   -9.16 KCAL/MOL
REMARK 924 INTRA-LIGAND FREE ENERGY PREDICTED BY IDOCK:   -1.02 KCAL/MOL
REMARK 927      BINDING AFFINITY PREDICTED BY RF-SCORE:    0.00 PKD
ROOT
HETATM    1  C   UNL     1     -12.000  13.102  64.419  1.00  0.00    -0.454 C  
HETATM    2  C   UNL     1     -11.939  12.634  65.871  1.00  0.00    -0.438 C  
ENDROOT
BRANCH   2   3
HETATM    3  O   UNL     1     -10.951  11.618  66.045  1.00  0.00    -0.289 OA 
BRANCH   3   4
HETATM    4  C   UNL     1     -11.133  10.820  67.224  1.00  0.00    -0.270 C  
BRANCH   4   5
HETATM    5  C   UNL     1      -9.775  10.132  67.605  1.00  0.00    -0.161 C  
HETATM    6  C   UNL     1      -7.862  12.440  67.498  1.00  0.00    -0.169 C  
HETATM    7  C   UNL     1      -8.326  11.736  66.213  1.00  0.00     0.024 C  
HETATM    8  N   UNL     1      -7.699  13.854  67.240  1.00  0.00    -0.138 NA 
HETATM    9  H   UNL     1      -8.434  10.268  69.194  1.00  0.00     0.000 HD 
HETATM   10  C   UNL     1      -8.739  10.283  66.463  1.00  0.00    -0.139 C  
HETATM   11  O   UNL     1      -6.309  15.577  67.842  1.00  0.00    -0.126 OA 
HETATM   12  C   UNL     1      -8.881  12.202  68.643  1.00  0.00    -0.002 C  
HETATM   13  C   UNL     1      -6.446  11.997  67.914  1.00  0.00    -0.072 C  
HETATM   14  C   UNL     1      -6.564  14.387  67.795  1.00  0.00    -0.173 C  
HETATM   15  C   UNL     1      -5.719  13.274  68.342  1.00  0.00    -0.084 C  
HETATM   16  N   UNL     1      -9.232  10.790  68.830  1.00  0.00    -0.181 NA 
BRANCH   5  17
HETATM   17  C   UNL     1      -9.969   8.614  67.865  1.00  0.00    -0.232 A  
HETATM   18  C   UNL     1     -10.321   5.852  68.383  1.00  0.00    -0.261 A  
HETATM   19  C   UNL     1      -9.487   6.614  69.195  1.00  0.00    -0.136 A  
HETATM   20  C   UNL     1      -9.311   7.978  68.934  1.00  0.00    -0.150 A  
HETATM   21  C   UNL     1     -10.775   7.808  67.039  1.00  0.00    -0.316 A  
HETATM   22  C   UNL     1     -10.957   6.446  67.302  1.00  0.00    -0.474 A  
ENDBRANCH   5  17
ENDBRANCH   4   5
ENDBRANCH   3   4
ENDBRANCH   2   3
BRANCH   2  23
HETATM   23  C   UNL     1     -11.587  13.815  66.764  1.00  0.00    -0.394 A  
HETATM   24  F   UNL     1     -12.856  13.763  70.744  1.00  0.00    -0.369 F  
HETATM   25  C   UNL     1     -11.992  13.811  68.107  1.00  0.00    -0.394 A  
HETATM   26  F   UNL     1     -10.664  17.804  65.429  1.00  0.00    -0.396 F  
HETATM   27  C   UNL     1     -11.764  14.918  68.940  1.00  0.00    -0.343 A  
HETATM   28  C   UNL     1     -11.110  16.043  68.412  1.00  0.00    -0.351 A  
HETATM   29  F   UNL     1      -8.738  17.009  66.052  1.00  0.00    -0.296 F  
HETATM   30  C   UNL     1     -12.232  14.918  70.376  1.00  0.00    -0.336 C  
HETATM   31  F   UNL     1      -9.861  18.307  67.385  1.00  0.00    -0.287 F  
HETATM   32  C   UNL     1      -9.994  17.283  66.495  1.00  0.00    -0.305 C  
HETATM   33  F   UNL     1     -11.210  15.087  71.258  1.00  0.00    -0.347 F  
HETATM   34  F   UNL     1     -13.120  15.917  70.631  1.00  0.00    -0.486 F  
HETATM   35  C   UNL     1     -10.932  14.951  66.261  1.00  0.00    -0.338 A  
HETATM   36  C   UNL     1     -10.687  16.071  67.073  1.00  0.00    -0.277 A  
ENDBRANCH   2  23
TORSDOF 5
ENDMDL
MODEL      113
REMARK 921   NORMALIZED FREE ENERGY PREDICTED BY IDOCK:   -5.66 KCAL/MOL
REMARK 922        TOTAL FREE ENERGY PREDICTED BY IDOCK:  -10.17 KCAL/MOL
REMARK 923 INTER-LIGAND FREE ENERGY PREDICTED BY IDOCK:   -8.65 KCAL/MOL
REMARK 924 INTRA-LIGAND FREE ENERGY PREDICTED BY IDOCK:   -1.52 KCAL/MOL
REMARK 927      BINDING AFFINITY PREDICTED BY RF-SCORE:    0.00 PKD
ROOT
HETATM    1  C   UNL     1     -11.360  14.786  64.338  1.00  0.00    -0.224 C  
HETATM    2  C   UNL     1     -10.889  14.305  65.709  1.00  0.00    -0.303 C  
ENDROOT
BRANCH   2   3
HETATM    3  O   UNL     1      -9.942  13.244  65.587  1.00  0.00    -0.280 OA 
BRANCH   3   4
HETATM    4  C   UNL     1     -10.528  11.933  65.592  1.00  0.00    -0.262 C  
BRANCH   4   5
HETATM    5  C   UNL     1      -9.592  10.947  66.377  1.00  0.00    -0.197 C  
HETATM    6  C   UNL     1     -10.848  10.937  69.101  1.00  0.00    -0.235 C  
HETATM    7  C   UNL     1      -9.935  12.090  68.653  1.00  0.00    -0.151 C  
HETATM    8  N   UNL     1     -11.906  11.458  69.936  1.00  0.00    -0.330 NA 
HETATM    9  H   UNL     1      -9.816   9.073  67.261  1.00  0.00     0.000 HD 
HETATM   10  C   UNL     1      -8.930  11.654  67.585  1.00  0.00    -0.166 C  
HETATM   11  O   UNL     1     -13.110  10.848  71.793  1.00  0.00    -0.464 OA 
HETATM   12  C   UNL     1     -11.431  10.199  67.867  1.00  0.00     0.149 C  
HETATM   13  C   UNL     1     -10.115   9.958  70.038  1.00  0.00    -0.308 C  
HETATM   14  C   UNL     1     -12.163  10.689  71.043  1.00  0.00    -0.393 C  
HETATM   15  C   UNL     1     -11.108   9.628  71.154  1.00  0.00    -0.444 C  
HETATM   16  N   UNL     1     -10.415   9.808  66.884  1.00  0.00    -0.230 NA 
BRANCH   5  17
HETATM   17  C   UNL     1      -8.456  10.409  65.465  1.00  0.00    -0.171 A  
HETATM   18  C   UNL     1      -6.408   9.435  63.768  1.00  0.00    -0.094 A  
HETATM   19  C   UNL     1      -7.744   9.205  63.454  1.00  0.00    -0.120 A  
HETATM   20  C   UNL     1      -8.754   9.683  64.297  1.00  0.00    -0.229 A  
HETATM   21  C   UNL     1      -7.095  10.591  65.776  1.00  0.00    -0.124 A  
HETATM   22  C   UNL     1      -6.084  10.119  64.932  1.00  0.00    -0.125 A  
ENDBRANCH   5  17
ENDBRANCH   4   5
ENDBRANCH   3   4
ENDBRANCH   2   3
BRANCH   2  23
HETATM   23  C   UNL     1     -10.235  15.462  66.449  1.00  0.00    -0.296 A  
HETATM   24  F   UNL     1     -11.025  19.359  65.169  1.00  0.00    -0.487 F  
HETATM   25  C   UNL     1     -10.498  16.779  66.044  1.00  0.00    -0.300 A  
HETATM   26  F   UNL     1      -6.627  15.246  68.791  1.00  0.00    -0.096 F  
HETATM   27  C   UNL     1      -9.848  17.869  66.643  1.00  0.00    -0.342 A  
HETATM   28  C   UNL     1      -8.924  17.627  67.673  1.00  0.00    -0.240 A  
HETATM   29  F   UNL     1      -8.200  15.436  70.282  1.00  0.00    -0.023 F  
HETATM   30  C   UNL     1     -10.113  19.282  66.179  1.00  0.00    -0.442 C  
HETATM   31  F   UNL     1      -7.053  17.182  69.682  1.00  0.00    -0.209 F  
HETATM   32  C   UNL     1      -7.645  16.052  69.203  1.00  0.00    -0.225 C  
HETATM   33  F   UNL     1     -10.589  20.078  67.174  1.00  0.00    -0.532 F  
HETATM   34  F   UNL     1      -8.990  19.892  65.712  1.00  0.00    -0.370 F  
HETATM   35  C   UNL     1      -9.309  15.247  67.484  1.00  0.00    -0.204 A  
HETATM   36  C   UNL     1      -8.648  16.320  68.104  1.00  0.00    -0.183 A  
ENDBRANCH   2  23
TORSDOF 5
ENDMDL
MODEL      114
REMARK 921   NORMALIZED FREE ENERGY PREDICTED BY IDOCK:   -5.65 KCAL/MOL
REMARK 922        TOTAL FREE ENERGY PREDICTED BY IDOCK:  -10.16 KCAL/MOL
REMARK 923 INTER-LIGAND FREE ENERGY PREDICTED BY IDOCK:   -9.23 KCAL/MOL
REMARK 924 INTRA-LIGAND FREE ENERGY PREDICTED BY IDOCK:   -0.93 KCAL/MOL
REMARK 927      BINDING AFFINITY PREDICTED BY RF-SCORE:    0.00 PKD
ROOT
HETATM    1  C   UNL     1      -7.875   8.722  68.765  1.00  0.00    -0.101 C  
HETATM    2  C   UNL     1      -8.760   9.584  69.663  1.00  0.00    -0.182 C  
ENDROOT
BRANCH   2   3
HETATM    3  O   UNL     1      -9.429  10.596  68.911  1.00  0.00    -0.178 OA 
BRANCH   3   4
HETATM    4  C   UNL     1      -8.682  11.079  67.785  1.00  0.00    -0.130 C  
BRANCH   4   5
HETATM    5  C   UNL     1      -9.636  11.878  66.828  1.00  0.00    -0.204 C  
HETATM    6  C   UNL     1     -10.904  13.836  68.713  1.00  0.00    -0.259 C  
HETATM    7  C   UNL     1     -11.387  12.378  68.641  1.00  0.00    -0.332 C  
HETATM    8  N   UNL     1     -10.990  14.305  70.078  1.00  0.00    -0.028 NA 
HETATM    9  H   UNL     1      -9.751  13.842  66.145  1.00  0.00     0.000 HD 
HETATM   10  C   UNL     1     -11.112  11.741  67.277  1.00  0.00    -0.342 C  
HETATM   11  O   UNL     1     -11.506  16.227  71.222  1.00  0.00    -0.423 OA 
HETATM   12  C   UNL     1      -9.452  13.951  68.180  1.00  0.00    -0.207 C  
HETATM   13  C   UNL     1     -11.849  14.790  67.957  1.00  0.00    -0.324 C  
HETATM   14  C   UNL     1     -11.495  15.576  70.192  1.00  0.00    -0.327 C  
HETATM   15  C   UNL     1     -12.000  16.022  68.851  1.00  0.00    -0.129 C  
HETATM   16  N   UNL     1      -9.257  13.321  66.870  1.00  0.00    -0.236 NA 
BRANCH   5  17
HETATM   17  C   UNL     1      -9.537  11.350  65.371  1.00  0.00    -0.255 A  
HETATM   18  C   UNL     1      -9.357  10.430  62.698  1.00  0.00    -0.335 A  
HETATM   19  C   UNL     1     -10.082  11.580  62.993  1.00  0.00    -0.330 A  
HETATM   20  C   UNL     1     -10.174  12.030  64.315  1.00  0.00    -0.347 A  
HETATM   21  C   UNL     1      -8.844  10.169  65.046  1.00  0.00    -0.205 A  
HETATM   22  C   UNL     1      -8.746   9.721  63.724  1.00  0.00    -0.239 A  
ENDBRANCH   5  17
ENDBRANCH   4   5
ENDBRANCH   3   4
ENDBRANCH   2   3
BRANCH   2  23
HETATM   23  C   UNL     1      -9.803   8.703  70.334  1.00  0.00    -0.207 A  
HETATM   24  F   UNL     1     -13.439  10.416  71.472  1.00  0.00    -0.416 F  
HETATM   25  C   UNL     1     -11.036   9.255  70.712  1.00  0.00    -0.349 A  
HETATM   26  F   UNL     1      -9.027   5.037  72.456  1.00  0.00    -0.126 F  
HETATM   27  C   UNL     1     -11.990   8.499  71.410  1.00  0.00    -0.345 A  
HETATM   28  C   UNL     1     -11.700   7.161  71.724  1.00  0.00    -0.324 A  
HETATM   29  F   UNL     1      -9.942   4.374  70.597  1.00  0.00    -0.253 F  
HETATM   30  C   UNL     1     -13.302   9.112  71.841  1.00  0.00    -0.427 C  
HETATM   31  F   UNL     1     -11.138   4.524  72.406  1.00  0.00    -0.207 F  
HETATM   32  C   UNL     1     -10.153   5.146  71.698  1.00  0.00    -0.200 C  
HETATM   33  F   UNL     1     -14.378   8.461  71.320  1.00  0.00    -0.434 F  
HETATM   34  F   UNL     1     -13.465   9.089  73.191  1.00  0.00    -0.406 F  
HETATM   35  C   UNL     1      -9.539   7.361  70.657  1.00  0.00    -0.171 A  
HETATM   36  C   UNL     1     -10.478   6.580  71.351  1.00  0.00    -0.246 A  
ENDBRANCH   2  23
TORSDOF 5
ENDMDL
MODEL      115
REMARK 921   NORMALIZED FREE ENERGY PREDICTED BY IDOCK:   -5.64 KCAL/MOL
REMARK 922        TOTAL FREE ENERGY PREDICTED BY IDOCK:  -10.15 KCAL/MOL
REMARK 923 INTER-LIGAND FREE ENERGY PREDICTED BY IDOCK:   -9.23 KCAL/MOL
REMARK 924 INTRA-LIGAND FREE ENERGY PREDICTED BY IDOCK:   -0.92 KCAL/MOL
REMARK 927      BINDING AFFINITY PREDICTED BY RF-SCORE:    0.00 PKD
ROOT
HETATM    1  C   UNL     1     -11.802  11.220  69.210  1.00  0.00    -0.423 C  
HETATM    2  C   UNL     1     -10.404  11.463  68.646  1.00  0.00    -0.203 C  
ENDROOT
BRANCH   2   3
HETATM    3  O   UNL     1      -9.795  10.241  68.229  1.00  0.00    -0.142 OA 
BRANCH   3   4
HETATM    4  C   UNL     1     -10.657   9.096  68.324  1.00  0.00    -0.174 C  
BRANCH   4   5
HETATM    5  C   UNL     1      -9.822   7.792  68.064  1.00  0.00    -0.163 C  
HETATM    6  C   UNL     1     -10.196   6.296  70.637  1.00  0.00    -0.194 C  
HETATM    7  C   UNL     1      -9.186   7.450  70.531  1.00  0.00    -0.157 C  
HETATM    8  N   UNL     1     -10.796   6.301  71.952  1.00  0.00    -0.233 NA 
HETATM    9  H   UNL     1     -10.257   5.764  67.873  1.00  0.00     0.000 HD 
HETATM   10  C   UNL     1      -8.680   7.650  69.100  1.00  0.00    -0.139 C  
HETATM   11  O   UNL     1     -11.527   4.804  73.530  1.00  0.00    -0.320 OA 
HETATM   12  C   UNL     1     -11.280   6.424  69.534  1.00  0.00    -0.412 C  
HETATM   13  C   UNL     1      -9.502   4.921  70.576  1.00  0.00    -0.232 C  
HETATM   14  C   UNL     1     -10.911   5.052  72.509  1.00  0.00    -0.177 C  
HETATM   15  C   UNL     1     -10.181   4.065  71.647  1.00  0.00    -0.110 C  
HETATM   16  N   UNL     1     -10.728   6.612  68.189  1.00  0.00    -0.239 NA 
BRANCH   5  17
HETATM   17  C   UNL     1      -9.176   7.813  66.652  1.00  0.00    -0.220 A  
HETATM   18  C   UNL     1      -7.981   7.889  64.086  1.00  0.00    -0.125 A  
HETATM   19  C   UNL     1      -8.442   9.062  64.677  1.00  0.00    -0.194 A  
HETATM   20  C   UNL     1      -9.037   9.021  65.943  1.00  0.00    -0.264 A  
HETATM   21  C   UNL     1      -8.735   6.639  66.012  1.00  0.00    -0.155 A  
HETATM   22  C   UNL     1      -8.135   6.679  64.748  1.00  0.00    -0.099 A  
ENDBRANCH   5  17
ENDBRANCH   4   5
ENDBRANCH   3   4
ENDBRANCH   2   3
BRANCH   2  23
HETATM   23  C   UNL     1     -10.503  12.394  67.447  1.00  0.00    -0.229 A  
HETATM   24  F   UNL     1      -9.026  16.286  67.808  1.00  0.00    -0.188 F  
HETATM   25  C   UNL     1     -10.001  13.701  67.543  1.00  0.00    -0.230 A  
HETATM   26  F   UNL     1     -13.306  12.040  64.196  1.00  0.00    -0.486 F  
HETATM   27  C   UNL     1     -10.150  14.618  66.490  1.00  0.00    -0.286 A  
HETATM   28  C   UNL     1     -10.808  14.208  65.320  1.00  0.00    -0.356 A  
HETATM   29  F   UNL     1     -11.414  11.423  63.317  1.00  0.00    -0.464 F  
HETATM   30  C   UNL     1      -9.634  16.033  66.615  1.00  0.00    -0.239 C  
HETATM   31  F   UNL     1     -12.151  13.445  63.006  1.00  0.00    -0.582 F  
HETATM   32  C   UNL     1     -12.035  12.461  63.942  1.00  0.00    -0.486 C  
HETATM   33  F   UNL     1      -8.720  16.341  65.656  1.00  0.00    -0.307 F  
HETATM   34  F   UNL     1     -10.627  16.957  66.500  1.00  0.00    -0.308 F  
HETATM   35  C   UNL     1     -11.154  12.008  66.264  1.00  0.00    -0.363 A  
HETATM   36  C   UNL     1     -11.313  12.904  65.193  1.00  0.00    -0.331 A  
ENDBRANCH   2  23
TORSDOF 5
ENDMDL
MODEL      116
REMARK 921   NORMALIZED FREE ENERGY PREDICTED BY IDOCK:   -5.64 KCAL/MOL
REMARK 922        TOTAL FREE ENERGY PREDICTED BY IDOCK:  -10.15 KCAL/MOL
REMARK 923 INTER-LIGAND FREE ENERGY PREDICTED BY IDOCK:   -8.77 KCAL/MOL
REMARK 924 INTRA-LIGAND FREE ENERGY PREDICTED BY IDOCK:   -1.37 KCAL/MOL
REMARK 927      BINDING AFFINITY PREDICTED BY RF-SCORE:    0.00 PKD
ROOT
HETATM    1  C   UNL     1     -12.413  10.525  70.158  1.00  0.00    -0.297 C  
HETATM    2  C   UNL     1     -11.225  11.294  69.584  1.00  0.00    -0.251 C  
ENDROOT
BRANCH   2   3
HETATM    3  O   UNL     1     -11.098  11.076  68.179  1.00  0.00    -0.226 OA 
BRANCH   3   4
HETATM    4  C   UNL     1      -9.752  10.834  67.742  1.00  0.00    -0.162 C  
BRANCH   4   5
HETATM    5  C   UNL     1      -9.755  10.480  66.213  1.00  0.00    -0.205 C  
HETATM    6  C   UNL     1      -8.073   7.998  66.149  1.00  0.00    -0.111 C  
HETATM    7  C   UNL     1      -7.428   9.390  66.241  1.00  0.00    -0.096 C  
HETATM    8  N   UNL     1      -7.294   7.055  66.921  1.00  0.00    -0.076 NA 
HETATM    9  H   UNL     1     -10.496   8.917  65.051  1.00  0.00     0.000 HD 
HETATM   10  C   UNL     1      -8.316  10.482  65.641  1.00  0.00    -0.167 C  
HETATM   11  O   UNL     1      -6.627   4.861  66.818  1.00  0.00    -0.047 OA 
HETATM   12  C   UNL     1      -9.539   8.047  66.654  1.00  0.00    -0.230 C  
HETATM   13  C   UNL     1      -7.997   7.424  64.721  1.00  0.00    -0.127 C  
HETATM   14  C   UNL     1      -7.109   5.849  66.293  1.00  0.00    -0.068 C  
HETATM   15  C   UNL     1      -7.613   5.952  64.883  1.00  0.00    -0.090 C  
HETATM   16  N   UNL     1     -10.334   9.115  66.038  1.00  0.00    -0.048 NA 
BRANCH   5  17
HETATM   17  C   UNL     1     -10.585  11.510  65.401  1.00  0.00    -0.336 A  
HETATM   18  C   UNL     1     -12.064  13.415  63.915  1.00  0.00    -0.514 A  
HETATM   19  C   UNL     1     -11.044  13.832  64.765  1.00  0.00    -0.380 A  
HETATM   20  C   UNL     1     -10.318  12.889  65.502  1.00  0.00    -0.304 A  
HETATM   21  C   UNL     1     -11.648  11.124  64.562  1.00  0.00     0.320 A  
HETATM   22  C   UNL     1     -12.371  12.065  63.820  1.00  0.00    -0.602 A  
ENDBRANCH   5  17
ENDBRANCH   4   5
ENDBRANCH   3   4
ENDBRANCH   2   3
BRANCH   2  23
HETATM   23  C   UNL     1     -11.424  12.781  69.832  1.00  0.00    -0.141 A  
HETATM   24  F   UNL     1     -13.641  13.975  73.165  1.00  0.00    -0.533 F  
HETATM   25  C   UNL     1     -12.154  13.203  70.953  1.00  0.00    -0.209 A  
HETATM   26  F   UNL     1     -11.198  15.892  66.862  1.00  0.00    -0.282 F  
HETATM   27  C   UNL     1     -12.434  14.562  71.171  1.00  0.00    -0.411 A  
HETATM   28  C   UNL     1     -11.963  15.509  70.248  1.00  0.00    -0.401 A  
HETATM   29  F   UNL     1      -9.368  16.142  68.012  1.00  0.00    -0.197 F  
HETATM   30  C   UNL     1     -13.248  15.004  72.364  1.00  0.00    -0.391 C  
HETATM   31  F   UNL     1     -11.088  17.409  68.414  1.00  0.00    -0.323 F  
HETATM   32  C   UNL     1     -10.725  16.129  68.117  1.00  0.00    -0.315 C  
HETATM   33  F   UNL     1     -12.569  15.866  73.169  1.00  0.00    -0.427 F  
HETATM   34  F   UNL     1     -14.390  15.649  72.000  1.00  0.00    -0.560 F  
HETATM   35  C   UNL     1     -10.961  13.750  68.925  1.00  0.00    -0.281 A  
HETATM   36  C   UNL     1     -11.223  15.116  69.122  1.00  0.00    -0.288 A  
ENDBRANCH   2  23
TORSDOF 5
ENDMDL
MODEL      117
REMARK 921   NORMALIZED FREE ENERGY PREDICTED BY IDOCK:   -5.61 KCAL/MOL
REMARK 922        TOTAL FREE ENERGY PREDICTED BY IDOCK:  -10.11 KCAL/MOL
REMARK 923 INTER-LIGAND FREE ENERGY PREDICTED BY IDOCK:   -8.78 KCAL/MOL
REMARK 924 INTRA-LIGAND FREE ENERGY PREDICTED BY IDOCK:   -1.33 KCAL/MOL
REMARK 927      BINDING AFFINITY PREDICTED BY RF-SCORE:    0.00 PKD
ROOT
HETATM    1  C   UNL     1     -11.631  14.746  66.200  1.00  0.00    -0.292 C  
HETATM    2  C   UNL     1     -10.934  14.462  67.529  1.00  0.00    -0.293 C  
ENDROOT
BRANCH   2   3
HETATM    3  O   UNL     1     -10.125  13.289  67.447  1.00  0.00    -0.229 OA 
BRANCH   3   4
HETATM    4  C   UNL     1     -10.860  12.061  67.565  1.00  0.00    -0.241 C  
BRANCH   4   5
HETATM    5  C   UNL     1      -9.973  10.871  67.055  1.00  0.00    -0.192 C  
HETATM    6  C   UNL     1      -9.416   9.381  69.598  1.00  0.00    -0.189 C  
HETATM    7  C   UNL     1      -8.632  10.653  69.237  1.00  0.00    -0.096 C  
HETATM    8  N   UNL     1      -9.619   9.331  71.029  1.00  0.00    -0.276 NA 
HETATM    9  H   UNL     1     -10.181   8.801  66.952  1.00  0.00     0.000 HD 
HETATM   10  C   UNL     1      -8.577  10.893  67.727  1.00  0.00    -0.128 C  
HETATM   11  O   UNL     1      -9.681   7.778  72.718  1.00  0.00    -0.187 OA 
HETATM   12  C   UNL     1     -10.773   9.351  68.847  1.00  0.00    -0.178 C  
HETATM   13  C   UNL     1      -8.599   8.106  69.318  1.00  0.00    -0.135 C  
HETATM   14  C   UNL     1      -9.414   8.087  71.571  1.00  0.00    -0.160 C  
HETATM   15  C   UNL     1      -8.835   7.187  70.518  1.00  0.00    -0.154 C  
HETATM   16  N   UNL     1     -10.649   9.586  67.404  1.00  0.00    -0.279 NA 
BRANCH   5  17
HETATM   17  C   UNL     1      -9.757  10.951  65.520  1.00  0.00    -0.282 A  
HETATM   18  C   UNL     1      -9.383  11.135  62.718  1.00  0.00    -0.377 A  
HETATM   19  C   UNL     1     -10.534  11.653  63.305  1.00  0.00    -0.438 A  
HETATM   20  C   UNL     1     -10.719  11.556  64.689  1.00  0.00    -0.379 A  
HETATM   21  C   UNL     1      -8.622  10.402  64.892  1.00  0.00    -0.190 A  
HETATM   22  C   UNL     1      -8.433  10.504  63.509  1.00  0.00    -0.140 A  
ENDBRANCH   5  17
ENDBRANCH   4   5
ENDBRANCH   3   4
ENDBRANCH   2   3
BRANCH   2  23
HETATM   23  C   UNL     1     -10.048  15.644  67.892  1.00  0.00    -0.225 A  
HETATM   24  F   UNL     1     -11.474  19.506  67.187  1.00  0.00    -0.456 F  
HETATM   25  C   UNL     1     -10.513  16.949  67.676  1.00  0.00    -0.332 A  
HETATM   26  F   UNL     1      -5.758  15.564  68.266  1.00  0.00    -0.090 F  
HETATM   27  C   UNL     1      -9.694  18.064  67.915  1.00  0.00    -0.297 A  
HETATM   28  C   UNL     1      -8.388  17.858  68.389  1.00  0.00    -0.307 A  
HETATM   29  F   UNL     1      -6.454  15.702  70.322  1.00  0.00    -0.151 F  
HETATM   30  C   UNL     1     -10.193  19.465  67.650  1.00  0.00    -0.415 C  
HETATM   31  F   UNL     1      -5.779  17.486  69.280  1.00  0.00    -0.169 F  
HETATM   32  C   UNL     1      -6.490  16.335  69.118  1.00  0.00    -0.175 C  
HETATM   33  F   UNL     1     -10.172  20.246  68.763  1.00  0.00    -0.504 F  
HETATM   34  F   UNL     1      -9.441  20.114  66.719  1.00  0.00    -0.420 F  
HETATM   35  C   UNL     1      -8.738  15.466  68.369  1.00  0.00    -0.171 A  
HETATM   36  C   UNL     1      -7.899  16.563  68.622  1.00  0.00    -0.226 A  
ENDBRANCH   2  23
TORSDOF 5
ENDMDL
MODEL      118
REMARK 921   NORMALIZED FREE ENERGY PREDICTED BY IDOCK:   -5.59 KCAL/MOL
REMARK 922        TOTAL FREE ENERGY PREDICTED BY IDOCK:  -10.08 KCAL/MOL
REMARK 923 INTER-LIGAND FREE ENERGY PREDICTED BY IDOCK:   -8.75 KCAL/MOL
REMARK 924 INTRA-LIGAND FREE ENERGY PREDICTED BY IDOCK:   -1.33 KCAL/MOL
REMARK 927      BINDING AFFINITY PREDICTED BY RF-SCORE:    0.00 PKD
ROOT
HETATM    1  C   UNL     1     -11.675  10.630  69.354  1.00  0.00    -0.344 C  
HETATM    2  C   UNL     1     -10.503  10.210  68.469  1.00  0.00    -0.195 C  
ENDROOT
BRANCH   2   3
HETATM    3  O   UNL     1     -10.598   8.833  68.106  1.00  0.00    -0.212 OA 
BRANCH   3   4
HETATM    4  C   UNL     1      -9.390   8.086  68.319  1.00  0.00    -0.140 C  
BRANCH   4   5
HETATM    5  C   UNL     1      -9.735   6.726  69.022  1.00  0.00    -0.145 C  
HETATM    6  C   UNL     1      -9.326   4.758  66.796  1.00  0.00    -0.143 C  
HETATM    7  C   UNL     1     -10.611   5.597  66.886  1.00  0.00    -0.367 C  
HETATM    8  N   UNL     1      -8.967   4.574  65.407  1.00  0.00    -0.135 NA 
HETATM    9  H   UNL     1      -8.677   5.003  69.524  1.00  0.00     0.000 HD 
HETATM   10  C   UNL     1     -10.926   6.026  68.320  1.00  0.00    -0.347 C  
HETATM   11  O   UNL     1      -8.068   2.958  64.048  1.00  0.00    -0.081 OA 
HETATM   12  C   UNL     1      -8.175   5.447  67.576  1.00  0.00    -0.100 C  
HETATM   13  C   UNL     1      -9.548   3.316  67.292  1.00  0.00    -0.098 C  
HETATM   14  C   UNL     1      -8.564   3.297  65.107  1.00  0.00    -0.109 C  
HETATM   15  C   UNL     1      -8.814   2.416  66.296  1.00  0.00    -0.131 C  
HETATM   16  N   UNL     1      -8.543   5.831  68.943  1.00  0.00    -0.106 NA 
BRANCH   5  17
HETATM   17  C   UNL     1     -10.129   6.947  70.508  1.00  0.00    -0.201 A  
HETATM   18  C   UNL     1     -10.861   7.309  73.220  1.00  0.00    -0.404 A  
HETATM   19  C   UNL     1     -11.612   6.473  72.399  1.00  0.00    -0.292 A  
HETATM   20  C   UNL     1     -11.251   6.300  71.058  1.00  0.00    -0.372 A  
HETATM   21  C   UNL     1      -9.413   7.816  71.353  1.00  0.00    -0.173 A  
HETATM   22  C   UNL     1      -9.769   7.986  72.695  1.00  0.00    -0.332 A  
ENDBRANCH   5  17
ENDBRANCH   4   5
ENDBRANCH   3   4
ENDBRANCH   2   3
BRANCH   2  23
HETATM   23  C   UNL     1     -10.505  11.052  67.202  1.00  0.00    -0.274 A  
HETATM   24  F   UNL     1     -12.637  14.644  67.190  1.00  0.00    -0.265 F  
HETATM   25  C   UNL     1     -11.204  12.268  67.181  1.00  0.00    -0.365 A  
HETATM   26  F   UNL     1      -9.770   9.613  63.210  1.00  0.00    -0.195 F  
HETATM   27  C   UNL     1     -11.303  13.032  66.007  1.00  0.00    -0.343 A  
HETATM   28  C   UNL     1     -10.680  12.565  64.839  1.00  0.00    -0.327 A  
HETATM   29  F   UNL     1      -7.958  10.711  63.705  1.00  0.00    -0.146 F  
HETATM   30  C   UNL     1     -12.084  14.325  65.986  1.00  0.00    -0.408 C  
HETATM   31  F   UNL     1      -9.500  11.647  62.493  1.00  0.00    -0.371 F  
HETATM   32  C   UNL     1      -9.306  10.841  63.575  1.00  0.00    -0.279 C  
HETATM   33  F   UNL     1     -11.318  15.392  65.632  1.00  0.00    -0.327 F  
HETATM   34  F   UNL     1     -13.116  14.291  65.101  1.00  0.00    -0.429 F  
HETATM   35  C   UNL     1      -9.888  10.609  66.020  1.00  0.00    -0.280 A  
HETATM   36  C   UNL     1      -9.967  11.356  64.833  1.00  0.00    -0.311 A  
ENDBRANCH   2  23
TORSDOF 5
ENDMDL
MODEL      119
REMARK 921   NORMALIZED FREE ENERGY PREDICTED BY IDOCK:   -5.58 KCAL/MOL
REMARK 922        TOTAL FREE ENERGY PREDICTED BY IDOCK:  -10.08 KCAL/MOL
REMARK 923 INTER-LIGAND FREE ENERGY PREDICTED BY IDOCK:   -9.18 KCAL/MOL
REMARK 924 INTRA-LIGAND FREE ENERGY PREDICTED BY IDOCK:   -0.89 KCAL/MOL
REMARK 927      BINDING AFFINITY PREDICTED BY RF-SCORE:    0.00 PKD
ROOT
HETATM    1  C   UNL     1      -8.692  10.008  69.260  1.00  0.00    -0.182 C  
HETATM    2  C   UNL     1      -9.828  10.891  68.746  1.00  0.00    -0.196 C  
ENDROOT
BRANCH   2   3
HETATM    3  O   UNL     1     -10.369  10.380  67.529  1.00  0.00    -0.197 OA 
BRANCH   3   4
HETATM    4  C   UNL     1     -10.989  11.374  66.700  1.00  0.00    -0.285 C  
BRANCH   4   5
HETATM    5  C   UNL     1      -9.921  11.978  65.721  1.00  0.00    -0.241 C  
HETATM    6  C   UNL     1     -10.195  14.919  66.243  1.00  0.00    -0.294 C  
HETATM    7  C   UNL     1     -11.196  14.178  65.342  1.00  0.00    -0.325 C  
HETATM    8  N   UNL     1     -10.886  15.946  66.989  1.00  0.00    -0.293 NA 
HETATM    9  H   UNL     1      -8.134  13.026  65.935  1.00  0.00     0.000 HD 
HETATM   10  C   UNL     1     -10.585  12.932  64.697  1.00  0.00    -0.384 C  
HETATM   11  O   UNL     1     -10.521  18.080  67.750  1.00  0.00    -0.380 OA 
HETATM   12  C   UNL     1      -9.489  13.923  67.201  1.00  0.00    -0.246 C  
HETATM   13  C   UNL     1      -9.167  15.719  65.420  1.00  0.00     0.326 C  
HETATM   14  C   UNL     1     -10.206  17.136  67.048  1.00  0.00    -0.313 C  
HETATM   15  C   UNL     1      -9.019  17.065  66.132  1.00  0.00    -0.243 C  
HETATM   16  N   UNL     1      -8.925  12.753  66.518  1.00  0.00    -0.149 NA 
BRANCH   5  17
HETATM   17  C   UNL     1      -9.199  10.860  64.922  1.00  0.00    -0.230 A  
HETATM   18  C   UNL     1      -7.890   8.841  63.427  1.00  0.00    -0.148 A  
HETATM   19  C   UNL     1      -9.009   9.482  62.904  1.00  0.00    -0.230 A  
HETATM   20  C   UNL     1      -9.657  10.476  63.647  1.00  0.00    -0.370 A  
HETATM   21  C   UNL     1      -8.088  10.165  65.439  1.00  0.00    -0.149 A  
HETATM   22  C   UNL     1      -7.436   9.176  64.695  1.00  0.00    -0.104 A  
ENDBRANCH   5  17
ENDBRANCH   4   5
ENDBRANCH   3   4
ENDBRANCH   2   3
BRANCH   2  23
HETATM   23  C   UNL     1     -10.933  10.943  69.790  1.00  0.00    -0.290 A  
HETATM   24  F   UNL     1     -12.317   7.354  71.419  1.00  0.00    -0.320 F  
HETATM   25  C   UNL     1     -11.403   9.750  70.359  1.00  0.00    -0.362 A  
HETATM   26  F   UNL     1     -13.779  14.135  70.300  1.00  0.00     0.063 F  
HETATM   27  C   UNL     1     -12.480   9.747  71.260  1.00  0.00    -0.461 A  
HETATM   28  C   UNL     1     -13.086  10.968  71.598  1.00  0.00    -0.543 A  
HETATM   29  F   UNL     1     -12.434  14.366  71.995  1.00  0.00    -0.365 F  
HETATM   30  C   UNL     1     -12.999   8.455  71.844  1.00  0.00    -0.355 C  
HETATM   31  F   UNL     1     -14.344  13.362  72.251  1.00  0.00    -0.537 F  
HETATM   32  C   UNL     1     -13.290  13.493  71.398  1.00  0.00    -0.221 C  
HETATM   33  F   UNL     1     -12.935   8.433  73.203  1.00  0.00    -0.161 F  
HETATM   34  F   UNL     1     -14.302   8.229  71.524  1.00  0.00    -0.429 F  
HETATM   35  C   UNL     1     -11.556  12.151  70.146  1.00  0.00    -0.202 A  
HETATM   36  C   UNL     1     -12.632  12.178  71.049  1.00  0.00    -0.359 A  
ENDBRANCH   2  23
TORSDOF 5
ENDMDL
MODEL      120
REMARK 921   NORMALIZED FREE ENERGY PREDICTED BY IDOCK:   -5.57 KCAL/MOL
REMARK 922        TOTAL FREE ENERGY PREDICTED BY IDOCK:  -10.06 KCAL/MOL
REMARK 923 INTER-LIGAND FREE ENERGY PREDICTED BY IDOCK:   -7.78 KCAL/MOL
REMARK 924 INTRA-LIGAND FREE ENERGY PREDICTED BY IDOCK:   -2.28 KCAL/MOL
REMARK 927      BINDING AFFINITY PREDICTED BY RF-SCORE:    0.00 PKD
ROOT
HETATM    1  C   UNL     1     -11.168  12.876  64.635  1.00  0.00    -0.353 C  
HETATM    2  C   UNL     1     -11.305  13.266  66.106  1.00  0.00    -0.309 C  
ENDROOT
BRANCH   2   3
HETATM    3  O   UNL     1     -10.983  12.170  66.962  1.00  0.00    -0.246 OA 
BRANCH   3   4
HETATM    4  C   UNL     1     -12.026  11.822  67.885  1.00  0.00    -0.098 C  
BRANCH   4   5
HETATM    5  C   UNL     1     -11.498  11.984  69.354  1.00  0.00    -0.296 C  
HETATM    6  C   UNL     1     -10.717   9.173  70.045  1.00  0.00    -0.232 C  
HETATM    7  C   UNL     1     -12.186   9.621  70.092  1.00  0.00     0.124 C  
HETATM    8  N   UNL     1     -10.645   7.801  69.594  1.00  0.00    -0.243 NA 
HETATM    9  H   UNL     1      -9.657  11.768  70.304  1.00  0.00     0.000 HD 
HETATM   10  C   UNL     1     -12.328  11.124  70.339  1.00  0.00    -0.430 C  
HETATM   11  O   UNL     1      -9.419   5.903  69.998  1.00  0.00    -0.154 OA 
HETATM   12  C   UNL     1      -9.897  10.104  69.114  1.00  0.00    -0.214 C  
HETATM   13  C   UNL     1     -10.093   9.108  71.453  1.00  0.00    -0.392 C  
HETATM   14  C   UNL     1      -9.757   7.033  70.304  1.00  0.00    -0.175 C  
HETATM   15  C   UNL     1      -9.269   7.819  71.485  1.00  0.00    -0.164 C  
HETATM   16  N   UNL     1     -10.077  11.530  69.406  1.00  0.00     0.132 NA 
BRANCH   5  17
HETATM   17  C   UNL     1     -11.595  13.461  69.824  1.00  0.00    -0.305 A  
HETATM   18  C   UNL     1     -11.743  16.167  70.649  1.00  0.00    -0.300 A  
HETATM   19  C   UNL     1     -10.544  15.648  70.169  1.00  0.00    -0.348 A  
HETATM   20  C   UNL     1     -10.472  14.309  69.767  1.00  0.00     0.205 A  
HETATM   21  C   UNL     1     -12.782  14.006  70.350  1.00  0.00    -0.316 A  
HETATM   22  C   UNL     1     -12.857  15.345  70.747  1.00  0.00    -0.524 A  
ENDBRANCH   5  17
ENDBRANCH   4   5
ENDBRANCH   3   4
ENDBRANCH   2   3
BRANCH   2  23
HETATM   23  C   UNL     1     -10.359  14.418  66.409  1.00  0.00    -0.289 A  
HETATM   24  F   UNL     1      -6.476  13.538  67.676  1.00  0.00    -0.126 F  
HETATM   25  C   UNL     1      -9.046  14.144  66.823  1.00  0.00    -0.266 A  
HETATM   26  F   UNL     1     -11.517  18.429  67.464  1.00  0.00    -0.133 F  
HETATM   27  C   UNL     1      -8.170  15.175  67.195  1.00  0.00    -0.251 A  
HETATM   28  C   UNL     1      -8.621  16.504  67.140  1.00  0.00    -0.208 A  
HETATM   29  F   UNL     1     -10.788  18.622  65.423  1.00  0.00    -0.498 F  
HETATM   30  C   UNL     1      -6.769  14.869  67.670  1.00  0.00    -0.177 C  
HETATM   31  F   UNL     1      -9.498  19.143  67.093  1.00  0.00    -0.308 F  
HETATM   32  C   UNL     1     -10.423  18.234  66.675  1.00  0.00    -0.360 C  
HETATM   33  F   UNL     1      -5.816  15.458  66.897  1.00  0.00     0.136 F  
HETATM   34  F   UNL     1      -6.547  15.304  68.940  1.00  0.00    -0.099 F  
HETATM   35  C   UNL     1     -10.784  15.756  66.360  1.00  0.00    -0.277 A  
HETATM   36  C   UNL     1      -9.927  16.808  66.723  1.00  0.00    -0.286 A  
ENDBRANCH   2  23
TORSDOF 5
ENDMDL
MODEL      121
REMARK 921   NORMALIZED FREE ENERGY PREDICTED BY IDOCK:   -5.55 KCAL/MOL
REMARK 922        TOTAL FREE ENERGY PREDICTED BY IDOCK:  -10.03 KCAL/MOL
REMARK 923 INTER-LIGAND FREE ENERGY PREDICTED BY IDOCK:   -8.24 KCAL/MOL
REMARK 924 INTRA-LIGAND FREE ENERGY PREDICTED BY IDOCK:   -1.79 KCAL/MOL
REMARK 927      BINDING AFFINITY PREDICTED BY RF-SCORE:    0.00 PKD
ROOT
HETATM    1  C   UNL     1     -10.792  14.040  64.735  1.00  0.00    -0.430 C  
HETATM    2  C   UNL     1     -11.458  13.516  66.006  1.00  0.00    -0.325 C  
ENDROOT
BRANCH   2   3
HETATM    3  O   UNL     1     -10.766  12.380  66.521  1.00  0.00    -0.230 OA 
BRANCH   3   4
HETATM    4  C   UNL     1      -9.336  12.480  66.442  1.00  0.00    -0.209 C  
BRANCH   4   5
HETATM    5  C   UNL     1      -8.701  11.946  67.775  1.00  0.00    -0.158 C  
HETATM    6  C   UNL     1      -6.875  14.200  68.538  1.00  0.00    -0.102 C  
HETATM    7  C   UNL     1      -6.469  13.182  67.460  1.00  0.00    -0.154 C  
HETATM    8  N   UNL     1      -6.367  15.506  68.182  1.00  0.00    -0.114 NA 
HETATM    9  H   UNL     1      -8.756  12.512  69.779  1.00  0.00     0.000 HD 
HETATM   10  C   UNL     1      -7.161  11.830  67.647  1.00  0.00    -0.111 C  
HETATM   11  O   UNL     1      -5.484  17.361  69.206  1.00  0.00    -0.170 OA 
HETATM   12  C   UNL     1      -8.418  14.232  68.697  1.00  0.00    -0.142 C  
HETATM   13  C   UNL     1      -6.184  13.913  69.885  1.00  0.00    -0.136 C  
HETATM   14  C   UNL     1      -5.823  16.191  69.239  1.00  0.00    -0.130 C  
HETATM   15  C   UNL     1      -5.741  15.274  70.424  1.00  0.00    -0.132 C  
HETATM   16  N   UNL     1      -9.017  12.905  68.874  1.00  0.00     0.219 NA 
BRANCH   5  17
HETATM   17  C   UNL     1      -9.250  10.538  68.131  1.00  0.00    -0.148 A  
HETATM   18  C   UNL     1     -10.217   7.952  68.765  1.00  0.00    -0.218 A  
HETATM   19  C   UNL     1      -9.480   8.157  67.602  1.00  0.00    -0.172 A  
HETATM   20  C   UNL     1      -9.008   9.437  67.289  1.00  0.00    -0.143 A  
HETATM   21  C   UNL     1     -10.031  10.306  69.280  1.00  0.00    -0.244 A  
HETATM   22  C   UNL     1     -10.498   9.026  69.598  1.00  0.00    -0.227 A  
ENDBRANCH   5  17
ENDBRANCH   4   5
ENDBRANCH   3   4
ENDBRANCH   2   3
BRANCH   2  23
HETATM   23  C   UNL     1     -11.454  14.612  67.061  1.00  0.00    -0.379 A  
HETATM   24  F   UNL     1      -9.524  18.215  66.197  1.00  0.00    -0.299 F  
HETATM   25  C   UNL     1     -10.823  15.835  66.786  1.00  0.00    -0.254 A  
HETATM   26  F   UNL     1     -11.954  14.040  71.300  1.00  0.00    -0.386 F  
HETATM   27  C   UNL     1     -10.721  16.838  67.762  1.00  0.00    -0.321 A  
HETATM   28  C   UNL     1     -11.272  16.608  69.033  1.00  0.00    -0.165 A  
HETATM   29  F   UNL     1     -13.841  14.921  70.671  1.00  0.00    -0.322 F  
HETATM   30  C   UNL     1     -10.013  18.139  67.467  1.00  0.00    -0.332 C  
HETATM   31  F   UNL     1     -12.308  16.167  71.577  1.00  0.00    -0.452 F  
HETATM   32  C   UNL     1     -12.498  15.138  70.704  1.00  0.00    -0.388 C  
HETATM   33  F   UNL     1     -10.822  19.221  67.622  1.00  0.00    -0.503 F  
HETATM   34  F   UNL     1      -8.946  18.345  68.287  1.00  0.00    -0.281 F  
HETATM   35  C   UNL     1     -11.999  14.408  68.339  1.00  0.00    -0.328 A  
HETATM   36  C   UNL     1     -11.916  15.397  69.334  1.00  0.00    -0.351 A  
ENDBRANCH   2  23
TORSDOF 5
ENDMDL
MODEL      122
REMARK 921   NORMALIZED FREE ENERGY PREDICTED BY IDOCK:   -5.54 KCAL/MOL
REMARK 922        TOTAL FREE ENERGY PREDICTED BY IDOCK:  -10.02 KCAL/MOL
REMARK 923 INTER-LIGAND FREE ENERGY PREDICTED BY IDOCK:   -8.74 KCAL/MOL
REMARK 924 INTRA-LIGAND FREE ENERGY PREDICTED BY IDOCK:   -1.29 KCAL/MOL
REMARK 927      BINDING AFFINITY PREDICTED BY RF-SCORE:    0.00 PKD
ROOT
HETATM    1  C   UNL     1     -11.954  10.849  69.073  1.00  0.00    -0.322 C  
HETATM    2  C   UNL     1     -10.485  11.138  68.766  1.00  0.00    -0.203 C  
ENDROOT
BRANCH   2   3
HETATM    3  O   UNL     1      -9.837   9.990  68.219  1.00  0.00    -0.143 OA 
BRANCH   3   4
HETATM    4  C   UNL     1     -10.722   8.893  67.943  1.00  0.00    -0.121 C  
BRANCH   4   5
HETATM    5  C   UNL     1     -10.205   7.607  68.679  1.00  0.00    -0.199 C  
HETATM    6  C   UNL     1      -8.892   6.099  66.443  1.00  0.00    -0.141 C  
HETATM    7  C   UNL     1     -10.419   6.081  66.622  1.00  0.00    -0.291 C  
HETATM    8  N   UNL     1      -8.572   6.081  65.033  1.00  0.00    -0.093 NA 
HETATM    9  H   UNL     1      -8.337   6.793  69.114  1.00  0.00     0.000 HD 
HETATM   10  C   UNL     1     -10.837   6.330  68.073  1.00  0.00    -0.409 C  
HETATM   11  O   UNL     1      -7.001   5.179  63.624  1.00  0.00    -0.045 OA 
HETATM   12  C   UNL     1      -8.282   7.349  67.131  1.00  0.00    -0.118 C  
HETATM   13  C   UNL     1      -8.240   4.804  66.965  1.00  0.00    -0.106 C  
HETATM   14  C   UNL     1      -7.541   5.234  64.714  1.00  0.00    -0.083 C  
HETATM   15  C   UNL     1      -7.186   4.420  65.925  1.00  0.00    -0.075 C  
HETATM   16  N   UNL     1      -8.723   7.527  68.519  1.00  0.00    -0.128 NA 
BRANCH   5  17
HETATM   17  C   UNL     1     -10.570   7.641  70.188  1.00  0.00    -0.239 A  
HETATM   18  C   UNL     1     -11.255   7.665  72.936  1.00  0.00    -0.426 A  
HETATM   19  C   UNL     1     -12.131   7.119  72.002  1.00  0.00    -0.329 A  
HETATM   20  C   UNL     1     -11.792   7.113  70.645  1.00  0.00    -0.334 A  
HETATM   21  C   UNL     1      -9.723   8.221  71.152  1.00  0.00    -0.209 A  
HETATM   22  C   UNL     1     -10.057   8.223  72.511  1.00  0.00    -0.376 A  
ENDBRANCH   5  17
ENDBRANCH   4   5
ENDBRANCH   3   4
ENDBRANCH   2   3
BRANCH   2  23
HETATM   23  C   UNL     1     -10.399  12.275  67.758  1.00  0.00    -0.216 A  
HETATM   24  F   UNL     1     -13.047  12.291  64.527  1.00  0.00    -0.545 F  
HETATM   25  C   UNL     1     -11.288  12.306  66.673  1.00  0.00    -0.398 A  
HETATM   26  F   UNL     1      -6.940  14.728  67.007  1.00  0.00    -0.179 F  
HETATM   27  C   UNL     1     -11.185  13.288  65.676  1.00  0.00    -0.304 A  
HETATM   28  C   UNL     1     -10.176  14.259  65.779  1.00  0.00    -0.351 A  
HETATM   29  F   UNL     1      -8.285  16.049  68.092  1.00  0.00    -0.144 F  
HETATM   30  C   UNL     1     -12.127  13.296  64.494  1.00  0.00    -0.408 C  
HETATM   31  F   UNL     1      -8.157  16.167  65.925  1.00  0.00    -0.292 F  
HETATM   32  C   UNL     1      -8.181  15.290  66.968  1.00  0.00    -0.233 C  
HETATM   33  F   UNL     1     -12.838  14.451  64.402  1.00  0.00    -0.334 F  
HETATM   34  F   UNL     1     -11.471  13.160  63.310  1.00  0.00    -0.460 F  
HETATM   35  C   UNL     1      -9.400  13.259  67.840  1.00  0.00    -0.214 A  
HETATM   36  C   UNL     1      -9.278  14.256  66.858  1.00  0.00    -0.268 A  
ENDBRANCH   2  23
TORSDOF 5
ENDMDL
MODEL      123
REMARK 921   NORMALIZED FREE ENERGY PREDICTED BY IDOCK:   -5.53 KCAL/MOL
REMARK 922        TOTAL FREE ENERGY PREDICTED BY IDOCK:  -10.01 KCAL/MOL
REMARK 923 INTER-LIGAND FREE ENERGY PREDICTED BY IDOCK:   -8.00 KCAL/MOL
REMARK 924 INTRA-LIGAND FREE ENERGY PREDICTED BY IDOCK:   -2.01 KCAL/MOL
REMARK 927      BINDING AFFINITY PREDICTED BY RF-SCORE:    0.00 PKD
ROOT
HETATM    1  C   UNL     1     -10.633   5.523  66.646  1.00  0.00    -0.365 C  
HETATM    2  C   UNL     1     -10.915   6.615  67.677  1.00  0.00    -0.309 C  
ENDROOT
BRANCH   2   3
HETATM    3  O   UNL     1     -10.588   6.176  68.995  1.00  0.00    -0.217 OA 
BRANCH   3   4
HETATM    4  C   UNL     1     -11.624   6.406  69.963  1.00  0.00    -0.377 C  
BRANCH   4   5
HETATM    5  C   UNL     1     -11.057   7.280  71.137  1.00  0.00    -0.253 C  
HETATM    6  C   UNL     1      -9.560   5.246  72.754  1.00  0.00    -0.149 C  
HETATM    7  C   UNL     1     -11.088   5.372  72.858  1.00  0.00    -0.360 C  
HETATM    8  N   UNL     1      -9.181   3.856  72.883  1.00  0.00    -0.106 NA 
HETATM    9  H   UNL     1      -9.160   7.856  71.779  1.00  0.00     0.000 HD 
HETATM   10  C   UNL     1     -11.581   6.777  72.505  1.00  0.00    -0.236 C  
HETATM   11  O   UNL     1      -7.500   2.595  73.804  1.00  0.00    -0.047 OA 
HETATM   12  C   UNL     1      -9.059   5.832  71.408  1.00  0.00    -0.140 C  
HETATM   13  C   UNL     1      -8.848   5.912  73.948  1.00  0.00    -0.126 C  
HETATM   14  C   UNL     1      -8.086   3.656  73.684  1.00  0.00    -0.083 C  
HETATM   15  C   UNL     1      -7.730   4.950  74.356  1.00  0.00    -0.089 C  
HETATM   16  N   UNL     1      -9.567   7.180  71.132  1.00  0.00    -0.165 NA 
BRANCH   5  17
HETATM   17  C   UNL     1     -11.485   8.765  70.987  1.00  0.00    -0.337 A  
HETATM   18  C   UNL     1     -12.279  11.474  70.755  1.00  0.00    -0.463 A  
HETATM   19  C   UNL     1     -13.019  10.594  71.538  1.00  0.00    -0.566 A  
HETATM   20  C   UNL     1     -12.627   9.255  71.647  1.00  0.00    -0.446 A  
HETATM   21  C   UNL     1     -10.779   9.671  70.172  1.00  0.00    -0.321 A  
HETATM   22  C   UNL     1     -11.166  11.012  70.067  1.00  0.00    -0.303 A  
ENDBRANCH   5  17
ENDBRANCH   4   5
ENDBRANCH   3   4
ENDBRANCH   2   3
BRANCH   2  23
HETATM   23  C   UNL     1     -10.080   7.843  67.348  1.00  0.00    -0.292 A  
HETATM   24  F   UNL     1      -6.066   7.900  68.505  1.00  0.00    -0.035 F  
HETATM   25  C   UNL     1      -8.726   7.876  67.716  1.00  0.00    -0.127 A  
HETATM   26  F   UNL     1     -11.593  11.808  66.618  1.00  0.00    -0.376 F  
HETATM   27  C   UNL     1      -7.943   9.023  67.509  1.00  0.00    -0.101 A  
HETATM   28  C   UNL     1      -8.533  10.150  66.913  1.00  0.00    -0.126 A  
HETATM   29  F   UNL     1     -10.996  11.112  64.646  1.00  0.00    -0.385 F  
HETATM   30  C   UNL     1      -6.495   9.062  67.937  1.00  0.00    -0.057 C  
HETATM   31  F   UNL     1      -9.682  12.418  65.782  1.00  0.00    -0.242 F  
HETATM   32  C   UNL     1     -10.527  11.355  65.900  1.00  0.00    -0.258 C  
HETATM   33  F   UNL     1      -5.651   9.305  66.898  1.00  0.00    -0.038 F  
HETATM   34  F   UNL     1      -6.254  10.036  68.856  1.00  0.00    -0.044 F  
HETATM   35  C   UNL     1     -10.645   8.982  66.751  1.00  0.00    -0.201 A  
HETATM   36  C   UNL     1      -9.883  10.141  66.528  1.00  0.00    -0.268 A  
ENDBRANCH   2  23
TORSDOF 5
ENDMDL
MODEL      124
REMARK 921   NORMALIZED FREE ENERGY PREDICTED BY IDOCK:   -5.52 KCAL/MOL
REMARK 922        TOTAL FREE ENERGY PREDICTED BY IDOCK:   -9.99 KCAL/MOL
REMARK 923 INTER-LIGAND FREE ENERGY PREDICTED BY IDOCK:   -6.55 KCAL/MOL
REMARK 924 INTRA-LIGAND FREE ENERGY PREDICTED BY IDOCK:   -3.45 KCAL/MOL
REMARK 927      BINDING AFFINITY PREDICTED BY RF-SCORE:    0.00 PKD
ROOT
HETATM    1  C   UNL     1     -12.339   7.012  70.961  1.00  0.00    -0.402 C  
HETATM    2  C   UNL     1     -11.256   7.057  69.884  1.00  0.00    -0.246 C  
ENDROOT
BRANCH   2   3
HETATM    3  O   UNL     1     -10.971   8.400  69.495  1.00  0.00    -0.170 OA 
BRANCH   3   4
HETATM    4  C   UNL     1     -10.607   8.544  68.114  1.00  0.00    -0.124 C  
BRANCH   4   5
HETATM    5  C   UNL     1      -9.483   9.631  67.981  1.00  0.00    -0.132 C  
HETATM    6  C   UNL     1     -10.865  11.759  66.382  1.00  0.00    -0.282 C  
HETATM    7  C   UNL     1     -10.295  10.503  65.704  1.00  0.00    -0.274 C  
HETATM    8  N   UNL     1     -12.083  12.157  65.713  1.00  0.00    -0.554 NA 
HETATM    9  H   UNL     1      -9.216  11.584  68.657  1.00  0.00     0.000 HD 
HETATM   10  C   UNL     1      -9.136   9.891  66.494  1.00  0.00    -0.179 C  
HETATM   11  O   UNL     1     -13.183  14.079  65.111  1.00  0.00    -0.768 OA 
HETATM   12  C   UNL     1     -11.125  11.490  67.887  1.00  0.00    -0.256 C  
HETATM   13  C   UNL     1      -9.946  12.981  66.188  1.00  0.00    -0.278 C  
HETATM   14  C   UNL     1     -12.182  13.510  65.507  1.00  0.00    -0.451 C  
HETATM   15  C   UNL     1     -10.876  14.155  65.869  1.00  0.00    -0.294 C  
HETATM   16  N   UNL     1      -9.974  10.905  68.585  1.00  0.00    -0.182 NA 
BRANCH   5  17
HETATM   17  C   UNL     1      -8.180   9.180  68.695  1.00  0.00    -0.114 A  
HETATM   18  C   UNL     1      -5.787   8.346  69.959  1.00  0.00    -0.024 A  
HETATM   19  C   UNL     1      -6.238   7.692  68.817  1.00  0.00    -0.036 A  
HETATM   20  C   UNL     1      -7.423   8.102  68.197  1.00  0.00    -0.097 A  
HETATM   21  C   UNL     1      -7.718   9.795  69.874  1.00  0.00    -0.162 A  
HETATM   22  C   UNL     1      -6.530   9.390  70.492  1.00  0.00    -0.078 A  
ENDBRANCH   5  17
ENDBRANCH   4   5
ENDBRANCH   3   4
ENDBRANCH   2   3
BRANCH   2  23
HETATM   23  C   UNL     1      -9.984   6.424  70.427  1.00  0.00    -0.213 A  
HETATM   24  F   UNL     1      -8.236   8.063  73.849  1.00  0.00    -0.204 F  
HETATM   25  C   UNL     1      -9.388   6.951  71.583  1.00  0.00    -0.154 A  
HETATM   26  F   UNL     1      -7.179   4.057  68.174  1.00  0.00    -0.056 F  
HETATM   27  C   UNL     1      -8.168   6.452  72.066  1.00  0.00    -0.109 A  
HETATM   28  C   UNL     1      -7.544   5.400  71.377  1.00  0.00    -0.102 A  
HETATM   29  F   UNL     1      -8.205   2.597  69.418  1.00  0.00    -0.054 F  
HETATM   30  C   UNL     1      -7.518   7.046  73.293  1.00  0.00    -0.072 C  
HETATM   31  F   UNL     1      -6.253   3.350  70.008  1.00  0.00    -0.024 F  
HETATM   32  C   UNL     1      -7.447   3.726  69.468  1.00  0.00    -0.052 C  
HETATM   33  F   UNL     1      -7.338   6.131  74.283  1.00  0.00    -0.086 F  
HETATM   34  F   UNL     1      -6.288   7.563  73.028  1.00  0.00    -0.057 F  
HETATM   35  C   UNL     1      -9.340   5.370  69.758  1.00  0.00    -0.186 A  
HETATM   36  C   UNL     1      -8.121   4.849  70.222  1.00  0.00    -0.077 A  
ENDBRANCH   2  23
TORSDOF 5
ENDMDL
MODEL      125
REMARK 921   NORMALIZED FREE ENERGY PREDICTED BY IDOCK:   -5.52 KCAL/MOL
REMARK 922        TOTAL FREE ENERGY PREDICTED BY IDOCK:   -9.99 KCAL/MOL
REMARK 923 INTER-LIGAND FREE ENERGY PREDICTED BY IDOCK:   -8.82 KCAL/MOL
REMARK 924 INTRA-LIGAND FREE ENERGY PREDICTED BY IDOCK:   -1.17 KCAL/MOL
REMARK 927      BINDING AFFINITY PREDICTED BY RF-SCORE:    0.00 PKD
ROOT
HETATM    1  C   UNL     1     -11.560  10.843  69.034  1.00  0.00    -0.387 C  
HETATM    2  C   UNL     1     -10.429  10.159  68.268  1.00  0.00    -0.211 C  
ENDROOT
BRANCH   2   3
HETATM    3  O   UNL     1     -10.529   8.738  68.359  1.00  0.00    -0.207 OA 
BRANCH   3   4
HETATM    4  C   UNL     1      -9.371   8.104  68.923  1.00  0.00    -0.147 C  
BRANCH   4   5
HETATM    5  C   UNL     1      -9.722   6.623  69.306  1.00  0.00    -0.146 C  
HETATM    6  C   UNL     1      -9.425   5.217  66.674  1.00  0.00    -0.144 C  
HETATM    7  C   UNL     1     -10.689   6.029  67.000  1.00  0.00    -0.412 C  
HETATM    8  N   UNL     1      -9.115   5.353  65.268  1.00  0.00    -0.105 NA 
HETATM    9  H   UNL     1      -8.685   4.817  69.360  1.00  0.00     0.000 HD 
HETATM   10  C   UNL     1     -10.948   6.119  68.506  1.00  0.00    -0.404 C  
HETATM   11  O   UNL     1      -8.294   4.083  63.542  1.00  0.00    -0.089 OA 
HETATM   12  C   UNL     1      -8.236   5.692  67.550  1.00  0.00    -0.101 C  
HETATM   13  C   UNL     1      -9.661   3.702  66.832  1.00  0.00    -0.180 C  
HETATM   14  C   UNL     1      -8.748   4.175  64.668  1.00  0.00    -0.131 C  
HETATM   15  C   UNL     1      -8.979   3.046  65.630  1.00  0.00    -0.146 C  
HETATM   16  N   UNL     1      -8.552   5.755  68.981  1.00  0.00    -0.106 NA 
BRANCH   5  17
HETATM   17  C   UNL     1     -10.063   6.501  70.816  1.00  0.00    -0.211 A  
HETATM   18  C   UNL     1     -10.722   6.303  73.564  1.00  0.00    -0.262 A  
HETATM   19  C   UNL     1     -10.977   7.480  72.868  1.00  0.00    -0.434 A  
HETATM   20  C   UNL     1     -10.646   7.577  71.511  1.00  0.00    -0.236 A  
HETATM   21  C   UNL     1      -9.782   5.337  71.557  1.00  0.00    -0.215 A  
HETATM   22  C   UNL     1     -10.118   5.236  72.912  1.00  0.00    -0.203 A  
ENDBRANCH   5  17
ENDBRANCH   4   5
ENDBRANCH   3   4
ENDBRANCH   2   3
BRANCH   2  23
HETATM   23  C   UNL     1     -10.500  10.563  66.803  1.00  0.00    -0.302 A  
HETATM   24  F   UNL     1      -7.968   8.662  64.078  1.00  0.00    -0.125 F  
HETATM   25  C   UNL     1      -9.668   9.927  65.870  1.00  0.00    -0.326 A  
HETATM   26  F   UNL     1     -11.955  14.320  65.284  1.00  0.00    -0.341 F  
HETATM   27  C   UNL     1      -9.641  10.329  64.525  1.00  0.00    -0.378 A  
HETATM   28  C   UNL     1     -10.473  11.383  64.114  1.00  0.00    -0.421 A  
HETATM   29  F   UNL     1     -13.532  12.911  64.774  1.00  0.00    -0.208 F  
HETATM   30  C   UNL     1      -8.718   9.660  63.533  1.00  0.00    -0.222 C  
HETATM   31  F   UNL     1     -12.072  13.499  63.275  1.00  0.00    -0.542 F  
HETATM   32  C   UNL     1     -12.210  13.175  64.592  1.00  0.00    -0.414 C  
HETATM   33  F   UNL     1      -9.390   9.097  62.493  1.00  0.00    -0.233 F  
HETATM   34  F   UNL     1      -7.831  10.532  62.982  1.00  0.00    -0.151 F  
HETATM   35  C   UNL     1     -11.325  11.612  66.365  1.00  0.00    -0.312 A  
HETATM   36  C   UNL     1     -11.322  12.031  65.025  1.00  0.00    -0.365 A  
ENDBRANCH   2  23
TORSDOF 5
ENDMDL
MODEL      126
REMARK 921   NORMALIZED FREE ENERGY PREDICTED BY IDOCK:   -5.51 KCAL/MOL
REMARK 922        TOTAL FREE ENERGY PREDICTED BY IDOCK:   -9.99 KCAL/MOL
REMARK 923 INTER-LIGAND FREE ENERGY PREDICTED BY IDOCK:   -7.82 KCAL/MOL
REMARK 924 INTRA-LIGAND FREE ENERGY PREDICTED BY IDOCK:   -2.17 KCAL/MOL
REMARK 927      BINDING AFFINITY PREDICTED BY RF-SCORE:    0.00 PKD
ROOT
HETATM    1  C   UNL     1     -12.755  13.618  66.175  1.00  0.00    -0.295 C  
HETATM    2  C   UNL     1     -11.697  12.696  66.778  1.00  0.00    -0.392 C  
ENDROOT
BRANCH   2   3
HETATM    3  O   UNL     1     -10.380  13.177  66.510  1.00  0.00    -0.273 OA 
BRANCH   3   4
HETATM    4  C   UNL     1      -9.412  12.140  66.285  1.00  0.00    -0.232 C  
BRANCH   4   5
HETATM    5  C   UNL     1      -8.262  12.261  67.345  1.00  0.00    -0.178 C  
HETATM    6  C   UNL     1      -7.323   9.422  67.568  1.00  0.00    -0.084 C  
HETATM    7  C   UNL     1      -8.593   9.896  68.293  1.00  0.00    -0.115 C  
HETATM    8  N   UNL     1      -7.504   8.059  67.120  1.00  0.00    -0.091 NA 
HETATM    9  H   UNL     1      -6.196  11.991  67.334  1.00  0.00     0.000 HD 
HETATM   10  C   UNL     1      -8.564  11.396  68.594  1.00  0.00    -0.126 C  
HETATM   11  O   UNL     1      -6.280   6.131  66.892  1.00  0.00    -0.030 OA 
HETATM   12  C   UNL     1      -7.002  10.357  66.372  1.00  0.00    -0.114 C  
HETATM   13  C   UNL     1      -6.121   9.316  68.527  1.00  0.00    -0.045 C  
HETATM   14  C   UNL     1      -6.409   7.260  67.331  1.00  0.00    -0.054 C  
HETATM   15  C   UNL     1      -5.410   8.012  68.161  1.00  0.00    -0.033 C  
HETATM   16  N   UNL     1      -6.990  11.780  66.729  1.00  0.00    -0.096 NA 
BRANCH   5  17
HETATM   17  C   UNL     1      -8.092  13.730  67.822  1.00  0.00    -0.176 A  
HETATM   18  C   UNL     1      -7.787  16.395  68.732  1.00  0.00    -0.220 A  
HETATM   19  C   UNL     1      -8.661  15.530  69.383  1.00  0.00    -0.259 A  
HETATM   20  C   UNL     1      -8.813  14.215  68.928  1.00  0.00     0.021 A  
HETATM   21  C   UNL     1      -7.245  14.640  67.161  1.00  0.00     0.085 A  
HETATM   22  C   UNL     1      -7.086  15.953  67.617  1.00  0.00    -0.185 A  
ENDBRANCH   5  17
ENDBRANCH   4   5
ENDBRANCH   3   4
ENDBRANCH   2   3
BRANCH   2  23
HETATM   23  C   UNL     1     -11.894  12.624  68.285  1.00  0.00    -0.354 A  
HETATM   24  F   UNL     1     -12.078   8.867  70.103  1.00  0.00    -0.022 F  
HETATM   25  C   UNL     1     -11.945  11.373  68.917  1.00  0.00    -0.371 A  
HETATM   26  F   UNL     1     -13.655  15.684  70.751  1.00  0.00    -0.524 F  
HETATM   27  C   UNL     1     -12.212  11.260  70.290  1.00  0.00    -0.428 A  
HETATM   28  C   UNL     1     -12.423  12.429  71.039  1.00  0.00    -0.353 A  
HETATM   29  F   UNL     1     -11.535  15.792  71.228  1.00  0.00    -0.323 F  
HETATM   30  C   UNL     1     -12.297   9.907  70.956  1.00  0.00    -0.357 C  
HETATM   31  F   UNL     1     -12.893  14.721  72.544  1.00  0.00    -0.347 F  
HETATM   32  C   UNL     1     -12.608  14.956  71.232  1.00  0.00    -0.331 C  
HETATM   33  F   UNL     1     -11.391   9.763  71.961  1.00  0.00    -0.362 F  
HETATM   34  F   UNL     1     -13.518   9.680  71.512  1.00  0.00    -0.384 F  
HETATM   35  C   UNL     1     -12.105  13.778  69.057  1.00  0.00    -0.359 A  
HETATM   36  C   UNL     1     -12.369  13.695  70.435  1.00  0.00    -0.415 A  
ENDBRANCH   2  23
TORSDOF 5
ENDMDL
MODEL      127
REMARK 921   NORMALIZED FREE ENERGY PREDICTED BY IDOCK:   -5.50 KCAL/MOL
REMARK 922        TOTAL FREE ENERGY PREDICTED BY IDOCK:   -9.97 KCAL/MOL
REMARK 923 INTER-LIGAND FREE ENERGY PREDICTED BY IDOCK:   -8.44 KCAL/MOL
REMARK 924 INTRA-LIGAND FREE ENERGY PREDICTED BY IDOCK:   -1.52 KCAL/MOL
REMARK 927      BINDING AFFINITY PREDICTED BY RF-SCORE:    0.00 PKD
ROOT
HETATM    1  C   UNL     1     -10.441   6.180  66.718  1.00  0.00    -0.316 C  
HETATM    2  C   UNL     1     -10.835   7.340  67.630  1.00  0.00    -0.180 C  
ENDROOT
BRANCH   2   3
HETATM    3  O   UNL     1     -10.239   7.207  68.921  1.00  0.00    -0.175 OA 
BRANCH   3   4
HETATM    4  C   UNL     1     -11.014   6.429  69.846  1.00  0.00    -0.348 C  
BRANCH   4   5
HETATM    5  C   UNL     1     -10.847   7.019  71.291  1.00  0.00    -0.235 C  
HETATM    6  C   UNL     1      -8.908   5.093  72.526  1.00  0.00    -0.127 C  
HETATM    7  C   UNL     1     -10.400   4.744  72.401  1.00  0.00    -0.261 C  
HETATM    8  N   UNL     1      -8.117   3.898  72.335  1.00  0.00    -0.083 NA 
HETATM    9  H   UNL     1      -9.289   7.878  72.375  1.00  0.00     0.000 HD 
HETATM   10  C   UNL     1     -11.286   5.991  72.363  1.00  0.00    -0.349 C  
HETATM   11  O   UNL     1      -6.196   2.941  73.149  1.00  0.00    -0.008 OA 
HETATM   12  C   UNL     1      -8.519   6.183  71.492  1.00  0.00    -0.127 C  
HETATM   13  C   UNL     1      -8.540   5.529  73.957  1.00  0.00    -0.114 C  
HETATM   14  C   UNL     1      -7.079   3.776  73.224  1.00  0.00    -0.058 C  
HETATM   15  C   UNL     1      -7.208   4.844  74.271  1.00  0.00    -0.082 C  
HETATM   16  N   UNL     1      -9.408   7.350  71.510  1.00  0.00    -0.144 NA 
BRANCH   5  17
HETATM   17  C   UNL     1     -11.714   8.294  71.479  1.00  0.00    -0.337 A  
HETATM   18  C   UNL     1     -13.281  10.634  71.783  1.00  0.00    -0.526 A  
HETATM   19  C   UNL     1     -12.041  10.700  71.156  1.00  0.00    -0.445 A  
HETATM   20  C   UNL     1     -11.266   9.544  71.011  1.00  0.00    -0.432 A  
HETATM   21  C   UNL     1     -12.955   8.266  72.144  1.00  0.00    -0.327 A  
HETATM   22  C   UNL     1     -13.734   9.420  72.284  1.00  0.00    -0.495 A  
ENDBRANCH   5  17
ENDBRANCH   4   5
ENDBRANCH   3   4
ENDBRANCH   2   3
BRANCH   2  23
HETATM   23  C   UNL     1     -10.368   8.647  67.008  1.00  0.00    -0.368 A  
HETATM   24  F   UNL     1      -7.279   8.535  64.198  1.00  0.00    -0.084 F  
HETATM   25  C   UNL     1      -9.341   8.630  66.053  1.00  0.00    -0.284 A  
HETATM   26  F   UNL     1     -10.829  12.570  68.726  1.00  0.00    -0.236 F  
HETATM   27  C   UNL     1      -8.822   9.821  65.519  1.00  0.00    -0.192 A  
HETATM   28  C   UNL     1      -9.354  11.047  65.950  1.00  0.00    -0.229 A  
HETATM   29  F   UNL     1     -12.280  12.541  67.105  1.00  0.00    -0.402 F  
HETATM   30  C   UNL     1      -7.695   9.794  64.514  1.00  0.00    -0.137 C  
HETATM   31  F   UNL     1     -10.348  13.495  66.819  1.00  0.00    -0.253 F  
HETATM   32  C   UNL     1     -10.954  12.410  67.378  1.00  0.00    -0.254 C  
HETATM   33  F   UNL     1      -8.033  10.383  63.335  1.00  0.00    -0.152 F  
HETATM   34  F   UNL     1      -6.589  10.449  64.960  1.00  0.00    -0.118 F  
HETATM   35  C   UNL     1     -10.884   9.887  67.421  1.00  0.00    -0.293 A  
HETATM   36  C   UNL     1     -10.387  11.093  66.900  1.00  0.00    -0.272 A  
ENDBRANCH   2  23
TORSDOF 5
ENDMDL
MODEL      128
REMARK 921   NORMALIZED FREE ENERGY PREDICTED BY IDOCK:   -5.47 KCAL/MOL
REMARK 922        TOTAL FREE ENERGY PREDICTED BY IDOCK:   -9.93 KCAL/MOL
REMARK 923 INTER-LIGAND FREE ENERGY PREDICTED BY IDOCK:   -8.28 KCAL/MOL
REMARK 924 INTRA-LIGAND FREE ENERGY PREDICTED BY IDOCK:   -1.65 KCAL/MOL
REMARK 927      BINDING AFFINITY PREDICTED BY RF-SCORE:    0.00 PKD
ROOT
HETATM    1  C   UNL     1      -9.885   9.982  65.317  1.00  0.00    -0.388 C  
HETATM    2  C   UNL     1      -9.034   9.961  66.585  1.00  0.00    -0.139 C  
ENDROOT
BRANCH   2   3
HETATM    3  O   UNL     1      -9.416  11.005  67.481  1.00  0.00    -0.162 OA 
BRANCH   3   4
HETATM    4  C   UNL     1     -10.747  11.501  67.268  1.00  0.00    -0.244 C  
BRANCH   4   5
HETATM    5  C   UNL     1     -11.157  12.427  68.467  1.00  0.00    -0.258 C  
HETATM    6  C   UNL     1     -10.385  15.140  67.447  1.00  0.00    -0.244 C  
HETATM    7  C   UNL     1      -9.331  14.180  68.020  1.00  0.00    -0.203 C  
HETATM    8  N   UNL     1      -9.808  15.893  66.356  1.00  0.00    -0.263 NA 
HETATM    9  H   UNL     1     -12.561  13.937  68.766  1.00  0.00     0.000 HD 
HETATM   10  C   UNL     1      -9.929  13.191  69.023  1.00  0.00     0.204 C  
HETATM   11  O   UNL     1      -9.897  18.008  65.470  1.00  0.00    -0.370 OA 
HETATM   12  C   UNL     1     -11.634  14.351  66.974  1.00  0.00    -0.384 C  
HETATM   13  C   UNL     1     -10.772  16.236  68.459  1.00  0.00    -0.307 C  
HETATM   14  C   UNL     1     -10.136  17.225  66.372  1.00  0.00    -0.316 C  
HETATM   15  C   UNL     1     -10.846  17.537  67.657  1.00  0.00    -0.229 C  
HETATM   16  N   UNL     1     -12.158  13.423  67.982  1.00  0.00    -0.313 NA 
BRANCH   5  17
HETATM   17  C   UNL     1     -11.762  11.598  69.632  1.00  0.00    -0.418 A  
HETATM   18  C   UNL     1     -12.832  10.059  71.756  1.00  0.00    -0.546 A  
HETATM   19  C   UNL     1     -12.143   9.436  70.720  1.00  0.00    -0.270 A  
HETATM   20  C   UNL     1     -11.619  10.199  69.669  1.00  0.00    -0.216 A  
HETATM   21  C   UNL     1     -12.498  12.195  70.674  1.00  0.00    -0.330 A  
HETATM   22  C   UNL     1     -13.017  11.435  71.729  1.00  0.00    -0.519 A  
ENDBRANCH   5  17
ENDBRANCH   4   5
ENDBRANCH   3   4
ENDBRANCH   2   3
BRANCH   2  23
HETATM   23  C   UNL     1      -9.214   8.624  67.288  1.00  0.00    -0.167 A  
HETATM   24  F   UNL     1      -8.593   8.432  71.415  1.00  0.00    -0.128 F  
HETATM   25  C   UNL     1      -9.024   8.541  68.675  1.00  0.00    -0.139 A  
HETATM   26  F   UNL     1      -8.934   4.742  65.444  1.00  0.00    -0.129 F  
HETATM   27  C   UNL     1      -9.095   7.311  69.348  1.00  0.00    -0.142 A  
HETATM   28  C   UNL     1      -9.372   6.148  68.611  1.00  0.00    -0.121 A  
HETATM   29  F   UNL     1     -11.066   4.995  65.795  1.00  0.00    -0.309 F  
HETATM   30  C   UNL     1      -8.857   7.226  70.838  1.00  0.00    -0.149 C  
HETATM   31  F   UNL     1      -9.868   3.818  67.175  1.00  0.00    -0.240 F  
HETATM   32  C   UNL     1      -9.859   4.954  66.422  1.00  0.00    -0.209 C  
HETATM   33  F   UNL     1      -9.925   6.716  71.509  1.00  0.00    -0.176 F  
HETATM   34  F   UNL     1      -7.800   6.427  71.148  1.00  0.00    -0.103 F  
HETATM   35  C   UNL     1      -9.493   7.447  66.575  1.00  0.00    -0.229 A  
HETATM   36  C   UNL     1      -9.575   6.203  67.223  1.00  0.00    -0.126 A  
ENDBRANCH   2  23
TORSDOF 5
ENDMDL
MODEL      129
REMARK 921   NORMALIZED FREE ENERGY PREDICTED BY IDOCK:   -5.45 KCAL/MOL
REMARK 922        TOTAL FREE ENERGY PREDICTED BY IDOCK:   -9.90 KCAL/MOL
REMARK 923 INTER-LIGAND FREE ENERGY PREDICTED BY IDOCK:   -8.54 KCAL/MOL
REMARK 924 INTRA-LIGAND FREE ENERGY PREDICTED BY IDOCK:   -1.36 KCAL/MOL
REMARK 927      BINDING AFFINITY PREDICTED BY RF-SCORE:    0.00 PKD
ROOT
HETATM    1  C   UNL     1      -7.961  12.990  68.188  1.00  0.00    -0.154 C  
HETATM    2  C   UNL     1      -8.180  11.495  67.962  1.00  0.00    -0.143 C  
ENDROOT
BRANCH   2   3
HETATM    3  O   UNL     1      -9.142  10.970  68.876  1.00  0.00    -0.175 OA 
BRANCH   3   4
HETATM    4  C   UNL     1      -8.883   9.618  69.286  1.00  0.00    -0.164 C  
BRANCH   4   5
HETATM    5  C   UNL     1     -10.219   8.796  69.246  1.00  0.00    -0.210 C  
HETATM    6  C   UNL     1      -9.557   6.636  67.273  1.00  0.00    -0.132 C  
HETATM    7  C   UNL     1      -9.938   8.049  66.803  1.00  0.00    -0.344 C  
HETATM    8  N   UNL     1      -8.556   6.087  66.385  1.00  0.00    -0.125 NA 
HETATM    9  H   UNL     1     -10.794   6.869  69.790  1.00  0.00     0.000 HD 
HETATM   10  C   UNL     1     -10.818   8.781  67.818  1.00  0.00    -0.087 C  
HETATM   11  O   UNL     1      -7.983   4.069  65.455  1.00  0.00    -0.092 OA 
HETATM   12  C   UNL     1      -9.037   6.675  68.734  1.00  0.00    -0.131 C  
HETATM   13  C   UNL     1     -10.730   5.649  67.127  1.00  0.00    -0.316 C  
HETATM   14  C   UNL     1      -8.776   4.773  66.054  1.00  0.00    -0.118 C  
HETATM   15  C   UNL     1     -10.124   4.361  66.567  1.00  0.00    -0.217 C  
HETATM   16  N   UNL     1      -9.928   7.389  69.654  1.00  0.00    -0.179 NA 
BRANCH   5  17
HETATM   17  C   UNL     1     -11.283   9.409  70.196  1.00  0.00    -0.253 A  
HETATM   18  C   UNL     1     -13.234  10.557  71.899  1.00  0.00    -0.526 A  
HETATM   19  C   UNL     1     -12.502  11.363  71.032  1.00  0.00    -0.486 A  
HETATM   20  C   UNL     1     -11.535  10.794  70.196  1.00  0.00    -0.415 A  
HETATM   21  C   UNL     1     -12.013   8.626  71.111  1.00  0.00    -0.320 A  
HETATM   22  C   UNL     1     -12.984   9.192  71.944  1.00  0.00    -0.473 A  
ENDBRANCH   5  17
ENDBRANCH   4   5
ENDBRANCH   3   4
ENDBRANCH   2   3
BRANCH   2  23
HETATM   23  C   UNL     1      -8.681  11.272  66.543  1.00  0.00    -0.178 A  
HETATM   24  F   UNL     1      -6.499   8.752  64.024  1.00  0.00    -0.074 F  
HETATM   25  C   UNL     1      -7.970  10.419  65.685  1.00  0.00    -0.153 A  
HETATM   26  F   UNL     1     -11.249  13.921  64.323  1.00  0.00    -0.371 F  
HETATM   27  C   UNL     1      -8.349  10.254  64.343  1.00  0.00    -0.166 A  
HETATM   28  C   UNL     1      -9.467  10.953  63.862  1.00  0.00    -0.295 A  
HETATM   29  F   UNL     1     -12.548  12.253  64.837  1.00  0.00    -0.502 F  
HETATM   30  C   UNL     1      -7.559   9.357  63.419  1.00  0.00    -0.114 C  
HETATM   31  F   UNL     1     -11.647  12.362  62.862  1.00  0.00    -0.382 F  
HETATM   32  C   UNL     1     -11.397  12.574  64.185  1.00  0.00    -0.380 C  
HETATM   33  F   UNL     1      -8.313   8.354  62.894  1.00  0.00    -0.173 F  
HETATM   34  F   UNL     1      -7.043  10.036  62.358  1.00  0.00    -0.108 F  
HETATM   35  C   UNL     1      -9.797  11.958  66.037  1.00  0.00    -0.258 A  
HETATM   36  C   UNL     1     -10.202  11.807  64.700  1.00  0.00    -0.326 A  
ENDBRANCH   2  23
TORSDOF 5
ENDMDL
MODEL      130
REMARK 921   NORMALIZED FREE ENERGY PREDICTED BY IDOCK:   -5.44 KCAL/MOL
REMARK 922        TOTAL FREE ENERGY PREDICTED BY IDOCK:   -9.90 KCAL/MOL
REMARK 923 INTER-LIGAND FREE ENERGY PREDICTED BY IDOCK:   -6.52 KCAL/MOL
REMARK 924 INTRA-LIGAND FREE ENERGY PREDICTED BY IDOCK:   -3.37 KCAL/MOL
REMARK 927      BINDING AFFINITY PREDICTED BY RF-SCORE:    0.00 PKD
ROOT
HETATM    1  C   UNL     1     -11.116  12.957  65.079  1.00  0.00    -0.320 C  
HETATM    2  C   UNL     1     -11.392  12.644  66.548  1.00  0.00    -0.326 C  
ENDROOT
BRANCH   2   3
HETATM    3  O   UNL     1     -10.455  11.696  67.059  1.00  0.00    -0.211 OA 
BRANCH   3   4
HETATM    4  C   UNL     1      -9.200  11.680  66.362  1.00  0.00    -0.212 C  
BRANCH   4   5
HETATM    5  C   UNL     1      -8.025  11.691  67.403  1.00  0.00    -0.147 C  
HETATM    6  C   UNL     1      -7.146   8.823  67.375  1.00  0.00    -0.079 C  
HETATM    7  C   UNL     1      -8.389   9.263  68.164  1.00  0.00    -0.120 C  
HETATM    8  N   UNL     1      -7.367   7.505  66.824  1.00  0.00    -0.090 NA 
HETATM    9  H   UNL     1      -5.966  11.379  67.323  1.00  0.00     0.000 HD 
HETATM   10  C   UNL     1      -8.321  10.734  68.584  1.00  0.00    -0.141 C  
HETATM   11  O   UNL     1      -6.192   5.577  66.414  1.00  0.00    -0.032 OA 
HETATM   12  C   UNL     1      -6.829   9.846  66.252  1.00  0.00    -0.091 C  
HETATM   13  C   UNL     1      -5.928   8.615  68.295  1.00  0.00    -0.042 C  
HETATM   14  C   UNL     1      -6.286   6.669  66.945  1.00  0.00    -0.042 C  
HETATM   15  C   UNL     1      -5.253   7.331  67.809  1.00  0.00    -0.020 C  
HETATM   16  N   UNL     1      -6.777  11.234  66.721  1.00  0.00    -0.133 NA 
BRANCH   5  17
HETATM   17  C   UNL     1      -7.812  13.112  67.992  1.00  0.00    -0.147 A  
HETATM   18  C   UNL     1      -7.427  15.721  69.025  1.00  0.00    -0.186 A  
HETATM   19  C   UNL     1      -6.921  15.384  67.774  1.00  0.00    -0.183 A  
HETATM   20  C   UNL     1      -7.108  14.092  67.267  1.00  0.00     0.057 A  
HETATM   21  C   UNL     1      -8.278  13.472  69.270  1.00  0.00     0.584 A  
HETATM   22  C   UNL     1      -8.097  14.764  69.776  1.00  0.00     0.196 A  
ENDBRANCH   5  17
ENDBRANCH   4   5
ENDBRANCH   3   4
ENDBRANCH   2   3
BRANCH   2  23
HETATM   23  C   UNL     1     -11.285  13.924  67.362  1.00  0.00    -0.330 A  
HETATM   24  F   UNL     1     -12.739  13.933  71.279  1.00  0.00    -0.370 F  
HETATM   25  C   UNL     1     -11.755  13.945  68.684  1.00  0.00    -0.396 A  
HETATM   26  F   UNL     1     -10.953  17.912  65.769  1.00  0.00    -0.289 F  
HETATM   27  C   UNL     1     -11.755  15.128  69.439  1.00  0.00    -0.355 A  
HETATM   28  C   UNL     1     -11.265  16.307  68.855  1.00  0.00    -0.337 A  
HETATM   29  F   UNL     1      -8.958  17.491  66.529  1.00  0.00    -0.243 F  
HETATM   30  C   UNL     1     -12.292  15.147  70.851  1.00  0.00    -0.354 C  
HETATM   31  F   UNL     1     -10.347  18.672  67.713  1.00  0.00    -0.348 F  
HETATM   32  C   UNL     1     -10.265  17.582  66.898  1.00  0.00    -0.329 C  
HETATM   33  F   UNL     1     -11.359  15.543  71.759  1.00  0.00    -0.400 F  
HETATM   34  F   UNL     1     -13.343  16.000  70.993  1.00  0.00    -0.465 F  
HETATM   35  C   UNL     1     -10.797  15.117  66.803  1.00  0.00    -0.322 A  
HETATM   36  C   UNL     1     -10.781  16.314  67.537  1.00  0.00    -0.300 A  
ENDBRANCH   2  23
TORSDOF 5
ENDMDL
MODEL      131
REMARK 921   NORMALIZED FREE ENERGY PREDICTED BY IDOCK:   -5.43 KCAL/MOL
REMARK 922        TOTAL FREE ENERGY PREDICTED BY IDOCK:   -9.87 KCAL/MOL
REMARK 923 INTER-LIGAND FREE ENERGY PREDICTED BY IDOCK:   -8.80 KCAL/MOL
REMARK 924 INTRA-LIGAND FREE ENERGY PREDICTED BY IDOCK:   -1.07 KCAL/MOL
REMARK 927      BINDING AFFINITY PREDICTED BY RF-SCORE:    0.00 PKD
ROOT
HETATM    1  C   UNL     1      -7.799  11.238  68.406  1.00  0.00    -0.136 C  
HETATM    2  C   UNL     1      -8.985  10.762  67.569  1.00  0.00    -0.132 C  
ENDROOT
BRANCH   2   3
HETATM    3  O   UNL     1     -10.036  10.266  68.398  1.00  0.00    -0.150 OA 
BRANCH   3   4
HETATM    4  C   UNL     1      -9.597   9.796  69.681  1.00  0.00    -0.221 C  
BRANCH   4   5
HETATM    5  C   UNL     1     -10.315   8.440  70.013  1.00  0.00    -0.211 C  
HETATM    6  C   UNL     1      -8.478   6.439  68.742  1.00  0.00    -0.121 C  
HETATM    7  C   UNL     1      -9.488   7.235  67.900  1.00  0.00    -0.142 C  
HETATM    8  N   UNL     1      -7.267   6.236  67.979  1.00  0.00    -0.085 NA 
HETATM    9  H   UNL     1      -9.867   6.766  71.169  1.00  0.00     0.000 HD 
HETATM   10  C   UNL     1     -10.700   7.685  68.717  1.00  0.00    -0.106 C  
HETATM   11  O   UNL     1      -5.666   4.623  67.662  1.00  0.00    -0.019 OA 
HETATM   12  C   UNL     1      -8.176   7.183  70.070  1.00  0.00    -0.136 C  
HETATM   13  C   UNL     1      -8.964   5.001  69.011  1.00  0.00    -0.125 C  
HETATM   14  C   UNL     1      -6.755   4.968  68.085  1.00  0.00    -0.055 C  
HETATM   15  C   UNL     1      -7.740   4.104  68.818  1.00  0.00    -0.058 C  
HETATM   16  N   UNL     1      -9.381   7.584  70.804  1.00  0.00    -0.162 NA 
BRANCH   5  17
HETATM   17  C   UNL     1     -11.619   8.681  70.822  1.00  0.00    -0.273 A  
HETATM   18  C   UNL     1     -13.992   9.080  72.317  1.00  0.00    -0.522 A  
HETATM   19  C   UNL     1     -13.659   7.808  71.861  1.00  0.00    -0.333 A  
HETATM   20  C   UNL     1     -12.489   7.614  71.119  1.00  0.00    -0.273 A  
HETATM   21  C   UNL     1     -12.003   9.961  71.264  1.00  0.00    -0.489 A  
HETATM   22  C   UNL     1     -13.169  10.156  72.012  1.00  0.00    -0.534 A  
ENDBRANCH   5  17
ENDBRANCH   4   5
ENDBRANCH   3   4
ENDBRANCH   2   3
BRANCH   2  23
HETATM   23  C   UNL     1      -9.517  11.926  66.747  1.00  0.00    -0.207 A  
HETATM   24  F   UNL     1      -8.422  15.808  67.834  1.00  0.00    -0.152 F  
HETATM   25  C   UNL     1      -9.151  13.237  67.087  1.00  0.00    -0.231 A  
HETATM   26  F   UNL     1     -13.070  11.886  64.314  1.00  0.00    -0.480 F  
HETATM   27  C   UNL     1      -9.688  14.343  66.410  1.00  0.00    -0.320 A  
HETATM   28  C   UNL     1     -10.603  14.122  65.367  1.00  0.00    -0.358 A  
HETATM   29  F   UNL     1     -11.449  11.855  62.863  1.00  0.00    -0.281 F  
HETATM   30  C   UNL     1      -9.312  15.752  66.803  1.00  0.00    -0.242 C  
HETATM   31  F   UNL     1     -12.455  13.724  63.330  1.00  0.00    -0.515 F  
HETATM   32  C   UNL     1     -11.975  12.577  63.889  1.00  0.00    -0.480 C  
HETATM   33  F   UNL     1      -8.744  16.445  65.780  1.00  0.00    -0.350 F  
HETATM   34  F   UNL     1     -10.389  16.482  67.202  1.00  0.00    -0.276 F  
HETATM   35  C   UNL     1     -10.432  11.733  65.698  1.00  0.00    -0.308 A  
HETATM   36  C   UNL     1     -10.981  12.821  65.000  1.00  0.00    -0.319 A  
ENDBRANCH   2  23
TORSDOF 5
ENDMDL
MODEL      132
REMARK 921   NORMALIZED FREE ENERGY PREDICTED BY IDOCK:   -5.42 KCAL/MOL
REMARK 922        TOTAL FREE ENERGY PREDICTED BY IDOCK:   -9.87 KCAL/MOL
REMARK 923 INTER-LIGAND FREE ENERGY PREDICTED BY IDOCK:   -8.44 KCAL/MOL
REMARK 924 INTRA-LIGAND FREE ENERGY PREDICTED BY IDOCK:   -1.43 KCAL/MOL
REMARK 927      BINDING AFFINITY PREDICTED BY RF-SCORE:    0.00 PKD
ROOT
HETATM    1  C   UNL     1      -9.174  11.013  66.292  1.00  0.00    -0.200 C  
HETATM    2  C   UNL     1     -10.525  10.431  66.705  1.00  0.00    -0.215 C  
ENDROOT
BRANCH   2   3
HETATM    3  O   UNL     1     -10.396   9.071  67.118  1.00  0.00    -0.243 OA 
BRANCH   3   4
HETATM    4  C   UNL     1      -9.038   8.631  67.270  1.00  0.00    -0.133 C  
BRANCH   4   5
HETATM    5  C   UNL     1      -9.024   7.157  67.810  1.00  0.00    -0.122 C  
HETATM    6  C   UNL     1      -8.387   7.566  70.712  1.00  0.00    -0.118 C  
HETATM    7  C   UNL     1      -7.283   7.617  69.644  1.00  0.00    -0.079 C  
HETATM    8  N   UNL     1      -8.094   8.526  71.753  1.00  0.00    -0.159 NA 
HETATM    9  H   UNL     1     -10.176   6.055  69.150  1.00  0.00     0.000 HD 
HETATM   10  C   UNL     1      -7.639   6.797  68.401  1.00  0.00    -0.104 C  
HETATM   11  O   UNL     1      -8.283   8.725  74.031  1.00  0.00    -0.329 OA 
HETATM   12  C   UNL     1      -9.771   7.852  70.072  1.00  0.00    -0.179 C  
HETATM   13  C   UNL     1      -8.391   6.224  71.468  1.00  0.00    -0.126 C  
HETATM   14  C   UNL     1      -8.310   8.047  73.020  1.00  0.00    -0.185 C  
HETATM   15  C   UNL     1      -8.600   6.576  72.942  1.00  0.00    -0.125 C  
HETATM   16  N   UNL     1     -10.049   7.032  68.888  1.00  0.00    -0.168 NA 
BRANCH   5  17
HETATM   17  C   UNL     1      -9.329   6.143  66.674  1.00  0.00    -0.161 A  
HETATM   18  C   UNL     1      -9.842   4.281  64.603  1.00  0.00    -0.148 A  
HETATM   19  C   UNL     1      -8.637   4.976  64.634  1.00  0.00    -0.150 A  
HETATM   20  C   UNL     1      -8.388   5.899  65.656  1.00  0.00    -0.143 A  
HETATM   21  C   UNL     1     -10.553   5.453  66.593  1.00  0.00    -0.359 A  
HETATM   22  C   UNL     1     -10.802   4.525  65.576  1.00  0.00    -0.085 A  
ENDBRANCH   5  17
ENDBRANCH   4   5
ENDBRANCH   3   4
ENDBRANCH   2   3
BRANCH   2  23
HETATM   23  C   UNL     1     -11.088  11.243  67.861  1.00  0.00    -0.325 A  
HETATM   24  F   UNL     1     -10.643  15.397  67.793  1.00  0.00    -0.250 F  
HETATM   25  C   UNL     1     -10.961  12.641  67.851  1.00  0.00    -0.262 A  
HETATM   26  F   UNL     1     -11.860   9.781  71.837  1.00  0.00    -0.442 F  
HETATM   27  C   UNL     1     -11.389  13.419  68.938  1.00  0.00    -0.331 A  
HETATM   28  C   UNL     1     -11.962  12.778  70.049  1.00  0.00    -0.371 A  
HETATM   29  F   UNL     1     -13.844   9.997  70.972  1.00  0.00    -0.344 F  
HETATM   30  C   UNL     1     -11.219  14.920  68.932  1.00  0.00    -0.269 C  
HETATM   31  F   UNL     1     -13.055  11.539  72.286  1.00  0.00    -0.587 F  
HETATM   32  C   UNL     1     -12.712  10.686  71.280  1.00  0.00    -0.433 C  
HETATM   33  F   UNL     1     -12.403  15.579  69.057  1.00  0.00    -0.304 F  
HETATM   34  F   UNL     1     -10.435  15.356  69.955  1.00  0.00    -0.249 F  
HETATM   35  C   UNL     1     -11.667  10.628  68.983  1.00  0.00    -0.305 A  
HETATM   36  C   UNL     1     -12.109  11.383  70.082  1.00  0.00    -0.439 A  
ENDBRANCH   2  23
TORSDOF 5
ENDMDL
MODEL      133
REMARK 921   NORMALIZED FREE ENERGY PREDICTED BY IDOCK:   -5.42 KCAL/MOL
REMARK 922        TOTAL FREE ENERGY PREDICTED BY IDOCK:   -9.87 KCAL/MOL
REMARK 923 INTER-LIGAND FREE ENERGY PREDICTED BY IDOCK:   -9.20 KCAL/MOL
REMARK 924 INTRA-LIGAND FREE ENERGY PREDICTED BY IDOCK:   -0.67 KCAL/MOL
REMARK 927      BINDING AFFINITY PREDICTED BY RF-SCORE:    0.00 PKD
ROOT
HETATM    1  C   UNL     1     -11.745  14.730  64.687  1.00  0.00    -0.426 C  
HETATM    2  C   UNL     1     -11.335  14.871  66.151  1.00  0.00    -0.307 C  
ENDROOT
BRANCH   2   3
HETATM    3  O   UNL     1     -10.725  13.674  66.634  1.00  0.00    -0.278 OA 
BRANCH   3   4
HETATM    4  C   UNL     1     -10.870  12.548  65.756  1.00  0.00    -0.276 C  
BRANCH   4   5
HETATM    5  C   UNL     1     -10.159  11.299  66.387  1.00  0.00    -0.220 C  
HETATM    6  C   UNL     1     -11.196  11.352  69.201  1.00  0.00    -0.272 C  
HETATM    7  C   UNL     1     -10.057  12.285  68.758  1.00  0.00    -0.082 C  
HETATM    8  N   UNL     1     -12.035  12.037  70.158  1.00  0.00    -0.345 NA 
HETATM    9  H   UNL     1     -10.781   9.465  67.154  1.00  0.00     0.000 HD 
HETATM   10  C   UNL     1      -9.264  11.715  67.580  1.00  0.00    -0.178 C  
HETATM   11  O   UNL     1     -13.228  11.574  72.064  1.00  0.00    -0.509 OA 
HETATM   12  C   UNL     1     -12.023  10.889  67.973  1.00  0.00     0.216 C  
HETATM   13  C   UNL     1     -10.669  10.146  70.001  1.00  0.00    -0.356 C  
HETATM   14  C   UNL     1     -12.401  11.258  71.227  1.00  0.00    -0.270 C  
HETATM   15  C   UNL     1     -11.637   9.967  71.172  1.00  0.00    -0.460 C  
HETATM   16  N   UNL     1     -11.203  10.353  66.882  1.00  0.00    -0.143 NA 
BRANCH   5  17
HETATM   17  C   UNL     1      -9.254  10.585  65.347  1.00  0.00    -0.229 A  
HETATM   18  C   UNL     1      -7.621   9.307  63.417  1.00  0.00    -0.110 A  
HETATM   19  C   UNL     1      -8.934   9.649  63.106  1.00  0.00    -0.253 A  
HETATM   20  C   UNL     1      -9.740  10.276  64.062  1.00  0.00    -0.343 A  
HETATM   21  C   UNL     1      -7.935  10.192  65.644  1.00  0.00    -0.147 A  
HETATM   22  C   UNL     1      -7.125   9.570  64.687  1.00  0.00    -0.106 A  
ENDBRANCH   5  17
ENDBRANCH   4   5
ENDBRANCH   3   4
ENDBRANCH   2   3
BRANCH   2  23
HETATM   23  C   UNL     1     -10.342  16.015  66.285  1.00  0.00    -0.330 A  
HETATM   24  F   UNL     1      -6.342  15.109  67.082  1.00  0.00    -0.138 F  
HETATM   25  C   UNL     1      -8.991  15.732  66.539  1.00  0.00    -0.341 A  
HETATM   26  F   UNL     1     -11.298  20.085  67.319  1.00  0.00    -0.363 F  
HETATM   27  C   UNL     1      -8.059  16.759  66.756  1.00  0.00    -0.273 A  
HETATM   28  C   UNL     1      -8.495  18.093  66.706  1.00  0.00    -0.273 A  
HETATM   29  F   UNL     1     -10.833  20.186  65.196  1.00  0.00    -0.527 F  
HETATM   30  C   UNL     1      -6.614  16.444  67.060  1.00  0.00    -0.190 C  
HETATM   31  F   UNL     1      -9.333  20.746  66.666  1.00  0.00    -0.378 F  
HETATM   32  C   UNL     1     -10.317  19.839  66.406  1.00  0.00    -0.508 C  
HETATM   33  F   UNL     1      -5.759  16.985  66.150  1.00  0.00    -0.213 F  
HETATM   34  F   UNL     1      -6.225  16.922  68.273  1.00  0.00    -0.125 F  
HETATM   35  C   UNL     1     -10.751  17.358  66.238  1.00  0.00    -0.082 A  
HETATM   36  C   UNL     1      -9.839  18.406  66.446  1.00  0.00    -0.369 A  
ENDBRANCH   2  23
TORSDOF 5
ENDMDL
MODEL      134
REMARK 921   NORMALIZED FREE ENERGY PREDICTED BY IDOCK:   -5.40 KCAL/MOL
REMARK 922        TOTAL FREE ENERGY PREDICTED BY IDOCK:   -9.84 KCAL/MOL
REMARK 923 INTER-LIGAND FREE ENERGY PREDICTED BY IDOCK:   -8.77 KCAL/MOL
REMARK 924 INTRA-LIGAND FREE ENERGY PREDICTED BY IDOCK:   -1.07 KCAL/MOL
REMARK 927      BINDING AFFINITY PREDICTED BY RF-SCORE:    0.00 PKD
ROOT
HETATM    1  C   UNL     1     -10.637  10.241  67.170  1.00  0.00    -0.320 C  
HETATM    2  C   UNL     1     -11.300  11.617  67.141  1.00  0.00    -0.306 C  
ENDROOT
BRANCH   2   3
HETATM    3  O   UNL     1     -12.112  11.823  68.296  1.00  0.00    -0.525 OA 
BRANCH   3   4
HETATM    4  C   UNL     1     -12.464  10.615  68.987  1.00  0.00     0.506 C  
BRANCH   4   5
HETATM    5  C   UNL     1     -12.246  10.813  70.529  1.00  0.00    -0.366 C  
HETATM    6  C   UNL     1     -11.540   8.036  71.416  1.00  0.00    -0.267 C  
HETATM    7  C   UNL     1     -13.001   8.438  71.159  1.00  0.00    -0.065 C  
HETATM    8  N   UNL     1     -11.341   6.661  71.014  1.00  0.00    -0.297 NA 
HETATM    9  H   UNL     1     -10.627  10.666  71.832  1.00  0.00     0.000 HD 
HETATM   10  C   UNL     1     -13.231   9.940  71.345  1.00  0.00    -0.487 C  
HETATM   11  O   UNL     1     -10.168   4.808  71.690  1.00  0.00    -0.194 OA 
HETATM   12  C   UNL     1     -10.577   8.980  70.649  1.00  0.00    -0.236 C  
HETATM   13  C   UNL     1     -11.209   8.009  72.921  1.00  0.00    -0.389 C  
HETATM   14  C   UNL     1     -10.592   5.931  71.901  1.00  0.00    -0.231 C  
HETATM   15  C   UNL     1     -10.372   6.747  73.141  1.00  0.00    -0.270 C  
HETATM   16  N   UNL     1     -10.852  10.403  70.872  1.00  0.00     0.053 NA 
BRANCH   5  17
HETATM   17  C   UNL     1     -12.476  12.292  70.942  1.00  0.00    -0.371 A  
HETATM   18  C   UNL     1     -12.889  15.002  71.653  1.00  0.00    -0.420 A  
HETATM   19  C   UNL     1     -11.959  14.671  70.672  1.00  0.00    -0.380 A  
HETATM   20  C   UNL     1     -11.753  13.331  70.326  1.00  0.00    -0.217 A  
HETATM   21  C   UNL     1     -13.381  12.656  71.957  1.00  0.00    -0.555 A  
HETATM   22  C   UNL     1     -13.593  13.996  72.300  1.00  0.00    -0.622 A  
ENDBRANCH   5  17
ENDBRANCH   4   5
ENDBRANCH   3   4
ENDBRANCH   2   3
BRANCH   2  23
HETATM   23  C   UNL     1     -10.223  12.691  67.103  1.00  0.00    -0.230 A  
HETATM   24  F   UNL     1      -6.423  11.767  68.573  1.00  0.00    -0.050 F  
HETATM   25  C   UNL     1      -8.936  12.397  67.579  1.00  0.00    -0.183 A  
HETATM   26  F   UNL     1     -10.896  16.943  66.966  1.00  0.00    -0.293 F  
HETATM   27  C   UNL     1      -7.939  13.383  67.643  1.00  0.00    -0.174 A  
HETATM   28  C   UNL     1      -8.243  14.684  67.210  1.00  0.00    -0.235 A  
HETATM   29  F   UNL     1     -10.216  16.462  64.957  1.00  0.00    -0.277 F  
HETATM   30  C   UNL     1      -6.566  13.065  68.186  1.00  0.00    -0.103 C  
HETATM   31  F   UNL     1      -8.823  17.284  66.409  1.00  0.00    -0.243 F  
HETATM   32  C   UNL     1      -9.856  16.406  66.268  1.00  0.00    -0.314 C  
HETATM   33  F   UNL     1      -5.579  13.297  67.279  1.00  0.00    -0.093 F  
HETATM   34  F   UNL     1      -6.257  13.814  69.280  1.00  0.00    -0.084 F  
HETATM   35  C   UNL     1     -10.499  14.000  66.674  1.00  0.00    -0.272 A  
HETATM   36  C   UNL     1      -9.519  15.005  66.721  1.00  0.00    -0.263 A  
ENDBRANCH   2  23
TORSDOF 5
ENDMDL
MODEL      135
REMARK 921   NORMALIZED FREE ENERGY PREDICTED BY IDOCK:   -5.36 KCAL/MOL
REMARK 922        TOTAL FREE ENERGY PREDICTED BY IDOCK:   -9.79 KCAL/MOL
REMARK 923 INTER-LIGAND FREE ENERGY PREDICTED BY IDOCK:   -8.58 KCAL/MOL
REMARK 924 INTRA-LIGAND FREE ENERGY PREDICTED BY IDOCK:   -1.21 KCAL/MOL
REMARK 927      BINDING AFFINITY PREDICTED BY RF-SCORE:    0.00 PKD
ROOT
HETATM    1  C   UNL     1     -11.872  10.034  70.979  1.00  0.00    -0.476 C  
HETATM    2  C   UNL     1     -10.831  10.261  69.885  1.00  0.00    -0.302 C  
ENDROOT
BRANCH   2   3
HETATM    3  O   UNL     1     -10.743   9.134  69.014  1.00  0.00    -0.217 OA 
BRANCH   3   4
HETATM    4  C   UNL     1     -10.846   7.868  69.683  1.00  0.00    -0.176 C  
BRANCH   4   5
HETATM    5  C   UNL     1      -9.454   7.143  69.645  1.00  0.00    -0.152 C  
HETATM    6  C   UNL     1      -9.749   5.360  67.252  1.00  0.00    -0.144 C  
HETATM    7  C   UNL     1     -10.368   4.978  68.606  1.00  0.00    -0.098 C  
HETATM    8  N   UNL     1     -10.618   4.919  66.183  1.00  0.00    -0.319 NA 
HETATM    9  H   UNL     1      -7.831   7.110  68.340  1.00  0.00     0.000 HD 
HETATM   10  C   UNL     1      -9.624   5.610  69.784  1.00  0.00    -0.206 C  
HETATM   11  O   UNL     1     -10.458   4.049  64.066  1.00  0.00    -0.215 OA 
HETATM   12  C   UNL     1      -9.517   6.893  67.177  1.00  0.00    -0.140 C  
HETATM   13  C   UNL     1      -8.444   4.588  66.980  1.00  0.00    -0.104 C  
HETATM   14  C   UNL     1      -9.949   4.344  65.132  1.00  0.00    -0.177 C  
HETATM   15  C   UNL     1      -8.508   4.165  65.511  1.00  0.00    -0.110 C  
HETATM   16  N   UNL     1      -8.798   7.433  68.336  1.00  0.00    -0.123 NA 
BRANCH   5  17
HETATM   17  C   UNL     1      -8.542   7.622  70.807  1.00  0.00    -0.134 A  
HETATM   18  C   UNL     1      -6.890   8.461  72.950  1.00  0.00    -0.100 A  
HETATM   19  C   UNL     1      -8.113   7.849  73.209  1.00  0.00    -0.218 A  
HETATM   20  C   UNL     1      -8.930   7.440  72.148  1.00  0.00    -0.154 A  
HETATM   21  C   UNL     1      -7.317   8.278  70.578  1.00  0.00    -0.056 A  
HETATM   22  C   UNL     1      -6.497   8.682  71.638  1.00  0.00    -0.072 A  
ENDBRANCH   5  17
ENDBRANCH   4   5
ENDBRANCH   3   4
ENDBRANCH   2   3
BRANCH   2  23
HETATM   23  C   UNL     1     -11.223  11.483  69.067  1.00  0.00    -0.324 A  
HETATM   24  F   UNL     1     -11.275  11.167  64.901  1.00  0.00    -0.300 F  
HETATM   25  C   UNL     1     -11.260  11.394  67.667  1.00  0.00    -0.346 A  
HETATM   26  F   UNL     1     -10.958  15.582  70.358  1.00  0.00    -0.258 F  
HETATM   27  C   UNL     1     -11.531  12.519  66.872  1.00  0.00    -0.416 A  
HETATM   28  C   UNL     1     -11.778  13.750  67.500  1.00  0.00    -0.410 A  
HETATM   29  F   UNL     1     -13.093  15.164  70.399  1.00  0.00    -0.378 F  
HETATM   30  C   UNL     1     -11.538  12.421  65.365  1.00  0.00    -0.381 C  
HETATM   31  F   UNL     1     -12.222  16.217  68.708  1.00  0.00    -0.322 F  
HETATM   32  C   UNL     1     -12.006  15.192  69.580  1.00  0.00    -0.329 C  
HETATM   33  F   UNL     1     -12.734  12.777  64.824  1.00  0.00    -0.497 F  
HETATM   34  F   UNL     1     -10.608  13.231  64.790  1.00  0.00    -0.304 F  
HETATM   35  C   UNL     1     -11.476  12.726  69.670  1.00  0.00    -0.255 A  
HETATM   36  C   UNL     1     -11.755  13.867  68.899  1.00  0.00    -0.373 A  
ENDBRANCH   2  23
TORSDOF 5
ENDMDL
MODEL      136
REMARK 921   NORMALIZED FREE ENERGY PREDICTED BY IDOCK:   -5.36 KCAL/MOL
REMARK 922        TOTAL FREE ENERGY PREDICTED BY IDOCK:   -9.79 KCAL/MOL
REMARK 923 INTER-LIGAND FREE ENERGY PREDICTED BY IDOCK:   -8.74 KCAL/MOL
REMARK 924 INTRA-LIGAND FREE ENERGY PREDICTED BY IDOCK:   -1.05 KCAL/MOL
REMARK 927      BINDING AFFINITY PREDICTED BY RF-SCORE:    0.00 PKD
ROOT
HETATM    1  C   UNL     1     -11.798  10.486  69.879  1.00  0.00    -0.358 C  
HETATM    2  C   UNL     1     -10.578  11.105  69.201  1.00  0.00    -0.204 C  
ENDROOT
BRANCH   2   3
HETATM    3  O   UNL     1     -10.065  10.250  68.181  1.00  0.00    -0.144 OA 
BRANCH   3   4
HETATM    4  C   UNL     1     -10.817   9.041  67.996  1.00  0.00    -0.041 C  
BRANCH   4   5
HETATM    5  C   UNL     1      -9.831   7.828  67.861  1.00  0.00    -0.160 C  
HETATM    6  C   UNL     1     -10.124   6.490  70.529  1.00  0.00    -0.185 C  
HETATM    7  C   UNL     1      -9.249   7.743  70.363  1.00  0.00    -0.156 C  
HETATM    8  N   UNL     1     -10.769   6.521  71.823  1.00  0.00    -0.223 NA 
HETATM    9  H   UNL     1     -10.024   5.754  67.814  1.00  0.00     0.000 HD 
HETATM   10  C   UNL     1      -8.718   7.895  68.936  1.00  0.00    -0.135 C  
HETATM   11  O   UNL     1     -11.381   5.068  73.491  1.00  0.00    -0.319 OA 
HETATM   12  C   UNL     1     -11.175   6.410  69.391  1.00  0.00    -0.394 C  
HETATM   13  C   UNL     1      -9.277   5.204  70.593  1.00  0.00    -0.191 C  
HETATM   14  C   UNL     1     -10.761   5.312  72.471  1.00  0.00    -0.236 C  
HETATM   15  C   UNL     1      -9.892   4.355  71.708  1.00  0.00    -0.253 C  
HETATM   16  N   UNL     1     -10.600   6.562  68.050  1.00  0.00    -0.222 NA 
BRANCH   5  17
HETATM   17  C   UNL     1      -9.141   7.820  66.470  1.00  0.00    -0.208 A  
HETATM   18  C   UNL     1      -7.892   7.763  63.928  1.00  0.00    -0.126 A  
HETATM   19  C   UNL     1      -7.825   6.653  64.764  1.00  0.00    -0.115 A  
HETATM   20  C   UNL     1      -8.438   6.685  66.022  1.00  0.00    -0.142 A  
HETATM   21  C   UNL     1      -9.157   8.940  65.617  1.00  0.00    -0.269 A  
HETATM   22  C   UNL     1      -8.550   8.908  64.357  1.00  0.00    -0.140 A  
ENDBRANCH   5  17
ENDBRANCH   4   5
ENDBRANCH   3   4
ENDBRANCH   2   3
BRANCH   2  23
HETATM   23  C   UNL     1     -10.973  12.433  68.574  1.00  0.00    -0.277 A  
HETATM   24  F   UNL     1     -12.957  12.397  64.897  1.00  0.00    -0.560 F  
HETATM   25  C   UNL     1     -11.652  12.442  67.346  1.00  0.00    -0.433 A  
HETATM   26  F   UNL     1      -9.142  16.249  69.367  1.00  0.00    -0.243 F  
HETATM   27  C   UNL     1     -11.958  13.646  66.692  1.00  0.00    -0.458 A  
HETATM   28  C   UNL     1     -11.581  14.860  67.290  1.00  0.00    -0.337 A  
HETATM   29  F   UNL     1     -11.062  16.377  70.382  1.00  0.00    -0.335 F  
HETATM   30  C   UNL     1     -12.661  13.646  65.355  1.00  0.00    -0.491 C  
HETATM   31  F   UNL     1     -10.805  17.280  68.421  1.00  0.00    -0.350 F  
HETATM   32  C   UNL     1     -10.487  16.182  69.164  1.00  0.00    -0.265 C  
HETATM   33  F   UNL     1     -13.841  14.322  65.385  1.00  0.00    -0.046 F  
HETATM   34  F   UNL     1     -11.915  14.232  64.378  1.00  0.00    -0.399 F  
HETATM   35  C   UNL     1     -10.610  13.661  69.152  1.00  0.00    -0.082 A  
HETATM   36  C   UNL     1     -10.908  14.880  68.522  1.00  0.00    -0.249 A  
ENDBRANCH   2  23
TORSDOF 5
ENDMDL
MODEL      137
REMARK 921   NORMALIZED FREE ENERGY PREDICTED BY IDOCK:   -5.35 KCAL/MOL
REMARK 922        TOTAL FREE ENERGY PREDICTED BY IDOCK:   -9.78 KCAL/MOL
REMARK 923 INTER-LIGAND FREE ENERGY PREDICTED BY IDOCK:   -8.52 KCAL/MOL
REMARK 924 INTRA-LIGAND FREE ENERGY PREDICTED BY IDOCK:   -1.26 KCAL/MOL
REMARK 927      BINDING AFFINITY PREDICTED BY RF-SCORE:    0.00 PKD
ROOT
HETATM    1  C   UNL     1     -11.503  12.294  66.645  1.00  0.00    -0.431 C  
HETATM    2  C   UNL     1     -10.570  12.796  67.746  1.00  0.00    -0.221 C  
ENDROOT
BRANCH   2   3
HETATM    3  O   UNL     1     -10.058  14.092  67.436  1.00  0.00    -0.240 OA 
BRANCH   3   4
HETATM    4  C   UNL     1      -8.777  14.075  66.787  1.00  0.00    -0.110 C  
BRANCH   4   5
HETATM    5  C   UNL     1      -7.643  14.186  67.866  1.00  0.00    -0.158 C  
HETATM    6  C   UNL     1      -7.241  17.153  68.038  1.00  0.00    -0.184 C  
HETATM    7  C   UNL     1      -6.628  16.336  66.890  1.00  0.00    -0.123 C  
HETATM    8  N   UNL     1      -7.646  18.450  67.544  1.00  0.00    -0.222 NA 
HETATM    9  H   UNL     1      -7.496  14.966  69.792  1.00  0.00     0.000 HD 
HETATM   10  C   UNL     1      -6.386  14.876  67.280  1.00  0.00     0.241 C  
HETATM   11  O   UNL     1      -7.709  20.633  68.249  1.00  0.00    -0.003 OA 
HETATM   12  C   UNL     1      -8.447  16.397  68.656  1.00  0.00    -0.229 C  
HETATM   13  C   UNL     1      -6.195  17.503  69.115  1.00  0.00    -0.226 C  
HETATM   14  C   UNL     1      -7.326  19.485  68.386  1.00  0.00    -0.316 C  
HETATM   15  C   UNL     1      -6.457  18.962  69.493  1.00  0.00    -0.270 C  
HETATM   16  N   UNL     1      -8.147  15.005  69.008  1.00  0.00    -0.168 NA 
BRANCH   5  17
HETATM   17  C   UNL     1      -7.215  12.783  68.375  1.00  0.00    -0.115 A  
HETATM   18  C   UNL     1      -6.427  10.211  69.261  1.00  0.00    -0.047 A  
HETATM   19  C   UNL     1      -7.142  10.353  68.076  1.00  0.00    -0.082 A  
HETATM   20  C   UNL     1      -7.534  11.624  67.642  1.00  0.00    -0.116 A  
HETATM   21  C   UNL     1      -6.525  12.603  69.589  1.00  0.00    -0.050 A  
HETATM   22  C   UNL     1      -6.126  11.333  70.021  1.00  0.00    -0.142 A  
ENDBRANCH   5  17
ENDBRANCH   4   5
ENDBRANCH   3   4
ENDBRANCH   2   3
BRANCH   2  23
HETATM   23  C   UNL     1     -11.339  12.874  69.056  1.00  0.00    -0.341 A  
HETATM   24  F   UNL     1     -11.708  16.584  70.941  1.00  0.00    -0.378 F  
HETATM   25  C   UNL     1     -11.486  14.113  69.699  1.00  0.00    -0.329 A  
HETATM   26  F   UNL     1     -12.011   9.615  71.790  1.00  0.00    -0.412 F  
HETATM   27  C   UNL     1     -12.112  14.214  70.951  1.00  0.00    -0.416 A  
HETATM   28  C   UNL     1     -12.605  13.049  71.561  1.00  0.00    -0.279 A  
HETATM   29  F   UNL     1     -13.953   9.916  70.857  1.00  0.00    -0.335 F  
HETATM   30  C   UNL     1     -12.238  15.548  71.650  1.00  0.00    -0.399 C  
HETATM   31  F   UNL     1     -13.548  10.755  72.821  1.00  0.00    -0.094 F  
HETATM   32  C   UNL     1     -12.994  10.538  71.594  1.00  0.00    -0.476 C  
HETATM   33  F   UNL     1     -13.532  15.887  71.898  1.00  0.00    -0.520 F  
HETATM   34  F   UNL     1     -11.606  15.561  72.855  1.00  0.00    -0.507 F  
HETATM   35  C   UNL     1     -11.843  11.724  69.686  1.00  0.00    -0.407 A  
HETATM   36  C   UNL     1     -12.478  11.798  70.937  1.00  0.00    -0.416 A  
ENDBRANCH   2  23
TORSDOF 5
ENDMDL
MODEL      138
REMARK 921   NORMALIZED FREE ENERGY PREDICTED BY IDOCK:   -5.30 KCAL/MOL
REMARK 922        TOTAL FREE ENERGY PREDICTED BY IDOCK:   -9.71 KCAL/MOL
REMARK 923 INTER-LIGAND FREE ENERGY PREDICTED BY IDOCK:   -8.76 KCAL/MOL
REMARK 924 INTRA-LIGAND FREE ENERGY PREDICTED BY IDOCK:   -0.95 KCAL/MOL
REMARK 927      BINDING AFFINITY PREDICTED BY RF-SCORE:    0.00 PKD
ROOT
HETATM    1  C   UNL     1      -7.525   7.974  67.015  1.00  0.00    -0.092 C  
HETATM    2  C   UNL     1      -8.982   7.688  66.658  1.00  0.00    -0.156 C  
ENDROOT
BRANCH   2   3
HETATM    3  O   UNL     1      -9.649   7.005  67.719  1.00  0.00    -0.124 OA 
BRANCH   3   4
HETATM    4  C   UNL     1      -8.951   7.048  68.973  1.00  0.00    -0.133 C  
BRANCH   4   5
HETATM    5  C   UNL     1      -9.764   6.246  70.050  1.00  0.00    -0.168 C  
HETATM    6  C   UNL     1     -11.358   8.418  71.368  1.00  0.00    -0.264 C  
HETATM    7  C   UNL     1      -9.880   8.192  71.725  1.00  0.00    -0.256 C  
HETATM    8  N   UNL     1     -11.653   9.833  71.411  1.00  0.00    -0.382 NA 
HETATM    9  H   UNL     1     -11.776   5.816  70.378  1.00  0.00     0.000 HD 
HETATM   10  C   UNL     1      -9.437   6.748  71.479  1.00  0.00    -0.156 C  
HETATM   11  O   UNL     1     -13.369  11.229  72.022  1.00  0.00    -0.462 OA 
HETATM   12  C   UNL     1     -11.671   7.831  69.966  1.00  0.00     0.236 C  
HETATM   13  C   UNL     1     -12.301   7.833  72.437  1.00  0.00    -0.205 C  
HETATM   14  C   UNL     1     -12.848  10.128  72.017  1.00  0.00    -0.376 C  
HETATM   15  C   UNL     1     -13.400   8.879  72.640  1.00  0.00    -0.375 C  
HETATM   16  N   UNL     1     -11.221   6.445  69.798  1.00  0.00    -0.389 NA 
BRANCH   5  17
HETATM   17  C   UNL     1      -9.423   4.732  69.996  1.00  0.00    -0.240 A  
HETATM   18  C   UNL     1      -8.776   1.977  69.861  1.00  0.00    -0.110 A  
HETATM   19  C   UNL     1      -8.901   2.724  68.693  1.00  0.00    -0.158 A  
HETATM   20  C   UNL     1      -9.225   4.083  68.762  1.00  0.00    -0.211 A  
HETATM   21  C   UNL     1      -9.328   3.941  71.157  1.00  0.00    -0.216 A  
HETATM   22  C   UNL     1      -8.998   2.583  71.090  1.00  0.00    -0.149 A  
ENDBRANCH   5  17
ENDBRANCH   4   5
ENDBRANCH   3   4
ENDBRANCH   2   3
BRANCH   2  23
HETATM   23  C   UNL     1      -9.701   9.003  66.395  1.00  0.00    -0.337 A  
HETATM   24  F   UNL     1      -9.833  10.464  62.483  1.00  0.00    -0.314 F  
HETATM   25  C   UNL     1      -9.768   9.504  65.086  1.00  0.00    -0.207 A  
HETATM   26  F   UNL     1     -10.429  12.109  69.289  1.00  0.00    -0.167 F  
HETATM   27  C   UNL     1     -10.345  10.755  64.814  1.00  0.00    -0.380 A  
HETATM   28  C   UNL     1     -10.870  11.507  65.877  1.00  0.00    -0.316 A  
HETATM   29  F   UNL     1     -12.386  11.204  68.998  1.00  0.00    -0.397 F  
HETATM   30  C   UNL     1     -10.385  11.301  63.406  1.00  0.00    -0.391 C  
HETATM   31  F   UNL     1     -11.875  13.047  67.965  1.00  0.00    -0.335 F  
HETATM   32  C   UNL     1     -11.374  11.837  68.345  1.00  0.00    -0.270 C  
HETATM   33  F   UNL     1     -11.653  11.546  62.977  1.00  0.00    -0.372 F  
HETATM   34  F   UNL     1      -9.713  12.478  63.288  1.00  0.00    -0.266 F  
HETATM   35  C   UNL     1     -10.236   9.774  67.440  1.00  0.00    -0.284 A  
HETATM   36  C   UNL     1     -10.824  11.027  67.195  1.00  0.00    -0.336 A  
ENDBRANCH   2  23
TORSDOF 5
ENDMDL
MODEL      139
REMARK 921   NORMALIZED FREE ENERGY PREDICTED BY IDOCK:   -5.27 KCAL/MOL
REMARK 922        TOTAL FREE ENERGY PREDICTED BY IDOCK:   -9.67 KCAL/MOL
REMARK 923 INTER-LIGAND FREE ENERGY PREDICTED BY IDOCK:   -7.14 KCAL/MOL
REMARK 924 INTRA-LIGAND FREE ENERGY PREDICTED BY IDOCK:   -2.53 KCAL/MOL
REMARK 927      BINDING AFFINITY PREDICTED BY RF-SCORE:    0.00 PKD
ROOT
HETATM    1  C   UNL     1      -5.868  11.791  67.233  1.00  0.00    -0.119 C  
HETATM    2  C   UNL     1      -6.406  10.583  67.998  1.00  0.00    -0.058 C  
ENDROOT
BRANCH   2   3
HETATM    3  O   UNL     1      -7.570  10.925  68.750  1.00  0.00    -0.103 OA 
BRANCH   3   4
HETATM    4  C   UNL     1      -8.282  12.064  68.242  1.00  0.00    -0.161 C  
BRANCH   4   5
HETATM    5  C   UNL     1      -9.760  11.651  67.914  1.00  0.00    -0.179 C  
HETATM    6  C   UNL     1     -10.749  14.044  66.400  1.00  0.00    -0.278 C  
HETATM    7  C   UNL     1     -10.664  14.058  67.935  1.00  0.00    -0.246 C  
HETATM    8  N   UNL     1     -10.428  15.358  65.888  1.00  0.00    -0.319 NA 
HETATM    9  H   UNL     1     -10.839  11.239  66.181  1.00  0.00     0.000 HD 
HETATM   10  C   UNL     1     -10.765  12.653  68.535  1.00  0.00    -0.271 C  
HETATM   11  O   UNL     1     -11.077  16.766  64.197  1.00  0.00    -1.061 OA 
HETATM   12  C   UNL     1      -9.791  12.974  65.815  1.00  0.00    -0.209 C  
HETATM   13  C   UNL     1     -12.193  13.823  65.910  1.00  0.00    -0.501 C  
HETATM   14  C   UNL     1     -11.259  15.773  64.878  1.00  0.00    -0.350 C  
HETATM   15  C   UNL     1     -12.392  14.798  64.748  1.00  0.00    -0.303 C  
HETATM   16  N   UNL     1      -9.941  11.652  66.432  1.00  0.00    -0.201 NA 
BRANCH   5  17
HETATM   17  C   UNL     1     -10.088  10.244  68.483  1.00  0.00    -0.181 A  
HETATM   18  C   UNL     1     -10.708   7.696  69.553  1.00  0.00    -0.211 A  
HETATM   19  C   UNL     1     -10.482   8.774  70.403  1.00  0.00    -0.240 A  
HETATM   20  C   UNL     1     -10.171  10.031  69.872  1.00  0.00    -0.304 A  
HETATM   21  C   UNL     1     -10.284   9.125  67.651  1.00  0.00    -0.293 A  
HETATM   22  C   UNL     1     -10.601   7.869  68.180  1.00  0.00    -0.179 A  
ENDBRANCH   5  17
ENDBRANCH   4   5
ENDBRANCH   3   4
ENDBRANCH   2   3
BRANCH   2  23
HETATM   23  C   UNL     1      -6.766   9.484  67.011  1.00  0.00    -0.072 A  
HETATM   24  F   UNL     1      -7.673  10.549  63.074  1.00  0.00    -0.150 F  
HETATM   25  C   UNL     1      -7.061   9.819  65.681  1.00  0.00    -0.105 A  
HETATM   26  F   UNL     1      -8.317   5.593  68.014  1.00  0.00    -0.100 F  
HETATM   27  C   UNL     1      -7.482   8.846  64.760  1.00  0.00    -0.103 A  
HETATM   28  C   UNL     1      -7.600   7.513  65.186  1.00  0.00    -0.096 A  
HETATM   29  F   UNL     1      -6.264   5.193  67.414  1.00  0.00    -0.029 F  
HETATM   30  C   UNL     1      -7.828   9.221  63.338  1.00  0.00    -0.131 C  
HETATM   31  F   UNL     1      -7.891   4.872  66.009  1.00  0.00    -0.094 F  
HETATM   32  C   UNL     1      -7.441   5.718  66.978  1.00  0.00    -0.081 C  
HETATM   33  F   UNL     1      -7.061   8.567  62.425  1.00  0.00    -0.096 F  
HETATM   34  F   UNL     1      -9.120   8.929  63.026  1.00  0.00    -0.158 F  
HETATM   35  C   UNL     1      -6.889   8.143  67.411  1.00  0.00    -0.074 A  
HETATM   36  C   UNL     1      -7.304   7.148  66.509  1.00  0.00    -0.083 A  
ENDBRANCH   2  23
TORSDOF 5
ENDMDL
MODEL      140
REMARK 921   NORMALIZED FREE ENERGY PREDICTED BY IDOCK:   -5.24 KCAL/MOL
REMARK 922        TOTAL FREE ENERGY PREDICTED BY IDOCK:   -9.63 KCAL/MOL
REMARK 923 INTER-LIGAND FREE ENERGY PREDICTED BY IDOCK:   -7.76 KCAL/MOL
REMARK 924 INTRA-LIGAND FREE ENERGY PREDICTED BY IDOCK:   -1.88 KCAL/MOL
REMARK 927      BINDING AFFINITY PREDICTED BY RF-SCORE:    0.00 PKD
ROOT
HETATM    1  C   UNL     1     -11.739  13.630  65.862  1.00  0.00    -0.378 C  
HETATM    2  C   UNL     1     -11.240  12.348  66.524  1.00  0.00    -0.319 C  
ENDROOT
BRANCH   2   3
HETATM    3  O   UNL     1      -9.844  12.159  66.297  1.00  0.00    -0.224 OA 
BRANCH   3   4
HETATM    4  C   UNL     1      -9.496  10.839  65.852  1.00  0.00    -0.197 C  
BRANCH   4   5
HETATM    5  C   UNL     1      -8.435  10.221  66.829  1.00  0.00    -0.123 C  
HETATM    6  C   UNL     1      -9.168   7.313  66.780  1.00  0.00    -0.155 C  
HETATM    7  C   UNL     1      -9.964   8.317  67.630  1.00  0.00    -0.245 C  
HETATM    8  N   UNL     1     -10.066   6.310  66.252  1.00  0.00    -0.019 NA 
HETATM    9  H   UNL     1      -6.841   8.892  66.644  1.00  0.00     0.000 HD 
HETATM   10  C   UNL     1      -9.124   9.532  68.032  1.00  0.00    -0.126 C  
HETATM   11  O   UNL     1     -10.079   4.061  65.798  1.00  0.00    -0.179 OA 
HETATM   12  C   UNL     1      -8.424   8.047  65.633  1.00  0.00    -0.149 C  
HETATM   13  C   UNL     1      -8.189   6.487  67.636  1.00  0.00    -0.122 C  
HETATM   14  C   UNL     1      -9.569   5.033  66.324  1.00  0.00    -0.166 C  
HETATM   15  C   UNL     1      -8.301   5.049  67.127  1.00  0.00    -0.106 C  
HETATM   16  N   UNL     1      -7.639   9.199  66.087  1.00  0.00    -0.095 NA 
BRANCH   5  17
HETATM   17  C   UNL     1      -7.489  11.316  67.393  1.00  0.00    -0.116 A  
HETATM   18  C   UNL     1      -5.753  13.324  68.382  1.00  0.00    -0.084 A  
HETATM   19  C   UNL     1      -5.434  12.638  67.214  1.00  0.00    -0.011 A  
HETATM   20  C   UNL     1      -6.291  11.642  66.730  1.00  0.00    -0.114 A  
HETATM   21  C   UNL     1      -7.764  12.000  68.592  1.00  0.00    -0.099 A  
HETATM   22  C   UNL     1      -6.912  13.000  69.074  1.00  0.00    -0.056 A  
ENDBRANCH   5  17
ENDBRANCH   4   5
ENDBRANCH   3   4
ENDBRANCH   2   3
BRANCH   2  23
HETATM   23  C   UNL     1     -11.485  12.430  68.023  1.00  0.00    -0.377 A  
HETATM   24  F   UNL     1     -12.043   8.882  70.158  1.00  0.00    -0.022 F  
HETATM   25  C   UNL     1     -11.662  11.250  68.761  1.00  0.00    -0.405 A  
HETATM   26  F   UNL     1     -13.044  15.838  70.146  1.00  0.00    -0.336 F  
HETATM   27  C   UNL     1     -11.976  11.285  70.129  1.00  0.00    -0.452 A  
HETATM   28  C   UNL     1     -12.106  12.531  70.764  1.00  0.00    -0.240 A  
HETATM   29  F   UNL     1     -10.937  15.811  70.687  1.00  0.00    -0.287 F  
HETATM   30  C   UNL     1     -12.196  10.010  70.908  1.00  0.00    -0.346 C  
HETATM   31  F   UNL     1     -12.420  14.981  72.043  1.00  0.00    -0.325 F  
HETATM   32  C   UNL     1     -12.079  15.071  70.727  1.00  0.00    -0.322 C  
HETATM   33  F   UNL     1     -11.335   9.882  71.953  1.00  0.00    -0.384 F  
HETATM   34  F   UNL     1     -13.447   9.937  71.438  1.00  0.00    -0.405 F  
HETATM   35  C   UNL     1     -11.618  13.663  68.683  1.00  0.00    -0.364 A  
HETATM   36  C   UNL     1     -11.927  13.728  70.052  1.00  0.00    -0.407 A  
ENDBRANCH   2  23
TORSDOF 5
ENDMDL
MODEL      141
REMARK 921   NORMALIZED FREE ENERGY PREDICTED BY IDOCK:   -5.23 KCAL/MOL
REMARK 922        TOTAL FREE ENERGY PREDICTED BY IDOCK:   -9.63 KCAL/MOL
REMARK 923 INTER-LIGAND FREE ENERGY PREDICTED BY IDOCK:   -9.38 KCAL/MOL
REMARK 924 INTRA-LIGAND FREE ENERGY PREDICTED BY IDOCK:   -0.24 KCAL/MOL
REMARK 927      BINDING AFFINITY PREDICTED BY RF-SCORE:    0.00 PKD
ROOT
HETATM    1  C   UNL     1      -8.769  10.244  69.428  1.00  0.00    -0.168 C  
HETATM    2  C   UNL     1      -9.913  11.018  68.777  1.00  0.00    -0.207 C  
ENDROOT
BRANCH   2   3
HETATM    3  O   UNL     1     -10.359  10.374  67.583  1.00  0.00    -0.192 OA 
BRANCH   3   4
HETATM    4  C   UNL     1     -11.033  11.246  66.664  1.00  0.00    -0.268 C  
BRANCH   4   5
HETATM    5  C   UNL     1      -9.975  12.113  65.895  1.00  0.00    -0.245 C  
HETATM    6  C   UNL     1      -8.470  10.028  64.352  1.00  0.00    -0.173 C  
HETATM    7  C   UNL     1      -8.184  10.270  65.843  1.00  0.00    -0.148 C  
HETATM    8  N   UNL     1      -8.331   8.619  64.058  1.00  0.00    -0.153 NA 
HETATM    9  H   UNL     1      -9.595  12.568  63.898  1.00  0.00     0.000 HD 
HETATM   10  C   UNL     1      -8.533  11.695  66.277  1.00  0.00    -0.066 C  
HETATM   11  O   UNL     1      -7.571   7.267  62.366  1.00  0.00    -0.092 OA 
HETATM   12  C   UNL     1      -9.891  10.531  63.985  1.00  0.00    -0.324 C  
HETATM   13  C   UNL     1      -7.401  10.678  63.452  1.00  0.00     0.142 C  
HETATM   14  C   UNL     1      -7.662   8.364  62.887  1.00  0.00    -0.127 C  
HETATM   15  C   UNL     1      -7.094   9.650  62.361  1.00  0.00    -0.109 C  
HETATM   16  N   UNL     1     -10.159  11.903  64.428  1.00  0.00    -0.277 NA 
BRANCH   5  17
HETATM   17  C   UNL     1     -10.133  13.620  66.234  1.00  0.00    -0.301 A  
HETATM   18  C   UNL     1     -10.395  16.364  66.887  1.00  0.00    -0.300 A  
HETATM   19  C   UNL     1     -10.271  15.414  67.896  1.00  0.00    -0.239 A  
HETATM   20  C   UNL     1     -10.147  14.059  67.572  1.00  0.00    -0.237 A  
HETATM   21  C   UNL     1     -10.299  14.600  65.237  1.00  0.00    -0.425 A  
HETATM   22  C   UNL     1     -10.417  15.957  65.560  1.00  0.00    -0.425 A  
ENDBRANCH   5  17
ENDBRANCH   4   5
ENDBRANCH   3   4
ENDBRANCH   2   3
BRANCH   2  23
HETATM   23  C   UNL     1     -11.078  11.103  69.751  1.00  0.00    -0.271 A  
HETATM   24  F   UNL     1     -12.414  14.875  70.949  1.00  0.00    -0.302 F  
HETATM   25  C   UNL     1     -11.551  12.360  70.156  1.00  0.00    -0.159 A  
HETATM   26  F   UNL     1     -12.303   8.023  72.501  1.00  0.00    -0.339 F  
HETATM   27  C   UNL     1     -12.565  12.482  71.119  1.00  0.00    -0.349 A  
HETATM   28  C   UNL     1     -13.117  11.317  71.675  1.00  0.00    -0.513 A  
HETATM   29  F   UNL     1     -13.843   7.986  70.964  1.00  0.00    -0.250 F  
HETATM   30  C   UNL     1     -13.046  13.841  71.571  1.00  0.00    -0.357 C  
HETATM   31  F   UNL     1     -14.199   9.032  72.836  1.00  0.00    -0.470 F  
HETATM   32  C   UNL     1     -13.249   8.789  71.888  1.00  0.00    -0.381 C  
HETATM   33  F   UNL     1     -14.375  14.025  71.347  1.00  0.00    -0.369 F  
HETATM   34  F   UNL     1     -12.857  14.038  72.905  1.00  0.00    -0.468 F  
HETATM   35  C   UNL     1     -11.650   9.953  70.321  1.00  0.00    -0.319 A  
HETATM   36  C   UNL     1     -12.669  10.046  71.283  1.00  0.00    -0.500 A  
ENDBRANCH   2  23
TORSDOF 5
ENDMDL
MODEL      142
REMARK 921   NORMALIZED FREE ENERGY PREDICTED BY IDOCK:   -5.23 KCAL/MOL
REMARK 922        TOTAL FREE ENERGY PREDICTED BY IDOCK:   -9.62 KCAL/MOL
REMARK 923 INTER-LIGAND FREE ENERGY PREDICTED BY IDOCK:   -8.70 KCAL/MOL
REMARK 924 INTRA-LIGAND FREE ENERGY PREDICTED BY IDOCK:   -0.93 KCAL/MOL
REMARK 927      BINDING AFFINITY PREDICTED BY RF-SCORE:    0.00 PKD
ROOT
HETATM    1  C   UNL     1     -10.540   9.695  67.395  1.00  0.00    -0.333 C  
HETATM    2  C   UNL     1     -11.115  11.109  67.330  1.00  0.00    -0.302 C  
ENDROOT
BRANCH   2   3
HETATM    3  O   UNL     1     -12.000  11.357  68.422  1.00  0.00    -0.539 OA 
BRANCH   3   4
HETATM    4  C   UNL     1     -12.383  10.178  69.145  1.00  0.00     0.740 C  
BRANCH   4   5
HETATM    5  C   UNL     1     -12.181  10.419  70.683  1.00  0.00    -0.347 C  
HETATM    6  C   UNL     1     -11.404   7.686  71.642  1.00  0.00    -0.251 C  
HETATM    7  C   UNL     1     -12.874   8.040  71.367  1.00  0.00    -0.289 C  
HETATM    8  N   UNL     1     -11.164   6.308  71.275  1.00  0.00    -0.288 NA 
HETATM    9  H   UNL     1     -10.567  10.350  71.999  1.00  0.00     0.000 HD 
HETATM   10  C   UNL     1     -13.147   9.539  71.514  1.00  0.00    -0.470 C  
HETATM   11  O   UNL     1      -9.944   4.506  72.005  1.00  0.00    -0.176 OA 
HETATM   12  C   UNL     1     -10.462   8.637  70.858  1.00  0.00    -0.214 C  
HETATM   13  C   UNL     1     -11.083   7.705  73.149  1.00  0.00    -0.373 C  
HETATM   14  C   UNL     1     -10.401   5.621  72.185  1.00  0.00    -0.209 C  
HETATM   15  C   UNL     1     -10.212   6.473  73.406  1.00  0.00    -0.256 C  
HETATM   16  N   UNL     1     -10.778  10.058  71.044  1.00  0.00    -0.176 NA 
BRANCH   5  17
HETATM   17  C   UNL     1     -12.455  11.901  71.057  1.00  0.00    -0.390 A  
HETATM   18  C   UNL     1     -12.960  14.592  71.783  1.00  0.00    -0.413 A  
HETATM   19  C   UNL     1     -13.637  13.557  72.422  1.00  0.00    -0.709 A  
HETATM   20  C   UNL     1     -13.389  12.229  72.058  1.00  0.00    -0.491 A  
HETATM   21  C   UNL     1     -11.815  12.971  70.403  1.00  0.00    -0.245 A  
HETATM   22  C   UNL     1     -12.057  14.300  70.770  1.00  0.00    -0.418 A  
ENDBRANCH   5  17
ENDBRANCH   4   5
ENDBRANCH   3   4
ENDBRANCH   2   3
BRANCH   2  23
HETATM   23  C   UNL     1      -9.976  12.116  67.384  1.00  0.00    -0.206 A  
HETATM   24  F   UNL     1     -10.863  16.168  66.888  1.00  0.00    -0.316 F  
HETATM   25  C   UNL     1     -10.254  13.483  67.233  1.00  0.00    -0.242 A  
HETATM   26  F   UNL     1      -5.823  11.280  66.609  1.00  0.00    -0.078 F  
HETATM   27  C   UNL     1      -9.224  14.436  67.190  1.00  0.00    -0.230 A  
HETATM   28  C   UNL     1      -7.893  14.004  67.310  1.00  0.00    -0.143 A  
HETATM   29  F   UNL     1      -5.903  11.545  68.767  1.00  0.00    -0.047 F  
HETATM   30  C   UNL     1      -9.531  15.902  66.996  1.00  0.00    -0.222 C  
HETATM   31  F   UNL     1      -5.243  13.178  67.493  1.00  0.00    -0.107 F  
HETATM   32  C   UNL     1      -6.156  12.170  67.585  1.00  0.00    -0.110 C  
HETATM   33  F   UNL     1      -9.078  16.671  68.023  1.00  0.00    -0.205 F  
HETATM   34  F   UNL     1      -8.960  16.405  65.867  1.00  0.00    -0.330 F  
HETATM   35  C   UNL     1      -8.637  11.711  67.505  1.00  0.00    -0.149 A  
HETATM   36  C   UNL     1      -7.586  12.643  67.470  1.00  0.00    -0.160 A  
ENDBRANCH   2  23
TORSDOF 5
ENDMDL
MODEL      143
REMARK 921   NORMALIZED FREE ENERGY PREDICTED BY IDOCK:   -5.21 KCAL/MOL
REMARK 922        TOTAL FREE ENERGY PREDICTED BY IDOCK:   -9.59 KCAL/MOL
REMARK 923 INTER-LIGAND FREE ENERGY PREDICTED BY IDOCK:   -8.31 KCAL/MOL
REMARK 924 INTRA-LIGAND FREE ENERGY PREDICTED BY IDOCK:   -1.28 KCAL/MOL
REMARK 927      BINDING AFFINITY PREDICTED BY RF-SCORE:    0.00 PKD
ROOT
HETATM    1  C   UNL     1     -12.334   9.938  70.745  1.00  0.00    -0.363 C  
HETATM    2  C   UNL     1     -11.102  10.393  69.965  1.00  0.00    -0.314 C  
ENDROOT
BRANCH   2   3
HETATM    3  O   UNL     1     -10.781   9.471  68.923  1.00  0.00    -0.222 OA 
BRANCH   3   4
HETATM    4  C   UNL     1     -10.724   8.102  69.350  1.00  0.00    -0.156 C  
BRANCH   4   5
HETATM    5  C   UNL     1      -9.251   7.744  69.760  1.00  0.00    -0.150 C  
HETATM    6  C   UNL     1      -9.682   6.051  72.197  1.00  0.00    -0.154 C  
HETATM    7  C   UNL     1      -9.762   7.584  72.274  1.00  0.00    -0.203 C  
HETATM    8  N   UNL     1     -10.650   5.472  73.102  1.00  0.00    -0.227 NA 
HETATM    9  H   UNL     1      -8.118   5.999  69.857  1.00  0.00     0.000 HD 
HETATM   10  C   UNL     1      -8.931   8.264  71.183  1.00  0.00    -0.192 C  
HETATM   11  O   UNL     1     -10.847   3.674  74.514  1.00  0.00    -0.128 OA 
HETATM   12  C   UNL     1      -9.927   5.568  70.743  1.00  0.00    -0.201 C  
HETATM   13  C   UNL     1      -8.340   5.520  72.739  1.00  0.00    -0.113 C  
HETATM   14  C   UNL     1     -10.167   4.407  73.819  1.00  0.00    -0.174 C  
HETATM   15  C   UNL     1      -8.689   4.294  73.585  1.00  0.00    -0.094 C  
HETATM   16  N   UNL     1      -9.099   6.259  69.750  1.00  0.00    -0.142 NA 
BRANCH   5  17
HETATM   17  C   UNL     1      -8.227   8.385  68.784  1.00  0.00    -0.119 A  
HETATM   18  C   UNL     1      -6.386   9.544  66.971  1.00  0.00    -0.066 A  
HETATM   19  C   UNL     1      -7.135   8.435  66.592  1.00  0.00    -0.073 A  
HETATM   20  C   UNL     1      -8.041   7.861  67.491  1.00  0.00    -0.124 A  
HETATM   21  C   UNL     1      -7.427   9.484  69.151  1.00  0.00    -0.074 A  
HETATM   22  C   UNL     1      -6.525  10.063  68.251  1.00  0.00    -0.054 A  
ENDBRANCH   5  17
ENDBRANCH   4   5
ENDBRANCH   3   4
ENDBRANCH   2   3
BRANCH   2  23
HETATM   23  C   UNL     1     -11.375  11.755  69.346  1.00  0.00    -0.337 A  
HETATM   24  F   UNL     1     -12.302  14.951  71.873  1.00  0.00    -0.330 F  
HETATM   25  C   UNL     1     -11.675  12.845  70.178  1.00  0.00    -0.234 A  
HETATM   26  F   UNL     1     -12.673  12.481  65.305  1.00  0.00    -0.527 F  
HETATM   27  C   UNL     1     -12.019  14.097  69.644  1.00  0.00    -0.389 A  
HETATM   28  C   UNL     1     -12.051  14.254  68.249  1.00  0.00    -0.278 A  
HETATM   29  F   UNL     1     -10.591  13.112  65.300  1.00  0.00    -0.283 F  
HETATM   30  C   UNL     1     -12.371  15.256  70.547  1.00  0.00    -0.387 C  
HETATM   31  F   UNL     1     -12.175  14.589  65.490  1.00  0.00    -0.368 F  
HETATM   32  C   UNL     1     -11.795  13.343  65.891  1.00  0.00    -0.376 C  
HETATM   33  F   UNL     1     -11.551  16.326  70.366  1.00  0.00    -0.342 F  
HETATM   34  F   UNL     1     -13.636  15.710  70.335  1.00  0.00    -0.314 F  
HETATM   35  C   UNL     1     -11.412  11.940  67.954  1.00  0.00    -0.385 A  
HETATM   36  C   UNL     1     -11.748  13.184  67.393  1.00  0.00    -0.419 A  
ENDBRANCH   2  23
TORSDOF 5
ENDMDL
MODEL      144
REMARK 921   NORMALIZED FREE ENERGY PREDICTED BY IDOCK:   -5.19 KCAL/MOL
REMARK 922        TOTAL FREE ENERGY PREDICTED BY IDOCK:   -9.57 KCAL/MOL
REMARK 923 INTER-LIGAND FREE ENERGY PREDICTED BY IDOCK:   -7.88 KCAL/MOL
REMARK 924 INTRA-LIGAND FREE ENERGY PREDICTED BY IDOCK:   -1.69 KCAL/MOL
REMARK 927      BINDING AFFINITY PREDICTED BY RF-SCORE:    0.00 PKD
ROOT
HETATM    1  C   UNL     1     -11.185  13.271  64.249  1.00  0.00    -0.417 C  
HETATM    2  C   UNL     1     -10.856  12.615  65.588  1.00  0.00    -0.274 C  
ENDROOT
BRANCH   2   3
HETATM    3  O   UNL     1      -9.775  11.692  65.459  1.00  0.00    -0.226 OA 
BRANCH   3   4
HETATM    4  C   UNL     1     -10.130  10.330  65.746  1.00  0.00    -0.255 C  
BRANCH   4   5
HETATM    5  C   UNL     1      -8.956   9.637  66.522  1.00  0.00    -0.147 C  
HETATM    6  C   UNL     1     -10.007   9.602  69.331  1.00  0.00    -0.197 C  
HETATM    7  C   UNL     1      -9.396  10.878  68.730  1.00  0.00    -0.190 C  
HETATM    8  N   UNL     1     -11.100   9.958  70.209  1.00  0.00    -0.285 NA 
HETATM    9  H   UNL     1      -8.712   7.844  67.555  1.00  0.00     0.000 HD 
HETATM   10  C   UNL     1      -8.389  10.572  67.619  1.00  0.00    -0.114 C  
HETATM   11  O   UNL     1     -12.024   9.273  72.194  1.00  0.00    -0.344 OA 
HETATM   12  C   UNL     1     -10.492   8.652  68.204  1.00  0.00    -0.187 C  
HETATM   13  C   UNL     1      -9.022   8.886  70.275  1.00  0.00    -0.201 C  
HETATM   14  C   UNL     1     -11.114   9.253  71.385  1.00  0.00    -0.367 C  
HETATM   15  C   UNL     1      -9.848   8.452  71.488  1.00  0.00    -0.274 C  
HETATM   16  N   UNL     1      -9.478   8.400  67.175  1.00  0.00    -0.154 NA 
BRANCH   5  17
HETATM   17  C   UNL     1      -7.789   9.274  65.565  1.00  0.00    -0.099 A  
HETATM   18  C   UNL     1      -5.684   8.579  63.801  1.00  0.00    -0.070 A  
HETATM   19  C   UNL     1      -6.518   7.592  64.316  1.00  0.00    -0.048 A  
HETATM   20  C   UNL     1      -7.554   7.937  65.191  1.00  0.00    -0.092 A  
HETATM   21  C   UNL     1      -6.904  10.245  65.058  1.00  0.00    -0.111 A  
HETATM   22  C   UNL     1      -5.872   9.902  64.177  1.00  0.00    -0.117 A  
ENDBRANCH   5  17
ENDBRANCH   4   5
ENDBRANCH   3   4
ENDBRANCH   2   3
BRANCH   2  23
HETATM   23  C   UNL     1     -10.464  13.690  66.590  1.00  0.00    -0.272 A  
HETATM   24  F   UNL     1     -12.748  14.119  70.062  1.00  0.00    -0.378 F  
HETATM   25  C   UNL     1     -11.210  13.842  67.769  1.00  0.00    -0.316 A  
HETATM   26  F   UNL     1      -8.183  17.239  65.725  1.00  0.00    -0.256 F  
HETATM   27  C   UNL     1     -10.935  14.877  68.676  1.00  0.00    -0.263 A  
HETATM   28  C   UNL     1      -9.886  15.767  68.395  1.00  0.00    -0.206 A  
HETATM   29  F   UNL     1      -6.787  15.982  66.820  1.00  0.00    -0.228 F  
HETATM   30  C   UNL     1     -11.763  15.052  69.928  1.00  0.00    -0.307 C  
HETATM   31  F   UNL     1      -7.847  17.578  67.845  1.00  0.00    -0.199 F  
HETATM   32  C   UNL     1      -7.997  16.597  66.912  1.00  0.00    -0.220 C  
HETATM   33  F   UNL     1     -11.017  14.974  71.063  1.00  0.00    -0.315 F  
HETATM   34  F   UNL     1     -12.388  16.260  69.969  1.00  0.00    -0.208 F  
HETATM   35  C   UNL     1      -9.418  14.592  66.334  1.00  0.00    -0.325 A  
HETATM   36  C   UNL     1      -9.118  15.634  67.227  1.00  0.00    -0.217 A  
ENDBRANCH   2  23
TORSDOF 5
ENDMDL
MODEL      145
REMARK 921   NORMALIZED FREE ENERGY PREDICTED BY IDOCK:   -5.19 KCAL/MOL
REMARK 922        TOTAL FREE ENERGY PREDICTED BY IDOCK:   -9.56 KCAL/MOL
REMARK 923 INTER-LIGAND FREE ENERGY PREDICTED BY IDOCK:   -8.33 KCAL/MOL
REMARK 924 INTRA-LIGAND FREE ENERGY PREDICTED BY IDOCK:   -1.24 KCAL/MOL
REMARK 927      BINDING AFFINITY PREDICTED BY RF-SCORE:    0.00 PKD
ROOT
HETATM    1  C   UNL     1      -7.780  10.302  68.874  1.00  0.00    -0.098 C  
HETATM    2  C   UNL     1      -9.023  10.883  69.546  1.00  0.00     0.258 C  
ENDROOT
BRANCH   2   3
HETATM    3  O   UNL     1      -9.719  11.767  68.668  1.00  0.00    -0.191 OA 
BRANCH   3   4
HETATM    4  C   UNL     1      -8.915  12.843  68.162  1.00  0.00    -0.202 C  
BRANCH   4   5
HETATM    5  C   UNL     1      -9.626  13.486  66.918  1.00  0.00    -0.258 C  
HETATM    6  C   UNL     1     -10.098  16.294  67.859  1.00  0.00    -0.247 C  
HETATM    7  C   UNL     1     -11.019  15.145  68.302  1.00  0.00    -0.276 C  
HETATM    8  N   UNL     1      -9.950  17.238  68.945  1.00  0.00    -0.309 NA 
HETATM    9  H   UNL     1      -9.158  14.986  65.551  1.00  0.00     0.000 HD 
HETATM   10  C   UNL     1     -11.040  13.996  67.291  1.00  0.00    -0.314 C  
HETATM   11  O   UNL     1      -9.766  19.503  69.261  1.00  0.00    -0.394 OA 
HETATM   12  C   UNL     1      -8.718  15.741  67.416  1.00  0.00    -0.183 C  
HETATM   13  C   UNL     1     -10.739  17.144  66.745  1.00  0.00    -0.097 C  
HETATM   14  C   UNL     1     -10.022  18.549  68.548  1.00  0.00    -0.384 C  
HETATM   15  C   UNL     1     -10.441  18.600  67.108  1.00  0.00    -0.461 C  
HETATM   16  N   UNL     1      -8.811  14.644  66.447  1.00  0.00    -0.162 NA 
BRANCH   5  17
HETATM   17  C   UNL     1      -9.786  12.454  65.770  1.00  0.00    -0.253 A  
HETATM   18  C   UNL     1     -10.065  10.539  63.701  1.00  0.00    -0.219 A  
HETATM   19  C   UNL     1      -9.035  10.420  64.628  1.00  0.00    -0.235 A  
HETATM   20  C   UNL     1      -8.896  11.370  65.646  1.00  0.00    -0.080 A  
HETATM   21  C   UNL     1     -10.795  12.568  64.793  1.00  0.00    -0.332 A  
HETATM   22  C   UNL     1     -10.939  11.615  63.778  1.00  0.00    -0.495 A  
ENDBRANCH   5  17
ENDBRANCH   4   5
ENDBRANCH   3   4
ENDBRANCH   2   3
BRANCH   2  23
HETATM   23  C   UNL     1      -9.956   9.748  69.939  1.00  0.00    -0.282 A  
HETATM   24  F   UNL     1      -8.827   5.827  69.042  1.00  0.00    -0.110 F  
HETATM   25  C   UNL     1      -9.590   8.423  69.659  1.00  0.00    -0.163 A  
HETATM   26  F   UNL     1     -14.198  10.080  70.608  1.00  0.00    -0.050 F  
HETATM   27  C   UNL     1     -10.460   7.354  69.926  1.00  0.00    -0.238 A  
HETATM   28  C   UNL     1     -11.715   7.626  70.494  1.00  0.00    -0.148 A  
HETATM   29  F   UNL     1     -13.376   9.839  72.608  1.00  0.00    -0.440 F  
HETATM   30  C   UNL     1     -10.069   5.934  69.592  1.00  0.00    -0.200 C  
HETATM   31  F   UNL     1     -14.230   8.131  71.570  1.00  0.00    -0.405 F  
HETATM   32  C   UNL     1     -13.460   9.241  71.389  1.00  0.00    -0.319 C  
HETATM   33  F   UNL     1     -10.065   5.123  70.685  1.00  0.00    -0.239 F  
HETATM   34  F   UNL     1     -10.921   5.360  68.700  1.00  0.00    -0.251 F  
HETATM   35  C   UNL     1     -11.217   9.992  70.509  1.00  0.00    -0.408 A  
HETATM   36  C   UNL     1     -12.105   8.941  70.792  1.00  0.00    -0.143 A  
ENDBRANCH   2  23
TORSDOF 5
ENDMDL
MODEL      146
REMARK 921   NORMALIZED FREE ENERGY PREDICTED BY IDOCK:   -5.18 KCAL/MOL
REMARK 922        TOTAL FREE ENERGY PREDICTED BY IDOCK:   -9.56 KCAL/MOL
REMARK 923 INTER-LIGAND FREE ENERGY PREDICTED BY IDOCK:   -6.83 KCAL/MOL
REMARK 924 INTRA-LIGAND FREE ENERGY PREDICTED BY IDOCK:   -2.73 KCAL/MOL
REMARK 927      BINDING AFFINITY PREDICTED BY RF-SCORE:    0.00 PKD
ROOT
HETATM    1  C   UNL     1      -6.232  11.530  69.231  1.00  0.00    -0.079 C  
HETATM    2  C   UNL     1      -7.077  11.090  68.037  1.00  0.00    -0.077 C  
ENDROOT
BRANCH   2   3
HETATM    3  O   UNL     1      -7.310   9.682  68.060  1.00  0.00    -0.081 OA 
BRANCH   3   4
HETATM    4  C   UNL     1      -6.919   9.005  66.856  1.00  0.00    -0.078 C  
BRANCH   4   5
HETATM    5  C   UNL     1      -8.192   8.420  66.149  1.00  0.00    -0.113 C  
HETATM    6  C   UNL     1      -8.191   5.582  67.120  1.00  0.00    -0.101 C  
HETATM    7  C   UNL     1      -7.264   6.029  65.978  1.00  0.00    -0.075 C  
HETATM    8  N   UNL     1      -7.517   4.590  67.927  1.00  0.00    -0.069 NA 
HETATM    9  H   UNL     1     -10.035   7.682  66.780  1.00  0.00     0.000 HD 
HETATM   10  C   UNL     1      -7.817   7.238  65.220  1.00  0.00    -0.121 C  
HETATM   11  O   UNL     1      -8.007   2.668  69.082  1.00  0.00    -0.049 OA 
HETATM   12  C   UNL     1      -8.613   6.801  67.982  1.00  0.00    -0.122 C  
HETATM   13  C   UNL     1      -9.423   4.823  66.592  1.00  0.00    -0.161 C  
HETATM   14  C   UNL     1      -8.315   3.532  68.279  1.00  0.00    -0.082 C  
HETATM   15  C   UNL     1      -9.615   3.634  67.536  1.00  0.00    -0.194 C  
HETATM   16  N   UNL     1      -9.135   7.923  67.194  1.00  0.00    -0.134 NA 
BRANCH   5  17
HETATM   17  C   UNL     1      -8.894   9.497  65.278  1.00  0.00    -0.220 A  
HETATM   18  C   UNL     1     -10.156  11.445  63.654  1.00  0.00    -0.421 A  
HETATM   19  C   UNL     1      -8.894  10.966  63.317  1.00  0.00    -0.153 A  
HETATM   20  C   UNL     1      -8.270  10.008  64.124  1.00  0.00    -0.159 A  
HETATM   21  C   UNL     1     -10.154  10.030  65.614  1.00  0.00    -0.321 A  
HETATM   22  C   UNL     1     -10.781  10.984  64.805  1.00  0.00    -0.304 A  
ENDBRANCH   5  17
ENDBRANCH   4   5
ENDBRANCH   3   4
ENDBRANCH   2   3
BRANCH   2  23
HETATM   23  C   UNL     1      -8.417  11.808  68.081  1.00  0.00    -0.158 A  
HETATM   24  F   UNL     1     -11.391  10.343  70.623  1.00  0.00    -0.337 F  
HETATM   25  C   UNL     1      -9.425  11.340  68.938  1.00  0.00    -0.102 A  
HETATM   26  F   UNL     1     -10.054  14.297  64.970  1.00  0.00    -0.378 F  
HETATM   27  C   UNL     1     -10.703  11.920  68.945  1.00  0.00    -0.236 A  
HETATM   28  C   UNL     1     -10.966  12.995  68.080  1.00  0.00    -0.274 A  
HETATM   29  F   UNL     1      -9.462  15.716  66.510  1.00  0.00    -0.226 F  
HETATM   30  C   UNL     1     -11.791  11.390  69.848  1.00  0.00    -0.359 C  
HETATM   31  F   UNL     1     -11.538  15.093  66.344  1.00  0.00    -0.327 F  
HETATM   32  C   UNL     1     -10.256  14.636  66.275  1.00  0.00    -0.292 C  
HETATM   33  F   UNL     1     -12.262  12.333  70.708  1.00  0.00    -0.434 F  
HETATM   34  F   UNL     1     -12.871  10.943  69.150  1.00  0.00    -0.157 F  
HETATM   35  C   UNL     1      -8.706  12.886  67.228  1.00  0.00    -0.204 A  
HETATM   36  C   UNL     1      -9.975  13.489  67.217  1.00  0.00    -0.236 A  
ENDBRANCH   2  23
TORSDOF 5
ENDMDL
MODEL      147
REMARK 921   NORMALIZED FREE ENERGY PREDICTED BY IDOCK:   -5.18 KCAL/MOL
REMARK 922        TOTAL FREE ENERGY PREDICTED BY IDOCK:   -9.55 KCAL/MOL
REMARK 923 INTER-LIGAND FREE ENERGY PREDICTED BY IDOCK:   -8.36 KCAL/MOL
REMARK 924 INTRA-LIGAND FREE ENERGY PREDICTED BY IDOCK:   -1.19 KCAL/MOL
REMARK 927      BINDING AFFINITY PREDICTED BY RF-SCORE:    0.00 PKD
ROOT
HETATM    1  C   UNL     1     -11.164   9.751  70.290  1.00  0.00    -0.347 C  
HETATM    2  C   UNL     1     -10.303  10.704  69.463  1.00  0.00    -0.182 C  
ENDROOT
BRANCH   2   3
HETATM    3  O   UNL     1      -9.923  10.110  68.222  1.00  0.00    -0.143 OA 
BRANCH   3   4
HETATM    4  C   UNL     1     -10.447   8.789  68.020  1.00  0.00    -0.204 C  
BRANCH   4   5
HETATM    5  C   UNL     1      -9.461   7.969  67.115  1.00  0.00    -0.162 C  
HETATM    6  C   UNL     1      -9.200   5.405  68.649  1.00  0.00    -0.117 C  
HETATM    7  C   UNL     1      -8.418   6.661  69.066  1.00  0.00    -0.130 C  
HETATM    8  N   UNL     1      -9.591   4.668  69.830  1.00  0.00    -0.171 NA 
HETATM    9  H   UNL     1      -9.585   6.224  65.984  1.00  0.00     0.000 HD 
HETATM   10  C   UNL     1      -8.169   7.608  67.889  1.00  0.00    -0.123 C  
HETATM   11  O   UNL     1      -9.827   2.491  70.516  1.00  0.00    -0.047 OA 
HETATM   12  C   UNL     1     -10.443   5.798  67.807  1.00  0.00    -0.226 C  
HETATM   13  C   UNL     1      -8.311   4.401  67.891  1.00  0.00    -0.095 C  
HETATM   14  C   UNL     1      -9.419   3.312  69.714  1.00  0.00    -0.142 C  
HETATM   15  C   UNL     1      -8.675   3.022  68.443  1.00  0.00    -0.139 C  
HETATM   16  N   UNL     1     -10.135   6.704  66.696  1.00  0.00    -0.164 NA 
BRANCH   5  17
HETATM   17  C   UNL     1      -9.044   8.783  65.860  1.00  0.00    -0.271 A  
HETATM   18  C   UNL     1      -8.303  10.303  63.588  1.00  0.00    -0.169 A  
HETATM   19  C   UNL     1      -9.508  10.556  64.235  1.00  0.00    -0.337 A  
HETATM   20  C   UNL     1      -9.875   9.801  65.354  1.00  0.00    -0.365 A  
HETATM   21  C   UNL     1      -7.849   8.525  65.161  1.00  0.00    -0.116 A  
HETATM   22  C   UNL     1      -7.479   9.284  64.045  1.00  0.00    -0.110 A  
ENDBRANCH   5  17
ENDBRANCH   4   5
ENDBRANCH   3   4
ENDBRANCH   2   3
BRANCH   2  23
HETATM   23  C   UNL     1     -11.093  11.972  69.176  1.00  0.00    -0.272 A  
HETATM   24  F   UNL     1     -11.389  13.296  65.225  1.00  0.00    -0.301 F  
HETATM   25  C   UNL     1     -11.216  12.427  67.855  1.00  0.00    -0.316 A  
HETATM   26  F   UNL     1     -11.910  15.130  71.988  1.00  0.00    -0.366 F  
HETATM   27  C   UNL     1     -11.861  13.637  67.557  1.00  0.00    -0.416 A  
HETATM   28  C   UNL     1     -12.399  14.397  68.609  1.00  0.00    -0.051 A  
HETATM   29  F   UNL     1     -13.825  14.120  71.774  1.00  0.00    -0.401 F  
HETATM   30  C   UNL     1     -11.961  14.134  66.134  1.00  0.00    -0.422 C  
HETATM   31  F   UNL     1     -13.432  15.952  70.672  1.00  0.00    -0.427 F  
HETATM   32  C   UNL     1     -12.862  14.782  71.077  1.00  0.00    -0.352 C  
HETATM   33  F   UNL     1     -13.249  14.302  65.729  1.00  0.00    -0.526 F  
HETATM   34  F   UNL     1     -11.352  15.339  65.963  1.00  0.00    -0.339 F  
HETATM   35  C   UNL     1     -11.642  12.749  70.210  1.00  0.00    -0.047 A  
HETATM   36  C   UNL     1     -12.298  13.963  69.940  1.00  0.00    -0.358 A  
ENDBRANCH   2  23
TORSDOF 5
ENDMDL
MODEL      148
REMARK 921   NORMALIZED FREE ENERGY PREDICTED BY IDOCK:   -5.11 KCAL/MOL
REMARK 922        TOTAL FREE ENERGY PREDICTED BY IDOCK:   -9.47 KCAL/MOL
REMARK 923 INTER-LIGAND FREE ENERGY PREDICTED BY IDOCK:   -7.77 KCAL/MOL
REMARK 924 INTRA-LIGAND FREE ENERGY PREDICTED BY IDOCK:   -1.70 KCAL/MOL
REMARK 927      BINDING AFFINITY PREDICTED BY RF-SCORE:    0.00 PKD
ROOT
HETATM    1  C   UNL     1      -7.288  11.013  66.282  1.00  0.00    -0.097 C  
HETATM    2  C   UNL     1      -8.611  10.251  66.235  1.00  0.00    -0.137 C  
ENDROOT
BRANCH   2   3
HETATM    3  O   UNL     1      -8.575   9.103  67.083  1.00  0.00    -0.119 OA 
BRANCH   3   4
HETATM    4  C   UNL     1      -9.372   8.005  66.616  1.00  0.00    -0.197 C  
BRANCH   4   5
HETATM    5  C   UNL     1      -9.467   6.913  67.739  1.00  0.00    -0.122 C  
HETATM    6  C   UNL     1      -9.246   4.375  66.157  1.00  0.00    -0.141 C  
HETATM    7  C   UNL     1     -10.572   5.149  66.232  1.00  0.00    -0.325 C  
HETATM    8  N   UNL     1      -9.105   3.788  64.843  1.00  0.00    -0.132 NA 
HETATM    9  H   UNL     1      -8.183   5.471  68.522  1.00  0.00     0.000 HD 
HETATM   10  C   UNL     1     -10.685   5.985  67.509  1.00  0.00    -0.383 C  
HETATM   11  O   UNL     1      -8.293   1.870  63.878  1.00  0.00    -0.079 OA 
HETATM   12  C   UNL     1      -8.053   5.315  66.472  1.00  0.00    -0.108 C  
HETATM   13  C   UNL     1      -9.246   3.147  67.088  1.00  0.00    -0.209 C  
HETATM   14  C   UNL     1      -8.638   2.498  64.864  1.00  0.00    -0.100 C  
HETATM   15  C   UNL     1      -8.605   2.014  66.284  1.00  0.00    -0.112 C  
HETATM   16  N   UNL     1      -8.225   6.085  67.709  1.00  0.00    -0.112 NA 
BRANCH   5  17
HETATM   17  C   UNL     1      -9.630   7.564  69.140  1.00  0.00    -0.157 A  
HETATM   18  C   UNL     1      -9.959   8.722  71.703  1.00  0.00    -0.381 A  
HETATM   19  C   UNL     1     -11.062   8.229  71.013  1.00  0.00    -0.284 A  
HETATM   20  C   UNL     1     -10.898   7.662  69.744  1.00  0.00    -0.222 A  
HETATM   21  C   UNL     1      -8.540   8.106  69.847  1.00  0.00    -0.130 A  
HETATM   22  C   UNL     1      -8.702   8.668  71.118  1.00  0.00    -0.244 A  
ENDBRANCH   5  17
ENDBRANCH   4   5
ENDBRANCH   3   4
ENDBRANCH   2   3
BRANCH   2  23
HETATM   23  C   UNL     1      -9.734  11.167  66.697  1.00  0.00    -0.224 A  
HETATM   24  F   UNL     1     -10.544  14.614  64.481  1.00  0.00    -0.405 F  
HETATM   25  C   UNL     1     -10.031  12.323  65.959  1.00  0.00    -0.270 A  
HETATM   26  F   UNL     1     -11.288  11.437  70.704  1.00  0.00    -0.304 F  
HETATM   27  C   UNL     1     -11.000  13.238  66.399  1.00  0.00    -0.301 A  
HETATM   28  C   UNL     1     -11.686  12.979  67.596  1.00  0.00    -0.415 A  
HETATM   29  F   UNL     1     -12.851  10.390  69.613  1.00  0.00    -0.232 F  
HETATM   30  C   UNL     1     -11.291  14.496  65.614  1.00  0.00    -0.336 C  
HETATM   31  F   UNL     1     -13.029  12.524  69.989  1.00  0.00     0.104 F  
HETATM   32  C   UNL     1     -12.140  11.549  69.647  1.00  0.00    -0.296 C  
HETATM   33  F   UNL     1     -12.590  14.574  65.216  1.00  0.00    -0.404 F  
HETATM   34  F   UNL     1     -11.050  15.624  66.337  1.00  0.00    -0.314 F  
HETATM   35  C   UNL     1     -10.437  10.930  67.890  1.00  0.00    -0.227 A  
HETATM   36  C   UNL     1     -11.415  11.827  68.350  1.00  0.00    -0.354 A  
ENDBRANCH   2  23
TORSDOF 5
ENDMDL
MODEL      149
REMARK 921   NORMALIZED FREE ENERGY PREDICTED BY IDOCK:   -5.09 KCAL/MOL
REMARK 922        TOTAL FREE ENERGY PREDICTED BY IDOCK:   -9.44 KCAL/MOL
REMARK 923 INTER-LIGAND FREE ENERGY PREDICTED BY IDOCK:   -8.83 KCAL/MOL
REMARK 924 INTRA-LIGAND FREE ENERGY PREDICTED BY IDOCK:   -0.62 KCAL/MOL
REMARK 927      BINDING AFFINITY PREDICTED BY RF-SCORE:    0.00 PKD
ROOT
HETATM    1  C   UNL     1      -6.675  12.890  68.804  1.00  0.00    -0.093 C  
HETATM    2  C   UNL     1      -7.821  13.242  67.858  1.00  0.00    -0.152 C  
ENDROOT
BRANCH   2   3
HETATM    3  O   UNL     1      -8.802  12.206  67.827  1.00  0.00    -0.157 OA 
BRANCH   3   4
HETATM    4  C   UNL     1      -8.399  11.040  67.093  1.00  0.00    -0.132 C  
BRANCH   4   5
HETATM    5  C   UNL     1      -9.635  10.453  66.325  1.00  0.00    -0.182 C  
HETATM    6  C   UNL     1     -11.011  12.942  65.371  1.00  0.00    -0.278 C  
HETATM    7  C   UNL     1     -11.167  12.456  66.821  1.00  0.00    -0.363 C  
HETATM    8  N   UNL     1     -10.995  14.388  65.347  1.00  0.00    -0.322 NA 
HETATM    9  H   UNL     1     -10.278  10.426  64.343  1.00  0.00     0.000 HD 
HETATM   10  C   UNL     1     -10.963  10.945  66.953  1.00  0.00    -0.286 C  
HETATM   11  O   UNL     1     -11.746  16.108  64.027  1.00  0.00    -0.829 OA 
HETATM   12  C   UNL     1      -9.713  12.366  64.745  1.00  0.00     0.025 C  
HETATM   13  C   UNL     1     -12.243  12.593  64.514  1.00  0.00    -0.514 C  
HETATM   14  C   UNL     1     -11.744  14.929  64.333  1.00  0.00    -0.328 C  
HETATM   15  C   UNL     1     -12.527  13.835  63.667  1.00  0.00    -0.150 C  
HETATM   16  N   UNL     1      -9.581  10.914  64.906  1.00  0.00    -0.231 NA 
BRANCH   5  17
HETATM   17  C   UNL     1      -9.640   8.901  66.373  1.00  0.00    -0.304 A  
HETATM   18  C   UNL     1      -9.691   6.070  66.465  1.00  0.00    -0.183 A  
HETATM   19  C   UNL     1     -10.612   6.810  67.201  1.00  0.00    -0.401 A  
HETATM   20  C   UNL     1     -10.581   8.208  67.158  1.00  0.00    -0.355 A  
HETATM   21  C   UNL     1      -8.697   8.125  65.672  1.00  0.00    -0.176 A  
HETATM   22  C   UNL     1      -8.730   6.727  65.709  1.00  0.00    -0.122 A  
ENDBRANCH   5  17
ENDBRANCH   4   5
ENDBRANCH   3   4
ENDBRANCH   2   3
BRANCH   2  23
HETATM   23  C   UNL     1      -8.482  14.528  68.330  1.00  0.00    -0.163 A  
HETATM   24  F   UNL     1     -12.272  14.305  70.075  1.00  0.00    -0.330 F  
HETATM   25  C   UNL     1      -9.749  14.474  68.931  1.00  0.00    -0.169 A  
HETATM   26  F   UNL     1      -7.612  18.494  66.894  1.00  0.00    -0.205 F  
HETATM   27  C   UNL     1     -10.431  15.644  69.301  1.00  0.00    -0.247 A  
HETATM   28  C   UNL     1      -9.821  16.887  69.070  1.00  0.00    -0.247 A  
HETATM   29  F   UNL     1      -6.717  18.454  68.876  1.00  0.00    -0.222 F  
HETATM   30  C   UNL     1     -11.808  15.577  69.919  1.00  0.00    -0.362 C  
HETATM   31  F   UNL     1      -8.666  19.370  68.580  1.00  0.00    -0.368 F  
HETATM   32  C   UNL     1      -7.896  18.307  68.213  1.00  0.00    -0.298 C  
HETATM   33  F   UNL     1     -11.854  16.146  71.154  1.00  0.00    -0.392 F  
HETATM   34  F   UNL     1     -12.742  16.223  69.170  1.00  0.00     0.098 F  
HETATM   35  C   UNL     1      -7.894  15.785  68.112  1.00  0.00    -0.133 A  
HETATM   36  C   UNL     1      -8.551  16.971  68.478  1.00  0.00    -0.257 A  
ENDBRANCH   2  23
TORSDOF 5
ENDMDL
MODEL      150
REMARK 921   NORMALIZED FREE ENERGY PREDICTED BY IDOCK:   -5.09 KCAL/MOL
REMARK 922        TOTAL FREE ENERGY PREDICTED BY IDOCK:   -9.44 KCAL/MOL
REMARK 923 INTER-LIGAND FREE ENERGY PREDICTED BY IDOCK:   -7.58 KCAL/MOL
REMARK 924 INTRA-LIGAND FREE ENERGY PREDICTED BY IDOCK:   -1.86 KCAL/MOL
REMARK 927      BINDING AFFINITY PREDICTED BY RF-SCORE:    0.00 PKD
ROOT
HETATM    1  C   UNL     1      -8.989  10.063  65.599  1.00  0.00    -0.203 C  
HETATM    2  C   UNL     1     -10.344   9.553  66.083  1.00  0.00    -0.118 C  
ENDROOT
BRANCH   2   3
HETATM    3  O   UNL     1     -10.251   8.208  66.554  1.00  0.00    -0.279 OA 
BRANCH   3   4
HETATM    4  C   UNL     1      -8.950   7.622  66.398  1.00  0.00    -0.167 C  
BRANCH   4   5
HETATM    5  C   UNL     1      -8.785   6.440  67.418  1.00  0.00    -0.106 C  
HETATM    6  C   UNL     1      -9.398   4.056  65.706  1.00  0.00    -0.160 C  
HETATM    7  C   UNL     1     -10.525   4.930  66.280  1.00  0.00    -0.349 C  
HETATM    8  N   UNL     1      -9.775   3.587  64.391  1.00  0.00    -0.162 NA 
HETATM    9  H   UNL     1      -7.485   4.825  67.622  1.00  0.00     0.000 HD 
HETATM   10  C   UNL     1     -10.107   5.647  67.565  1.00  0.00    -0.208 C  
HETATM   11  O   UNL     1      -9.557   1.707  63.092  1.00  0.00    -0.090 OA 
HETATM   12  C   UNL     1      -8.070   4.855  65.647  1.00  0.00    -0.112 C  
HETATM   13  C   UNL     1      -9.224   2.749  66.504  1.00  0.00    -0.102 C  
HETATM   14  C   UNL     1      -9.477   2.265  64.171  1.00  0.00    -0.134 C  
HETATM   15  C   UNL     1      -9.024   1.647  65.462  1.00  0.00    -0.116 C  
HETATM   16  N   UNL     1      -7.728   5.516  66.912  1.00  0.00    -0.099 NA 
BRANCH   5  17
HETATM   17  C   UNL     1      -8.393   6.966  68.826  1.00  0.00    -0.121 A  
HETATM   18  C   UNL     1      -7.711   7.902  71.410  1.00  0.00    -0.085 A  
HETATM   19  C   UNL     1      -9.045   7.703  71.069  1.00  0.00    -0.150 A  
HETATM   20  C   UNL     1      -9.380   7.245  69.790  1.00  0.00    -0.150 A  
HETATM   21  C   UNL     1      -7.055   7.215  69.188  1.00  0.00    -0.083 A  
HETATM   22  C   UNL     1      -6.718   7.666  70.469  1.00  0.00    -0.042 A  
ENDBRANCH   5  17
ENDBRANCH   4   5
ENDBRANCH   3   4
ENDBRANCH   2   3
BRANCH   2  23
HETATM   23  C   UNL     1     -10.836  10.436  67.219  1.00  0.00    -0.324 A  
HETATM   24  F   UNL     1     -12.168   8.617  70.736  1.00  0.00    -0.272 F  
HETATM   25  C   UNL     1     -11.275   9.846  68.413  1.00  0.00    -0.134 A  
HETATM   26  F   UNL     1     -12.334  14.455  66.829  1.00  0.00    -0.445 F  
HETATM   27  C   UNL     1     -11.817  10.619  69.452  1.00  0.00    -0.325 A  
HETATM   28  C   UNL     1     -11.910  12.011  69.287  1.00  0.00    -0.377 A  
HETATM   29  F   UNL     1     -10.371  14.720  67.730  1.00  0.00    -0.236 F  
HETATM   30  C   UNL     1     -12.316   9.972  70.723  1.00  0.00    -0.303 C  
HETATM   31  F   UNL     1     -12.154  14.764  68.973  1.00  0.00    -0.326 F  
HETATM   32  C   UNL     1     -11.580  14.124  67.915  1.00  0.00    -0.338 C  
HETATM   33  F   UNL     1     -11.672  10.430  71.830  1.00  0.00    -0.341 F  
HETATM   34  F   UNL     1     -13.641  10.202  70.934  1.00  0.00    -0.428 F  
HETATM   35  C   UNL     1     -10.937  11.830  67.080  1.00  0.00    -0.333 A  
HETATM   36  C   UNL     1     -11.471  12.629  68.105  1.00  0.00    -0.359 A  
ENDBRANCH   2  23
TORSDOF 5
ENDMDL
MODEL      151
REMARK 921   NORMALIZED FREE ENERGY PREDICTED BY IDOCK:   -5.09 KCAL/MOL
REMARK 922        TOTAL FREE ENERGY PREDICTED BY IDOCK:   -9.43 KCAL/MOL
REMARK 923 INTER-LIGAND FREE ENERGY PREDICTED BY IDOCK:   -8.22 KCAL/MOL
REMARK 924 INTRA-LIGAND FREE ENERGY PREDICTED BY IDOCK:   -1.21 KCAL/MOL
REMARK 927      BINDING AFFINITY PREDICTED BY RF-SCORE:    0.00 PKD
ROOT
HETATM    1  C   UNL     1     -10.335  10.057  65.996  1.00  0.00    -0.222 C  
HETATM    2  C   UNL     1      -9.324  10.261  67.123  1.00  0.00    -0.153 C  
ENDROOT
BRANCH   2   3
HETATM    3  O   UNL     1      -9.774  11.251  68.047  1.00  0.00    -0.169 OA 
BRANCH   3   4
HETATM    4  C   UNL     1     -10.664  12.223  67.477  1.00  0.00    -0.225 C  
BRANCH   4   5
HETATM    5  C   UNL     1     -11.185  13.180  68.607  1.00  0.00    -0.276 C  
HETATM    6  C   UNL     1     -10.287  15.862  67.610  1.00  0.00    -0.281 C  
HETATM    7  C   UNL     1      -9.306  14.908  68.309  1.00  0.00    -0.195 C  
HETATM    8  N   UNL     1      -9.595  16.585  66.566  1.00  0.00    -0.256 NA 
HETATM    9  H   UNL     1     -12.598  14.706  68.727  1.00  0.00     0.000 HD 
HETATM   10  C   UNL     1     -10.013  13.947  69.268  1.00  0.00     0.235 C  
HETATM   11  O   UNL     1      -9.573  18.679  65.628  1.00  0.00    -0.349 OA 
HETATM   12  C   UNL     1     -11.489  15.071  67.030  1.00  0.00    -0.284 C  
HETATM   13  C   UNL     1     -10.764  16.984  68.552  1.00  0.00    -0.352 C  
HETATM   14  C   UNL     1      -9.910  17.919  66.518  1.00  0.00    -0.343 C  
HETATM   15  C   UNL     1     -10.744  18.266  67.717  1.00  0.00    -0.358 C  
HETATM   16  N   UNL     1     -12.122  14.172  68.000  1.00  0.00    -0.327 NA 
BRANCH   5  17
HETATM   17  C   UNL     1     -11.914  12.383  69.723  1.00  0.00    -0.359 A  
HETATM   18  C   UNL     1     -13.269  10.965  71.766  1.00  0.00    -0.513 A  
HETATM   19  C   UNL     1     -13.039  12.331  71.899  1.00  0.00    -0.469 A  
HETATM   20  C   UNL     1     -12.365  13.029  70.890  1.00  0.00    -0.376 A  
HETATM   21  C   UNL     1     -12.128  10.994  69.636  1.00  0.00    -0.411 A  
HETATM   22  C   UNL     1     -12.807  10.296  70.641  1.00  0.00    -0.362 A  
ENDBRANCH   5  17
ENDBRANCH   4   5
ENDBRANCH   3   4
ENDBRANCH   2   3
BRANCH   2  23
HETATM   23  C   UNL     1      -9.133   8.948  67.867  1.00  0.00    -0.145 A  
HETATM   24  F   UNL     1      -5.626   6.773  67.217  1.00  0.00    -0.011 F  
HETATM   25  C   UNL     1      -7.956   8.209  67.673  1.00  0.00    -0.122 A  
HETATM   26  F   UNL     1     -12.268   6.483  69.493  1.00  0.00    -0.264 F  
HETATM   27  C   UNL     1      -7.778   6.952  68.273  1.00  0.00    -0.113 A  
HETATM   28  C   UNL     1      -8.799   6.437  69.088  1.00  0.00    -0.126 A  
HETATM   29  F   UNL     1     -11.359   7.389  71.250  1.00  0.00    -0.257 F  
HETATM   30  C   UNL     1      -6.521   6.149  68.033  1.00  0.00    -0.049 C  
HETATM   31  F   UNL     1     -10.822   5.365  70.668  1.00  0.00    -0.326 F  
HETATM   32  C   UNL     1     -11.092   6.604  70.171  1.00  0.00    -0.329 C  
HETATM   33  F   UNL     1      -5.850   5.874  69.184  1.00  0.00    -0.012 F  
HETATM   34  F   UNL     1      -6.780   4.946  67.451  1.00  0.00    -0.048 F  
HETATM   35  C   UNL     1     -10.138   8.412  68.690  1.00  0.00    -0.210 A  
HETATM   36  C   UNL     1      -9.984   7.159  69.306  1.00  0.00    -0.168 A  
ENDBRANCH   2  23
TORSDOF 5
ENDMDL
MODEL      152
REMARK 921   NORMALIZED FREE ENERGY PREDICTED BY IDOCK:   -5.07 KCAL/MOL
REMARK 922        TOTAL FREE ENERGY PREDICTED BY IDOCK:   -9.41 KCAL/MOL
REMARK 923 INTER-LIGAND FREE ENERGY PREDICTED BY IDOCK:   -5.82 KCAL/MOL
REMARK 924 INTRA-LIGAND FREE ENERGY PREDICTED BY IDOCK:   -3.59 KCAL/MOL
REMARK 927      BINDING AFFINITY PREDICTED BY RF-SCORE:    0.00 PKD
ROOT
HETATM    1  C   UNL     1     -11.131   6.338  68.804  1.00  0.00    -0.424 C  
HETATM    2  C   UNL     1     -10.792   6.115  67.332  1.00  0.00    -0.343 C  
ENDROOT
BRANCH   2   3
HETATM    3  O   UNL     1     -10.760   7.349  66.616  1.00  0.00    -0.241 OA 
BRANCH   3   4
HETATM    4  C   UNL     1     -10.675   8.511  67.456  1.00  0.00    -0.141 C  
BRANCH   4   5
HETATM    5  C   UNL     1      -9.511   9.436  66.952  1.00  0.00    -0.156 C  
HETATM    6  C   UNL     1     -11.019  11.777  65.838  1.00  0.00    -0.304 C  
HETATM    7  C   UNL     1     -10.875  10.473  65.037  1.00  0.00     0.189 C  
HETATM    8  N   UNL     1     -12.319  12.356  65.584  1.00  0.00    -0.621 NA 
HETATM    9  H   UNL     1      -8.775  11.314  67.473  1.00  0.00     0.000 HD 
HETATM   10  C   UNL     1      -9.622   9.686  65.428  1.00  0.00    -0.361 C  
HETATM   11  O   UNL     1     -13.275  14.427  65.329  1.00  0.00    -0.619 OA 
HETATM   12  C   UNL     1     -10.822  11.504  67.353  1.00  0.00    -0.246 C  
HETATM   13  C   UNL     1     -10.050  12.865  65.339  1.00  0.00    -0.265 C  
HETATM   14  C   UNL     1     -12.289  13.715  65.396  1.00  0.00    -0.476 C  
HETATM   15  C   UNL     1     -10.859  14.163  65.312  1.00  0.00    -0.356 C  
HETATM   16  N   UNL     1      -9.603  10.748  67.658  1.00  0.00    -0.157 NA 
BRANCH   5  17
HETATM   17  C   UNL     1      -8.126   8.789  67.223  1.00  0.00    -0.101 A  
HETATM   18  C   UNL     1      -5.613   7.594  67.754  1.00  0.00    -0.035 A  
HETATM   19  C   UNL     1      -6.387   8.087  68.800  1.00  0.00    -0.044 A  
HETATM   20  C   UNL     1      -7.626   8.682  68.535  1.00  0.00    -0.095 A  
HETATM   21  C   UNL     1      -7.302   8.317  66.183  1.00  0.00    -0.077 A  
HETATM   22  C   UNL     1      -6.066   7.716  66.447  1.00  0.00    -0.044 A  
ENDBRANCH   5  17
ENDBRANCH   4   5
ENDBRANCH   3   4
ENDBRANCH   2   3
BRANCH   2  23
HETATM   23  C   UNL     1      -9.426   5.453  67.227  1.00  0.00    -0.128 A  
HETATM   24  F   UNL     1      -7.974   4.445  63.442  1.00  0.00    -0.075 F  
HETATM   25  C   UNL     1      -8.914   5.119  65.965  1.00  0.00    -0.140 A  
HETATM   26  F   UNL     1      -7.448   3.235  70.344  1.00  0.00    -0.040 F  
HETATM   27  C   UNL     1      -7.698   4.430  65.830  1.00  0.00    -0.094 A  
HETATM   28  C   UNL     1      -6.984   4.081  66.987  1.00  0.00    -0.063 A  
HETATM   29  F   UNL     1      -6.336   5.102  70.253  1.00  0.00    -0.022 F  
HETATM   30  C   UNL     1      -7.170   4.046  64.468  1.00  0.00    -0.066 C  
HETATM   31  F   UNL     1      -5.566   3.329  69.260  1.00  0.00    -0.014 F  
HETATM   32  C   UNL     1      -6.711   4.024  69.513  1.00  0.00    -0.037 C  
HETATM   33  F   UNL     1      -5.946   4.581  64.213  1.00  0.00    -0.016 F  
HETATM   34  F   UNL     1      -7.031   2.700  64.328  1.00  0.00    -0.039 F  
HETATM   35  C   UNL     1      -8.690   5.095  68.369  1.00  0.00    -0.104 A  
HETATM   36  C   UNL     1      -7.468   4.409  68.263  1.00  0.00    -0.065 A  
ENDBRANCH   2  23
TORSDOF 5
ENDMDL
MODEL      153
REMARK 921   NORMALIZED FREE ENERGY PREDICTED BY IDOCK:   -5.06 KCAL/MOL
REMARK 922        TOTAL FREE ENERGY PREDICTED BY IDOCK:   -9.40 KCAL/MOL
REMARK 923 INTER-LIGAND FREE ENERGY PREDICTED BY IDOCK:   -6.00 KCAL/MOL
REMARK 924 INTRA-LIGAND FREE ENERGY PREDICTED BY IDOCK:   -3.40 KCAL/MOL
REMARK 927      BINDING AFFINITY PREDICTED BY RF-SCORE:    0.00 PKD
ROOT
HETATM    1  C   UNL     1     -10.628   4.684  66.170  1.00  0.00    -0.202 C  
HETATM    2  C   UNL     1     -10.810   5.873  67.112  1.00  0.00    -0.285 C  
ENDROOT
BRANCH   2   3
HETATM    3  O   UNL     1     -10.488   5.519  68.457  1.00  0.00    -0.193 OA 
BRANCH   3   4
HETATM    4  C   UNL     1     -11.256   6.221  69.447  1.00  0.00    -0.420 C  
BRANCH   4   5
HETATM    5  C   UNL     1     -10.293   6.798  70.543  1.00  0.00    -0.201 C  
HETATM    6  C   UNL     1     -10.430   4.684  72.665  1.00  0.00    -0.199 C  
HETATM    7  C   UNL     1     -11.546   5.730  72.516  1.00  0.00    -0.321 C  
HETATM    8  N   UNL     1     -11.006   3.419  73.064  1.00  0.00    -0.100 NA 
HETATM    9  H   UNL     1      -8.466   6.227  71.366  1.00  0.00     0.000 HD 
HETATM   10  C   UNL     1     -11.045   7.027  71.877  1.00  0.00    -0.274 C  
HETATM   11  O   UNL     1     -10.502   1.633  74.414  1.00  0.00    -0.109 OA 
HETATM   12  C   UNL     1      -9.645   4.538  71.335  1.00  0.00    -0.165 C  
HETATM   13  C   UNL     1      -9.484   5.019  73.834  1.00  0.00    -0.129 C  
HETATM   14  C   UNL     1     -10.293   2.774  74.043  1.00  0.00    -0.147 C  
HETATM   15  C   UNL     1      -9.221   3.693  74.551  1.00  0.00    -0.110 C  
HETATM   16  N   UNL     1      -9.192   5.817  70.779  1.00  0.00    -0.151 NA 
BRANCH   5  17
HETATM   17  C   UNL     1      -9.695   8.162  70.100  1.00  0.00    -0.175 A  
HETATM   18  C   UNL     1      -8.569  10.627  69.278  1.00  0.00    -0.096 A  
HETATM   19  C   UNL     1      -7.750   9.613  69.766  1.00  0.00    -0.133 A  
HETATM   20  C   UNL     1      -8.309   8.398  70.176  1.00  0.00    -0.120 A  
HETATM   21  C   UNL     1     -10.501   9.220  69.640  1.00  0.00    -0.234 A  
HETATM   22  C   UNL     1      -9.943  10.434  69.223  1.00  0.00    -0.246 A  
ENDBRANCH   5  17
ENDBRANCH   4   5
ENDBRANCH   3   4
ENDBRANCH   2   3
BRANCH   2  23
HETATM   23  C   UNL     1      -9.896   7.006  66.672  1.00  0.00    -0.223 A  
HETATM   24  F   UNL     1      -5.767   6.525  67.094  1.00  0.00    -0.011 F  
HETATM   25  C   UNL     1      -8.506   6.859  66.793  1.00  0.00    -0.118 A  
HETATM   26  F   UNL     1     -10.998  11.155  66.331  1.00  0.00    -0.315 F  
HETATM   27  C   UNL     1      -7.632   7.913  66.480  1.00  0.00    -0.092 A  
HETATM   28  C   UNL     1      -8.169   9.130  66.030  1.00  0.00    -0.115 A  
HETATM   29  F   UNL     1     -10.846  10.489  64.265  1.00  0.00    -0.333 F  
HETATM   30  C   UNL     1      -6.138   7.756  66.643  1.00  0.00    -0.048 C  
HETATM   31  F   UNL     1      -9.200  11.571  65.183  1.00  0.00    -0.216 F  
HETATM   32  C   UNL     1     -10.140  10.613  65.421  1.00  0.00    -0.291 C  
HETATM   33  F   UNL     1      -5.464   7.946  65.477  1.00  0.00    -0.028 F  
HETATM   34  F   UNL     1      -5.619   8.648  67.530  1.00  0.00    -0.036 F  
HETATM   35  C   UNL     1     -10.407   8.233  66.217  1.00  0.00     0.185 A  
HETATM   36  C   UNL     1      -9.555   9.302  65.892  1.00  0.00    -0.345 A  
ENDBRANCH   2  23
TORSDOF 5
ENDMDL
MODEL      154
REMARK 921   NORMALIZED FREE ENERGY PREDICTED BY IDOCK:   -5.05 KCAL/MOL
REMARK 922        TOTAL FREE ENERGY PREDICTED BY IDOCK:   -9.38 KCAL/MOL
REMARK 923 INTER-LIGAND FREE ENERGY PREDICTED BY IDOCK:   -8.58 KCAL/MOL
REMARK 924 INTRA-LIGAND FREE ENERGY PREDICTED BY IDOCK:   -0.80 KCAL/MOL
REMARK 927      BINDING AFFINITY PREDICTED BY RF-SCORE:    0.00 PKD
ROOT
HETATM    1  C   UNL     1     -12.407   9.745  70.899  1.00  0.00    -0.379 C  
HETATM    2  C   UNL     1     -11.137  10.386  70.343  1.00  0.00    -0.296 C  
ENDROOT
BRANCH   2   3
HETATM    3  O   UNL     1     -10.582   9.603  69.287  1.00  0.00    -0.206 OA 
BRANCH   3   4
HETATM    4  C   UNL     1     -11.264   8.360  69.059  1.00  0.00     0.411 C  
BRANCH   4   5
HETATM    5  C   UNL     1     -10.239   7.176  69.164  1.00  0.00    -0.194 C  
HETATM    6  C   UNL     1      -8.768   7.399  66.559  1.00  0.00    -0.140 C  
HETATM    7  C   UNL     1     -10.155   6.740  66.632  1.00  0.00    -0.205 C  
HETATM    8  N   UNL     1      -8.641   8.116  65.310  1.00  0.00    -0.142 NA 
HETATM    9  H   UNL     1      -8.165   7.011  69.282  1.00  0.00     0.000 HD 
HETATM   10  C   UNL     1     -10.450   6.157  68.016  1.00  0.00    -0.284 C  
HETATM   11  O   UNL     1      -7.042   8.573  63.728  1.00  0.00    -0.089 OA 
HETATM   12  C   UNL     1      -8.558   8.350  67.766  1.00  0.00    -0.130 C  
HETATM   13  C   UNL     1      -7.641   6.351  66.476  1.00  0.00    -0.094 C  
HETATM   14  C   UNL     1      -7.425   7.943  64.698  1.00  0.00    -0.101 C  
HETATM   15  C   UNL     1      -6.658   6.880  65.429  1.00  0.00    -0.051 C  
HETATM   16  N   UNL     1      -8.856   7.729  69.061  1.00  0.00    -0.138 NA 
BRANCH   5  17
HETATM   17  C   UNL     1     -10.401   6.411  70.506  1.00  0.00    -0.247 A  
HETATM   18  C   UNL     1     -10.739   5.012  72.945  1.00  0.00    -0.299 A  
HETATM   19  C   UNL     1     -11.750   5.841  72.469  1.00  0.00    -0.280 A  
HETATM   20  C   UNL     1     -11.579   6.535  71.266  1.00  0.00    -0.381 A  
HETATM   21  C   UNL     1      -9.381   5.596  71.033  1.00  0.00    -0.181 A  
HETATM   22  C   UNL     1      -9.553   4.897  72.233  1.00  0.00    -0.193 A  
ENDBRANCH   5  17
ENDBRANCH   4   5
ENDBRANCH   3   4
ENDBRANCH   2   3
BRANCH   2  23
HETATM   23  C   UNL     1     -11.468  11.769  69.805  1.00  0.00    -0.320 A  
HETATM   24  F   UNL     1     -12.917  14.654  72.456  1.00  0.00    -0.355 F  
HETATM   25  C   UNL     1     -11.944  12.757  70.681  1.00  0.00    -0.199 A  
HETATM   26  F   UNL     1     -12.425  12.728  65.717  1.00  0.00    -0.492 F  
HETATM   27  C   UNL     1     -12.343  14.018  70.210  1.00  0.00    -0.425 A  
HETATM   28  C   UNL     1     -12.253  14.290  68.836  1.00  0.00    -0.240 A  
HETATM   29  F   UNL     1     -10.417  13.523  65.977  1.00  0.00    -0.278 F  
HETATM   30  C   UNL     1     -12.883  15.064  71.157  1.00  0.00    -0.373 C  
HETATM   31  F   UNL     1     -12.137  14.845  66.112  1.00  0.00    -0.285 F  
HETATM   32  C   UNL     1     -11.688  13.605  66.455  1.00  0.00    -0.382 C  
HETATM   33  F   UNL     1     -12.147  16.208  71.145  1.00  0.00    -0.415 F  
HETATM   34  F   UNL     1     -14.157  15.431  70.850  1.00  0.00    -0.477 F  
HETATM   35  C   UNL     1     -11.386  12.068  68.435  1.00  0.00    -0.332 A  
HETATM   36  C   UNL     1     -11.774  13.323  67.937  1.00  0.00    -0.395 A  
ENDBRANCH   2  23
TORSDOF 5
ENDMDL
MODEL      155
REMARK 921   NORMALIZED FREE ENERGY PREDICTED BY IDOCK:   -5.02 KCAL/MOL
REMARK 922        TOTAL FREE ENERGY PREDICTED BY IDOCK:   -9.36 KCAL/MOL
REMARK 923 INTER-LIGAND FREE ENERGY PREDICTED BY IDOCK:   -8.30 KCAL/MOL
REMARK 924 INTRA-LIGAND FREE ENERGY PREDICTED BY IDOCK:   -1.06 KCAL/MOL
REMARK 927      BINDING AFFINITY PREDICTED BY RF-SCORE:    0.00 PKD
ROOT
HETATM    1  C   UNL     1     -12.525  12.184  69.614  1.00  0.00     0.095 C  
HETATM    2  C   UNL     1     -11.025  12.421  69.452  1.00  0.00    -0.010 C  
ENDROOT
BRANCH   2   3
HETATM    3  O   UNL     1     -10.314  11.187  69.360  1.00  0.00    -0.173 OA 
BRANCH   3   4
HETATM    4  C   UNL     1     -11.051  10.134  68.719  1.00  0.00    -0.203 C  
BRANCH   4   5
HETATM    5  C   UNL     1     -10.226   8.800  68.794  1.00  0.00    -0.206 C  
HETATM    6  C   UNL     1      -8.358   9.095  66.466  1.00  0.00    -0.118 C  
HETATM    7  C   UNL     1      -9.817   8.658  66.260  1.00  0.00    -0.320 C  
HETATM    8  N   UNL     1      -7.943   9.926  65.358  1.00  0.00    -0.128 NA 
HETATM    9  H   UNL     1      -8.238   8.300  69.164  1.00  0.00     0.000 HD 
HETATM   10  C   UNL     1     -10.397   7.969  67.497  1.00  0.00    -0.330 C  
HETATM   11  O   UNL     1      -6.073  10.310  64.083  1.00  0.00    -0.133 OA 
HETATM   12  C   UNL     1      -8.206   9.853  67.811  1.00  0.00    -0.114 C  
HETATM   13  C   UNL     1      -7.386   7.902  66.389  1.00  0.00    -0.086 C  
HETATM   14  C   UNL     1      -6.683   9.638  64.895  1.00  0.00    -0.104 C  
HETATM   15  C   UNL     1      -6.191   8.389  65.567  1.00  0.00    -0.045 C  
HETATM   16  N   UNL     1      -8.781   9.138  68.955  1.00  0.00    -0.133 NA 
BRANCH   5  17
HETATM   17  C   UNL     1     -10.696   7.918  69.982  1.00  0.00    -0.244 A  
HETATM   18  C   UNL     1     -11.514   6.287  72.149  1.00  0.00    -0.354 A  
HETATM   19  C   UNL     1     -10.750   5.748  71.118  1.00  0.00    -0.327 A  
HETATM   20  C   UNL     1     -10.351   6.555  70.046  1.00  0.00    -0.238 A  
HETATM   21  C   UNL     1     -11.502   8.424  71.020  1.00  0.00    -0.302 A  
HETATM   22  C   UNL     1     -11.896   7.620  72.095  1.00  0.00    -0.352 A  
ENDBRANCH   5  17
ENDBRANCH   4   5
ENDBRANCH   3   4
ENDBRANCH   2   3
BRANCH   2  23
HETATM   23  C   UNL     1     -10.778  13.224  68.184  1.00  0.00    -0.264 A  
HETATM   24  F   UNL     1     -13.083  12.381  64.803  1.00  0.00    -0.547 F  
HETATM   25  C   UNL     1     -11.551  12.966  67.041  1.00  0.00    -0.419 A  
HETATM   26  F   UNL     1      -7.139  15.289  67.167  1.00  0.00    -0.210 F  
HETATM   27  C   UNL     1     -11.297  13.623  65.827  1.00  0.00    -0.315 A  
HETATM   28  C   UNL     1     -10.254  14.561  65.767  1.00  0.00    -0.354 A  
HETATM   29  F   UNL     1      -8.516  16.892  67.684  1.00  0.00    -0.190 F  
HETATM   30  C   UNL     1     -12.113  13.316  64.593  1.00  0.00    -0.408 C  
HETATM   31  F   UNL     1      -8.164  16.390  65.599  1.00  0.00    -0.210 F  
HETATM   32  C   UNL     1      -8.338  15.844  66.835  1.00  0.00    -0.246 C  
HETATM   33  F   UNL     1     -12.751  14.413  64.103  1.00  0.00    -0.391 F  
HETATM   34  F   UNL     1     -11.349  12.836  63.574  1.00  0.00    -0.443 F  
HETATM   35  C   UNL     1      -9.743  14.169  68.098  1.00  0.00    -0.225 A  
HETATM   36  C   UNL     1      -9.471  14.845  66.897  1.00  0.00    -0.251 A  
ENDBRANCH   2  23
TORSDOF 5
ENDMDL
MODEL      156
REMARK 921   NORMALIZED FREE ENERGY PREDICTED BY IDOCK:   -5.02 KCAL/MOL
REMARK 922        TOTAL FREE ENERGY PREDICTED BY IDOCK:   -9.35 KCAL/MOL
REMARK 923 INTER-LIGAND FREE ENERGY PREDICTED BY IDOCK:   -7.93 KCAL/MOL
REMARK 924 INTRA-LIGAND FREE ENERGY PREDICTED BY IDOCK:   -1.42 KCAL/MOL
REMARK 927      BINDING AFFINITY PREDICTED BY RF-SCORE:    0.00 PKD
ROOT
HETATM    1  C   UNL     1     -12.236  10.606  69.650  1.00  0.00    -0.277 C  
HETATM    2  C   UNL     1     -10.800  10.933  69.246  1.00  0.00    -0.241 C  
ENDROOT
BRANCH   2   3
HETATM    3  O   UNL     1      -9.934   9.822  69.473  1.00  0.00    -0.187 OA 
BRANCH   3   4
HETATM    4  C   UNL     1     -10.609   8.633  69.912  1.00  0.00    -0.224 C  
BRANCH   4   5
HETATM    5  C   UNL     1      -9.557   7.494  70.155  1.00  0.00    -0.168 C  
HETATM    6  C   UNL     1     -10.134   5.622  67.884  1.00  0.00    -0.168 C  
HETATM    7  C   UNL     1     -11.015   5.635  69.144  1.00  0.00    -0.188 C  
HETATM    8  N   UNL     1     -10.956   5.359  66.724  1.00  0.00    -0.098 NA 
HETATM    9  H   UNL     1      -7.890   6.769  69.138  1.00  0.00     0.000 HD 
HETATM   10  C   UNL     1     -10.258   6.131  70.378  1.00  0.00    -0.256 C  
HETATM   11  O   UNL     1     -10.832   4.228  64.731  1.00  0.00    -0.246 OA 
HETATM   12  C   UNL     1      -9.384   6.972  67.735  1.00  0.00    -0.125 C  
HETATM   13  C   UNL     1      -9.148   4.438  67.887  1.00  0.00    -0.154 C  
HETATM   14  C   UNL     1     -10.395   4.471  65.842  1.00  0.00    -0.258 C  
HETATM   15  C   UNL     1      -9.163   3.879  66.463  1.00  0.00    -0.175 C  
HETATM   16  N   UNL     1      -8.679   7.388  68.953  1.00  0.00    -0.132 NA 
BRANCH   5  17
HETATM   17  C   UNL     1      -8.694   7.789  71.412  1.00  0.00    -0.142 A  
HETATM   18  C   UNL     1      -7.089   8.348  73.678  1.00  0.00    -0.131 A  
HETATM   19  C   UNL     1      -6.493   8.074  72.451  1.00  0.00    -0.068 A  
HETATM   20  C   UNL     1      -7.288   7.793  71.334  1.00  0.00    -0.067 A  
HETATM   21  C   UNL     1      -9.265   8.033  72.675  1.00  0.00    -0.304 A  
HETATM   22  C   UNL     1      -8.473   8.320  73.792  1.00  0.00    -0.259 A  
ENDBRANCH   5  17
ENDBRANCH   4   5
ENDBRANCH   3   4
ENDBRANCH   2   3
BRANCH   2  23
HETATM   23  C   UNL     1     -10.764  11.288  67.767  1.00  0.00    -0.265 A  
HETATM   24  F   UNL     1      -8.435   8.950  65.205  1.00  0.00    -0.130 F  
HETATM   25  C   UNL     1      -9.998  10.507  66.888  1.00  0.00    -0.246 A  
HETATM   26  F   UNL     1     -11.617  15.154  66.073  1.00  0.00    -0.326 F  
HETATM   27  C   UNL     1      -9.869  10.851  65.533  1.00  0.00    -0.298 A  
HETATM   28  C   UNL     1     -10.528  11.996  65.056  1.00  0.00    -0.327 A  
HETATM   29  F   UNL     1     -13.360  13.963  65.547  1.00  0.00    -0.491 F  
HETATM   30  C   UNL     1      -9.017  10.023  64.600  1.00  0.00    -0.214 C  
HETATM   31  F   UNL     1     -11.781  14.284  64.089  1.00  0.00    -0.393 F  
HETATM   32  C   UNL     1     -12.008  14.031  65.409  1.00  0.00    -0.380 C  
HETATM   33  F   UNL     1      -9.726   9.522  63.553  1.00  0.00    -0.111 F  
HETATM   34  F   UNL     1      -7.997  10.741  64.056  1.00  0.00    -0.094 F  
HETATM   35  C   UNL     1     -11.416  12.426  67.264  1.00  0.00    -0.421 A  
HETATM   36  C   UNL     1     -11.307  12.791  65.912  1.00  0.00    -0.363 A  
ENDBRANCH   2  23
TORSDOF 5
ENDMDL
MODEL      157
REMARK 921   NORMALIZED FREE ENERGY PREDICTED BY IDOCK:   -5.01 KCAL/MOL
REMARK 922        TOTAL FREE ENERGY PREDICTED BY IDOCK:   -9.34 KCAL/MOL
REMARK 923 INTER-LIGAND FREE ENERGY PREDICTED BY IDOCK:   -7.74 KCAL/MOL
REMARK 924 INTRA-LIGAND FREE ENERGY PREDICTED BY IDOCK:   -1.59 KCAL/MOL
REMARK 927      BINDING AFFINITY PREDICTED BY RF-SCORE:    0.00 PKD
ROOT
HETATM    1  C   UNL     1      -8.558   8.621  65.092  1.00  0.00    -0.200 C  
HETATM    2  C   UNL     1      -7.678   8.208  66.270  1.00  0.00    -0.094 C  
ENDROOT
BRANCH   2   3
HETATM    3  O   UNL     1      -7.732   9.176  67.318  1.00  0.00    -0.094 OA 
BRANCH   3   4
HETATM    4  C   UNL     1      -8.217  10.462  66.904  1.00  0.00    -0.124 C  
BRANCH   4   5
HETATM    5  C   UNL     1      -9.384  10.911  67.853  1.00  0.00    -0.156 C  
HETATM    6  C   UNL     1     -10.851  12.886  66.138  1.00  0.00    -0.279 C  
HETATM    7  C   UNL     1      -9.559  13.280  66.872  1.00  0.00    -0.249 C  
HETATM    8  N   UNL     1     -10.904  13.560  64.860  1.00  0.00    -0.341 NA 
HETATM    9  H   UNL     1     -11.459  10.730  67.843  1.00  0.00     0.000 HD 
HETATM   10  C   UNL     1      -9.322  12.434  68.125  1.00  0.00    -0.209 C  
HETATM   11  O   UNL     1     -12.454  14.535  63.476  1.00  0.00    -0.727 OA 
HETATM   12  C   UNL     1     -10.920  11.347  65.953  1.00  0.00    -0.207 C  
HETATM   13  C   UNL     1     -12.105  13.414  66.862  1.00  0.00    -0.406 C  
HETATM   14  C   UNL     1     -12.141  14.073  64.559  1.00  0.00    -0.459 C  
HETATM   15  C   UNL     1     -13.027  13.947  65.764  1.00  0.00    -0.325 C  
HETATM   16  N   UNL     1     -10.686  10.597  67.192  1.00  0.00    -0.268 NA 
BRANCH   5  17
HETATM   17  C   UNL     1      -9.302  10.184  69.223  1.00  0.00    -0.227 A  
HETATM   18  C   UNL     1      -9.190   8.840  71.714  1.00  0.00    -0.332 A  
HETATM   19  C   UNL     1     -10.414   9.254  71.198  1.00  0.00    -0.401 A  
HETATM   20  C   UNL     1     -10.466   9.923  69.969  1.00  0.00    -0.331 A  
HETATM   21  C   UNL     1      -8.075   9.788  69.790  1.00  0.00    -0.174 A  
HETATM   22  C   UNL     1      -8.022   9.114  71.015  1.00  0.00    -0.166 A  
ENDBRANCH   5  17
ENDBRANCH   4   5
ENDBRANCH   3   4
ENDBRANCH   2   3
BRANCH   2  23
HETATM   23  C   UNL     1      -8.162   6.872  66.812  1.00  0.00    -0.114 A  
HETATM   24  F   UNL     1      -7.923   3.507  64.348  1.00  0.00    -0.082 F  
HETATM   25  C   UNL     1      -8.078   5.727  66.006  1.00  0.00    -0.110 A  
HETATM   26  F   UNL     1     -10.996   6.318  70.008  1.00  0.00    -0.285 F  
HETATM   27  C   UNL     1      -8.593   4.494  66.435  1.00  0.00    -0.112 A  
HETATM   28  C   UNL     1      -9.194   4.412  67.702  1.00  0.00    -0.169 A  
HETATM   29  F   UNL     1      -9.091   5.773  70.906  1.00  0.00    -0.138 F  
HETATM   30  C   UNL     1      -8.526   3.273  65.547  1.00  0.00    -0.106 C  
HETATM   31  F   UNL     1     -10.435   4.225  70.184  1.00  0.00    -0.190 F  
HETATM   32  C   UNL     1      -9.942   5.462  69.891  1.00  0.00    -0.224 C  
HETATM   33  F   UNL     1      -7.837   2.249  66.119  1.00  0.00    -0.071 F  
HETATM   34  F   UNL     1      -9.760   2.781  65.252  1.00  0.00    -0.122 F  
HETATM   35  C   UNL     1      -8.766   6.763  68.076  1.00  0.00    -0.118 A  
HETATM   36  C   UNL     1      -9.284   5.540  68.533  1.00  0.00    -0.133 A  
ENDBRANCH   2  23
TORSDOF 5
ENDMDL
MODEL      158
REMARK 921   NORMALIZED FREE ENERGY PREDICTED BY IDOCK:   -4.99 KCAL/MOL
REMARK 922        TOTAL FREE ENERGY PREDICTED BY IDOCK:   -9.31 KCAL/MOL
REMARK 923 INTER-LIGAND FREE ENERGY PREDICTED BY IDOCK:   -5.54 KCAL/MOL
REMARK 924 INTRA-LIGAND FREE ENERGY PREDICTED BY IDOCK:   -3.76 KCAL/MOL
REMARK 927      BINDING AFFINITY PREDICTED BY RF-SCORE:    0.00 PKD
ROOT
HETATM    1  C   UNL     1      -9.679   5.357  66.425  1.00  0.00    -0.183 C  
HETATM    2  C   UNL     1     -10.490   5.830  67.630  1.00  0.00    -0.235 C  
ENDROOT
BRANCH   2   3
HETATM    3  O   UNL     1      -9.883   5.416  68.855  1.00  0.00    -0.142 OA 
BRANCH   3   4
HETATM    4  C   UNL     1      -8.451   5.334  68.800  1.00  0.00    -0.092 C  
BRANCH   4   5
HETATM    5  C   UNL     1      -7.833   6.237  69.925  1.00  0.00    -0.110 C  
HETATM    6  C   UNL     1      -7.957   4.425  72.312  1.00  0.00    -0.096 C  
HETATM    7  C   UNL     1      -9.204   5.181  71.826  1.00  0.00    -0.168 C  
HETATM    8  N   UNL     1      -8.347   3.126  72.814  1.00  0.00    -0.078 NA 
HETATM    9  H   UNL     1      -6.116   6.178  71.103  1.00  0.00     0.000 HD 
HETATM   10  C   UNL     1      -8.848   6.465  71.073  1.00  0.00    -0.139 C  
HETATM   11  O   UNL     1      -7.772   1.672  74.494  1.00  0.00    -0.032 OA 
HETATM   12  C   UNL     1      -6.927   4.285  71.160  1.00  0.00    -0.036 C  
HETATM   13  C   UNL     1      -7.324   5.099  73.544  1.00  0.00    -0.091 C  
HETATM   14  C   UNL     1      -7.718   2.776  73.982  1.00  0.00    -0.059 C  
HETATM   15  C   UNL     1      -6.952   3.960  74.496  1.00  0.00    -0.059 C  
HETATM   16  N   UNL     1      -6.630   5.552  70.483  1.00  0.00    -0.038 NA 
BRANCH   5  17
HETATM   17  C   UNL     1      -7.433   7.631  69.368  1.00  0.00    -0.089 A  
HETATM   18  C   UNL     1      -6.716  10.159  68.312  1.00  0.00    -0.054 A  
HETATM   19  C   UNL     1      -6.538   9.008  67.551  1.00  0.00    -0.065 A  
HETATM   20  C   UNL     1      -6.889   7.759  68.077  1.00  0.00    -0.072 A  
HETATM   21  C   UNL     1      -7.565   8.809  70.128  1.00  0.00    -0.072 A  
HETATM   22  C   UNL     1      -7.221  10.059  69.602  1.00  0.00    -0.119 A  
ENDBRANCH   5  17
ENDBRANCH   4   5
ENDBRANCH   3   4
ENDBRANCH   2   3
BRANCH   2  23
HETATM   23  C   UNL     1     -10.572   7.349  67.614  1.00  0.00    -0.309 A  
HETATM   24  F   UNL     1      -9.222   9.389  64.228  1.00  0.00    -0.266 F  
HETATM   25  C   UNL     1     -10.137   8.052  66.481  1.00  0.00    -0.270 A  
HETATM   26  F   UNL     1     -10.721   9.910  71.073  1.00  0.00    -0.364 F  
HETATM   27  C   UNL     1     -10.115   9.456  66.459  1.00  0.00    -0.332 A  
HETATM   28  C   UNL     1     -10.548  10.160  67.594  1.00  0.00    -0.316 A  
HETATM   29  F   UNL     1     -12.749   9.984  70.287  1.00  0.00    -0.267 F  
HETATM   30  C   UNL     1      -9.614  10.205  65.246  1.00  0.00    -0.277 C  
HETATM   31  F   UNL     1     -11.350  11.587  69.843  1.00  0.00    -0.311 F  
HETATM   32  C   UNL     1     -11.450  10.234  69.968  1.00  0.00    -0.296 C  
HETATM   33  F   UNL     1     -10.556  11.034  64.720  1.00  0.00    -0.353 F  
HETATM   34  F   UNL     1      -8.538  10.988  65.530  1.00  0.00    -0.178 F  
HETATM   35  C   UNL     1     -11.003   8.077  68.735  1.00  0.00     0.140 A  
HETATM   36  C   UNL     1     -10.996   9.482  68.738  1.00  0.00    -0.116 A  
ENDBRANCH   2  23
TORSDOF 5
ENDMDL
MODEL      159
REMARK 921   NORMALIZED FREE ENERGY PREDICTED BY IDOCK:   -4.95 KCAL/MOL
REMARK 922        TOTAL FREE ENERGY PREDICTED BY IDOCK:   -9.26 KCAL/MOL
REMARK 923 INTER-LIGAND FREE ENERGY PREDICTED BY IDOCK:   -8.08 KCAL/MOL
REMARK 924 INTRA-LIGAND FREE ENERGY PREDICTED BY IDOCK:   -1.19 KCAL/MOL
REMARK 927      BINDING AFFINITY PREDICTED BY RF-SCORE:    0.00 PKD
ROOT
HETATM    1  C   UNL     1     -10.377  10.761  66.868  1.00  0.00    -0.290 C  
HETATM    2  C   UNL     1     -11.513  10.649  67.883  1.00  0.00    -0.181 C  
ENDROOT
BRANCH   2   3
HETATM    3  O   UNL     1     -11.322   9.531  68.749  1.00  0.00     0.024 OA 
BRANCH   3   4
HETATM    4  C   UNL     1      -9.957   9.099  68.857  1.00  0.00    -0.180 C  
BRANCH   4   5
HETATM    5  C   UNL     1      -9.918   7.606  69.339  1.00  0.00    -0.180 C  
HETATM    6  C   UNL     1      -9.439   6.137  66.769  1.00  0.00    -0.146 C  
HETATM    7  C   UNL     1     -10.841   6.646  67.141  1.00  0.00    -0.471 C  
HETATM    8  N   UNL     1      -9.251   6.248  65.340  1.00  0.00     0.173 NA 
HETATM    9  H   UNL     1      -8.475   6.106  69.413  1.00  0.00     0.000 HD 
HETATM   10  C   UNL     1     -11.030   6.773  68.655  1.00  0.00    -0.261 C  
HETATM   11  O   UNL     1      -8.245   5.097  63.628  1.00  0.00    -0.109 OA 
HETATM   12  C   UNL     1      -8.353   6.938  67.533  1.00  0.00    -0.123 C  
HETATM   13  C   UNL     1      -9.293   4.624  67.022  1.00  0.00    -0.153 C  
HETATM   14  C   UNL     1      -8.644   5.153  64.777  1.00  0.00    -0.148 C  
HETATM   15  C   UNL     1      -8.542   4.069  65.810  1.00  0.00    -0.110 C  
HETATM   16  N   UNL     1      -8.593   7.020  68.978  1.00  0.00    -0.129 NA 
BRANCH   5  17
HETATM   17  C   UNL     1     -10.135   7.508  70.874  1.00  0.00    -0.192 A  
HETATM   18  C   UNL     1     -10.574   7.327  73.666  1.00  0.00    -0.353 A  
HETATM   19  C   UNL     1     -11.472   8.021  72.862  1.00  0.00    -0.329 A  
HETATM   20  C   UNL     1     -11.250   8.113  71.483  1.00  0.00    -0.307 A  
HETATM   21  C   UNL     1      -9.225   6.846  71.720  1.00  0.00    -0.143 A  
HETATM   22  C   UNL     1      -9.448   6.748  73.098  1.00  0.00    -0.166 A  
ENDBRANCH   5  17
ENDBRANCH   4   5
ENDBRANCH   3   4
ENDBRANCH   2   3
BRANCH   2  23
HETATM   23  C   UNL     1     -11.560  11.916  68.723  1.00  0.00    -0.366 A  
HETATM   24  F   UNL     1     -13.990  11.975  72.121  1.00  0.00    -0.302 F  
HETATM   25  C   UNL     1     -12.360  11.952  69.876  1.00  0.00    -0.168 A  
HETATM   26  F   UNL     1     -10.623  15.891  67.357  1.00  0.00    -0.287 F  
HETATM   27  C   UNL     1     -12.499  13.128  70.629  1.00  0.00    -0.363 A  
HETATM   28  C   UNL     1     -11.815  14.283  70.219  1.00  0.00    -0.377 A  
HETATM   29  F   UNL     1      -8.922  15.359  68.604  1.00  0.00    -0.162 F  
HETATM   30  C   UNL     1     -13.387  13.166  71.851  1.00  0.00    -0.455 C  
HETATM   31  F   UNL     1     -10.513  16.604  69.407  1.00  0.00    -0.266 F  
HETATM   32  C   UNL     1     -10.273  15.517  68.620  1.00  0.00    -0.216 C  
HETATM   33  F   UNL     1     -12.707  13.505  72.980  1.00  0.00    -0.309 F  
HETATM   34  F   UNL     1     -14.394  14.073  71.730  1.00  0.00    -0.471 F  
HETATM   35  C   UNL     1     -10.884  13.085  68.336  1.00  0.00    -0.280 A  
HETATM   36  C   UNL     1     -11.002  14.274  69.074  1.00  0.00    -0.282 A  
ENDBRANCH   2  23
TORSDOF 5
ENDMDL
MODEL      160
REMARK 921   NORMALIZED FREE ENERGY PREDICTED BY IDOCK:   -4.95 KCAL/MOL
REMARK 922        TOTAL FREE ENERGY PREDICTED BY IDOCK:   -9.26 KCAL/MOL
REMARK 923 INTER-LIGAND FREE ENERGY PREDICTED BY IDOCK:   -8.09 KCAL/MOL
REMARK 924 INTRA-LIGAND FREE ENERGY PREDICTED BY IDOCK:   -1.17 KCAL/MOL
REMARK 927      BINDING AFFINITY PREDICTED BY RF-SCORE:    0.00 PKD
ROOT
HETATM    1  C   UNL     1      -9.927  11.455  65.548  1.00  0.00    -0.282 C  
HETATM    2  C   UNL     1      -9.904  11.386  67.074  1.00  0.00    -0.191 C  
ENDROOT
BRANCH   2   3
HETATM    3  O   UNL     1      -8.684  10.815  67.546  1.00  0.00    -0.125 OA 
BRANCH   3   4
HETATM    4  C   UNL     1      -8.738  10.361  68.907  1.00  0.00    -0.157 C  
BRANCH   4   5
HETATM    5  C   UNL     1      -8.969   8.808  68.930  1.00  0.00    -0.134 C  
HETATM    6  C   UNL     1     -11.227   8.546  70.886  1.00  0.00    -0.266 C  
HETATM    7  C   UNL     1      -9.781   8.747  71.367  1.00  0.00    -0.351 C  
HETATM    8  N   UNL     1     -12.131   9.240  71.776  1.00  0.00    -0.369 NA 
HETATM    9  H   UNL     1     -10.510   7.526  68.362  1.00  0.00     0.000 HD 
HETATM   10  C   UNL     1      -8.755   8.237  70.353  1.00  0.00    -0.139 C  
HETATM   11  O   UNL     1     -14.218   8.962  72.690  1.00  0.00    -0.563 OA 
HETATM   12  C   UNL     1     -11.387   9.054  69.429  1.00  0.00     0.247 C  
HETATM   13  C   UNL     1     -11.673   7.077  71.013  1.00  0.00    -0.375 C  
HETATM   14  C   UNL     1     -13.254   8.518  72.093  1.00  0.00    -0.352 C  
HETATM   15  C   UNL     1     -13.099   7.121  71.566  1.00  0.00    -0.427 C  
HETATM   16  N   UNL     1     -10.374   8.526  68.510  1.00  0.00    -0.206 NA 
BRANCH   5  17
HETATM   17  C   UNL     1      -7.980   8.082  67.978  1.00  0.00    -0.128 A  
HETATM   18  C   UNL     1      -6.201   6.768  66.208  1.00  0.00    -0.044 A  
HETATM   19  C   UNL     1      -7.565   6.796  65.934  1.00  0.00    -0.087 A  
HETATM   20  C   UNL     1      -8.443   7.441  66.813  1.00  0.00    -0.124 A  
HETATM   21  C   UNL     1      -6.600   8.003  68.247  1.00  0.00    -0.056 A  
HETATM   22  C   UNL     1      -5.721   7.364  67.366  1.00  0.00    -0.034 A  
ENDBRANCH   5  17
ENDBRANCH   4   5
ENDBRANCH   3   4
ENDBRANCH   2   3
BRANCH   2  23
HETATM   23  C   UNL     1     -10.040  12.790  67.641  1.00  0.00    -0.220 A  
HETATM   24  F   UNL     1     -12.447  13.364  71.007  1.00  0.00    -0.396 F  
HETATM   25  C   UNL     1     -10.833  13.002  68.779  1.00  0.00    -0.277 A  
HETATM   26  F   UNL     1      -9.406  16.462  65.481  1.00  0.00    -0.275 F  
HETATM   27  C   UNL     1     -11.054  14.294  69.283  1.00  0.00    -0.297 A  
HETATM   28  C   UNL     1     -10.459  15.388  68.633  1.00  0.00    -0.237 A  
HETATM   29  F   UNL     1      -7.663  16.316  66.775  1.00  0.00    -0.202 F  
HETATM   30  C   UNL     1     -11.935  14.516  70.490  1.00  0.00    -0.318 C  
HETATM   31  F   UNL     1      -9.337  17.582  67.342  1.00  0.00    -0.240 F  
HETATM   32  C   UNL     1      -9.023  16.378  66.786  1.00  0.00    -0.236 C  
HETATM   33  F   UNL     1     -11.276  15.125  71.512  1.00  0.00    -0.384 F  
HETATM   34  F   UNL     1     -13.007  15.306  70.209  1.00  0.00    -0.381 F  
HETATM   35  C   UNL     1      -9.454  13.901  67.012  1.00  0.00    -0.256 A  
HETATM   36  C   UNL     1      -9.654  15.204  67.497  1.00  0.00    -0.207 A  
ENDBRANCH   2  23
TORSDOF 5
ENDMDL
MODEL      161
REMARK 921   NORMALIZED FREE ENERGY PREDICTED BY IDOCK:   -4.95 KCAL/MOL
REMARK 922        TOTAL FREE ENERGY PREDICTED BY IDOCK:   -9.25 KCAL/MOL
REMARK 923 INTER-LIGAND FREE ENERGY PREDICTED BY IDOCK:   -8.03 KCAL/MOL
REMARK 924 INTRA-LIGAND FREE ENERGY PREDICTED BY IDOCK:   -1.23 KCAL/MOL
REMARK 927      BINDING AFFINITY PREDICTED BY RF-SCORE:    0.00 PKD
ROOT
HETATM    1  C   UNL     1      -7.541   8.442  68.528  1.00  0.00    -0.096 C  
HETATM    2  C   UNL     1      -8.519   9.117  69.486  1.00  0.00    -0.128 C  
ENDROOT
BRANCH   2   3
HETATM    3  O   UNL     1      -9.372  10.031  68.796  1.00  0.00    -0.149 OA 
BRANCH   3   4
HETATM    4  C   UNL     1      -8.673  11.085  68.117  1.00  0.00    -0.141 C  
BRANCH   4   5
HETATM    5  C   UNL     1      -9.663  11.834  67.156  1.00  0.00    -0.183 C  
HETATM    6  C   UNL     1     -10.907  13.848  68.997  1.00  0.00    -0.225 C  
HETATM    7  C   UNL     1     -11.372  12.383  68.995  1.00  0.00    -0.336 C  
HETATM    8  N   UNL     1     -10.963  14.369  70.345  1.00  0.00     0.075 NA 
HETATM    9  H   UNL     1      -9.822  13.769  66.401  1.00  0.00     0.000 HD 
HETATM   10  C   UNL     1     -11.124  11.697  67.650  1.00  0.00    -0.314 C  
HETATM   11  O   UNL     1     -11.475  16.327  71.427  1.00  0.00    -0.422 OA 
HETATM   12  C   UNL     1      -9.471  13.960  68.422  1.00  0.00    -0.211 C  
HETATM   13  C   UNL     1     -11.884  14.760  68.231  1.00  0.00    -0.316 C  
HETATM   14  C   UNL     1     -11.482  15.637  70.424  1.00  0.00    -0.354 C  
HETATM   15  C   UNL     1     -12.028  16.024  69.080  1.00  0.00    -0.187 C  
HETATM   16  N   UNL     1      -9.302  13.282  67.132  1.00  0.00    -0.231 NA 
BRANCH   5  17
HETATM   17  C   UNL     1      -9.596  11.251  65.718  1.00  0.00    -0.256 A  
HETATM   18  C   UNL     1      -9.472  10.148  63.112  1.00  0.00    -0.296 A  
HETATM   19  C   UNL     1      -8.794   9.537  64.162  1.00  0.00    -0.243 A  
HETATM   20  C   UNL     1      -8.853  10.087  65.448  1.00  0.00    -0.199 A  
HETATM   21  C   UNL     1     -10.239  11.868  64.628  1.00  0.00    -0.316 A  
HETATM   22  C   UNL     1     -10.186  11.316  63.343  1.00  0.00    -0.454 A  
ENDBRANCH   5  17
ENDBRANCH   4   5
ENDBRANCH   3   4
ENDBRANCH   2   3
BRANCH   2  23
HETATM   23  C   UNL     1      -9.380   8.056  70.155  1.00  0.00    -0.156 A  
HETATM   24  F   UNL     1      -7.974   4.123  70.270  1.00  0.00    -0.051 F  
HETATM   25  C   UNL     1      -8.920   6.732  70.216  1.00  0.00    -0.152 A  
HETATM   26  F   UNL     1     -13.643   8.249  70.729  1.00  0.00    -0.019 F  
HETATM   27  C   UNL     1      -9.719   5.706  70.746  1.00  0.00    -0.228 A  
HETATM   28  C   UNL     1     -10.999   6.024  71.230  1.00  0.00    -0.340 A  
HETATM   29  F   UNL     1     -12.838   8.577  72.723  1.00  0.00    -0.391 F  
HETATM   30  C   UNL     1      -9.228   4.278  70.779  1.00  0.00    -0.137 C  
HETATM   31  F   UNL     1     -13.558   6.607  72.150  1.00  0.00    -0.306 F  
HETATM   32  C   UNL     1     -12.863   7.687  71.694  1.00  0.00    -0.349 C  
HETATM   33  F   UNL     1      -9.185   3.770  72.041  1.00  0.00    -0.131 F  
HETATM   34  F   UNL     1     -10.026   3.441  70.062  1.00  0.00    -0.226 F  
HETATM   35  C   UNL     1     -10.662   8.347  70.648  1.00  0.00    -0.245 A  
HETATM   36  C   UNL     1     -11.481   7.341  71.188  1.00  0.00    -0.312 A  
ENDBRANCH   2  23
TORSDOF 5
ENDMDL
MODEL      162
REMARK 921   NORMALIZED FREE ENERGY PREDICTED BY IDOCK:   -4.93 KCAL/MOL
REMARK 922        TOTAL FREE ENERGY PREDICTED BY IDOCK:   -9.23 KCAL/MOL
REMARK 923 INTER-LIGAND FREE ENERGY PREDICTED BY IDOCK:   -8.07 KCAL/MOL
REMARK 924 INTRA-LIGAND FREE ENERGY PREDICTED BY IDOCK:   -1.17 KCAL/MOL
REMARK 927      BINDING AFFINITY PREDICTED BY RF-SCORE:    0.00 PKD
ROOT
HETATM    1  C   UNL     1      -7.241  10.665  67.050  1.00  0.00    -0.101 C  
HETATM    2  C   UNL     1      -8.418   9.999  66.339  1.00  0.00    -0.129 C  
ENDROOT
BRANCH   2   3
HETATM    3  O   UNL     1      -8.776   8.771  66.972  1.00  0.00    -0.121 OA 
BRANCH   3   4
HETATM    4  C   UNL     1      -8.043   8.498  68.176  1.00  0.00    -0.119 C  
BRANCH   4   5
HETATM    5  C   UNL     1      -8.447   7.084  68.724  1.00  0.00    -0.122 C  
HETATM    6  C   UNL     1     -10.763   7.750  70.509  1.00  0.00    -0.236 C  
HETATM    7  C   UNL     1      -9.315   7.966  70.976  1.00  0.00    -0.167 C  
HETATM    8  N   UNL     1     -11.604   8.798  71.044  1.00  0.00    -0.282 NA 
HETATM    9  H   UNL     1     -10.109   5.841  68.546  1.00  0.00     0.000 HD 
HETATM   10  C   UNL     1      -8.330   7.033  70.268  1.00  0.00    -0.133 C  
HETATM   11  O   UNL     1     -13.728   9.065  71.870  1.00  0.00    -0.396 OA 
HETATM   12  C   UNL     1     -10.833   7.725  68.959  1.00  0.00    -0.021 C  
HETATM   13  C   UNL     1     -11.375   6.471  71.112  1.00  0.00    -0.367 C  
HETATM   14  C   UNL     1     -12.807   8.347  71.524  1.00  0.00    -0.303 C  
HETATM   15  C   UNL     1     -12.799   6.846  71.527  1.00  0.00    -0.384 C  
HETATM   16  N   UNL     1      -9.865   6.810  68.344  1.00  0.00    -0.134 NA 
BRANCH   5  17
HETATM   17  C   UNL     1      -7.525   5.975  68.146  1.00  0.00    -0.089 A  
HETATM   18  C   UNL     1      -5.876   3.925  67.098  1.00  0.00    -0.023 A  
HETATM   19  C   UNL     1      -6.795   3.637  68.103  1.00  0.00    -0.047 A  
HETATM   20  C   UNL     1      -7.605   4.653  68.623  1.00  0.00    -0.068 A  
HETATM   21  C   UNL     1      -6.559   6.242  67.157  1.00  0.00    -0.058 A  
HETATM   22  C   UNL     1      -5.753   5.227  66.632  1.00  0.00    -0.018 A  
ENDBRANCH   5  17
ENDBRANCH   4   5
ENDBRANCH   3   4
ENDBRANCH   2   3
BRANCH   2  23
HETATM   23  C   UNL     1      -9.617  10.934  66.370  1.00  0.00    -0.229 A  
HETATM   24  F   UNL     1     -11.795  11.515  62.853  1.00  0.00    -0.307 F  
HETATM   25  C   UNL     1     -10.370  11.132  65.203  1.00  0.00    -0.354 A  
HETATM   26  F   UNL     1     -10.268  14.115  69.200  1.00  0.00    -0.226 F  
HETATM   27  C   UNL     1     -11.430  12.052  65.167  1.00  0.00    -0.344 A  
HETATM   28  C   UNL     1     -11.740  12.777  66.330  1.00  0.00    -0.460 A  
HETATM   29  F   UNL     1     -11.690  12.584  69.807  1.00  0.00    -0.334 F  
HETATM   30  C   UNL     1     -12.215  12.282  63.898  1.00  0.00    -0.515 C  
HETATM   31  F   UNL     1     -12.351  14.266  68.599  1.00  0.00    -0.344 F  
HETATM   32  C   UNL     1     -11.329  13.379  68.763  1.00  0.00    -0.292 C  
HETATM   33  F   UNL     1     -13.541  12.016  64.048  1.00  0.00    -0.350 F  
HETATM   34  F   UNL     1     -12.135  13.571  63.467  1.00  0.00    -0.509 F  
HETATM   35  C   UNL     1      -9.950  11.670  67.520  1.00  0.00    -0.202 A  
HETATM   36  C   UNL     1     -11.009  12.593  67.514  1.00  0.00    -0.280 A  
ENDBRANCH   2  23
TORSDOF 5
ENDMDL
MODEL      163
REMARK 921   NORMALIZED FREE ENERGY PREDICTED BY IDOCK:   -4.93 KCAL/MOL
REMARK 922        TOTAL FREE ENERGY PREDICTED BY IDOCK:   -9.23 KCAL/MOL
REMARK 923 INTER-LIGAND FREE ENERGY PREDICTED BY IDOCK:   -7.57 KCAL/MOL
REMARK 924 INTRA-LIGAND FREE ENERGY PREDICTED BY IDOCK:   -1.66 KCAL/MOL
REMARK 927      BINDING AFFINITY PREDICTED BY RF-SCORE:    0.00 PKD
ROOT
HETATM    1  C   UNL     1     -12.076  12.771  70.504  1.00  0.00    -0.369 C  
HETATM    2  C   UNL     1     -11.967  11.682  69.439  1.00  0.00    -0.316 C  
ENDROOT
BRANCH   2   3
HETATM    3  O   UNL     1     -11.225  12.139  68.308  1.00  0.00    -0.228 OA 
BRANCH   3   4
HETATM    4  C   UNL     1     -11.170  11.199  67.225  1.00  0.00    -0.277 C  
BRANCH   4   5
HETATM    5  C   UNL     1     -10.165  11.715  66.135  1.00  0.00    -0.226 C  
HETATM    6  C   UNL     1      -8.272   9.402  65.893  1.00  0.00    -0.115 C  
HETATM    7  C   UNL     1      -8.157  10.401  67.055  1.00  0.00    -0.116 C  
HETATM    8  N   UNL     1      -7.928   8.077  66.361  1.00  0.00    -0.099 NA 
HETATM    9  H   UNL     1      -9.666  11.158  64.191  1.00  0.00     0.000 HD 
HETATM   10  C   UNL     1      -8.723  11.777  66.697  1.00  0.00    -0.186 C  
HETATM   11  O   UNL     1      -6.851   6.196  65.606  1.00  0.00    -0.050 OA 
HETATM   12  C   UNL     1      -9.706   9.423  65.301  1.00  0.00    -0.114 C  
HETATM   13  C   UNL     1      -7.217   9.669  64.802  1.00  0.00    -0.119 C  
HETATM   14  C   UNL     1      -7.128   7.377  65.493  1.00  0.00    -0.061 C  
HETATM   15  C   UNL     1      -6.683   8.295  64.393  1.00  0.00    -0.066 C  
HETATM   16  N   UNL     1     -10.186  10.771  64.979  1.00  0.00    -0.302 NA 
BRANCH   5  17
HETATM   17  C   UNL     1     -10.544  13.143  65.656  1.00  0.00    -0.289 A  
HETATM   18  C   UNL     1     -11.278  15.736  64.787  1.00  0.00    -0.375 A  
HETATM   19  C   UNL     1     -12.081  14.643  64.477  1.00  0.00    -0.490 A  
HETATM   20  C   UNL     1     -11.714  13.361  64.904  1.00  0.00    -0.379 A  
HETATM   21  C   UNL     1      -9.733  14.263  65.919  1.00  0.00    -0.289 A  
HETATM   22  C   UNL     1     -10.102  15.546  65.499  1.00  0.00    -0.406 A  
ENDBRANCH   5  17
ENDBRANCH   4   5
ENDBRANCH   3   4
ENDBRANCH   2   3
BRANCH   2  23
HETATM   23  C   UNL     1     -11.261  10.472  70.030  1.00  0.00    -0.386 A  
HETATM   24  F   UNL     1      -7.084  10.420  70.086  1.00  0.00    -0.125 F  
HETATM   25  C   UNL     1      -9.859  10.441  70.071  1.00  0.00     0.044 A  
HETATM   26  F   UNL     1     -12.915   6.513  70.404  1.00  0.00    -0.154 F  
HETATM   27  C   UNL     1      -9.168   9.307  70.528  1.00  0.00    -0.311 A  
HETATM   28  C   UNL     1      -9.903   8.191  70.959  1.00  0.00    -0.212 A  
HETATM   29  F   UNL     1     -12.916   7.269  72.444  1.00  0.00    -0.154 F  
HETATM   30  C   UNL     1      -7.658   9.270  70.538  1.00  0.00    -0.139 C  
HETATM   31  F   UNL     1     -11.327   5.945  71.774  1.00  0.00    -0.309 F  
HETATM   32  C   UNL     1     -12.104   6.995  71.387  1.00  0.00    -0.355 C  
HETATM   33  F   UNL     1      -7.149   9.064  71.783  1.00  0.00    -0.103 F  
HETATM   34  F   UNL     1      -7.159   8.274  69.757  1.00  0.00    -0.051 F  
HETATM   35  C   UNL     1     -11.972   9.344  70.470  1.00  0.00    -0.154 A  
HETATM   36  C   UNL     1     -11.307   8.198  70.937  1.00  0.00    -0.286 A  
ENDBRANCH   2  23
TORSDOF 5
ENDMDL
MODEL      164
REMARK 921   NORMALIZED FREE ENERGY PREDICTED BY IDOCK:   -4.91 KCAL/MOL
REMARK 922        TOTAL FREE ENERGY PREDICTED BY IDOCK:   -9.21 KCAL/MOL
REMARK 923 INTER-LIGAND FREE ENERGY PREDICTED BY IDOCK:   -7.72 KCAL/MOL
REMARK 924 INTRA-LIGAND FREE ENERGY PREDICTED BY IDOCK:   -1.49 KCAL/MOL
REMARK 927      BINDING AFFINITY PREDICTED BY RF-SCORE:    0.00 PKD
ROOT
HETATM    1  C   UNL     1      -6.971   9.813  68.897  1.00  0.00    -0.062 C  
HETATM    2  C   UNL     1      -7.962   8.974  68.093  1.00  0.00    -0.101 C  
ENDROOT
BRANCH   2   3
HETATM    3  O   UNL     1      -8.844   8.253  68.952  1.00  0.00    -0.139 OA 
BRANCH   3   4
HETATM    4  C   UNL     1      -8.668   8.541  70.347  1.00  0.00    -0.149 C  
BRANCH   4   5
HETATM    5  C   UNL     1      -9.797   7.829  71.174  1.00  0.00    -0.169 C  
HETATM    6  C   UNL     1      -8.561   5.153  71.730  1.00  0.00    -0.130 C  
HETATM    7  C   UNL     1      -9.196   5.464  70.365  1.00  0.00    -0.190 C  
HETATM    8  N   UNL     1      -7.409   4.301  71.543  1.00  0.00    -0.054 NA 
HETATM    9  H   UNL     1      -9.993   7.133  73.128  1.00  0.00     0.000 HD 
HETATM   10  C   UNL     1     -10.279   6.542  70.460  1.00  0.00    -0.224 C  
HETATM   11  O   UNL     1      -6.363   2.544  72.585  1.00  0.00    -0.012 OA 
HETATM   12  C   UNL     1      -8.164   6.467  72.454  1.00  0.00    -0.106 C  
HETATM   13  C   UNL     1      -9.490   4.294  72.610  1.00  0.00    -0.165 C  
HETATM   14  C   UNL     1      -7.325   3.279  72.455  1.00  0.00    -0.051 C  
HETATM   15  C   UNL     1      -8.590   3.241  73.262  1.00  0.00    -0.078 C  
HETATM   16  N   UNL     1      -9.247   7.454  72.511  1.00  0.00    -0.138 NA 
BRANCH   5  17
HETATM   17  C   UNL     1     -11.029   8.756  71.354  1.00  0.00    -0.360 A  
HETATM   18  C   UNL     1     -13.285  10.430  71.720  1.00  0.00    -0.529 A  
HETATM   19  C   UNL     1     -13.291   9.131  72.219  1.00  0.00    -0.540 A  
HETATM   20  C   UNL     1     -12.177   8.304  72.032  1.00  0.00    -0.398 A  
HETATM   21  C   UNL     1     -11.069  10.062  70.828  1.00  0.00    -0.407 A  
HETATM   22  C   UNL     1     -12.179  10.892  71.019  1.00  0.00    -0.464 A  
ENDBRANCH   5  17
ENDBRANCH   4   5
ENDBRANCH   3   4
ENDBRANCH   2   3
BRANCH   2  23
HETATM   23  C   UNL     1      -8.787   9.891  67.203  1.00  0.00    -0.146 A  
HETATM   24  F   UNL     1      -8.392   9.544  63.058  1.00  0.00    -0.135 F  
HETATM   25  C   UNL     1      -8.680   9.781  65.808  1.00  0.00    -0.160 A  
HETATM   26  F   UNL     1     -10.437  13.703  68.340  1.00  0.00    -0.220 F  
HETATM   27  C   UNL     1      -9.357  10.665  64.953  1.00  0.00    -0.271 A  
HETATM   28  C   UNL     1     -10.162  11.670  65.514  1.00  0.00    -0.302 A  
HETATM   29  F   UNL     1     -12.170  12.391  68.267  1.00  0.00    -0.362 F  
HETATM   30  C   UNL     1      -9.210  10.560  63.453  1.00  0.00    -0.276 C  
HETATM   31  F   UNL     1     -11.726  13.703  66.591  1.00  0.00    -0.331 F  
HETATM   32  C   UNL     1     -11.149  12.885  67.516  1.00  0.00    -0.269 C  
HETATM   33  F   UNL     1     -10.399  10.349  62.826  1.00  0.00    -0.187 F  
HETATM   34  F   UNL     1      -8.689  11.691  62.904  1.00  0.00    -0.173 F  
HETATM   35  C   UNL     1      -9.602  10.903  67.738  1.00  0.00    -0.176 A  
HETATM   36  C   UNL     1     -10.295  11.798  66.906  1.00  0.00    -0.247 A  
ENDBRANCH   2  23
TORSDOF 5
ENDMDL
MODEL      165
REMARK 921   NORMALIZED FREE ENERGY PREDICTED BY IDOCK:   -4.88 KCAL/MOL
REMARK 922        TOTAL FREE ENERGY PREDICTED BY IDOCK:   -9.17 KCAL/MOL
REMARK 923 INTER-LIGAND FREE ENERGY PREDICTED BY IDOCK:   -8.50 KCAL/MOL
REMARK 924 INTRA-LIGAND FREE ENERGY PREDICTED BY IDOCK:   -0.67 KCAL/MOL
REMARK 927      BINDING AFFINITY PREDICTED BY RF-SCORE:    0.00 PKD
ROOT
HETATM    1  C   UNL     1     -13.135  10.075  70.529  1.00  0.00    -0.119 C  
HETATM    2  C   UNL     1     -11.746  10.690  70.370  1.00  0.00    -0.353 C  
ENDROOT
BRANCH   2   3
HETATM    3  O   UNL     1     -11.075  10.162  69.227  1.00  0.00    -0.225 OA 
BRANCH   3   4
HETATM    4  C   UNL     1      -9.660   9.991  69.405  1.00  0.00    -0.222 C  
BRANCH   4   5
HETATM    5  C   UNL     1      -9.100   9.058  68.274  1.00  0.00    -0.133 C  
HETATM    6  C   UNL     1     -10.066  10.443  65.794  1.00  0.00    -0.262 C  
HETATM    7  C   UNL     1     -11.007   9.554  66.623  1.00  0.00     0.192 C  
HETATM    8  N   UNL     1     -10.809  11.560  65.255  1.00  0.00    -0.280 NA 
HETATM    9  H   UNL     1      -7.698   9.253  66.745  1.00  0.00     0.000 HD 
HETATM   10  C   UNL     1     -10.250   8.482  67.411  1.00  0.00    -0.329 C  
HETATM   11  O   UNL     1     -10.891  12.827  63.344  1.00  0.00    -0.351 OA 
HETATM   12  C   UNL     1      -8.882  10.937  66.667  1.00  0.00    -0.159 C  
HETATM   13  C   UNL     1      -9.560   9.720  64.531  1.00  0.00    -0.201 C  
HETATM   14  C   UNL     1     -10.509  11.840  63.946  1.00  0.00    -0.390 C  
HETATM   15  C   UNL     1      -9.628  10.752  63.404  1.00  0.00    -0.375 C  
HETATM   16  N   UNL     1      -8.200   9.860  67.393  1.00  0.00    -0.117 NA 
BRANCH   5  17
HETATM   17  C   UNL     1      -8.317   7.859  68.874  1.00  0.00    -0.127 A  
HETATM   18  C   UNL     1      -6.921   5.664  69.994  1.00  0.00    -0.065 A  
HETATM   19  C   UNL     1      -7.776   6.426  70.785  1.00  0.00    -0.102 A  
HETATM   20  C   UNL     1      -8.460   7.513  70.231  1.00  0.00    -0.138 A  
HETATM   21  C   UNL     1      -7.416   7.093  68.109  1.00  0.00    -0.099 A  
HETATM   22  C   UNL     1      -6.735   6.002  68.661  1.00  0.00    -0.061 A  
ENDBRANCH   5  17
ENDBRANCH   4   5
ENDBRANCH   3   4
ENDBRANCH   2   3
BRANCH   2  23
HETATM   23  C   UNL     1     -11.881  12.196  70.205  1.00  0.00    -0.339 A  
HETATM   24  F   UNL     1     -10.343  13.978  66.754  1.00  0.00    -0.260 F  
HETATM   25  C   UNL     1     -11.383  12.812  69.047  1.00  0.00    -0.346 A  
HETATM   26  F   UNL     1     -12.394  15.051  73.389  1.00  0.00    -0.433 F  
HETATM   27  C   UNL     1     -11.410  14.208  68.896  1.00  0.00    -0.308 A  
HETATM   28  C   UNL     1     -11.956  14.993  69.924  1.00  0.00    -0.374 A  
HETATM   29  F   UNL     1     -14.354  14.966  72.450  1.00  0.00    -0.503 F  
HETATM   30  C   UNL     1     -10.843  14.865  67.659  1.00  0.00    -0.286 C  
HETATM   31  F   UNL     1     -12.984  16.582  71.963  1.00  0.00    -0.247 F  
HETATM   32  C   UNL     1     -13.044  15.242  72.207  1.00  0.00    -0.382 C  
HETATM   33  F   UNL     1     -11.769  15.602  66.988  1.00  0.00    -0.150 F  
HETATM   34  F   UNL     1      -9.821  15.716  67.948  1.00  0.00    -0.213 F  
HETATM   35  C   UNL     1     -12.424  13.004  71.218  1.00  0.00    -0.315 A  
HETATM   36  C   UNL     1     -12.468  14.402  71.090  1.00  0.00    -0.429 A  
ENDBRANCH   2  23
TORSDOF 5
ENDMDL
MODEL      166
REMARK 921   NORMALIZED FREE ENERGY PREDICTED BY IDOCK:   -4.88 KCAL/MOL
REMARK 922        TOTAL FREE ENERGY PREDICTED BY IDOCK:   -9.17 KCAL/MOL
REMARK 923 INTER-LIGAND FREE ENERGY PREDICTED BY IDOCK:   -5.77 KCAL/MOL
REMARK 924 INTRA-LIGAND FREE ENERGY PREDICTED BY IDOCK:   -3.40 KCAL/MOL
REMARK 927      BINDING AFFINITY PREDICTED BY RF-SCORE:    0.00 PKD
ROOT
HETATM    1  C   UNL     1      -9.718   7.223  65.931  1.00  0.00     0.320 C  
HETATM    2  C   UNL     1     -10.521   7.906  67.036  1.00  0.00    -0.349 C  
ENDROOT
BRANCH   2   3
HETATM    3  O   UNL     1      -9.934   7.677  68.317  1.00  0.00    -0.164 OA 
BRANCH   3   4
HETATM    4  C   UNL     1      -8.502   7.580  68.297  1.00  0.00    -0.125 C  
BRANCH   4   5
HETATM    5  C   UNL     1      -7.892   8.667  69.250  1.00  0.00    -0.101 C  
HETATM    6  C   UNL     1      -7.992   7.285  71.910  1.00  0.00    -0.091 C  
HETATM    7  C   UNL     1      -9.248   7.935  71.307  1.00  0.00    -0.170 C  
HETATM    8  N   UNL     1      -8.367   6.086  72.626  1.00  0.00    -0.118 NA 
HETATM    9  H   UNL     1      -6.172   8.826  70.415  1.00  0.00     0.000 HD 
HETATM   10  C   UNL     1      -8.907   9.076  70.346  1.00  0.00    -0.228 C  
HETATM   11  O   UNL     1      -7.774   4.944  74.526  1.00  0.00    -0.088 OA 
HETATM   12  C   UNL     1      -6.962   6.962  70.795  1.00  0.00    -0.066 C  
HETATM   13  C   UNL     1      -7.364   8.164  73.008  1.00  0.00    -0.161 C  
HETATM   14  C   UNL     1      -7.733   5.946  73.835  1.00  0.00    -0.095 C  
HETATM   15  C   UNL     1      -6.978   7.207  74.138  1.00  0.00    -0.089 C  
HETATM   16  N   UNL     1      -6.680   8.098  69.912  1.00  0.00    -0.043 NA 
BRANCH   5  17
HETATM   17  C   UNL     1      -7.507   9.950  68.464  1.00  0.00    -0.082 A  
HETATM   18  C   UNL     1      -6.819  12.270  66.992  1.00  0.00    -0.034 A  
HETATM   19  C   UNL     1      -6.631  11.008  66.435  1.00  0.00    -0.126 A  
HETATM   20  C   UNL     1      -6.967   9.863  67.167  1.00  0.00    -0.084 A  
HETATM   21  C   UNL     1      -7.649  11.238  69.013  1.00  0.00    -0.106 A  
HETATM   22  C   UNL     1      -7.319  12.384  68.281  1.00  0.00    -0.113 A  
ENDBRANCH   5  17
ENDBRANCH   4   5
ENDBRANCH   3   4
ENDBRANCH   2   3
BRANCH   2  23
HETATM   23  C   UNL     1     -10.556   9.405  66.776  1.00  0.00    -0.210 A  
HETATM   24  F   UNL     1     -11.773  11.943  69.863  1.00  0.00    -0.333 F  
HETATM   25  C   UNL     1     -10.949  10.275  67.804  1.00  0.00    -0.360 A  
HETATM   26  F   UNL     1     -10.900  11.294  62.921  1.00  0.00    -0.287 F  
HETATM   27  C   UNL     1     -11.079  11.655  67.580  1.00  0.00    -0.333 A  
HETATM   28  C   UNL     1     -10.800  12.165  66.301  1.00  0.00    -0.317 A  
HETATM   29  F   UNL     1      -8.826  11.636  63.481  1.00  0.00    -0.014 F  
HETATM   30  C   UNL     1     -11.533  12.581  68.684  1.00  0.00    -0.306 C  
HETATM   31  F   UNL     1     -10.304  13.204  63.769  1.00  0.00    -0.396 F  
HETATM   32  C   UNL     1     -10.109  11.859  63.876  1.00  0.00    -0.370 C  
HETATM   33  F   UNL     1     -10.619  13.549  68.961  1.00  0.00    -0.232 F  
HETATM   34  F   UNL     1     -12.687  13.231  68.372  1.00  0.00     0.029 F  
HETATM   35  C   UNL     1     -10.280   9.941  65.508  1.00  0.00    -0.194 A  
HETATM   36  C   UNL     1     -10.397  11.318  65.257  1.00  0.00    -0.337 A  
ENDBRANCH   2  23
TORSDOF 5
ENDMDL
MODEL      167
REMARK 921   NORMALIZED FREE ENERGY PREDICTED BY IDOCK:   -4.88 KCAL/MOL
REMARK 922        TOTAL FREE ENERGY PREDICTED BY IDOCK:   -9.17 KCAL/MOL
REMARK 923 INTER-LIGAND FREE ENERGY PREDICTED BY IDOCK:   -7.73 KCAL/MOL
REMARK 924 INTRA-LIGAND FREE ENERGY PREDICTED BY IDOCK:   -1.44 KCAL/MOL
REMARK 927      BINDING AFFINITY PREDICTED BY RF-SCORE:    0.00 PKD
ROOT
HETATM    1  C   UNL     1     -12.128  12.569  69.998  1.00  0.00    -0.337 C  
HETATM    2  C   UNL     1     -11.964  11.614  68.818  1.00  0.00    -0.264 C  
ENDROOT
BRANCH   2   3
HETATM    3  O   UNL     1     -10.958  12.075  67.916  1.00  0.00    -0.200 OA 
BRANCH   3   4
HETATM    4  C   UNL     1     -11.396  12.178  66.553  1.00  0.00    -0.350 C  
BRANCH   4   5
HETATM    5  C   UNL     1     -10.225  12.736  65.669  1.00  0.00    -0.279 C  
HETATM    6  C   UNL     1      -8.819  10.219  64.841  1.00  0.00    -0.192 C  
HETATM    7  C   UNL     1      -8.599  10.827  66.236  1.00  0.00    -0.163 C  
HETATM    8  N   UNL     1      -8.786   8.777  64.935  1.00  0.00    -0.163 NA 
HETATM    9  H   UNL     1      -9.695  12.619  63.658  1.00  0.00     0.000 HD 
HETATM   10  C   UNL     1      -8.848  12.337  66.257  1.00  0.00    -0.010 C  
HETATM   11  O   UNL     1      -8.051   6.977  63.716  1.00  0.00    -0.093 OA 
HETATM   12  C   UNL     1     -10.169  10.703  64.248  1.00  0.00    -0.320 C  
HETATM   13  C   UNL     1      -7.650  10.533  63.889  1.00  0.00     0.073 C  
HETATM   14  C   UNL     1      -8.076   8.176  63.925  1.00  0.00    -0.114 C  
HETATM   15  C   UNL     1      -7.371   9.235  63.129  1.00  0.00    -0.102 C  
HETATM   16  N   UNL     1     -10.342  12.158  64.298  1.00  0.00    -0.312 NA 
BRANCH   5  17
HETATM   17  C   UNL     1     -10.272  14.286  65.592  1.00  0.00    -0.366 A  
HETATM   18  C   UNL     1     -10.400  17.112  65.444  1.00  0.00    -0.038 A  
HETATM   19  C   UNL     1     -11.199  16.332  64.613  1.00  0.00    -0.264 A  
HETATM   20  C   UNL     1     -11.130  14.936  64.685  1.00  0.00    -0.335 A  
HETATM   21  C   UNL     1      -9.449  15.103  66.392  1.00  0.00    -0.325 A  
HETATM   22  C   UNL     1      -9.521  16.499  66.326  1.00  0.00    -0.339 A  
ENDBRANCH   5  17
ENDBRANCH   4   5
ENDBRANCH   3   4
ENDBRANCH   2   3
BRANCH   2  23
HETATM   23  C   UNL     1     -11.565  10.241  69.337  1.00  0.00    -0.213 A  
HETATM   24  F   UNL     1     -12.927   9.050  73.102  1.00  0.00    -0.354 F  
HETATM   25  C   UNL     1     -12.023   9.816  70.593  1.00  0.00    -0.340 A  
HETATM   26  F   UNL     1      -8.127   7.968  68.085  1.00  0.00    -0.119 F  
HETATM   27  C   UNL     1     -11.607   8.595  71.145  1.00  0.00    -0.330 A  
HETATM   28  C   UNL     1     -10.723   7.784  70.415  1.00  0.00    -0.238 A  
HETATM   29  F   UNL     1      -9.800   6.922  67.169  1.00  0.00    -0.155 F  
HETATM   30  C   UNL     1     -12.080   8.160  72.513  1.00  0.00    -0.318 C  
HETATM   31  F   UNL     1      -8.933   6.178  69.018  1.00  0.00    -0.123 F  
HETATM   32  C   UNL     1      -9.292   7.320  68.367  1.00  0.00    -0.143 C  
HETATM   33  F   UNL     1     -12.747   6.975  72.482  1.00  0.00    -0.098 F  
HETATM   34  F   UNL     1     -11.051   7.992  73.387  1.00  0.00    -0.385 F  
HETATM   35  C   UNL     1     -10.683   9.410  68.625  1.00  0.00    -0.196 A  
HETATM   36  C   UNL     1     -10.255   8.180  69.152  1.00  0.00    -0.219 A  
ENDBRANCH   2  23
TORSDOF 5
ENDMDL
MODEL      168
REMARK 921   NORMALIZED FREE ENERGY PREDICTED BY IDOCK:   -4.87 KCAL/MOL
REMARK 922        TOTAL FREE ENERGY PREDICTED BY IDOCK:   -9.16 KCAL/MOL
REMARK 923 INTER-LIGAND FREE ENERGY PREDICTED BY IDOCK:   -9.04 KCAL/MOL
REMARK 924 INTRA-LIGAND FREE ENERGY PREDICTED BY IDOCK:   -0.11 KCAL/MOL
REMARK 927      BINDING AFFINITY PREDICTED BY RF-SCORE:    0.00 PKD
ROOT
HETATM    1  C   UNL     1     -11.656  12.492  66.882  1.00  0.00    -0.436 C  
HETATM    2  C   UNL     1     -11.671  12.159  68.372  1.00  0.00    -0.332 C  
ENDROOT
BRANCH   2   3
HETATM    3  O   UNL     1     -10.611  11.266  68.713  1.00  0.00    -0.188 OA 
BRANCH   3   4
HETATM    4  C   UNL     1     -10.864   9.897  68.365  1.00  0.00    -0.221 C  
BRANCH   4   5
HETATM    5  C   UNL     1      -9.504   9.117  68.290  1.00  0.00    -0.142 C  
HETATM    6  C   UNL     1      -7.561  11.318  67.681  1.00  0.00    -0.106 C  
HETATM    7  C   UNL     1      -8.438  10.708  66.577  1.00  0.00    -0.144 C  
HETATM    8  N   UNL     1      -7.387  12.732  67.433  1.00  0.00    -0.149 NA 
HETATM    9  H   UNL     1      -7.741   9.095  69.399  1.00  0.00     0.000 HD 
HETATM   10  C   UNL     1      -8.854   9.269  66.893  1.00  0.00    -0.141 C  
HETATM   11  O   UNL     1      -5.766  14.343  67.638  1.00  0.00    -0.306 OA 
HETATM   12  C   UNL     1      -8.200  11.077  69.074  1.00  0.00    -0.098 C  
HETATM   13  C   UNL     1      -6.119  10.777  67.632  1.00  0.00    -0.047 C  
HETATM   14  C   UNL     1      -6.103  13.173  67.633  1.00  0.00    -0.146 C  
HETATM   15  C   UNL     1      -5.211  11.987  67.860  1.00  0.00    -0.060 C  
HETATM   16  N   UNL     1      -8.573   9.679  69.313  1.00  0.00    -0.142 NA 
BRANCH   5  17
HETATM   17  C   UNL     1      -9.714   7.600  68.548  1.00  0.00    -0.162 A  
HETATM   18  C   UNL     1     -10.140   4.840  69.025  1.00  0.00    -0.171 A  
HETATM   19  C   UNL     1     -10.857   5.792  69.743  1.00  0.00    -0.419 A  
HETATM   20  C   UNL     1     -10.642   7.155  69.509  1.00  0.00    -0.247 A  
HETATM   21  C   UNL     1      -8.977   6.614  67.866  1.00  0.00    -0.112 A  
HETATM   22  C   UNL     1      -9.195   5.250  68.094  1.00  0.00    -0.129 A  
ENDBRANCH   5  17
ENDBRANCH   4   5
ENDBRANCH   3   4
ENDBRANCH   2   3
BRANCH   2  23
HETATM   23  C   UNL     1     -11.506  13.442  69.173  1.00  0.00    -0.351 A  
HETATM   24  F   UNL     1     -13.334  13.711  72.920  1.00  0.00    -0.587 F  
HETATM   25  C   UNL     1     -12.101  13.548  70.440  1.00  0.00    -0.415 A  
HETATM   26  F   UNL     1     -10.581  17.327  67.560  1.00  0.00    -0.330 F  
HETATM   27  C   UNL     1     -12.046  14.744  71.173  1.00  0.00    -0.391 A  
HETATM   28  C   UNL     1     -11.373  15.848  70.623  1.00  0.00    -0.421 A  
HETATM   29  F   UNL     1      -8.731  16.715  68.527  1.00  0.00    -0.203 F  
HETATM   30  C   UNL     1     -12.716  14.859  72.522  1.00  0.00    -0.364 C  
HETATM   31  F   UNL     1     -10.093  18.069  69.544  1.00  0.00    -0.246 F  
HETATM   32  C   UNL     1     -10.050  16.956  68.759  1.00  0.00    -0.295 C  
HETATM   33  F   UNL     1     -11.841  15.176  73.514  1.00  0.00    -0.497 F  
HETATM   34  F   UNL     1     -13.676  15.823  72.542  1.00  0.00    -0.518 F  
HETATM   35  C   UNL     1     -10.837  14.560  68.648  1.00  0.00    -0.259 A  
HETATM   36  C   UNL     1     -10.763  15.768  69.362  1.00  0.00    -0.266 A  
ENDBRANCH   2  23
TORSDOF 5
ENDMDL
MODEL      169
REMARK 921   NORMALIZED FREE ENERGY PREDICTED BY IDOCK:   -4.87 KCAL/MOL
REMARK 922        TOTAL FREE ENERGY PREDICTED BY IDOCK:   -9.15 KCAL/MOL
REMARK 923 INTER-LIGAND FREE ENERGY PREDICTED BY IDOCK:   -7.32 KCAL/MOL
REMARK 924 INTRA-LIGAND FREE ENERGY PREDICTED BY IDOCK:   -1.83 KCAL/MOL
REMARK 927      BINDING AFFINITY PREDICTED BY RF-SCORE:    0.00 PKD
ROOT
HETATM    1  C   UNL     1     -12.409  10.643  69.401  1.00  0.00    -0.071 C  
HETATM    2  C   UNL     1     -11.205  11.561  69.605  1.00  0.00    -0.204 C  
ENDROOT
BRANCH   2   3
HETATM    3  O   UNL     1      -9.983  10.825  69.573  1.00  0.00    -0.174 OA 
BRANCH   3   4
HETATM    4  C   UNL     1      -9.947   9.793  68.576  1.00  0.00    -0.160 C  
BRANCH   4   5
HETATM    5  C   UNL     1      -8.521   9.748  67.922  1.00  0.00    -0.125 C  
HETATM    6  C   UNL     1      -8.574   7.108  66.500  1.00  0.00    -0.129 C  
HETATM    7  C   UNL     1      -8.322   7.188  68.014  1.00  0.00    -0.119 C  
HETATM    8  N   UNL     1      -9.343   5.921  66.201  1.00  0.00    -0.155 NA 
HETATM    9  H   UNL     1      -7.779   9.757  65.975  1.00  0.00     0.000 HD 
HETATM   10  C   UNL     1      -7.714   8.529  68.432  1.00  0.00    -0.101 C  
HETATM   11  O   UNL     1      -9.487   4.312  64.571  1.00  0.00    -0.157 OA 
HETATM   12  C   UNL     1      -9.311   8.381  66.007  1.00  0.00    -0.177 C  
HETATM   13  C   UNL     1      -7.268   6.884  65.713  1.00  0.00    -0.073 C  
HETATM   14  C   UNL     1      -8.899   5.240  65.096  1.00  0.00    -0.129 C  
HETATM   15  C   UNL     1      -7.601   5.842  64.642  1.00  0.00    -0.089 C  
HETATM   16  N   UNL     1      -8.677   9.630  66.442  1.00  0.00    -0.133 NA 
BRANCH   5  17
HETATM   17  C   UNL     1      -7.708  11.026  68.264  1.00  0.00    -0.113 A  
HETATM   18  C   UNL     1      -6.190  13.332  68.899  1.00  0.00    -0.088 A  
HETATM   19  C   UNL     1      -6.005  12.154  69.616  1.00  0.00    -0.117 A  
HETATM   20  C   UNL     1      -6.759  11.018  69.304  1.00  0.00    -0.099 A  
HETATM   21  C   UNL     1      -7.900  12.243  67.583  1.00  0.00    -0.156 A  
HETATM   22  C   UNL     1      -7.142  13.379  67.890  1.00  0.00    -0.137 A  
ENDBRANCH   5  17
ENDBRANCH   4   5
ENDBRANCH   3   4
ENDBRANCH   2   3
BRANCH   2  23
HETATM   23  C   UNL     1     -11.177  12.604  68.498  1.00  0.00    -0.315 A  
HETATM   24  F   UNL     1      -9.974  16.492  69.441  1.00  0.00    -0.238 F  
HETATM   25  C   UNL     1     -10.763  13.912  68.791  1.00  0.00    -0.278 A  
HETATM   26  F   UNL     1     -13.455  12.475  64.845  1.00  0.00    -0.257 F  
HETATM   27  C   UNL     1     -10.805  14.925  67.819  1.00  0.00    -0.286 A  
HETATM   28  C   UNL     1     -11.264  14.610  66.530  1.00  0.00    -0.346 A  
HETATM   29  F   UNL     1     -11.426  12.022  64.205  1.00  0.00    -0.359 F  
HETATM   30  C   UNL     1     -10.387  16.338  68.152  1.00  0.00    -0.277 C  
HETATM   31  F   UNL     1     -12.214  14.035  63.979  1.00  0.00    -0.469 F  
HETATM   32  C   UNL     1     -12.184  12.966  64.825  1.00  0.00    -0.445 C  
HETATM   33  F   UNL     1      -9.360  16.775  67.375  1.00  0.00    -0.224 F  
HETATM   34  F   UNL     1     -11.399  17.231  67.978  1.00  0.00    -0.284 F  
HETATM   35  C   UNL     1     -11.629  12.315  67.200  1.00  0.00    -0.423 A  
HETATM   36  C   UNL     1     -11.677  13.308  66.207  1.00  0.00    -0.412 A  
ENDBRANCH   2  23
TORSDOF 5
ENDMDL
MODEL      170
REMARK 921   NORMALIZED FREE ENERGY PREDICTED BY IDOCK:   -4.85 KCAL/MOL
REMARK 922        TOTAL FREE ENERGY PREDICTED BY IDOCK:   -9.13 KCAL/MOL
REMARK 923 INTER-LIGAND FREE ENERGY PREDICTED BY IDOCK:   -7.10 KCAL/MOL
REMARK 924 INTRA-LIGAND FREE ENERGY PREDICTED BY IDOCK:   -2.03 KCAL/MOL
REMARK 927      BINDING AFFINITY PREDICTED BY RF-SCORE:    0.00 PKD
ROOT
HETATM    1  C   UNL     1      -6.880   9.476  68.360  1.00  0.00    -0.062 C  
HETATM    2  C   UNL     1      -7.458   9.810  69.734  1.00  0.00    -0.127 C  
ENDROOT
BRANCH   2   3
HETATM    3  O   UNL     1      -8.534  10.742  69.628  1.00  0.00     0.004 OA 
BRANCH   3   4
HETATM    4  C   UNL     1      -9.470  10.440  68.583  1.00  0.00    -0.167 C  
BRANCH   4   5
HETATM    5  C   UNL     1     -10.861  11.081  68.926  1.00  0.00    -0.217 C  
HETATM    6  C   UNL     1     -10.922  13.447  67.083  1.00  0.00    -0.280 C  
HETATM    7  C   UNL     1     -10.124  13.486  68.397  1.00  0.00    -0.240 C  
HETATM    8  N   UNL     1     -10.216  14.197  66.069  1.00  0.00    -0.297 NA 
HETATM    9  H   UNL     1     -12.651  11.383  67.903  1.00  0.00     0.000 HD 
HETATM   10  C   UNL     1     -10.690  12.529  69.449  1.00  0.00     0.124 C  
HETATM   11  O   UNL     1     -10.680  15.590  64.304  1.00  0.00    -0.106 OA 
HETATM   12  C   UNL     1     -11.146  11.981  66.630  1.00  0.00    -0.310 C  
HETATM   13  C   UNL     1     -12.261  14.201  67.205  1.00  0.00    -0.348 C  
HETATM   14  C   UNL     1     -11.031  14.999  65.309  1.00  0.00    -0.382 C  
HETATM   15  C   UNL     1     -12.407  15.001  65.909  1.00  0.00     0.310 C  
HETATM   16  N   UNL     1     -11.690  11.118  67.685  1.00  0.00    -0.598 NA 
BRANCH   5  17
HETATM   17  C   UNL     1     -11.597  10.268  70.025  1.00  0.00    -0.349 A  
HETATM   18  C   UNL     1     -12.904   8.760  72.035  1.00  0.00    -0.442 A  
HETATM   19  C   UNL     1     -12.045   8.132  71.137  1.00  0.00    -0.281 A  
HETATM   20  C   UNL     1     -11.405   8.879  70.142  1.00  0.00    -0.119 A  
HETATM   21  C   UNL     1     -12.500  10.867  70.923  1.00  0.00    -0.507 A  
HETATM   22  C   UNL     1     -13.137  10.123  71.923  1.00  0.00    -0.571 A  
ENDBRANCH   5  17
ENDBRANCH   4   5
ENDBRANCH   3   4
ENDBRANCH   2   3
BRANCH   2  23
HETATM   23  C   UNL     1      -7.977   8.535  70.382  1.00  0.00    -0.099 A  
HETATM   24  F   UNL     1      -7.900   8.235  74.548  1.00  0.00    -0.235 F  
HETATM   25  C   UNL     1      -7.973   8.420  71.781  1.00  0.00    -0.173 A  
HETATM   26  F   UNL     1      -8.241   4.670  68.503  1.00  0.00    -0.082 F  
HETATM   27  C   UNL     1      -8.361   7.229  72.414  1.00  0.00    -0.122 A  
HETATM   28  C   UNL     1      -8.769   6.141  71.626  1.00  0.00    -0.135 A  
HETATM   29  F   UNL     1     -10.309   5.336  68.607  1.00  0.00    -0.230 F  
HETATM   30  C   UNL     1      -8.323   7.103  73.919  1.00  0.00    -0.146 C  
HETATM   31  F   UNL     1      -9.536   3.950  70.093  1.00  0.00    -0.212 F  
HETATM   32  C   UNL     1      -9.217   5.061  69.370  1.00  0.00    -0.108 C  
HETATM   33  F   UNL     1      -9.541   6.813  74.450  1.00  0.00    -0.217 F  
HETATM   34  F   UNL     1      -7.486   6.113  74.334  1.00  0.00    -0.092 F  
HETATM   35  C   UNL     1      -8.393   7.434  69.617  1.00  0.00    -0.132 A  
HETATM   36  C   UNL     1      -8.792   6.232  70.225  1.00  0.00    -0.153 A  
ENDBRANCH   2  23
TORSDOF 5
ENDMDL
MODEL      171
REMARK 921   NORMALIZED FREE ENERGY PREDICTED BY IDOCK:   -4.84 KCAL/MOL
REMARK 922        TOTAL FREE ENERGY PREDICTED BY IDOCK:   -9.12 KCAL/MOL
REMARK 923 INTER-LIGAND FREE ENERGY PREDICTED BY IDOCK:   -6.57 KCAL/MOL
REMARK 924 INTRA-LIGAND FREE ENERGY PREDICTED BY IDOCK:   -2.55 KCAL/MOL
REMARK 927      BINDING AFFINITY PREDICTED BY RF-SCORE:    0.00 PKD
ROOT
HETATM    1  C   UNL     1     -11.475   6.152  70.373  1.00  0.00    -0.342 C  
HETATM    2  C   UNL     1     -10.986   6.641  69.010  1.00  0.00    -0.279 C  
ENDROOT
BRANCH   2   3
HETATM    3  O   UNL     1     -10.576   8.007  69.069  1.00  0.00    -0.215 OA 
BRANCH   3   4
HETATM    4  C   UNL     1     -10.514   8.655  67.789  1.00  0.00    -0.224 C  
BRANCH   4   5
HETATM    5  C   UNL     1      -9.483   9.837  67.852  1.00  0.00    -0.130 C  
HETATM    6  C   UNL     1     -10.921  11.994  66.344  1.00  0.00    -0.296 C  
HETATM    7  C   UNL     1     -10.193  10.861  65.604  1.00  0.00    -0.323 C  
HETATM    8  N   UNL     1     -12.115  12.356  65.614  1.00  0.00    -0.584 NA 
HETATM    9  H   UNL     1      -9.442  11.728  68.724  1.00  0.00     0.000 HD 
HETATM   10  C   UNL     1      -9.048  10.269  66.430  1.00  0.00    -0.174 C  
HETATM   11  O   UNL     1     -13.331  14.234  65.100  1.00  0.00    -0.626 OA 
HETATM   12  C   UNL     1     -11.270  11.557  67.791  1.00  0.00    -0.279 C  
HETATM   13  C   UNL     1     -10.102  13.299  66.341  1.00  0.00    -0.290 C  
HETATM   14  C   UNL     1     -12.317  13.711  65.526  1.00  0.00    -0.482 C  
HETATM   15  C   UNL     1     -11.104  14.419  66.054  1.00  0.00    -0.324 C  
HETATM   16  N   UNL     1     -10.130  11.001  68.527  1.00  0.00    -0.183 NA 
BRANCH   5  17
HETATM   17  C   UNL     1      -8.204   9.423  68.629  1.00  0.00    -0.112 A  
HETATM   18  C   UNL     1      -5.894   8.668  70.084  1.00  0.00    -0.027 A  
HETATM   19  C   UNL     1      -6.831   9.523  70.656  1.00  0.00    -0.115 A  
HETATM   20  C   UNL     1      -7.969   9.899  69.933  1.00  0.00    -0.193 A  
HETATM   21  C   UNL     1      -7.218   8.591  68.064  1.00  0.00    -0.087 A  
HETATM   22  C   UNL     1      -6.083   8.210  68.788  1.00  0.00    -0.044 A  
ENDBRANCH   5  17
ENDBRANCH   4   5
ENDBRANCH   3   4
ENDBRANCH   2   3
BRANCH   2  23
HETATM   23  C   UNL     1      -9.803   5.793  68.569  1.00  0.00    -0.177 A  
HETATM   24  F   UNL     1      -6.611   5.280  71.214  1.00  0.00    -0.035 F  
HETATM   25  C   UNL     1      -8.727   5.597  69.447  1.00  0.00    -0.109 A  
HETATM   26  F   UNL     1      -8.656   4.980  64.498  1.00  0.00    -0.129 F  
HETATM   27  C   UNL     1      -7.579   4.895  69.048  1.00  0.00    -0.068 A  
HETATM   28  C   UNL     1      -7.519   4.375  67.745  1.00  0.00    -0.069 A  
HETATM   29  F   UNL     1      -9.503   3.097  65.183  1.00  0.00    -0.149 F  
HETATM   30  C   UNL     1      -6.411   4.716  69.990  1.00  0.00    -0.035 C  
HETATM   31  F   UNL     1      -7.347   3.374  65.155  1.00  0.00    -0.065 F  
HETATM   32  C   UNL     1      -8.522   4.004  65.439  1.00  0.00    -0.109 C  
HETATM   33  F   UNL     1      -6.125   3.407  70.223  1.00  0.00    -0.020 F  
HETATM   34  F   UNL     1      -5.267   5.273  69.507  1.00  0.00    -0.003 F  
HETATM   35  C   UNL     1      -9.720   5.260  67.272  1.00  0.00    -0.163 A  
HETATM   36  C   UNL     1      -8.585   4.549  66.847  1.00  0.00    -0.104 A  
ENDBRANCH   2  23
TORSDOF 5
ENDMDL
MODEL      172
REMARK 921   NORMALIZED FREE ENERGY PREDICTED BY IDOCK:   -4.83 KCAL/MOL
REMARK 922        TOTAL FREE ENERGY PREDICTED BY IDOCK:   -9.11 KCAL/MOL
REMARK 923 INTER-LIGAND FREE ENERGY PREDICTED BY IDOCK:   -8.45 KCAL/MOL
REMARK 924 INTRA-LIGAND FREE ENERGY PREDICTED BY IDOCK:   -0.66 KCAL/MOL
REMARK 927      BINDING AFFINITY PREDICTED BY RF-SCORE:    0.00 PKD
ROOT
HETATM    1  C   UNL     1      -7.554  10.630  68.197  1.00  0.00    -0.092 C  
HETATM    2  C   UNL     1      -8.876  10.837  68.933  1.00  0.00    -0.150 C  
ENDROOT
BRANCH   2   3
HETATM    3  O   UNL     1      -9.851  11.443  68.084  1.00  0.00    -0.178 OA 
BRANCH   3   4
HETATM    4  C   UNL     1     -10.103  12.826  68.377  1.00  0.00    -0.226 C  
BRANCH   4   5
HETATM    5  C   UNL     1      -9.928  13.676  67.069  1.00  0.00    -0.248 C  
HETATM    6  C   UNL     1      -8.457  16.083  68.089  1.00  0.00    -0.169 C  
HETATM    7  C   UNL     1      -9.976  15.943  68.279  1.00  0.00    -0.222 C  
HETATM    8  N   UNL     1      -7.885  16.741  69.242  1.00  0.00    -0.139 NA 
HETATM    9  H   UNL     1      -8.315  14.305  65.911  1.00  0.00     0.000 HD 
HETATM   10  C   UNL     1     -10.617  15.056  67.209  1.00  0.00    -0.279 C  
HETATM   11  O   UNL     1      -6.229  18.252  69.733  1.00  0.00    -0.239 OA 
HETATM   12  C   UNL     1      -7.809  14.690  67.870  1.00  0.00    -0.136 C  
HETATM   13  C   UNL     1      -8.111  17.043  66.934  1.00  0.00    -0.252 C  
HETATM   14  C   UNL     1      -6.948  17.692  68.925  1.00  0.00    -0.251 C  
HETATM   15  C   UNL     1      -6.950  17.901  67.439  1.00  0.00    -0.200 C  
HETATM   16  N   UNL     1      -8.470  13.893  66.831  1.00  0.00    -0.131 NA 
BRANCH   5  17
HETATM   17  C   UNL     1     -10.559  12.958  65.845  1.00  0.00    -0.287 A  
HETATM   18  C   UNL     1     -11.708  11.610  63.635  1.00  0.00    -0.406 A  
HETATM   19  C   UNL     1     -10.744  10.978  64.415  1.00  0.00    -0.340 A  
HETATM   20  C   UNL     1     -10.175  11.648  65.503  1.00  0.00    -0.302 A  
HETATM   21  C   UNL     1     -11.507  13.584  65.014  1.00  0.00    -0.334 A  
HETATM   22  C   UNL     1     -12.083  12.914  63.929  1.00  0.00    -0.553 A  
ENDBRANCH   5  17
ENDBRANCH   4   5
ENDBRANCH   3   4
ENDBRANCH   2   3
BRANCH   2  23
HETATM   23  C   UNL     1      -9.406   9.490  69.401  1.00  0.00    -0.185 A  
HETATM   24  F   UNL     1      -9.534   6.332  66.669  1.00  0.00    -0.141 F  
HETATM   25  C   UNL     1      -9.444   8.412  68.503  1.00  0.00    -0.149 A  
HETATM   26  F   UNL     1     -12.055   8.833  72.732  1.00  0.00    -0.415 F  
HETATM   27  C   UNL     1     -10.005   7.178  68.869  1.00  0.00    -0.163 A  
HETATM   28  C   UNL     1     -10.526   7.026  70.164  1.00  0.00    -0.232 A  
HETATM   29  F   UNL     1     -10.133   8.110  73.450  1.00  0.00    -0.373 F  
HETATM   30  C   UNL     1     -10.071   6.034  67.885  1.00  0.00    -0.155 C  
HETATM   31  F   UNL     1     -11.614   6.705  72.704  1.00  0.00    -0.281 F  
HETATM   32  C   UNL     1     -11.066   7.932  72.476  1.00  0.00    -0.362 C  
HETATM   33  F   UNL     1      -9.411   4.929  68.326  1.00  0.00    -0.131 F  
HETATM   34  F   UNL     1     -11.349   5.637  67.639  1.00  0.00    -0.162 F  
HETATM   35  C   UNL     1      -9.931   9.310  70.691  1.00  0.00    -0.336 A  
HETATM   36  C   UNL     1     -10.494   8.085  71.086  1.00  0.00    -0.230 A  
ENDBRANCH   2  23
TORSDOF 5
ENDMDL
MODEL      173
REMARK 921   NORMALIZED FREE ENERGY PREDICTED BY IDOCK:   -4.82 KCAL/MOL
REMARK 922        TOTAL FREE ENERGY PREDICTED BY IDOCK:   -9.10 KCAL/MOL
REMARK 923 INTER-LIGAND FREE ENERGY PREDICTED BY IDOCK:   -5.78 KCAL/MOL
REMARK 924 INTRA-LIGAND FREE ENERGY PREDICTED BY IDOCK:   -3.32 KCAL/MOL
REMARK 927      BINDING AFFINITY PREDICTED BY RF-SCORE:    0.00 PKD
ROOT
HETATM    1  C   UNL     1     -11.980   7.256  71.260  1.00  0.00    -0.359 C  
HETATM    2  C   UNL     1     -11.196   7.419  69.959  1.00  0.00    -0.180 C  
ENDROOT
BRANCH   2   3
HETATM    3  O   UNL     1     -10.696   8.749  69.821  1.00  0.00    -0.228 OA 
BRANCH   3   4
HETATM    4  C   UNL     1     -11.283   9.486  68.738  1.00  0.00     0.098 C  
BRANCH   4   5
HETATM    5  C   UNL     1     -10.150   9.993  67.777  1.00  0.00    -0.183 C  
HETATM    6  C   UNL     1     -10.776  12.920  67.573  1.00  0.00    -0.226 C  
HETATM    7  C   UNL     1     -11.564  11.882  66.757  1.00  0.00    -0.341 C  
HETATM    8  N   UNL     1     -11.661  13.989  67.977  1.00  0.00    -0.340 NA 
HETATM    9  H   UNL     1      -8.520  11.279  67.950  1.00  0.00     0.000 HD 
HETATM   10  C   UNL     1     -10.751  10.613  66.491  1.00  0.00    -0.218 C  
HETATM   11  O   UNL     1     -11.614  16.265  68.264  1.00  0.00    -0.301 OA 
HETATM   12  C   UNL     1     -10.120  12.250  68.810  1.00  0.00    -0.068 C  
HETATM   13  C   UNL     1      -9.724  13.646  66.713  1.00  0.00    -0.275 C  
HETATM   14  C   UNL     1     -11.114  15.239  67.839  1.00  0.00    -0.321 C  
HETATM   15  C   UNL     1      -9.808  15.121  67.109  1.00  0.00    -0.228 C  
HETATM   16  N   UNL     1      -9.356  11.041  68.484  1.00  0.00    -0.182 NA 
BRANCH   5  17
HETATM   17  C   UNL     1      -9.218   8.828  67.347  1.00  0.00    -0.158 A  
HETATM   18  C   UNL     1      -7.538   6.702  66.522  1.00  0.00    -0.090 A  
HETATM   19  C   UNL     1      -8.863   6.749  66.100  1.00  0.00    -0.161 A  
HETATM   20  C   UNL     1      -9.693   7.798  66.513  1.00  0.00    -0.265 A  
HETATM   21  C   UNL     1      -7.885   8.732  67.787  1.00  0.00    -0.102 A  
HETATM   22  C   UNL     1      -7.052   7.687  67.371  1.00  0.00    -0.086 A  
ENDBRANCH   5  17
ENDBRANCH   4   5
ENDBRANCH   3   4
ENDBRANCH   2   3
BRANCH   2  23
HETATM   23  C   UNL     1     -10.022   6.452  69.957  1.00  0.00    -0.200 A  
HETATM   24  F   UNL     1      -6.573   7.487  72.076  1.00  0.00    -0.048 F  
HETATM   25  C   UNL     1      -8.859   6.774  70.673  1.00  0.00    -0.151 A  
HETATM   26  F   UNL     1      -9.228   3.447  66.976  1.00  0.00    -0.145 F  
HETATM   27  C   UNL     1      -7.723   5.952  70.626  1.00  0.00    -0.097 A  
HETATM   28  C   UNL     1      -7.763   4.781  69.852  1.00  0.00    -0.055 A  
HETATM   29  F   UNL     1      -9.918   2.303  68.693  1.00  0.00    -0.143 F  
HETATM   30  C   UNL     1      -6.465   6.323  71.376  1.00  0.00    -0.050 C  
HETATM   31  F   UNL     1      -7.790   2.481  68.288  1.00  0.00    -0.054 F  
HETATM   32  C   UNL     1      -8.961   3.179  68.285  1.00  0.00    -0.140 C  
HETATM   33  F   UNL     1      -6.097   5.375  72.280  1.00  0.00    -0.028 F  
HETATM   34  F   UNL     1      -5.398   6.486  70.546  1.00  0.00    -0.016 F  
HETATM   35  C   UNL     1     -10.037   5.274  69.192  1.00  0.00    -0.289 A  
HETATM   36  C   UNL     1      -8.916   4.430  69.131  1.00  0.00    -0.151 A  
ENDBRANCH   2  23
TORSDOF 5
ENDMDL
MODEL      174
REMARK 921   NORMALIZED FREE ENERGY PREDICTED BY IDOCK:   -4.81 KCAL/MOL
REMARK 922        TOTAL FREE ENERGY PREDICTED BY IDOCK:   -9.07 KCAL/MOL
REMARK 923 INTER-LIGAND FREE ENERGY PREDICTED BY IDOCK:   -8.50 KCAL/MOL
REMARK 924 INTRA-LIGAND FREE ENERGY PREDICTED BY IDOCK:   -0.58 KCAL/MOL
REMARK 927      BINDING AFFINITY PREDICTED BY RF-SCORE:    0.00 PKD
ROOT
HETATM    1  C   UNL     1     -12.033   8.281  70.248  1.00  0.00     0.310 C  
HETATM    2  C   UNL     1     -10.579   8.750  70.274  1.00  0.00    -0.216 C  
ENDROOT
BRANCH   2   3
HETATM    3  O   UNL     1     -10.491  10.143  70.574  1.00  0.00    -0.261 OA 
BRANCH   3   4
HETATM    4  C   UNL     1      -9.949  10.938  69.508  1.00  0.00     0.025 C  
BRANCH   4   5
HETATM    5  C   UNL     1     -11.060  11.902  68.959  1.00  0.00    -0.246 C  
HETATM    6  C   UNL     1     -10.609  11.741  65.998  1.00  0.00    -0.260 C  
HETATM    7  C   UNL     1      -9.716  12.620  66.889  1.00  0.00    -0.234 C  
HETATM    8  N   UNL     1      -9.814  11.170  64.934  1.00  0.00    -0.249 NA 
HETATM    9  H   UNL     1     -12.774  11.683  67.796  1.00  0.00     0.000 HD 
HETATM   10  C   UNL     1     -10.433  13.073  68.163  1.00  0.00    -0.252 C  
HETATM   11  O   UNL     1     -10.018  10.634  62.712  1.00  0.00    -0.266 OA 
HETATM   12  C   UNL     1     -11.285  10.628  66.841  1.00  0.00     0.027 C  
HETATM   13  C   UNL     1     -11.658  12.576  65.238  1.00  0.00    -0.406 C  
HETATM   14  C   UNL     1     -10.431  11.199  63.709  1.00  0.00    -0.381 C  
HETATM   15  C   UNL     1     -11.687  12.014  63.816  1.00  0.00    -0.575 C  
HETATM   16  N   UNL     1     -11.954  11.130  68.046  1.00  0.00    -0.632 NA 
BRANCH   5  17
HETATM   17  C   UNL     1     -11.894  12.514  70.117  1.00  0.00    -0.336 A  
HETATM   18  C   UNL     1     -13.405  13.595  72.255  1.00  0.00    -0.622 A  
HETATM   19  C   UNL     1     -13.377  12.220  72.045  1.00  0.00    -0.491 A  
HETATM   20  C   UNL     1     -12.634  11.688  70.985  1.00  0.00    -0.431 A  
HETATM   21  C   UNL     1     -11.973  13.903  70.333  1.00  0.00    -0.393 A  
HETATM   22  C   UNL     1     -12.710  14.436  71.396  1.00  0.00    -0.413 A  
ENDBRANCH   5  17
ENDBRANCH   4   5
ENDBRANCH   3   4
ENDBRANCH   2   3
BRANCH   2  23
HETATM   23  C   UNL     1      -9.821   7.972  71.338  1.00  0.00    -0.213 A  
HETATM   24  F   UNL     1      -6.032   9.312  72.478  1.00  0.00    -0.083 F  
HETATM   25  C   UNL     1      -8.553   8.413  71.745  1.00  0.00    -0.234 A  
HETATM   26  F   UNL     1     -10.427   3.831  72.354  1.00  0.00    -0.237 F  
HETATM   27  C   UNL     1      -7.784   7.676  72.659  1.00  0.00    -0.116 A  
HETATM   28  C   UNL     1      -8.306   6.480  73.179  1.00  0.00    -0.120 A  
HETATM   29  F   UNL     1     -11.294   4.908  74.034  1.00  0.00    -0.324 F  
HETATM   30  C   UNL     1      -6.406   8.142  73.068  1.00  0.00    -0.082 C  
HETATM   31  F   UNL     1      -9.289   4.082  74.188  1.00  0.00    -0.101 F  
HETATM   32  C   UNL     1     -10.138   4.727  73.339  1.00  0.00    -0.161 C  
HETATM   33  F   UNL     1      -6.301   8.348  74.408  1.00  0.00    -0.110 F  
HETATM   34  F   UNL     1      -5.439   7.239  72.748  1.00  0.00    -0.037 F  
HETATM   35  C   UNL     1     -10.322   6.774  71.875  1.00  0.00    -0.217 A  
HETATM   36  C   UNL     1      -9.576   6.019  72.795  1.00  0.00    -0.161 A  
ENDBRANCH   2  23
TORSDOF 5
ENDMDL
MODEL      175
REMARK 921   NORMALIZED FREE ENERGY PREDICTED BY IDOCK:   -4.79 KCAL/MOL
REMARK 922        TOTAL FREE ENERGY PREDICTED BY IDOCK:   -9.05 KCAL/MOL
REMARK 923 INTER-LIGAND FREE ENERGY PREDICTED BY IDOCK:   -7.78 KCAL/MOL
REMARK 924 INTRA-LIGAND FREE ENERGY PREDICTED BY IDOCK:   -1.27 KCAL/MOL
REMARK 927      BINDING AFFINITY PREDICTED BY RF-SCORE:    0.00 PKD
ROOT
HETATM    1  C   UNL     1     -11.785   9.877  70.426  1.00  0.00    -0.333 C  
HETATM    2  C   UNL     1     -10.697  10.517  69.566  1.00  0.00    -0.255 C  
ENDROOT
BRANCH   2   3
HETATM    3  O   UNL     1     -10.344   9.675  68.469  1.00  0.00    -0.190 OA 
BRANCH   3   4
HETATM    4  C   UNL     1      -8.959   9.299  68.442  1.00  0.00    -0.129 C  
BRANCH   4   5
HETATM    5  C   UNL     1      -8.710   8.307  67.251  1.00  0.00    -0.123 C  
HETATM    6  C   UNL     1      -8.901   5.643  68.617  1.00  0.00    -0.109 C  
HETATM    7  C   UNL     1      -7.622   6.491  68.709  1.00  0.00    -0.100 C  
HETATM    8  N   UNL     1      -9.109   4.947  69.867  1.00  0.00    -0.111 NA 
HETATM    9  H   UNL     1      -9.839   6.864  66.260  1.00  0.00     0.000 HD 
HETATM   10  C   UNL     1      -7.460   7.430  67.512  1.00  0.00    -0.100 C  
HETATM   11  O   UNL     1      -9.877   2.918  70.616  1.00  0.00    -0.100 OA 
HETATM   12  C   UNL     1     -10.120   6.539  68.275  1.00  0.00    -0.159 C  
HETATM   13  C   UNL     1      -8.754   4.495  67.600  1.00  0.00    -0.111 C  
HETATM   14  C   UNL     1      -9.495   3.639  69.712  1.00  0.00    -0.184 C  
HETATM   15  C   UNL     1      -9.387   3.269  68.261  1.00  0.00    -0.242 C  
HETATM   16  N   UNL     1      -9.899   7.413  67.117  1.00  0.00    -0.177 NA 
BRANCH   5  17
HETATM   17  C   UNL     1      -8.478   9.074  65.922  1.00  0.00    -0.150 A  
HETATM   18  C   UNL     1      -8.012  10.459  63.495  1.00  0.00    -0.101 A  
HETATM   19  C   UNL     1      -6.992  10.332  64.434  1.00  0.00    -0.060 A  
HETATM   20  C   UNL     1      -7.226   9.652  65.634  1.00  0.00    -0.097 A  
HETATM   21  C   UNL     1      -9.499   9.253  64.969  1.00  0.00    -0.119 A  
HETATM   22  C   UNL     1      -9.265   9.928  63.766  1.00  0.00    -0.289 A  
ENDBRANCH   5  17
ENDBRANCH   4   5
ENDBRANCH   3   4
ENDBRANCH   2   3
BRANCH   2  23
HETATM   23  C   UNL     1     -11.205  11.843  69.021  1.00  0.00    -0.316 A  
HETATM   24  F   UNL     1     -12.233  14.856  71.726  1.00  0.00    -0.326 F  
HETATM   25  C   UNL     1     -11.543  12.873  69.912  1.00  0.00    -0.246 A  
HETATM   26  F   UNL     1     -13.026  12.462  65.168  1.00  0.00    -0.483 F  
HETATM   27  C   UNL     1     -12.096  14.079  69.456  1.00  0.00    -0.397 A  
HETATM   28  C   UNL     1     -12.304  14.253  68.078  1.00  0.00    -0.007 A  
HETATM   29  F   UNL     1     -11.052  13.350  64.955  1.00  0.00    -0.294 F  
HETATM   30  C   UNL     1     -12.486  15.170  70.425  1.00  0.00    -0.368 C  
HETATM   31  F   UNL     1     -12.775  14.612  65.360  1.00  0.00    -0.347 F  
HETATM   32  C   UNL     1     -12.201  13.418  65.680  1.00  0.00    -0.463 C  
HETATM   33  F   UNL     1     -11.830  16.338  70.187  1.00  0.00    -0.309 F  
HETATM   34  F   UNL     1     -13.814  15.464  70.366  1.00  0.00    -0.195 F  
HETATM   35  C   UNL     1     -11.420  12.043  67.648  1.00  0.00    -0.392 A  
HETATM   36  C   UNL     1     -11.968  13.243  67.163  1.00  0.00    -0.400 A  
ENDBRANCH   2  23
TORSDOF 5
ENDMDL
MODEL      176
REMARK 921   NORMALIZED FREE ENERGY PREDICTED BY IDOCK:   -4.78 KCAL/MOL
REMARK 922        TOTAL FREE ENERGY PREDICTED BY IDOCK:   -9.04 KCAL/MOL
REMARK 923 INTER-LIGAND FREE ENERGY PREDICTED BY IDOCK:   -7.05 KCAL/MOL
REMARK 924 INTRA-LIGAND FREE ENERGY PREDICTED BY IDOCK:   -1.99 KCAL/MOL
REMARK 927      BINDING AFFINITY PREDICTED BY RF-SCORE:    0.00 PKD
ROOT
HETATM    1  C   UNL     1      -6.876   9.475  68.306  1.00  0.00    -0.062 C  
HETATM    2  C   UNL     1      -7.519   9.734  69.668  1.00  0.00    -0.113 C  
ENDROOT
BRANCH   2   3
HETATM    3  O   UNL     1      -8.622  10.633  69.555  1.00  0.00    -0.097 OA 
BRANCH   3   4
HETATM    4  C   UNL     1      -9.533  10.311  68.494  1.00  0.00    -0.158 C  
BRANCH   4   5
HETATM    5  C   UNL     1     -10.948  10.906  68.822  1.00  0.00    -0.237 C  
HETATM    6  C   UNL     1     -11.144  13.160  66.853  1.00  0.00    -0.282 C  
HETATM    7  C   UNL     1     -10.331  13.309  68.150  1.00  0.00    -0.246 C  
HETATM    8  N   UNL     1     -10.487  13.883  65.787  1.00  0.00    -0.298 NA 
HETATM    9  H   UNL     1     -12.763  11.067  67.813  1.00  0.00     0.000 HD 
HETATM   10  C   UNL     1     -10.838  12.387  69.261  1.00  0.00    -0.073 C  
HETATM   11  O   UNL     1     -11.037  15.152  63.956  1.00  0.00     0.157 OA 
HETATM   12  C   UNL     1     -11.305  11.661  66.485  1.00  0.00    -0.263 C  
HETATM   13  C   UNL     1     -12.514  13.857  66.953  1.00  0.00    -0.201 C  
HETATM   14  C   UNL     1     -11.348  14.602  64.998  1.00  0.00    -0.390 C  
HETATM   15  C   UNL     1     -12.714  14.576  65.617  1.00  0.00    -0.186 C  
HETATM   16  N   UNL     1     -11.794  10.835  67.594  1.00  0.00    -0.379 NA 
BRANCH   5  17
HETATM   17  C   UNL     1     -11.631  10.123  69.977  1.00  0.00    -0.323 A  
HETATM   18  C   UNL     1     -12.840   8.671  72.087  1.00  0.00    -0.442 A  
HETATM   19  C   UNL     1     -11.970   8.033  71.208  1.00  0.00    -0.321 A  
HETATM   20  C   UNL     1     -11.378   8.751  70.163  1.00  0.00    -0.099 A  
HETATM   21  C   UNL     1     -12.545  10.731  70.858  1.00  0.00    -0.498 A  
HETATM   22  C   UNL     1     -13.133  10.016  71.907  1.00  0.00    -0.563 A  
ENDBRANCH   5  17
ENDBRANCH   4   5
ENDBRANCH   3   4
ENDBRANCH   2   3
BRANCH   2  23
HETATM   23  C   UNL     1      -8.017   8.418  70.245  1.00  0.00    -0.102 A  
HETATM   24  F   UNL     1      -8.858   5.274  67.626  1.00  0.00    -0.108 F  
HETATM   25  C   UNL     1      -8.292   7.345  69.384  1.00  0.00    -0.132 A  
HETATM   26  F   UNL     1      -9.983   7.907  74.042  1.00  0.00    -0.246 F  
HETATM   27  C   UNL     1      -8.836   6.144  69.867  1.00  0.00    -0.140 A  
HETATM   28  C   UNL     1      -9.097   6.020  71.241  1.00  0.00    -0.149 A  
HETATM   29  F   UNL     1      -7.999   7.079  74.372  1.00  0.00    -0.122 F  
HETATM   30  C   UNL     1      -9.158   5.006  68.927  1.00  0.00    -0.109 C  
HETATM   31  F   UNL     1      -9.674   5.758  73.949  1.00  0.00    -0.144 F  
HETATM   32  C   UNL     1      -9.115   6.953  73.604  1.00  0.00    -0.155 C  
HETATM   33  F   UNL     1      -8.485   3.865  69.239  1.00  0.00    -0.072 F  
HETATM   34  F   UNL     1     -10.480   4.681  68.944  1.00  0.00    -0.178 F  
HETATM   35  C   UNL     1      -8.285   8.267  71.616  1.00  0.00    -0.174 A  
HETATM   36  C   UNL     1      -8.824   7.075  72.127  1.00  0.00    -0.138 A  
ENDBRANCH   2  23
TORSDOF 5
ENDMDL
MODEL      177
REMARK 921   NORMALIZED FREE ENERGY PREDICTED BY IDOCK:   -4.74 KCAL/MOL
REMARK 922        TOTAL FREE ENERGY PREDICTED BY IDOCK:   -8.99 KCAL/MOL
REMARK 923 INTER-LIGAND FREE ENERGY PREDICTED BY IDOCK:   -8.11 KCAL/MOL
REMARK 924 INTRA-LIGAND FREE ENERGY PREDICTED BY IDOCK:   -0.88 KCAL/MOL
REMARK 927      BINDING AFFINITY PREDICTED BY RF-SCORE:    0.00 PKD
ROOT
HETATM    1  C   UNL     1     -11.781  12.411  66.817  1.00  0.00    -0.430 C  
HETATM    2  C   UNL     1     -11.797  11.989  68.284  1.00  0.00    -0.287 C  
ENDROOT
BRANCH   2   3
HETATM    3  O   UNL     1     -10.672  11.167  68.597  1.00  0.00    -0.176 OA 
BRANCH   3   4
HETATM    4  C   UNL     1     -10.814   9.799  68.184  1.00  0.00    -0.214 C  
BRANCH   4   5
HETATM    5  C   UNL     1      -9.396   9.134  68.085  1.00  0.00    -0.138 C  
HETATM    6  C   UNL     1      -8.540   9.910  65.317  1.00  0.00    -0.156 C  
HETATM    7  C   UNL     1      -9.517   8.746  65.547  1.00  0.00    -0.096 C  
HETATM    8  N   UNL     1      -8.897  10.606  64.101  1.00  0.00    -0.178 NA 
HETATM    9  H   UNL     1      -7.439   9.827  67.906  1.00  0.00     0.000 HD 
HETATM   10  C   UNL     1      -9.345   8.107  66.926  1.00  0.00    -0.219 C  
HETATM   11  O   UNL     1      -7.870  11.657  62.338  1.00  0.00    -0.008 OA 
HETATM   12  C   UNL     1      -8.556  10.877  66.530  1.00  0.00    -0.156 C  
HETATM   13  C   UNL     1      -7.112   9.410  65.025  1.00  0.00    -0.101 C  
HETATM   14  C   UNL     1      -7.820  10.935  63.318  1.00  0.00     0.247 C  
HETATM   15  C   UNL     1      -6.591  10.282  63.880  1.00  0.00    -0.075 C  
HETATM   16  N   UNL     1      -8.384  10.200  67.820  1.00  0.00    -0.114 NA 
BRANCH   5  17
HETATM   17  C   UNL     1      -9.037   8.383  69.395  1.00  0.00    -0.154 A  
HETATM   18  C   UNL     1      -8.391   6.974  71.766  1.00  0.00    -0.110 A  
HETATM   19  C   UNL     1      -9.407   6.513  70.934  1.00  0.00    -0.165 A  
HETATM   20  C   UNL     1      -9.727   7.213  69.766  1.00  0.00    -0.165 A  
HETATM   21  C   UNL     1      -8.041   8.845  70.277  1.00  0.00    -0.125 A  
HETATM   22  C   UNL     1      -7.715   8.143  71.443  1.00  0.00    -0.098 A  
ENDBRANCH   5  17
ENDBRANCH   4   5
ENDBRANCH   3   4
ENDBRANCH   2   3
BRANCH   2  23
HETATM   23  C   UNL     1     -11.755  13.230  69.163  1.00  0.00    -0.379 A  
HETATM   24  F   UNL     1     -14.011  13.269  72.679  1.00  0.00    -0.624 F  
HETATM   25  C   UNL     1     -12.495  13.258  70.355  1.00  0.00    -0.295 A  
HETATM   26  F   UNL     1     -10.736  17.209  67.871  1.00  0.00    -0.337 F  
HETATM   27  C   UNL     1     -12.552  14.414  71.150  1.00  0.00    -0.422 A  
HETATM   28  C   UNL     1     -11.845  15.556  70.740  1.00  0.00    -0.406 A  
HETATM   29  F   UNL     1      -8.997  16.576  69.015  1.00  0.00    -0.235 F  
HETATM   30  C   UNL     1     -13.377  14.445  72.415  1.00  0.00    -0.455 C  
HETATM   31  F   UNL     1     -10.498  17.852  69.933  1.00  0.00    -0.090 F  
HETATM   32  C   UNL     1     -10.339  16.783  69.103  1.00  0.00    -0.326 C  
HETATM   33  F   UNL     1     -12.630  14.724  73.518  1.00  0.00    -0.504 F  
HETATM   34  F   UNL     1     -14.354  15.392  72.372  1.00  0.00    -0.560 F  
HETATM   35  C   UNL     1     -11.054  14.384  68.778  1.00  0.00    -0.275 A  
HETATM   36  C   UNL     1     -11.091  15.553  69.556  1.00  0.00    -0.286 A  
ENDBRANCH   2  23
TORSDOF 5
ENDMDL
MODEL      178
REMARK 921   NORMALIZED FREE ENERGY PREDICTED BY IDOCK:   -4.74 KCAL/MOL
REMARK 922        TOTAL FREE ENERGY PREDICTED BY IDOCK:   -8.99 KCAL/MOL
REMARK 923 INTER-LIGAND FREE ENERGY PREDICTED BY IDOCK:   -8.25 KCAL/MOL
REMARK 924 INTRA-LIGAND FREE ENERGY PREDICTED BY IDOCK:   -0.74 KCAL/MOL
REMARK 927      BINDING AFFINITY PREDICTED BY RF-SCORE:    0.00 PKD
ROOT
HETATM    1  C   UNL     1     -11.566  11.814  69.982  1.00  0.00    -0.318 C  
HETATM    2  C   UNL     1     -11.711  12.235  68.521  1.00  0.00    -0.331 C  
ENDROOT
BRANCH   2   3
HETATM    3  O   UNL     1     -11.871  13.649  68.405  1.00  0.00    -0.339 OA 
BRANCH   3   4
HETATM    4  C   UNL     1     -10.634  14.378  68.388  1.00  0.00    -0.247 C  
BRANCH   4   5
HETATM    5  C   UNL     1     -10.803  15.711  69.199  1.00  0.00    -0.246 C  
HETATM    6  C   UNL     1      -9.170  17.634  67.577  1.00  0.00    -0.243 C  
HETATM    7  C   UNL     1      -8.500  16.650  68.550  1.00  0.00    -0.233 C  
HETATM    8  N   UNL     1      -8.327  17.811  66.415  1.00  0.00    -0.353 NA 
HETATM    9  H   UNL     1     -11.683  17.566  68.843  1.00  0.00     0.000 HD 
HETATM   10  C   UNL     1      -9.432  16.238  69.691  1.00  0.00     0.061 C  
HETATM   11  O   UNL     1      -7.704  19.474  64.962  1.00  0.00    -0.057 OA 
HETATM   12  C   UNL     1     -10.574  17.117  67.167  1.00  0.00    -0.244 C  
HETATM   13  C   UNL     1      -9.252  19.055  68.166  1.00  0.00    -0.371 C  
HETATM   14  C   UNL     1      -8.225  19.115  66.002  1.00  0.00    -0.163 C  
HETATM   15  C   UNL     1      -8.873  20.002  67.025  1.00  0.00    -0.433 C  
HETATM   16  N   UNL     1     -11.415  16.740  68.307  1.00  0.00    -0.061 NA 
BRANCH   5  17
HETATM   17  C   UNL     1     -11.700  15.497  70.448  1.00  0.00    -0.363 A  
HETATM   18  C   UNL     1     -13.310  15.131  72.750  1.00  0.00    -0.596 A  
HETATM   19  C   UNL     1     -11.926  15.217  72.871  1.00  0.00    -0.470 A  
HETATM   20  C   UNL     1     -11.133  15.393  71.732  1.00  0.00    -0.258 A  
HETATM   21  C   UNL     1     -13.099  15.368  70.354  1.00  0.00    -0.223 A  
HETATM   22  C   UNL     1     -13.894  15.198  71.492  1.00  0.00    -0.597 A  
ENDBRANCH   5  17
ENDBRANCH   4   5
ENDBRANCH   3   4
ENDBRANCH   2   3
BRANCH   2  23
HETATM   23  C   UNL     1     -10.466  11.819  67.753  1.00  0.00    -0.219 A  
HETATM   24  F   UNL     1      -6.790  11.843  69.738  1.00  0.00    -0.103 F  
HETATM   25  C   UNL     1      -9.224  11.807  68.405  1.00  0.00    -0.175 A  
HETATM   26  F   UNL     1      -9.977  11.934  63.476  1.00  0.00    -0.320 F  
HETATM   27  C   UNL     1      -8.039  11.513  67.711  1.00  0.00    -0.133 A  
HETATM   28  C   UNL     1      -8.111  11.218  66.340  1.00  0.00    -0.138 A  
HETATM   29  F   UNL     1     -10.181   9.814  63.916  1.00  0.00     0.045 F  
HETATM   30  C   UNL     1      -6.702  11.534  68.414  1.00  0.00    -0.066 C  
HETATM   31  F   UNL     1      -8.209  10.678  63.612  1.00  0.00    -0.165 F  
HETATM   32  C   UNL     1      -9.424  10.912  64.186  1.00  0.00    -0.257 C  
HETATM   33  F   UNL     1      -6.061  10.336  68.351  1.00  0.00    -0.044 F  
HETATM   34  F   UNL     1      -5.849  12.447  67.875  1.00  0.00    -0.054 F  
HETATM   35  C   UNL     1     -10.510  11.517  66.382  1.00  0.00    -0.292 A  
HETATM   36  C   UNL     1      -9.341  11.215  65.664  1.00  0.00    -0.243 A  
ENDBRANCH   2  23
TORSDOF 5
ENDMDL
MODEL      179
REMARK 921   NORMALIZED FREE ENERGY PREDICTED BY IDOCK:   -4.74 KCAL/MOL
REMARK 922        TOTAL FREE ENERGY PREDICTED BY IDOCK:   -8.99 KCAL/MOL
REMARK 923 INTER-LIGAND FREE ENERGY PREDICTED BY IDOCK:   -6.86 KCAL/MOL
REMARK 924 INTRA-LIGAND FREE ENERGY PREDICTED BY IDOCK:   -2.13 KCAL/MOL
REMARK 927      BINDING AFFINITY PREDICTED BY RF-SCORE:    0.00 PKD
ROOT
HETATM    1  C   UNL     1      -6.475  12.546  67.105  1.00  0.00    -0.053 C  
HETATM    2  C   UNL     1      -7.249  12.120  68.351  1.00  0.00    -0.097 C  
ENDROOT
BRANCH   2   3
HETATM    3  O   UNL     1      -8.336  13.009  68.612  1.00  0.00    -0.094 OA 
BRANCH   3   4
HETATM    4  C   UNL     1      -8.750  13.778  67.473  1.00  0.00    -0.194 C  
BRANCH   4   5
HETATM    5  C   UNL     1     -10.302  13.639  67.285  1.00  0.00    -0.249 C  
HETATM    6  C   UNL     1     -11.342  14.768  69.861  1.00  0.00    -0.271 C  
HETATM    7  C   UNL     1     -10.795  13.333  69.788  1.00  0.00     0.352 C  
HETATM    8  N   UNL     1     -11.002  15.348  71.141  1.00  0.00    -0.308 NA 
HETATM    9  H   UNL     1     -11.902  14.961  67.109  1.00  0.00     0.000 HD 
HETATM   10  C   UNL     1     -10.914  12.736  68.384  1.00  0.00    -0.281 C  
HETATM   11  O   UNL     1     -11.919  16.754  72.706  1.00  0.00    -0.423 OA 
HETATM   12  C   UNL     1     -10.772  15.623  68.699  1.00  0.00    -0.256 C  
HETATM   13  C   UNL     1     -12.882  14.794  69.865  1.00  0.00    -0.023 C  
HETATM   14  C   UNL     1     -12.029  16.054  71.716  1.00  0.00    -0.517 C  
HETATM   15  C   UNL     1     -13.279  15.835  70.914  1.00  0.00    -0.143 C  
HETATM   16  N   UNL     1     -10.920  14.994  67.382  1.00  0.00    -0.307 NA 
BRANCH   5  17
HETATM   17  C   UNL     1     -10.644  13.003  65.910  1.00  0.00    -0.288 A  
HETATM   18  C   UNL     1     -11.271  11.883  63.385  1.00  0.00    -0.463 A  
HETATM   19  C   UNL     1     -11.854  13.083  63.781  1.00  0.00    -0.566 A  
HETATM   20  C   UNL     1     -11.546  13.632  65.031  1.00  0.00    -0.345 A  
HETATM   21  C   UNL     1     -10.101  11.771  65.497  1.00  0.00    -0.285 A  
HETATM   22  C   UNL     1     -10.403  11.224  64.245  1.00  0.00    -0.399 A  
ENDBRANCH   5  17
ENDBRANCH   4   5
ENDBRANCH   3   4
ENDBRANCH   2   3
BRANCH   2  23
HETATM   23  C   UNL     1      -7.803  10.719  68.143  1.00  0.00    -0.112 A  
HETATM   24  F   UNL     1      -7.210   8.862  64.447  1.00  0.00    -0.089 F  
HETATM   25  C   UNL     1      -7.603  10.072  66.914  1.00  0.00    -0.096 A  
HETATM   26  F   UNL     1     -11.059   8.936  70.326  1.00  0.00    -0.239 F  
HETATM   27  C   UNL     1      -8.171   8.816  66.650  1.00  0.00    -0.107 A  
HETATM   28  C   UNL     1      -8.945   8.198  67.646  1.00  0.00    -0.135 A  
HETATM   29  F   UNL     1      -9.299   7.918  71.100  1.00  0.00    -0.146 F  
HETATM   30  C   UNL     1      -7.977   8.141  65.313  1.00  0.00    -0.126 C  
HETATM   31  F   UNL     1     -10.525   6.968  69.577  1.00  0.00    -0.193 F  
HETATM   32  C   UNL     1      -9.998   8.165  69.958  1.00  0.00    -0.192 C  
HETATM   33  F   UNL     1      -7.374   6.926  65.423  1.00  0.00    -0.068 F  
HETATM   34  F   UNL     1      -9.155   7.920  64.669  1.00  0.00     0.155 F  
HETATM   35  C   UNL     1      -8.579  10.078  69.123  1.00  0.00    -0.158 A  
HETATM   36  C   UNL     1      -9.155   8.818  68.888  1.00  0.00    -0.141 A  
ENDBRANCH   2  23
TORSDOF 5
ENDMDL
MODEL      180
REMARK 921   NORMALIZED FREE ENERGY PREDICTED BY IDOCK:   -4.72 KCAL/MOL
REMARK 922        TOTAL FREE ENERGY PREDICTED BY IDOCK:   -8.96 KCAL/MOL
REMARK 923 INTER-LIGAND FREE ENERGY PREDICTED BY IDOCK:   -8.03 KCAL/MOL
REMARK 924 INTRA-LIGAND FREE ENERGY PREDICTED BY IDOCK:   -0.93 KCAL/MOL
REMARK 927      BINDING AFFINITY PREDICTED BY RF-SCORE:    0.00 PKD
ROOT
HETATM    1  C   UNL     1     -10.386  17.240  65.505  1.00  0.00    -0.108 C  
HETATM    2  C   UNL     1      -9.612  16.922  66.784  1.00  0.00    -0.262 C  
ENDROOT
BRANCH   2   3
HETATM    3  O   UNL     1      -9.134  15.577  66.777  1.00  0.00    -0.217 OA 
BRANCH   3   4
HETATM    4  C   UNL     1      -9.501  14.820  67.940  1.00  0.00    -0.201 C  
BRANCH   4   5
HETATM    5  C   UNL     1     -10.961  14.269  67.766  1.00  0.00    -0.264 C  
HETATM    6  C   UNL     1     -12.138  14.766  70.479  1.00  0.00    -0.315 C  
HETATM    7  C   UNL     1     -11.218  13.561  70.223  1.00  0.00     0.305 C  
HETATM    8  N   UNL     1     -11.907  15.273  71.813  1.00  0.00    -0.370 NA 
HETATM    9  H   UNL     1     -12.873  15.096  67.781  1.00  0.00     0.000 HD 
HETATM   10  C   UNL     1     -11.240  13.115  68.759  1.00  0.00    -0.323 C  
HETATM   11  O   UNL     1     -13.097  16.181  73.553  1.00  0.00    -0.551 OA 
HETATM   12  C   UNL     1     -11.890  15.870  69.418  1.00  0.00    -0.316 C  
HETATM   13  C   UNL     1     -13.623  14.355  70.515  1.00  0.00     0.286 C  
HETATM   14  C   UNL     1     -13.059  15.592  72.487  1.00  0.00    -0.472 C  
HETATM   15  C   UNL     1     -14.238  15.119  71.689  1.00  0.00    -0.664 C  
HETATM   16  N   UNL     1     -11.926  15.375  68.038  1.00  0.00    -0.120 NA 
BRANCH   5  17
HETATM   17  C   UNL     1     -11.183  13.719  66.331  1.00  0.00    -0.321 A  
HETATM   18  C   UNL     1     -11.576  12.675  63.727  1.00  0.00    -0.550 A  
HETATM   19  C   UNL     1     -10.515  12.226  64.507  1.00  0.00    -0.339 A  
HETATM   20  C   UNL     1     -10.320  12.747  65.791  1.00  0.00    -0.297 A  
HETATM   21  C   UNL     1     -12.224  14.181  65.503  1.00  0.00    -0.443 A  
HETATM   22  C   UNL     1     -12.424  13.657  64.221  1.00  0.00    -0.304 A  
ENDBRANCH   5  17
ENDBRANCH   4   5
ENDBRANCH   3   4
ENDBRANCH   2   3
BRANCH   2  23
HETATM   23  C   UNL     1      -8.422  17.864  66.896  1.00  0.00    -0.260 A  
HETATM   24  F   UNL     1      -7.117  18.992  70.701  1.00  0.00     0.492 F  
HETATM   25  C   UNL     1      -7.960  18.244  68.165  1.00  0.00    -0.295 A  
HETATM   26  F   UNL     1      -7.072  20.605  63.862  1.00  0.00    -0.074 F  
HETATM   27  C   UNL     1      -6.922  19.178  68.312  1.00  0.00    -0.292 A  
HETATM   28  C   UNL     1      -6.336  19.729  67.161  1.00  0.00    -0.205 A  
HETATM   29  F   UNL     1      -5.575  19.027  63.836  1.00  0.00    -0.275 F  
HETATM   30  C   UNL     1      -6.451  19.605  69.683  1.00  0.00    -0.336 C  
HETATM   31  F   UNL     1      -5.185  20.879  64.905  1.00  0.00    -0.208 F  
HETATM   32  C   UNL     1      -6.156  19.961  64.637  1.00  0.00    -0.272 C  
HETATM   33  F   UNL     1      -5.132  19.343  69.887  1.00  0.00    -0.182 F  
HETATM   34  F   UNL     1      -6.607  20.941  69.889  1.00  0.00    -0.073 F  
HETATM   35  C   UNL     1      -7.817  18.428  65.761  1.00  0.00     0.058 A  
HETATM   36  C   UNL     1      -6.773  19.361  65.879  1.00  0.00    -0.267 A  
ENDBRANCH   2  23
TORSDOF 5
ENDMDL
MODEL      181
REMARK 921   NORMALIZED FREE ENERGY PREDICTED BY IDOCK:   -4.71 KCAL/MOL
REMARK 922        TOTAL FREE ENERGY PREDICTED BY IDOCK:   -8.95 KCAL/MOL
REMARK 923 INTER-LIGAND FREE ENERGY PREDICTED BY IDOCK:   -7.82 KCAL/MOL
REMARK 924 INTRA-LIGAND FREE ENERGY PREDICTED BY IDOCK:   -1.13 KCAL/MOL
REMARK 927      BINDING AFFINITY PREDICTED BY RF-SCORE:    0.00 PKD
ROOT
HETATM    1  C   UNL     1      -6.555  11.738  68.771  1.00  0.00    -0.074 C  
HETATM    2  C   UNL     1      -7.576  11.901  67.646  1.00  0.00    -0.136 C  
ENDROOT
BRANCH   2   3
HETATM    3  O   UNL     1      -7.837  10.655  67.001  1.00  0.00    -0.111 OA 
BRANCH   3   4
HETATM    4  C   UNL     1      -7.619  10.674  65.582  1.00  0.00    -0.100 C  
BRANCH   4   5
HETATM    5  C   UNL     1      -8.801   9.932  64.862  1.00  0.00    -0.193 C  
HETATM    6  C   UNL     1     -10.840  12.116  64.608  1.00  0.00    -0.306 C  
HETATM    7  C   UNL     1     -10.642  11.368  65.936  1.00  0.00    -0.317 C  
HETATM    8  N   UNL     1     -11.156  13.501  64.878  1.00  0.00    -0.330 NA 
HETATM    9  H   UNL     1      -9.739  10.079  63.008  1.00  0.00     0.000 HD 
HETATM   10  C   UNL     1     -10.083   9.959  65.731  1.00  0.00    -0.317 C  
HETATM   11  O   UNL     1     -12.483  15.174  64.035  1.00  0.00    -0.771 OA 
HETATM   12  C   UNL     1      -9.568  12.002  63.728  1.00  0.00    -0.071 C  
HETATM   13  C   UNL     1     -12.086  11.617  63.850  1.00  0.00    -0.298 C  
HETATM   14  C   UNL     1     -12.165  13.999  64.092  1.00  0.00    -0.396 C  
HETATM   15  C   UNL     1     -12.778  12.872  63.315  1.00  0.00    -0.028 C  
HETATM   16  N   UNL     1      -9.086  10.625  63.571  1.00  0.00    -0.217 NA 
BRANCH   5  17
HETATM   17  C   UNL     1      -8.446   8.444  64.593  1.00  0.00    -0.094 A  
HETATM   18  C   UNL     1      -7.828   5.719  64.134  1.00  0.00    -0.118 A  
HETATM   19  C   UNL     1      -8.112   6.163  65.421  1.00  0.00    -0.133 A  
HETATM   20  C   UNL     1      -8.412   7.511  65.647  1.00  0.00    -0.141 A  
HETATM   21  C   UNL     1      -8.117   7.972  63.309  1.00  0.00    -0.107 A  
HETATM   22  C   UNL     1      -7.822   6.623  63.081  1.00  0.00    -0.103 A  
ENDBRANCH   5  17
ENDBRANCH   4   5
ENDBRANCH   3   4
ENDBRANCH   2   3
BRANCH   2  23
HETATM   23  C   UNL     1      -8.878  12.434  68.225  1.00  0.00    -0.174 A  
HETATM   24  F   UNL     1     -11.378   9.796  70.287  1.00  0.00    -0.250 F  
HETATM   25  C   UNL     1      -9.725  11.567  68.933  1.00  0.00    -0.069 A  
HETATM   26  F   UNL     1     -11.003  15.928  66.876  1.00  0.00    -0.322 F  
HETATM   27  C   UNL     1     -10.975  11.997  69.407  1.00  0.00    -0.128 A  
HETATM   28  C   UNL     1     -11.371  13.324  69.173  1.00  0.00    -0.336 A  
HETATM   29  F   UNL     1     -10.130  16.552  68.768  1.00  0.00    -0.210 F  
HETATM   30  C   UNL     1     -11.894  11.049  70.141  1.00  0.00    -0.357 C  
HETATM   31  F   UNL     1     -12.211  15.930  68.682  1.00  0.00    -0.346 F  
HETATM   32  C   UNL     1     -10.967  15.639  68.207  1.00  0.00    -0.315 C  
HETATM   33  F   UNL     1     -12.193  11.479  71.396  1.00  0.00    -0.381 F  
HETATM   34  F   UNL     1     -13.085  10.887  69.503  1.00  0.00    -0.118 F  
HETATM   35  C   UNL     1      -9.297  13.756  68.006  1.00  0.00    -0.199 A  
HETATM   36  C   UNL     1     -10.540  14.214  68.475  1.00  0.00    -0.257 A  
ENDBRANCH   2  23
TORSDOF 5
ENDMDL
MODEL      182
REMARK 921   NORMALIZED FREE ENERGY PREDICTED BY IDOCK:   -4.69 KCAL/MOL
REMARK 922        TOTAL FREE ENERGY PREDICTED BY IDOCK:   -8.92 KCAL/MOL
REMARK 923 INTER-LIGAND FREE ENERGY PREDICTED BY IDOCK:   -6.10 KCAL/MOL
REMARK 924 INTRA-LIGAND FREE ENERGY PREDICTED BY IDOCK:   -2.82 KCAL/MOL
REMARK 927      BINDING AFFINITY PREDICTED BY RF-SCORE:    0.00 PKD
ROOT
HETATM    1  C   UNL     1     -12.687   8.025  71.918  1.00  0.00    -0.354 C  
HETATM    2  C   UNL     1     -11.772   8.105  70.698  1.00  0.00    -0.143 C  
ENDROOT
BRANCH   2   3
HETATM    3  O   UNL     1     -11.369   9.451  70.442  1.00  0.00    -0.250 OA 
BRANCH   3   4
HETATM    4  C   UNL     1     -11.898   9.999  69.225  1.00  0.00     0.183 C  
BRANCH   4   5
HETATM    5  C   UNL     1     -10.719  10.316  68.239  1.00  0.00    -0.237 C  
HETATM    6  C   UNL     1     -11.015  13.276  67.853  1.00  0.00    -0.249 C  
HETATM    7  C   UNL     1     -11.916  12.285  67.099  1.00  0.00    -0.207 C  
HETATM    8  N   UNL     1     -11.775  14.460  68.187  1.00  0.00    -0.330 NA 
HETATM    9  H   UNL     1      -8.955  11.420  68.340  1.00  0.00     0.000 HD 
HETATM   10  C   UNL     1     -11.250  10.919  66.915  1.00  0.00    -0.162 C  
HETATM   11  O   UNL     1     -11.473  16.730  68.333  1.00  0.00    -0.200 OA 
HETATM   12  C   UNL     1     -10.434  12.615  69.131  1.00  0.00     0.119 C  
HETATM   13  C   UNL     1      -9.891  13.826  66.954  1.00  0.00    -0.264 C  
HETATM   14  C   UNL     1     -11.091  15.631  67.974  1.00  0.00    -0.335 C  
HETATM   15  C   UNL     1      -9.809  15.323  67.258  1.00  0.00    -0.220 C  
HETATM   16  N   UNL     1      -9.810  11.311  68.884  1.00  0.00    -0.178 NA 
BRANCH   5  17
HETATM   17  C   UNL     1      -9.924   9.031  67.885  1.00  0.00    -0.220 A  
HETATM   18  C   UNL     1      -8.492   6.685  67.198  1.00  0.00    -0.113 A  
HETATM   19  C   UNL     1      -9.782   6.882  66.717  1.00  0.00    -0.232 A  
HETATM   20  C   UNL     1     -10.490   8.039  67.061  1.00  0.00    -0.410 A  
HETATM   21  C   UNL     1      -8.632   8.785  68.387  1.00  0.00    -0.134 A  
HETATM   22  C   UNL     1      -7.921   7.631  68.038  1.00  0.00    -0.122 A  
ENDBRANCH   5  17
ENDBRANCH   4   5
ENDBRANCH   3   4
ENDBRANCH   2   3
BRANCH   2  23
HETATM   23  C   UNL     1     -10.530   7.262  70.947  1.00  0.00    -0.225 A  
HETATM   24  F   UNL     1     -10.007   3.766  68.721  1.00  0.00    -0.198 F  
HETATM   25  C   UNL     1     -10.329   6.091  70.200  1.00  0.00    -0.284 A  
HETATM   26  F   UNL     1      -8.176   7.232  74.553  1.00  0.00    -0.158 F  
HETATM   27  C   UNL     1      -9.243   5.240  70.459  1.00  0.00    -0.187 A  
HETATM   28  C   UNL     1      -8.341   5.581  71.480  1.00  0.00    -0.123 A  
HETATM   29  F   UNL     1      -6.928   8.303  73.130  1.00  0.00    -0.110 F  
HETATM   30  C   UNL     1      -9.051   3.965  69.671  1.00  0.00    -0.122 C  
HETATM   31  F   UNL     1      -6.563   6.198  73.528  1.00  0.00    -0.068 F  
HETATM   32  C   UNL     1      -7.554   7.115  73.346  1.00  0.00    -0.081 C  
HETATM   33  F   UNL     1      -7.859   3.931  69.016  1.00  0.00    -0.056 F  
HETATM   34  F   UNL     1      -9.079   2.859  70.464  1.00  0.00    -0.132 F  
HETATM   35  C   UNL     1      -9.612   7.581  71.960  1.00  0.00    -0.189 A  
HETATM   36  C   UNL     1      -8.513   6.750  72.237  1.00  0.00    -0.106 A  
ENDBRANCH   2  23
TORSDOF 5
ENDMDL
MODEL      183
REMARK 921   NORMALIZED FREE ENERGY PREDICTED BY IDOCK:   -4.65 KCAL/MOL
REMARK 922        TOTAL FREE ENERGY PREDICTED BY IDOCK:   -8.87 KCAL/MOL
REMARK 923 INTER-LIGAND FREE ENERGY PREDICTED BY IDOCK:   -7.55 KCAL/MOL
REMARK 924 INTRA-LIGAND FREE ENERGY PREDICTED BY IDOCK:   -1.33 KCAL/MOL
REMARK 927      BINDING AFFINITY PREDICTED BY RF-SCORE:    0.00 PKD
ROOT
HETATM    1  C   UNL     1     -10.005   6.082  66.613  1.00  0.00    -0.211 C  
HETATM    2  C   UNL     1     -10.333   7.403  67.305  1.00  0.00    -0.286 C  
ENDROOT
BRANCH   2   3
HETATM    3  O   UNL     1      -9.824   7.428  68.638  1.00  0.00    -0.157 OA 
BRANCH   3   4
HETATM    4  C   UNL     1     -10.720   6.881  69.618  1.00  0.00    -0.245 C  
BRANCH   4   5
HETATM    5  C   UNL     1     -10.573   7.677  70.962  1.00  0.00    -0.217 C  
HETATM    6  C   UNL     1      -8.692   5.932  72.514  1.00  0.00    -0.123 C  
HETATM    7  C   UNL     1     -10.186   5.588  72.408  1.00  0.00    -0.238 C  
HETATM    8  N   UNL     1      -7.916   4.712  72.521  1.00  0.00    -0.091 NA 
HETATM    9  H   UNL     1      -9.024   8.668  71.941  1.00  0.00     0.000 HD 
HETATM   10  C   UNL     1     -11.052   6.827  72.165  1.00  0.00    -0.284 C  
HETATM   11  O   UNL     1      -6.029   3.862  73.513  1.00  0.00    -0.007 OA 
HETATM   12  C   UNL     1      -8.264   6.851  71.339  1.00  0.00    -0.110 C  
HETATM   13  C   UNL     1      -8.346   6.572  73.872  1.00  0.00    -0.120 C  
HETATM   14  C   UNL     1      -6.900   4.711  73.443  1.00  0.00    -0.068 C  
HETATM   15  C   UNL     1      -7.033   5.924  74.316  1.00  0.00    -0.081 C  
HETATM   16  N   UNL     1      -9.134   8.019  71.162  1.00  0.00    -0.145 NA 
BRANCH   5  17
HETATM   17  C   UNL     1     -11.423   8.977  70.938  1.00  0.00    -0.347 A  
HETATM   18  C   UNL     1     -12.960  11.355  70.854  1.00  0.00    -0.210 A  
HETATM   19  C   UNL     1     -11.742  11.286  70.184  1.00  0.00    -0.429 A  
HETATM   20  C   UNL     1     -10.982  10.112  70.231  1.00  0.00    -0.380 A  
HETATM   21  C   UNL     1     -12.640   9.091  71.637  1.00  0.00    -0.414 A  
HETATM   22  C   UNL     1     -13.404  10.262  71.586  1.00  0.00    -0.451 A  
ENDBRANCH   5  17
ENDBRANCH   4   5
ENDBRANCH   3   4
ENDBRANCH   2   3
BRANCH   2  23
HETATM   23  C   UNL     1      -9.709   8.548  66.521  1.00  0.00    -0.330 A  
HETATM   24  F   UNL     1     -11.686  12.228  66.438  1.00  0.00    -0.393 F  
HETATM   25  C   UNL     1     -10.350   9.796  66.492  1.00  0.00    -0.262 A  
HETATM   26  F   UNL     1      -6.917   8.156  63.266  1.00  0.00    -0.080 F  
HETATM   27  C   UNL     1      -9.854  10.851  65.710  1.00  0.00    -0.286 A  
HETATM   28  C   UNL     1      -8.688  10.648  64.955  1.00  0.00    -0.178 A  
HETATM   29  F   UNL     1      -5.692   8.872  64.914  1.00  0.00    -0.054 F  
HETATM   30  C   UNL     1     -10.568  12.182  65.660  1.00  0.00    -0.262 C  
HETATM   31  F   UNL     1      -6.409  10.264  63.407  1.00  0.00    -0.125 F  
HETATM   32  C   UNL     1      -6.774   9.182  64.150  1.00  0.00    -0.088 C  
HETATM   33  F   UNL     1      -9.782  13.212  66.074  1.00  0.00    -0.272 F  
HETATM   34  F   UNL     1     -10.977  12.501  64.402  1.00  0.00    -0.304 F  
HETATM   35  C   UNL     1      -8.543   8.371  65.759  1.00  0.00    -0.181 A  
HETATM   36  C   UNL     1      -8.021   9.412  64.972  1.00  0.00    -0.118 A  
ENDBRANCH   2  23
TORSDOF 5
ENDMDL
MODEL      184
REMARK 921   NORMALIZED FREE ENERGY PREDICTED BY IDOCK:   -4.65 KCAL/MOL
REMARK 922        TOTAL FREE ENERGY PREDICTED BY IDOCK:   -8.87 KCAL/MOL
REMARK 923 INTER-LIGAND FREE ENERGY PREDICTED BY IDOCK:   -5.92 KCAL/MOL
REMARK 924 INTRA-LIGAND FREE ENERGY PREDICTED BY IDOCK:   -2.95 KCAL/MOL
REMARK 927      BINDING AFFINITY PREDICTED BY RF-SCORE:    0.00 PKD
ROOT
HETATM    1  C   UNL     1     -12.025   6.715  70.828  1.00  0.00    -0.412 C  
HETATM    2  C   UNL     1     -11.576   6.937  69.385  1.00  0.00     0.020 C  
ENDROOT
BRANCH   2   3
HETATM    3  O   UNL     1     -10.791   8.124  69.265  1.00  0.00    -0.172 OA 
BRANCH   3   4
HETATM    4  C   UNL     1     -10.768   8.679  67.942  1.00  0.00    -0.093 C  
BRANCH   4   5
HETATM    5  C   UNL     1      -9.344   9.271  67.649  1.00  0.00    -0.128 C  
HETATM    6  C   UNL     1      -9.965  12.163  67.157  1.00  0.00    -0.200 C  
HETATM    7  C   UNL     1     -10.196  11.107  66.065  1.00  0.00    -0.300 C  
HETATM    8  N   UNL     1     -10.997  13.173  67.077  1.00  0.00    -0.265 NA 
HETATM    9  H   UNL     1      -8.081  10.636  68.586  1.00  0.00     0.000 HD 
HETATM   10  C   UNL     1      -9.282   9.891  66.231  1.00  0.00    -0.208 C  
HETATM   11  O   UNL     1     -11.229  15.441  67.344  1.00  0.00    -0.328 OA 
HETATM   12  C   UNL     1      -9.951  11.498  68.559  1.00  0.00    -0.204 C  
HETATM   13  C   UNL     1      -8.673  12.967  66.912  1.00  0.00    -0.164 C  
HETATM   14  C   UNL     1     -10.526  14.454  67.218  1.00  0.00    -0.269 C  
HETATM   15  C   UNL     1      -9.025  14.425  67.213  1.00  0.00    -0.221 C  
HETATM   16  N   UNL     1      -9.055  10.341  68.649  1.00  0.00    -0.144 NA 
BRANCH   5  17
HETATM   17  C   UNL     1      -8.253   8.169  67.728  1.00  0.00    -0.128 A  
HETATM   18  C   UNL     1      -6.246   6.172  67.834  1.00  0.00    -0.032 A  
HETATM   19  C   UNL     1      -6.798   6.544  66.612  1.00  0.00    -0.065 A  
HETATM   20  C   UNL     1      -7.793   7.527  66.562  1.00  0.00    -0.102 A  
HETATM   21  C   UNL     1      -7.703   7.744  68.952  1.00  0.00    -0.113 A  
HETATM   22  C   UNL     1      -6.703   6.765  69.003  1.00  0.00    -0.059 A  
ENDBRANCH   5  17
ENDBRANCH   4   5
ENDBRANCH   3   4
ENDBRANCH   2   3
BRANCH   2  23
HETATM   23  C   UNL     1     -10.739   5.750  68.933  1.00  0.00    -0.334 A  
HETATM   24  F   UNL     1      -8.669   3.547  71.817  1.00  0.00    -0.087 F  
HETATM   25  C   UNL     1     -10.047   4.989  69.887  1.00  0.00    -0.344 A  
HETATM   26  F   UNL     1      -9.102   5.164  64.993  1.00  0.00    -0.158 F  
HETATM   27  C   UNL     1      -9.195   3.940  69.505  1.00  0.00    -0.226 A  
HETATM   28  C   UNL     1      -9.047   3.649  68.139  1.00  0.00    -0.197 A  
HETATM   29  F   UNL     1     -10.734   3.729  65.093  1.00  0.00    -0.096 F  
HETATM   30  C   UNL     1      -8.430   3.146  70.537  1.00  0.00    -0.060 C  
HETATM   31  F   UNL     1      -8.690   3.077  65.440  1.00  0.00    -0.104 F  
HETATM   32  C   UNL     1      -9.567   4.090  65.691  1.00  0.00    -0.190 C  
HETATM   33  F   UNL     1      -8.725   1.819  70.499  1.00  0.00    -0.072 F  
HETATM   34  F   UNL     1      -7.083   3.238  70.366  1.00  0.00    -0.033 F  
HETATM   35  C   UNL     1     -10.575   5.436  67.574  1.00  0.00    -0.204 A  
HETATM   36  C   UNL     1      -9.733   4.389  67.163  1.00  0.00    -0.230 A  
ENDBRANCH   2  23
TORSDOF 5
ENDMDL
MODEL      185
REMARK 921   NORMALIZED FREE ENERGY PREDICTED BY IDOCK:   -4.62 KCAL/MOL
REMARK 922        TOTAL FREE ENERGY PREDICTED BY IDOCK:   -8.83 KCAL/MOL
REMARK 923 INTER-LIGAND FREE ENERGY PREDICTED BY IDOCK:   -7.57 KCAL/MOL
REMARK 924 INTRA-LIGAND FREE ENERGY PREDICTED BY IDOCK:   -1.26 KCAL/MOL
REMARK 927      BINDING AFFINITY PREDICTED BY RF-SCORE:    0.00 PKD
ROOT
HETATM    1  C   UNL     1      -7.890   8.795  69.181  1.00  0.00    -0.098 C  
HETATM    2  C   UNL     1      -8.698   9.952  69.766  1.00  0.00    -0.212 C  
ENDROOT
BRANCH   2   3
HETATM    3  O   UNL     1      -9.297  10.737  68.736  1.00  0.00    -0.169 OA 
BRANCH   3   4
HETATM    4  C   UNL     1      -8.365  11.249  67.772  1.00  0.00    -0.125 C  
BRANCH   4   5
HETATM    5  C   UNL     1      -8.941  12.562  67.134  1.00  0.00    -0.200 C  
HETATM    6  C   UNL     1      -7.623  14.686  68.791  1.00  0.00    -0.138 C  
HETATM    7  C   UNL     1      -8.848  13.919  69.315  1.00  0.00     0.520 C  
HETATM    8  N   UNL     1      -6.726  14.967  69.890  1.00  0.00    -0.177 NA 
HETATM    9  H   UNL     1      -8.149  14.171  66.074  1.00  0.00     0.000 HD 
HETATM   10  C   UNL     1      -9.729  13.387  68.182  1.00  0.00    -0.226 C  
HETATM   11  O   UNL     1      -5.321  16.639  70.597  1.00  0.00    -0.202 OA 
HETATM   12  C   UNL     1      -6.904  13.867  67.687  1.00  0.00    -0.179 C  
HETATM   13  C   UNL     1      -8.002  16.090  68.283  1.00  0.00    -0.145 C  
HETATM   14  C   UNL     1      -6.212  16.239  69.869  1.00  0.00    -0.161 C  
HETATM   15  C   UNL     1      -6.910  17.029  68.800  1.00  0.00    -0.199 C  
HETATM   16  N   UNL     1      -7.805  13.390  66.632  1.00  0.00     0.485 NA 
BRANCH   5  17
HETATM   17  C   UNL     1      -9.911  12.237  65.966  1.00  0.00    -0.270 A  
HETATM   18  C   UNL     1     -11.671  11.603  63.839  1.00  0.00    -0.370 A  
HETATM   19  C   UNL     1     -10.508  10.863  64.028  1.00  0.00    -0.379 A  
HETATM   20  C   UNL     1      -9.637  11.181  65.076  1.00  0.00    -0.278 A  
HETATM   21  C   UNL     1     -11.076  12.991  65.725  1.00  0.00    -0.302 A  
HETATM   22  C   UNL     1     -11.950  12.670  64.681  1.00  0.00    -0.463 A  
ENDBRANCH   5  17
ENDBRANCH   4   5
ENDBRANCH   3   4
ENDBRANCH   2   3
BRANCH   2  23
HETATM   23  C   UNL     1      -9.797   9.394  70.659  1.00  0.00    -0.340 A  
HETATM   24  F   UNL     1      -9.168   5.723  72.551  1.00  0.00    -0.141 F  
HETATM   25  C   UNL     1      -9.600   8.169  71.314  1.00  0.00    -0.203 A  
HETATM   26  F   UNL     1     -13.982  10.382  70.431  1.00  0.00     0.048 F  
HETATM   27  C   UNL     1     -10.620   7.579  72.076  1.00  0.00    -0.248 A  
HETATM   28  C   UNL     1     -11.855   8.238  72.186  1.00  0.00    -0.431 A  
HETATM   29  F   UNL     1     -13.307  11.404  72.229  1.00  0.00    -0.596 F  
HETATM   30  C   UNL     1     -10.411   6.244  72.752  1.00  0.00    -0.197 C  
HETATM   31  F   UNL     1     -14.330   9.493  72.383  1.00  0.00    -0.370 F  
HETATM   32  C   UNL     1     -13.408  10.177  71.650  1.00  0.00    -0.366 C  
HETATM   33  F   UNL     1     -10.574   6.311  74.101  1.00  0.00    -0.276 F  
HETATM   34  F   UNL     1     -11.285   5.299  72.313  1.00  0.00    -0.288 F  
HETATM   35  C   UNL     1     -11.040  10.035  70.787  1.00  0.00    -0.407 A  
HETATM   36  C   UNL     1     -12.077   9.469  71.547  1.00  0.00    -0.468 A  
ENDBRANCH   2  23
TORSDOF 5
ENDMDL
MODEL      186
REMARK 921   NORMALIZED FREE ENERGY PREDICTED BY IDOCK:   -4.62 KCAL/MOL
REMARK 922        TOTAL FREE ENERGY PREDICTED BY IDOCK:   -8.83 KCAL/MOL
REMARK 923 INTER-LIGAND FREE ENERGY PREDICTED BY IDOCK:   -7.68 KCAL/MOL
REMARK 924 INTRA-LIGAND FREE ENERGY PREDICTED BY IDOCK:   -1.15 KCAL/MOL
REMARK 927      BINDING AFFINITY PREDICTED BY RF-SCORE:    0.00 PKD
ROOT
HETATM    1  C   UNL     1     -10.228  10.806  65.059  1.00  0.00    -0.373 C  
HETATM    2  C   UNL     1      -8.885  10.915  65.780  1.00  0.00    -0.191 C  
ENDROOT
BRANCH   2   3
HETATM    3  O   UNL     1      -8.775  12.154  66.480  1.00  0.00    -0.189 OA 
BRANCH   3   4
HETATM    4  C   UNL     1      -9.697  13.161  66.037  1.00  0.00    -0.226 C  
BRANCH   4   5
HETATM    5  C   UNL     1     -10.017  14.135  67.226  1.00  0.00    -0.249 C  
HETATM    6  C   UNL     1     -11.738  12.421  68.985  1.00  0.00    -0.323 C  
HETATM    7  C   UNL     1     -12.316  13.105  67.736  1.00  0.00     0.081 C  
HETATM    8  N   UNL     1     -12.364  11.130  69.161  1.00  0.00    -0.424 NA 
HETATM    9  H   UNL     1      -9.569  14.195  69.260  1.00  0.00     0.000 HD 
HETATM   10  C   UNL     1     -11.542  14.370  67.356  1.00  0.00    -0.398 C  
HETATM   11  O   UNL     1     -13.093   9.773  70.862  1.00  0.00    -0.312 OA 
HETATM   12  C   UNL     1     -10.199  12.275  68.858  1.00  0.00    -0.020 C  
HETATM   13  C   UNL     1     -12.119  13.171  70.276  1.00  0.00    -0.399 C  
HETATM   14  C   UNL     1     -12.705  10.855  70.462  1.00  0.00    -0.280 C  
HETATM   15  C   UNL     1     -12.498  12.090  71.290  1.00  0.00    -0.303 C  
HETATM   16  N   UNL     1      -9.520  13.523  68.494  1.00  0.00    -0.176 NA 
BRANCH   5  17
HETATM   17  C   UNL     1      -9.345  15.519  67.012  1.00  0.00    -0.239 A  
HETATM   18  C   UNL     1      -8.094  18.025  66.591  1.00  0.00    -0.285 A  
HETATM   19  C   UNL     1      -7.355  16.850  66.492  1.00  0.00    -0.317 A  
HETATM   20  C   UNL     1      -7.974  15.613  66.705  1.00  0.00    -0.246 A  
HETATM   21  C   UNL     1     -10.056  16.727  67.144  1.00  0.00    -0.282 A  
HETATM   22  C   UNL     1      -9.440  17.964  66.925  1.00  0.00    -0.279 A  
ENDBRANCH   5  17
ENDBRANCH   4   5
ENDBRANCH   3   4
ENDBRANCH   2   3
BRANCH   2  23
HETATM   23  C   UNL     1      -8.760   9.775  66.779  1.00  0.00    -0.140 A  
HETATM   24  F   UNL     1     -11.656   6.765  66.756  1.00  0.00    -0.396 F  
HETATM   25  C   UNL     1      -9.714   8.747  66.779  1.00  0.00    -0.286 A  
HETATM   26  F   UNL     1      -6.626   9.915  70.518  1.00  0.00    -0.075 F  
HETATM   27  C   UNL     1      -9.684   7.724  67.740  1.00  0.00    -0.186 A  
HETATM   28  C   UNL     1      -8.669   7.734  68.711  1.00  0.00    -0.128 A  
HETATM   29  F   UNL     1      -5.361   8.684  69.246  1.00  0.00    -0.032 F  
HETATM   30  C   UNL     1     -10.734   6.639  67.752  1.00  0.00    -0.283 C  
HETATM   31  F   UNL     1      -6.703   7.750  70.679  1.00  0.00    -0.038 F  
HETATM   32  C   UNL     1      -6.610   8.770  69.780  1.00  0.00    -0.041 C  
HETATM   33  F   UNL     1     -10.201   5.395  67.612  1.00  0.00    -0.170 F  
HETATM   34  F   UNL     1     -11.443   6.618  68.913  1.00  0.00    -0.287 F  
HETATM   35  C   UNL     1      -7.753   9.760  67.759  1.00  0.00    -0.091 A  
HETATM   36  C   UNL     1      -7.696   8.746  68.730  1.00  0.00    -0.097 A  
ENDBRANCH   2  23
TORSDOF 5
ENDMDL
MODEL      187
REMARK 921   NORMALIZED FREE ENERGY PREDICTED BY IDOCK:   -4.60 KCAL/MOL
REMARK 922        TOTAL FREE ENERGY PREDICTED BY IDOCK:   -8.80 KCAL/MOL
REMARK 923 INTER-LIGAND FREE ENERGY PREDICTED BY IDOCK:   -7.62 KCAL/MOL
REMARK 924 INTRA-LIGAND FREE ENERGY PREDICTED BY IDOCK:   -1.18 KCAL/MOL
REMARK 927      BINDING AFFINITY PREDICTED BY RF-SCORE:    0.00 PKD
ROOT
HETATM    1  C   UNL     1      -7.222  12.935  68.622  1.00  0.00    -0.098 C  
HETATM    2  C   UNL     1      -7.809  12.562  67.262  1.00  0.00    -0.160 C  
ENDROOT
BRANCH   2   3
HETATM    3  O   UNL     1      -8.541  11.339  67.334  1.00  0.00    -0.132 OA 
BRANCH   3   4
HETATM    4  C   UNL     1      -7.848  10.281  68.013  1.00  0.00    -0.100 C  
BRANCH   4   5
HETATM    5  C   UNL     1      -8.332   8.897  67.454  1.00  0.00    -0.108 C  
HETATM    6  C   UNL     1      -9.990   7.856  69.726  1.00  0.00    -0.186 C  
HETATM    7  C   UNL     1      -8.456   7.766  69.759  1.00  0.00    -0.133 C  
HETATM    8  N   UNL     1     -10.486   8.103  71.062  1.00  0.00    -0.199 NA 
HETATM    9  H   UNL     1     -10.169   8.068  66.925  1.00  0.00     0.000 HD 
HETATM   10  C   UNL     1      -7.846   7.735  68.355  1.00  0.00    -0.121 C  
HETATM   11  O   UNL     1     -12.265   7.515  72.387  1.00  0.00    -0.236 OA 
HETATM   12  C   UNL     1     -10.445   8.976  68.753  1.00  0.00    -0.206 C  
HETATM   13  C   UNL     1     -10.636   6.506  69.360  1.00  0.00    -0.291 C  
HETATM   14  C   UNL     1     -11.591   7.356  71.386  1.00  0.00    -0.275 C  
HETATM   15  C   UNL     1     -11.830   6.345  70.302  1.00  0.00    -0.283 C  
HETATM   16  N   UNL     1      -9.825   8.886  67.427  1.00  0.00    -0.179 NA 
BRANCH   5  17
HETATM   17  C   UNL     1      -7.779   8.646  66.025  1.00  0.00    -0.100 A  
HETATM   18  C   UNL     1      -6.797   8.220  63.403  1.00  0.00    -0.085 A  
HETATM   19  C   UNL     1      -8.136   8.538  63.604  1.00  0.00    -0.154 A  
HETATM   20  C   UNL     1      -8.620   8.743  64.901  1.00  0.00    -0.177 A  
HETATM   21  C   UNL     1      -6.438   8.285  65.792  1.00  0.00    -0.052 A  
HETATM   22  C   UNL     1      -5.951   8.085  64.495  1.00  0.00    -0.052 A  
ENDBRANCH   5  17
ENDBRANCH   4   5
ENDBRANCH   3   4
ENDBRANCH   2   3
BRANCH   2  23
HETATM   23  C   UNL     1      -8.747  13.668  66.801  1.00  0.00    -0.101 A  
HETATM   24  F   UNL     1     -12.180  12.617  64.665  1.00  0.00    -0.401 F  
HETATM   25  C   UNL     1      -9.912  13.335  66.094  1.00  0.00    -0.295 A  
HETATM   26  F   UNL     1      -7.681  17.795  66.190  1.00  0.00    -0.268 F  
HETATM   27  C   UNL     1     -10.758  14.329  65.576  1.00  0.00    -0.339 A  
HETATM   28  C   UNL     1     -10.428  15.678  65.782  1.00  0.00    -0.383 A  
HETATM   29  F   UNL     1      -8.853  17.830  68.022  1.00  0.00    -0.236 F  
HETATM   30  C   UNL     1     -11.994  13.962  64.789  1.00  0.00    -0.406 C  
HETATM   31  F   UNL     1      -9.779  18.361  66.128  1.00  0.00    -0.318 F  
HETATM   32  C   UNL     1      -8.904  17.489  66.706  1.00  0.00    -0.256 C  
HETATM   33  F   UNL     1     -13.134  14.447  65.351  1.00  0.00    -0.477 F  
HETATM   34  F   UNL     1     -11.962  14.450  63.519  1.00  0.00    -0.252 F  
HETATM   35  C   UNL     1      -8.441  15.025  66.996  1.00  0.00    -0.258 A  
HETATM   36  C   UNL     1      -9.272  16.039  66.493  1.00  0.00    -0.307 A  
ENDBRANCH   2  23
TORSDOF 5
ENDMDL
MODEL      188
REMARK 921   NORMALIZED FREE ENERGY PREDICTED BY IDOCK:   -4.59 KCAL/MOL
REMARK 922        TOTAL FREE ENERGY PREDICTED BY IDOCK:   -8.79 KCAL/MOL
REMARK 923 INTER-LIGAND FREE ENERGY PREDICTED BY IDOCK:   -7.91 KCAL/MOL
REMARK 924 INTRA-LIGAND FREE ENERGY PREDICTED BY IDOCK:   -0.89 KCAL/MOL
REMARK 927      BINDING AFFINITY PREDICTED BY RF-SCORE:    0.00 PKD
ROOT
HETATM    1  C   UNL     1      -7.586   9.969  69.858  1.00  0.00    -0.177 C  
HETATM    2  C   UNL     1      -9.082   9.672  69.933  1.00  0.00    -0.225 C  
ENDROOT
BRANCH   2   3
HETATM    3  O   UNL     1      -9.779  10.254  68.832  1.00  0.00    -0.171 OA 
BRANCH   3   4
HETATM    4  C   UNL     1      -8.927  10.900  67.874  1.00  0.00    -0.141 C  
BRANCH   4   5
HETATM    5  C   UNL     1      -9.802  11.745  66.882  1.00  0.00    -0.203 C  
HETATM    6  C   UNL     1     -11.019  13.785  68.713  1.00  0.00    -0.264 C  
HETATM    7  C   UNL     1     -11.582  12.356  68.632  1.00  0.00    -0.365 C  
HETATM    8  N   UNL     1     -11.124  14.267  70.072  1.00  0.00    -0.099 NA 
HETATM    9  H   UNL     1      -9.782  13.708  66.186  1.00  0.00     0.000 HD 
HETATM   10  C   UNL     1     -11.297  11.695  67.282  1.00  0.00    -0.372 C  
HETATM   11  O   UNL     1     -11.568  16.223  71.188  1.00  0.00    -0.427 OA 
HETATM   12  C   UNL     1      -9.546  13.813  68.229  1.00  0.00    -0.219 C  
HETATM   13  C   UNL     1     -11.883  14.785  67.921  1.00  0.00    -0.327 C  
HETATM   14  C   UNL     1     -11.560  15.565  70.163  1.00  0.00    -0.337 C  
HETATM   15  C   UNL     1     -11.993  16.030  68.803  1.00  0.00    -0.088 C  
HETATM   16  N   UNL     1      -9.343  13.165  66.929  1.00  0.00    -0.240 NA 
BRANCH   5  17
HETATM   17  C   UNL     1      -9.685  11.203  65.432  1.00  0.00    -0.275 A  
HETATM   18  C   UNL     1      -9.471  10.255  62.771  1.00  0.00    -0.323 A  
HETATM   19  C   UNL     1     -10.210  11.401  63.047  1.00  0.00    -0.311 A  
HETATM   20  C   UNL     1     -10.318  11.865  64.363  1.00  0.00    -0.341 A  
HETATM   21  C   UNL     1      -8.977  10.025  65.125  1.00  0.00    -0.227 A  
HETATM   22  C   UNL     1      -8.863   9.563  63.809  1.00  0.00    -0.238 A  
ENDBRANCH   5  17
ENDBRANCH   4   5
ENDBRANCH   3   4
ENDBRANCH   2   3
BRANCH   2  23
HETATM   23  C   UNL     1      -9.296   8.166  69.906  1.00  0.00    -0.159 A  
HETATM   24  F   UNL     1      -9.213   6.198  66.222  1.00  0.00    -0.146 F  
HETATM   25  C   UNL     1      -9.259   7.484  68.680  1.00  0.00    -0.144 A  
HETATM   26  F   UNL     1     -11.326   5.848  72.914  1.00  0.00    -0.286 F  
HETATM   27  C   UNL     1      -9.537   6.110  68.602  1.00  0.00    -0.138 A  
HETATM   28  C   UNL     1      -9.849   5.412  69.780  1.00  0.00    -0.268 A  
HETATM   29  F   UNL     1      -9.229   5.350  73.207  1.00  0.00    -0.131 F  
HETATM   30  C   UNL     1      -9.525   5.391  67.274  1.00  0.00    -0.123 C  
HETATM   31  F   UNL     1     -10.519   4.008  72.086  1.00  0.00    -0.245 F  
HETATM   32  C   UNL     1     -10.234   5.325  72.290  1.00  0.00    -0.199 C  
HETATM   33  F   UNL     1      -8.626   4.370  67.241  1.00  0.00    -0.103 F  
HETATM   34  F   UNL     1     -10.733   4.840  66.974  1.00  0.00    -0.215 F  
HETATM   35  C   UNL     1      -9.608   7.444  71.070  1.00  0.00    -0.161 A  
HETATM   36  C   UNL     1      -9.885   6.067  71.021  1.00  0.00    -0.220 A  
ENDBRANCH   2  23
TORSDOF 5
ENDMDL
MODEL      189
REMARK 921   NORMALIZED FREE ENERGY PREDICTED BY IDOCK:   -4.58 KCAL/MOL
REMARK 922        TOTAL FREE ENERGY PREDICTED BY IDOCK:   -8.78 KCAL/MOL
REMARK 923 INTER-LIGAND FREE ENERGY PREDICTED BY IDOCK:   -7.74 KCAL/MOL
REMARK 924 INTRA-LIGAND FREE ENERGY PREDICTED BY IDOCK:   -1.04 KCAL/MOL
REMARK 927      BINDING AFFINITY PREDICTED BY RF-SCORE:    0.00 PKD
ROOT
HETATM    1  C   UNL     1      -7.337   8.897  68.386  1.00  0.00    -0.082 C  
HETATM    2  C   UNL     1      -8.623   9.179  69.160  1.00  0.00    -0.133 C  
ENDROOT
BRANCH   2   3
HETATM    3  O   UNL     1      -9.499  10.024  68.415  1.00  0.00    -0.138 OA 
BRANCH   3   4
HETATM    4  C   UNL     1      -8.912  11.272  68.017  1.00  0.00    -0.156 C  
BRANCH   4   5
HETATM    5  C   UNL     1      -9.952  12.096  67.179  1.00  0.00    -0.200 C  
HETATM    6  C   UNL     1     -11.128  13.908  69.260  1.00  0.00    -0.218 C  
HETATM    7  C   UNL     1     -11.579  12.443  69.138  1.00  0.00    -0.369 C  
HETATM    8  N   UNL     1     -11.126  14.297  70.652  1.00  0.00     0.156 NA 
HETATM    9  H   UNL     1     -10.165  14.091  66.621  1.00  0.00     0.000 HD 
HETATM   10  C   UNL     1     -11.388  11.892  67.724  1.00  0.00    -0.361 C  
HETATM   11  O   UNL     1     -11.604  16.136  71.940  1.00  0.00    -0.458 OA 
HETATM   12  C   UNL     1      -9.721  14.094  68.633  1.00  0.00    -0.196 C  
HETATM   13  C   UNL     1     -12.148  14.875  68.630  1.00  0.00    -0.205 C  
HETATM   14  C   UNL     1     -11.652  15.545  70.876  1.00  0.00    -0.375 C  
HETATM   15  C   UNL     1     -12.264  16.051  69.602  1.00  0.00    -0.019 C  
HETATM   16  N   UNL     1      -9.607  13.545  67.277  1.00  0.00    -0.228 NA 
BRANCH   5  17
HETATM   17  C   UNL     1      -9.947  11.654  65.690  1.00  0.00    -0.274 A  
HETATM   18  C   UNL     1      -9.933  10.889  62.963  1.00  0.00    -0.317 A  
HETATM   19  C   UNL     1     -10.510  12.096  63.347  1.00  0.00    -0.450 A  
HETATM   20  C   UNL     1     -10.520  12.469  64.696  1.00  0.00    -0.344 A  
HETATM   21  C   UNL     1      -9.406  10.422  65.275  1.00  0.00    -0.263 A  
HETATM   22  C   UNL     1      -9.390  10.050  63.926  1.00  0.00    -0.315 A  
ENDBRANCH   5  17
ENDBRANCH   4   5
ENDBRANCH   3   4
ENDBRANCH   2   3
BRANCH   2  23
HETATM   23  C   UNL     1      -9.335   7.865  69.445  1.00  0.00    -0.152 A  
HETATM   24  F   UNL     1     -11.395   7.446  73.055  1.00  0.00    -0.332 F  
HETATM   25  C   UNL     1     -10.043   7.709  70.645  1.00  0.00    -0.187 A  
HETATM   26  F   UNL     1      -8.394   4.048  67.686  1.00  0.00    -0.092 F  
HETATM   27  C   UNL     1     -10.640   6.484  70.985  1.00  0.00    -0.275 A  
HETATM   28  C   UNL     1     -10.528   5.404  70.095  1.00  0.00    -0.361 A  
HETATM   29  F   UNL     1     -10.253   4.622  66.712  1.00  0.00    -0.214 F  
HETATM   30  C   UNL     1     -11.375   6.315  72.294  1.00  0.00    -0.294 C  
HETATM   31  F   UNL     1     -10.282   3.228  68.379  1.00  0.00     0.107 F  
HETATM   32  C   UNL     1      -9.695   4.371  67.928  1.00  0.00    -0.129 C  
HETATM   33  F   UNL     1     -12.676   5.959  72.120  1.00  0.00    -0.293 F  
HETATM   34  F   UNL     1     -10.820   5.351  73.077  1.00  0.00    -0.229 F  
HETATM   35  C   UNL     1      -9.240   6.769  68.571  1.00  0.00    -0.128 A  
HETATM   36  C   UNL     1      -9.832   5.534  68.883  1.00  0.00    -0.213 A  
ENDBRANCH   2  23
TORSDOF 5
ENDMDL
MODEL      190
REMARK 921   NORMALIZED FREE ENERGY PREDICTED BY IDOCK:   -4.58 KCAL/MOL
REMARK 922        TOTAL FREE ENERGY PREDICTED BY IDOCK:   -8.78 KCAL/MOL
REMARK 923 INTER-LIGAND FREE ENERGY PREDICTED BY IDOCK:   -7.42 KCAL/MOL
REMARK 924 INTRA-LIGAND FREE ENERGY PREDICTED BY IDOCK:   -1.36 KCAL/MOL
REMARK 927      BINDING AFFINITY PREDICTED BY RF-SCORE:    0.00 PKD
ROOT
HETATM    1  C   UNL     1     -10.771   6.023  68.745  1.00  0.00    -0.375 C  
HETATM    2  C   UNL     1     -10.932   6.646  67.360  1.00  0.00    -0.360 C  
ENDROOT
BRANCH   2   3
HETATM    3  O   UNL     1     -10.700   8.054  67.397  1.00  0.00    -0.269 OA 
BRANCH   3   4
HETATM    4  C   UNL     1     -10.946   8.655  68.677  1.00  0.00     0.163 C  
BRANCH   4   5
HETATM    5  C   UNL     1      -9.963   9.861  68.885  1.00  0.00    -0.181 C  
HETATM    6  C   UNL     1     -11.119  11.926  67.042  1.00  0.00    -0.302 C  
HETATM    7  C   UNL     1     -10.246  10.781  66.503  1.00  0.00    -0.287 C  
HETATM    8  N   UNL     1     -12.157  12.233  66.084  1.00  0.00    -0.627 NA 
HETATM    9  H   UNL     1     -10.117  11.785  69.670  1.00  0.00     0.000 HD 
HETATM   10  C   UNL     1      -9.271  10.248  67.555  1.00  0.00    -0.153 C  
HETATM   11  O   UNL     1     -13.279  14.061  65.270  1.00  0.00    -0.782 OA 
HETATM   12  C   UNL     1     -11.731  11.537  68.414  1.00  0.00    -0.303 C  
HETATM   13  C   UNL     1     -10.333  13.248  67.140  1.00  0.00    -0.248 C  
HETATM   14  C   UNL     1     -12.358  13.578  65.902  1.00  0.00    -0.456 C  
HETATM   15  C   UNL     1     -11.278  14.333  66.622  1.00  0.00    -0.337 C  
HETATM   16  N   UNL     1     -10.744  11.035  69.375  1.00  0.00    -0.226 NA 
BRANCH   5  17
HETATM   17  C   UNL     1      -8.850   9.506  69.908  1.00  0.00    -0.227 A  
HETATM   18  C   UNL     1      -6.840   8.821  71.783  1.00  0.00    -0.073 A  
HETATM   19  C   UNL     1      -8.165   8.463  72.017  1.00  0.00    -0.212 A  
HETATM   20  C   UNL     1      -9.157   8.807  71.091  1.00  0.00    -0.285 A  
HETATM   21  C   UNL     1      -7.508   9.887  69.720  1.00  0.00    -0.140 A  
HETATM   22  C   UNL     1      -6.514   9.539  70.641  1.00  0.00    -0.093 A  
ENDBRANCH   5  17
ENDBRANCH   4   5
ENDBRANCH   3   4
ENDBRANCH   2   3
BRANCH   2  23
HETATM   23  C   UNL     1      -9.932   6.010  66.406  1.00  0.00    -0.145 A  
HETATM   24  F   UNL     1      -6.690   8.294  65.092  1.00  0.00    -0.054 F  
HETATM   25  C   UNL     1      -8.829   6.756  65.963  1.00  0.00    -0.150 A  
HETATM   26  F   UNL     1     -10.699   2.670  63.798  1.00  0.00    -0.185 F  
HETATM   27  C   UNL     1      -7.932   6.237  65.016  1.00  0.00    -0.120 A  
HETATM   28  C   UNL     1      -8.146   4.943  64.515  1.00  0.00    -0.112 A  
HETATM   29  F   UNL     1      -9.447   1.826  65.365  1.00  0.00    -0.115 F  
HETATM   30  C   UNL     1      -6.764   7.059  64.522  1.00  0.00    -0.046 C  
HETATM   31  F   UNL     1      -8.568   2.403  63.462  1.00  0.00    -0.083 F  
HETATM   32  C   UNL     1      -9.481   2.784  64.400  1.00  0.00    -0.145 C  
HETATM   33  F   UNL     1      -5.566   6.462  64.764  1.00  0.00    -0.020 F  
HETATM   34  F   UNL     1      -6.815   7.272  63.179  1.00  0.00    -0.050 F  
HETATM   35  C   UNL     1     -10.122   4.718  65.890  1.00  0.00    -0.265 A  
HETATM   36  C   UNL     1      -9.237   4.172  64.946  1.00  0.00    -0.154 A  
ENDBRANCH   2  23
TORSDOF 5
ENDMDL
MODEL      191
REMARK 921   NORMALIZED FREE ENERGY PREDICTED BY IDOCK:   -4.56 KCAL/MOL
REMARK 922        TOTAL FREE ENERGY PREDICTED BY IDOCK:   -8.76 KCAL/MOL
REMARK 923 INTER-LIGAND FREE ENERGY PREDICTED BY IDOCK:   -5.19 KCAL/MOL
REMARK 924 INTRA-LIGAND FREE ENERGY PREDICTED BY IDOCK:   -3.56 KCAL/MOL
REMARK 927      BINDING AFFINITY PREDICTED BY RF-SCORE:    0.00 PKD
ROOT
HETATM    1  C   UNL     1      -9.675   5.391  66.440  1.00  0.00    -0.183 C  
HETATM    2  C   UNL     1     -10.467   5.913  67.637  1.00  0.00    -0.238 C  
ENDROOT
BRANCH   2   3
HETATM    3  O   UNL     1      -9.903   5.458  68.867  1.00  0.00    -0.142 OA 
BRANCH   3   4
HETATM    4  C   UNL     1      -8.469   5.396  68.866  1.00  0.00    -0.099 C  
BRANCH   4   5
HETATM    5  C   UNL     1      -7.908   6.266  70.046  1.00  0.00    -0.106 C  
HETATM    6  C   UNL     1      -8.019   4.340  72.343  1.00  0.00    -0.088 C  
HETATM    7  C   UNL     1      -9.281   5.074  71.863  1.00  0.00    -0.164 C  
HETATM    8  N   UNL     1      -8.373   3.006  72.775  1.00  0.00    -0.074 NA 
HETATM    9  H   UNL     1      -6.215   6.210  71.260  1.00  0.00     0.000 HD 
HETATM   10  C   UNL     1      -8.955   6.404  71.179  1.00  0.00    -0.146 C  
HETATM   11  O   UNL     1      -7.783   1.495  74.399  1.00  0.00    -0.031 OA 
HETATM   12  C   UNL     1      -6.960   4.290  71.210  1.00  0.00    -0.036 C  
HETATM   13  C   UNL     1      -7.437   4.976  73.620  1.00  0.00    -0.091 C  
HETATM   14  C   UNL     1      -7.758   2.623  73.940  1.00  0.00    -0.055 C  
HETATM   15  C   UNL     1      -7.045   3.807  74.526  1.00  0.00    -0.053 C  
HETATM   16  N   UNL     1      -6.693   5.597  70.599  1.00  0.00    -0.046 NA 
BRANCH   5  17
HETATM   17  C   UNL     1      -7.546   7.697  69.564  1.00  0.00    -0.098 A  
HETATM   18  C   UNL     1      -6.895  10.295  68.643  1.00  0.00    -0.057 A  
HETATM   19  C   UNL     1      -6.631   9.185  67.847  1.00  0.00    -0.063 A  
HETATM   20  C   UNL     1      -6.949   7.902  68.306  1.00  0.00    -0.073 A  
HETATM   21  C   UNL     1      -7.765   8.836  70.362  1.00  0.00    -0.091 A  
HETATM   22  C   UNL     1      -7.454  10.120  69.902  1.00  0.00    -0.176 A  
ENDBRANCH   5  17
ENDBRANCH   4   5
ENDBRANCH   3   4
ENDBRANCH   2   3
BRANCH   2  23
HETATM   23  C   UNL     1     -10.449   7.434  67.624  1.00  0.00    -0.310 A  
HETATM   24  F   UNL     1     -12.125   9.482  70.857  1.00  0.00    -0.315 F  
HETATM   25  C   UNL     1     -10.995   8.141  68.706  1.00  0.00     0.144 A  
HETATM   26  F   UNL     1     -10.158   9.929  64.126  1.00  0.00    -0.300 F  
HETATM   27  C   UNL     1     -11.077   9.542  68.694  1.00  0.00    -0.034 A  
HETATM   28  C   UNL     1     -10.593  10.242  67.577  1.00  0.00    -0.320 A  
HETATM   29  F   UNL     1      -8.198  10.107  65.052  1.00  0.00    -0.129 F  
HETATM   30  C   UNL     1     -11.695  10.294  69.850  1.00  0.00    -0.225 C  
HETATM   31  F   UNL     1      -9.691  11.657  65.358  1.00  0.00    -0.229 F  
HETATM   32  C   UNL     1      -9.526  10.307  65.272  1.00  0.00    -0.240 C  
HETATM   33  F   UNL     1     -10.829  11.173  70.423  1.00  0.00    -0.178 F  
HETATM   34  F   UNL     1     -12.780  11.023  69.472  1.00  0.00    -0.316 F  
HETATM   35  C   UNL     1      -9.970   8.158  66.520  1.00  0.00    -0.302 A  
HETATM   36  C   UNL     1     -10.035   9.561  66.483  1.00  0.00    -0.329 A  
ENDBRANCH   2  23
TORSDOF 5
ENDMDL
MODEL      192
REMARK 921   NORMALIZED FREE ENERGY PREDICTED BY IDOCK:   -4.54 KCAL/MOL
REMARK 922        TOTAL FREE ENERGY PREDICTED BY IDOCK:   -8.73 KCAL/MOL
REMARK 923 INTER-LIGAND FREE ENERGY PREDICTED BY IDOCK:   -7.92 KCAL/MOL
REMARK 924 INTRA-LIGAND FREE ENERGY PREDICTED BY IDOCK:   -0.82 KCAL/MOL
REMARK 927      BINDING AFFINITY PREDICTED BY RF-SCORE:    0.00 PKD
ROOT
HETATM    1  C   UNL     1      -8.547  11.211  66.625  1.00  0.00    -0.165 C  
HETATM    2  C   UNL     1      -9.748  10.334  66.976  1.00  0.00    -0.176 C  
ENDROOT
BRANCH   2   3
HETATM    3  O   UNL     1      -9.334   9.026  67.371  1.00  0.00    -0.136 OA 
BRANCH   3   4
HETATM    4  C   UNL     1     -10.204   7.976  66.922  1.00  0.00    -0.315 C  
BRANCH   4   5
HETATM    5  C   UNL     1      -9.518   6.587  67.172  1.00  0.00    -0.131 C  
HETATM    6  C   UNL     1      -9.780   6.294  70.146  1.00  0.00    -0.163 C  
HETATM    7  C   UNL     1      -8.685   7.180  69.530  1.00  0.00    -0.134 C  
HETATM    8  N   UNL     1     -10.251   6.893  71.374  1.00  0.00    -0.197 NA 
HETATM    9  H   UNL     1     -10.149   4.718  67.842  1.00  0.00     0.000 HD 
HETATM   10  C   UNL     1      -8.301   6.732  68.118  1.00  0.00    -0.118 C  
HETATM   11  O   UNL     1     -10.961   6.247  73.459  1.00  0.00    -0.224 OA 
HETATM   12  C   UNL     1     -10.948   6.102  69.142  1.00  0.00    -0.381 C  
HETATM   13  C   UNL     1      -9.222   4.936  70.613  1.00  0.00    -0.189 C  
HETATM   14  C   UNL     1     -10.425   5.993  72.395  1.00  0.00    -0.201 C  
HETATM   15  C   UNL     1      -9.871   4.664  71.972  1.00  0.00    -0.239 C  
HETATM   16  N   UNL     1     -10.510   5.671  67.810  1.00  0.00    -0.217 NA 
BRANCH   5  17
HETATM   17  C   UNL     1      -9.009   5.966  65.843  1.00  0.00    -0.149 A  
HETATM   18  C   UNL     1      -8.042   4.854  63.425  1.00  0.00    -0.100 A  
HETATM   19  C   UNL     1      -7.631   6.122  63.823  1.00  0.00    -0.089 A  
HETATM   20  C   UNL     1      -8.115   6.672  65.016  1.00  0.00    -0.124 A  
HETATM   21  C   UNL     1      -9.435   4.702  65.393  1.00  0.00    -0.176 A  
HETATM   22  C   UNL     1      -8.949   4.149  64.204  1.00  0.00    -0.144 A  
ENDBRANCH   5  17
ENDBRANCH   4   5
ENDBRANCH   3   4
ENDBRANCH   2   3
BRANCH   2  23
HETATM   23  C   UNL     1     -10.515  10.972  68.124  1.00  0.00    -0.216 A  
HETATM   24  F   UNL     1     -12.455   8.482  70.861  1.00  0.00    -0.269 F  
HETATM   25  C   UNL     1     -11.163  10.153  69.062  1.00  0.00    -0.223 A  
HETATM   26  F   UNL     1     -12.116  14.970  68.182  1.00  0.00    -0.327 F  
HETATM   27  C   UNL     1     -11.953  10.701  70.085  1.00  0.00    -0.417 A  
HETATM   28  C   UNL     1     -12.085  12.097  70.168  1.00  0.00    -0.368 A  
HETATM   29  F   UNL     1     -10.404  15.078  69.521  1.00  0.00    -0.224 F  
HETATM   30  C   UNL     1     -12.672   9.811  71.071  1.00  0.00    -0.304 C  
HETATM   31  F   UNL     1     -12.409  14.855  70.333  1.00  0.00    -0.309 F  
HETATM   32  C   UNL     1     -11.591  14.442  69.324  1.00  0.00    -0.304 C  
HETATM   33  F   UNL     1     -12.301  10.052  72.358  1.00  0.00    -0.321 F  
HETATM   34  F   UNL     1     -14.022   9.978  71.030  1.00  0.00    -0.275 F  
HETATM   35  C   UNL     1     -10.661  12.365  68.231  1.00  0.00    -0.250 A  
HETATM   36  C   UNL     1     -11.442  12.940  69.248  1.00  0.00    -0.341 A  
ENDBRANCH   2  23
TORSDOF 5
ENDMDL
MODEL      193
REMARK 921   NORMALIZED FREE ENERGY PREDICTED BY IDOCK:   -4.54 KCAL/MOL
REMARK 922        TOTAL FREE ENERGY PREDICTED BY IDOCK:   -8.73 KCAL/MOL
REMARK 923 INTER-LIGAND FREE ENERGY PREDICTED BY IDOCK:   -8.97 KCAL/MOL
REMARK 924 INTRA-LIGAND FREE ENERGY PREDICTED BY IDOCK:    0.24 KCAL/MOL
REMARK 927      BINDING AFFINITY PREDICTED BY RF-SCORE:    0.00 PKD
ROOT
HETATM    1  C   UNL     1     -10.182  15.319  64.931  1.00  0.00    -0.209 C  
HETATM    2  C   UNL     1     -10.020  15.304  66.450  1.00  0.00    -0.275 C  
ENDROOT
BRANCH   2   3
HETATM    3  O   UNL     1      -9.323  14.135  66.883  1.00  0.00    -0.243 OA 
BRANCH   3   4
HETATM    4  C   UNL     1      -9.843  13.557  68.089  1.00  0.00    -0.237 C  
BRANCH   4   5
HETATM    5  C   UNL     1     -11.399  13.391  67.961  1.00  0.00    -0.286 C  
HETATM    6  C   UNL     1     -12.342  14.274  70.667  1.00  0.00    -0.361 C  
HETATM    7  C   UNL     1     -11.765  12.866  70.450  1.00  0.00    -0.109 C  
HETATM    8  N   UNL     1     -11.956  14.756  71.975  1.00  0.00    -0.331 NA 
HETATM    9  H   UNL     1     -13.036  14.679  67.970  1.00  0.00     0.000 HD 
HETATM   10  C   UNL     1     -11.937  12.384  69.008  1.00  0.00    -0.291 C  
HETATM   11  O   UNL     1     -12.830  16.003  73.692  1.00  0.00    -0.526 OA 
HETATM   12  C   UNL     1     -11.848  15.238  69.556  1.00  0.00    -0.345 C  
HETATM   13  C   UNL     1     -13.881  14.258  70.743  1.00  0.00     0.232 C  
HETATM   14  C   UNL     1     -12.970  15.384  72.652  1.00  0.00    -0.422 C  
HETATM   15  C   UNL     1     -14.251  15.198  71.892  1.00  0.00    -0.676 C  
HETATM   16  N   UNL     1     -12.043  14.716  68.199  1.00  0.00    -0.228 NA 
BRANCH   5  17
HETATM   17  C   UNL     1     -11.791  12.861  66.555  1.00  0.00    -0.473 A  
HETATM   18  C   UNL     1     -12.498  11.855  64.003  1.00  0.00    -0.418 A  
HETATM   19  C   UNL     1     -11.476  11.254  64.733  1.00  0.00     0.044 A  
HETATM   20  C   UNL     1     -11.126  11.756  65.991  1.00  0.00    -0.363 A  
HETATM   21  C   UNL     1     -12.793  13.471  65.776  1.00  0.00    -0.326 A  
HETATM   22  C   UNL     1     -13.149  12.966  64.520  1.00  0.00    -0.005 A  
ENDBRANCH   5  17
ENDBRANCH   4   5
ENDBRANCH   3   4
ENDBRANCH   2   3
BRANCH   2  23
HETATM   23  C   UNL     1      -9.232  16.531  66.882  1.00  0.00    -0.244 A  
HETATM   24  F   UNL     1     -10.426  20.276  65.467  1.00  0.00    -0.526 F  
HETATM   25  C   UNL     1      -9.625  17.799  66.429  1.00  0.00    -0.293 A  
HETATM   26  F   UNL     1      -5.146  16.562  68.244  1.00  0.00    -0.095 F  
HETATM   27  C   UNL     1      -8.875  18.946  66.734  1.00  0.00    -0.315 A  
HETATM   28  C   UNL     1      -7.716  18.813  67.515  1.00  0.00    -0.244 A  
HETATM   29  F   UNL     1      -6.298  16.900  70.058  1.00  0.00    -0.229 F  
HETATM   30  C   UNL     1      -9.288  20.304  66.215  1.00  0.00    -0.237 C  
HETATM   31  F   UNL     1      -5.387  18.578  69.019  1.00  0.00    -0.184 F  
HETATM   32  C   UNL     1      -6.050  17.404  68.819  1.00  0.00    -0.174 C  
HETATM   33  F   UNL     1      -9.519  21.196  67.215  1.00  0.00    -0.553 F  
HETATM   34  F   UNL     1      -8.336  20.865  65.421  1.00  0.00     0.345 F  
HETATM   35  C   UNL     1      -8.070  16.425  67.665  1.00  0.00    -0.170 A  
HETATM   36  C   UNL     1      -7.304  17.557  67.989  1.00  0.00    -0.208 A  
ENDBRANCH   2  23
TORSDOF 5
ENDMDL
MODEL      194
REMARK 921   NORMALIZED FREE ENERGY PREDICTED BY IDOCK:   -4.54 KCAL/MOL
REMARK 922        TOTAL FREE ENERGY PREDICTED BY IDOCK:   -8.72 KCAL/MOL
REMARK 923 INTER-LIGAND FREE ENERGY PREDICTED BY IDOCK:   -7.59 KCAL/MOL
REMARK 924 INTRA-LIGAND FREE ENERGY PREDICTED BY IDOCK:   -1.13 KCAL/MOL
REMARK 927      BINDING AFFINITY PREDICTED BY RF-SCORE:    0.00 PKD
ROOT
HETATM    1  C   UNL     1     -10.290   7.927  72.861  1.00  0.00    -0.413 C  
HETATM    2  C   UNL     1     -10.983   7.523  71.561  1.00  0.00    -0.229 C  
ENDROOT
BRANCH   2   3
HETATM    3  O   UNL     1     -10.559   8.344  70.474  1.00  0.00    -0.207 OA 
BRANCH   3   4
HETATM    4  C   UNL     1     -11.636   8.906  69.710  1.00  0.00     0.312 C  
BRANCH   4   5
HETATM    5  C   UNL     1     -11.248  10.356  69.248  1.00  0.00    -0.248 C  
HETATM    6  C   UNL     1      -9.452   9.801  66.911  1.00  0.00    -0.160 C  
HETATM    7  C   UNL     1      -8.934   9.684  68.354  1.00  0.00    -0.123 C  
HETATM    8  N   UNL     1      -8.827   8.787  66.092  1.00  0.00    -0.157 NA 
HETATM    9  H   UNL     1     -11.590  11.516  67.552  1.00  0.00     0.000 HD 
HETATM   10  C   UNL     1      -9.717  10.570  69.326  1.00  0.00    -0.215 C  
HETATM   11  O   UNL     1      -8.022   8.535  63.957  1.00  0.00    -0.144 OA 
HETATM   12  C   UNL     1     -10.997   9.662  66.879  1.00  0.00     0.098 C  
HETATM   13  C   UNL     1      -8.999  11.114  66.245  1.00  0.00    -0.202 C  
HETATM   14  C   UNL     1      -8.422   9.244  64.863  1.00  0.00    -0.168 C  
HETATM   15  C   UNL     1      -8.576  10.737  64.824  1.00  0.00    -0.079 C  
HETATM   16  N   UNL     1     -11.684  10.540  67.832  1.00  0.00    -0.369 NA 
BRANCH   5  17
HETATM   17  C   UNL     1     -11.920  11.428  70.148  1.00  0.00    -0.460 A  
HETATM   18  C   UNL     1     -13.136  13.360  71.825  1.00  0.00    -0.479 A  
HETATM   19  C   UNL     1     -13.273  12.004  72.107  1.00  0.00    -0.400 A  
HETATM   20  C   UNL     1     -12.676  11.052  71.274  1.00  0.00    -0.537 A  
HETATM   21  C   UNL     1     -11.832  12.805  69.868  1.00  0.00    -0.371 A  
HETATM   22  C   UNL     1     -12.424  13.759  70.703  1.00  0.00    -0.429 A  
ENDBRANCH   5  17
ENDBRANCH   4   5
ENDBRANCH   3   4
ENDBRANCH   2   3
BRANCH   2  23
HETATM   23  C   UNL     1     -10.643   6.075  71.243  1.00  0.00    -0.302 A  
HETATM   24  F   UNL     1     -10.895   3.240  74.301  1.00  0.00    -0.235 F  
HETATM   25  C   UNL     1     -10.734   5.105  72.252  1.00  0.00    -0.266 A  
HETATM   26  F   UNL     1      -8.150   4.717  68.004  1.00  0.00    -0.087 F  
HETATM   27  C   UNL     1     -10.346   3.775  72.023  1.00  0.00    -0.083 A  
HETATM   28  C   UNL     1      -9.868   3.417  70.752  1.00  0.00    -0.086 A  
HETATM   29  F   UNL     1     -10.160   4.184  67.367  1.00  0.00    -0.217 F  
HETATM   30  C   UNL     1     -10.419   2.745  73.125  1.00  0.00    -0.158 C  
HETATM   31  F   UNL     1      -8.868   2.683  68.262  1.00  0.00    -0.098 F  
HETATM   32  C   UNL     1      -9.246   3.989  68.356  1.00  0.00    -0.150 C  
HETATM   33  F   UNL     1     -11.225   1.696  72.807  1.00  0.00    -0.242 F  
HETATM   34  F   UNL     1      -9.201   2.210  73.413  1.00  0.00    -0.073 F  
HETATM   35  C   UNL     1     -10.163   5.689  69.980  1.00  0.00    -0.321 A  
HETATM   36  C   UNL     1      -9.773   4.365  69.721  1.00  0.00    -0.291 A  
ENDBRANCH   2  23
TORSDOF 5
ENDMDL
MODEL      195
REMARK 921   NORMALIZED FREE ENERGY PREDICTED BY IDOCK:   -4.52 KCAL/MOL
REMARK 922        TOTAL FREE ENERGY PREDICTED BY IDOCK:   -8.71 KCAL/MOL
REMARK 923 INTER-LIGAND FREE ENERGY PREDICTED BY IDOCK:   -7.59 KCAL/MOL
REMARK 924 INTRA-LIGAND FREE ENERGY PREDICTED BY IDOCK:   -1.12 KCAL/MOL
REMARK 927      BINDING AFFINITY PREDICTED BY RF-SCORE:    0.00 PKD
ROOT
HETATM    1  C   UNL     1     -11.361  10.806  69.381  1.00  0.00    -0.351 C  
HETATM    2  C   UNL     1     -10.296  10.575  68.312  1.00  0.00    -0.168 C  
ENDROOT
BRANCH   2   3
HETATM    3  O   UNL     1     -10.462   9.304  67.682  1.00  0.00    -0.238 OA 
BRANCH   3   4
HETATM    4  C   UNL     1     -10.633   8.214  68.601  1.00  0.00    -0.109 C  
BRANCH   4   5
HETATM    5  C   UNL     1      -9.325   7.347  68.631  1.00  0.00    -0.139 C  
HETATM    6  C   UNL     1      -9.883   5.311  66.501  1.00  0.00    -0.185 C  
HETATM    7  C   UNL     1     -10.491   5.174  67.906  1.00  0.00    -0.100 C  
HETATM    8  N   UNL     1     -10.828   4.830  65.518  1.00  0.00    -0.166 NA 
HETATM    9  H   UNL     1      -7.759   6.973  67.309  1.00  0.00     0.000 HD 
HETATM   10  C   UNL     1      -9.646   5.871  68.975  1.00  0.00    -0.157 C  
HETATM   11  O   UNL     1     -10.830   3.681  63.531  1.00  0.00    -0.248 OA 
HETATM   12  C   UNL     1      -9.498   6.787  66.219  1.00  0.00    -0.067 C  
HETATM   13  C   UNL     1      -8.673   4.376  66.307  1.00  0.00    -0.113 C  
HETATM   14  C   UNL     1     -10.258   4.055  64.539  1.00  0.00    -0.210 C  
HETATM   15  C   UNL     1      -8.830   3.776  64.909  1.00  0.00    -0.121 C  
HETATM   16  N   UNL     1      -8.688   7.394  67.282  1.00  0.00    -0.120 NA 
BRANCH   5  17
HETATM   17  C   UNL     1      -8.330   7.873  69.701  1.00  0.00    -0.131 A  
HETATM   18  C   UNL     1      -6.492   8.853  71.620  1.00  0.00    -0.076 A  
HETATM   19  C   UNL     1      -6.056   8.525  70.340  1.00  0.00    -0.031 A  
HETATM   20  C   UNL     1      -6.965   8.036  69.395  1.00  0.00    -0.055 A  
HETATM   21  C   UNL     1      -8.732   8.177  71.015  1.00  0.00    -0.156 A  
HETATM   22  C   UNL     1      -7.825   8.671  71.960  1.00  0.00    -0.104 A  
ENDBRANCH   5  17
ENDBRANCH   4   5
ENDBRANCH   3   4
ENDBRANCH   2   3
BRANCH   2  23
HETATM   23  C   UNL     1     -10.403  11.663  67.254  1.00  0.00    -0.232 A  
HETATM   24  F   UNL     1      -8.639  15.373  68.012  1.00  0.00    -0.147 F  
HETATM   25  C   UNL     1      -9.806  12.911  67.483  1.00  0.00    -0.208 A  
HETATM   26  F   UNL     1     -13.421  11.920  64.192  1.00  0.00    -0.430 F  
HETATM   27  C   UNL     1      -9.956  13.969  66.572  1.00  0.00    -0.289 A  
HETATM   28  C   UNL     1     -10.713  13.760  65.407  1.00  0.00    -0.320 A  
HETATM   29  F   UNL     1     -11.635  11.313  63.108  1.00  0.00    -0.371 F  
HETATM   30  C   UNL     1      -9.336  15.320  66.842  1.00  0.00    -0.237 C  
HETATM   31  F   UNL     1     -12.247  13.398  63.115  1.00  0.00    -0.606 F  
HETATM   32  C   UNL     1     -12.142  12.292  63.905  1.00  0.00    -0.506 C  
HETATM   33  F   UNL     1      -8.463  15.697  65.869  1.00  0.00    -0.300 F  
HETATM   34  F   UNL     1     -10.266  16.310  66.919  1.00  0.00    -0.261 F  
HETATM   35  C   UNL     1     -11.153  11.479  66.080  1.00  0.00    -0.289 A  
HETATM   36  C   UNL     1     -11.315  12.519  65.149  1.00  0.00    -0.352 A  
ENDBRANCH   2  23
TORSDOF 5
ENDMDL
MODEL      196
REMARK 921   NORMALIZED FREE ENERGY PREDICTED BY IDOCK:   -4.52 KCAL/MOL
REMARK 922        TOTAL FREE ENERGY PREDICTED BY IDOCK:   -8.71 KCAL/MOL
REMARK 923 INTER-LIGAND FREE ENERGY PREDICTED BY IDOCK:   -8.50 KCAL/MOL
REMARK 924 INTRA-LIGAND FREE ENERGY PREDICTED BY IDOCK:   -0.21 KCAL/MOL
REMARK 927      BINDING AFFINITY PREDICTED BY RF-SCORE:    0.00 PKD
ROOT
HETATM    1  C   UNL     1      -8.377   9.867  70.059  1.00  0.00    -0.191 C  
HETATM    2  C   UNL     1      -9.569  10.020  69.116  1.00  0.00    -0.210 C  
ENDROOT
BRANCH   2   3
HETATM    3  O   UNL     1      -9.733   8.862  68.298  1.00  0.00    -0.151 OA 
BRANCH   3   4
HETATM    4  C   UNL     1     -10.231   9.141  66.980  1.00  0.00    -0.263 C  
BRANCH   4   5
HETATM    5  C   UNL     1      -9.236  10.102  66.239  1.00  0.00    -0.157 C  
HETATM    6  C   UNL     1     -11.059  12.311  65.347  1.00  0.00    -0.311 C  
HETATM    7  C   UNL     1     -10.988  10.983  64.576  1.00  0.00    -0.158 C  
HETATM    8  N   UNL     1     -12.416  12.811  65.320  1.00  0.00    -0.587 NA 
HETATM    9  H   UNL     1      -8.529  12.037  66.550  1.00  0.00     0.000 HD 
HETATM   10  C   UNL     1      -9.641  10.279  64.754  1.00  0.00    -0.369 C  
HETATM   11  O   UNL     1     -13.522  14.816  65.178  1.00  0.00    -0.063 OA 
HETATM   12  C   UNL     1     -10.571  12.116  66.807  1.00  0.00    -0.226 C  
HETATM   13  C   UNL     1     -10.264  13.426  64.640  1.00  0.00    -0.338 C  
HETATM   14  C   UNL     1     -12.501  14.160  65.085  1.00  0.00    -0.439 C  
HETATM   15  C   UNL     1     -11.140  14.678  64.721  1.00  0.00    -0.394 C  
HETATM   16  N   UNL     1      -9.274  11.438  66.905  1.00  0.00    -0.172 NA 
BRANCH   5  17
HETATM   17  C   UNL     1      -7.789   9.541  66.268  1.00  0.00    -0.100 A  
HETATM   18  C   UNL     1      -5.161   8.484  66.297  1.00  0.00    -0.031 A  
HETATM   19  C   UNL     1      -6.259   7.629  66.312  1.00  0.00    -0.045 A  
HETATM   20  C   UNL     1      -7.556   8.153  66.303  1.00  0.00    -0.090 A  
HETATM   21  C   UNL     1      -6.659  10.381  66.292  1.00  0.00    -0.107 A  
HETATM   22  C   UNL     1      -5.361   9.858  66.296  1.00  0.00    -0.044 A  
ENDBRANCH   5  17
ENDBRANCH   4   5
ENDBRANCH   3   4
ENDBRANCH   2   3
BRANCH   2  23
HETATM   23  C   UNL     1     -10.834  10.223  69.936  1.00  0.00    -0.355 A  
HETATM   24  F   UNL     1     -12.084  14.124  70.756  1.00  0.00    -0.347 F  
HETATM   25  C   UNL     1     -11.279  11.525  70.211  1.00  0.00     0.130 A  
HETATM   26  F   UNL     1     -12.549   7.381  72.680  1.00  0.00    -0.095 F  
HETATM   27  C   UNL     1     -12.391  11.756  71.036  1.00  0.00    -0.386 A  
HETATM   28  C   UNL     1     -13.071  10.656  71.584  1.00  0.00    -0.555 A  
HETATM   29  F   UNL     1     -13.896   7.328  70.972  1.00  0.00    -0.433 F  
HETATM   30  C   UNL     1     -12.843  13.162  71.352  1.00  0.00    -0.311 C  
HETATM   31  F   UNL     1     -14.410   8.503  72.728  1.00  0.00    -0.422 F  
HETATM   32  C   UNL     1     -13.371   8.155  71.917  1.00  0.00    -0.324 C  
HETATM   33  F   UNL     1     -14.124  13.399  70.959  1.00  0.00     0.113 F  
HETATM   34  F   UNL     1     -12.802  13.430  72.686  1.00  0.00    -0.391 F  
HETATM   35  C   UNL     1     -11.534   9.140  70.494  1.00  0.00    -0.271 A  
HETATM   36  C   UNL     1     -12.653   9.342  71.319  1.00  0.00    -0.403 A  
ENDBRANCH   2  23
TORSDOF 5
ENDMDL
MODEL      197
REMARK 921   NORMALIZED FREE ENERGY PREDICTED BY IDOCK:   -4.52 KCAL/MOL
REMARK 922        TOTAL FREE ENERGY PREDICTED BY IDOCK:   -8.70 KCAL/MOL
REMARK 923 INTER-LIGAND FREE ENERGY PREDICTED BY IDOCK:   -7.60 KCAL/MOL
REMARK 924 INTRA-LIGAND FREE ENERGY PREDICTED BY IDOCK:   -1.10 KCAL/MOL
REMARK 927      BINDING AFFINITY PREDICTED BY RF-SCORE:    0.00 PKD
ROOT
HETATM    1  C   UNL     1      -7.173   9.328  71.230  1.00  0.00    -0.007 C  
HETATM    2  C   UNL     1      -8.475   9.561  70.466  1.00  0.00    -0.169 C  
ENDROOT
BRANCH   2   3
HETATM    3  O   UNL     1      -8.353   9.157  69.103  1.00  0.00    -0.117 OA 
BRANCH   3   4
HETATM    4  C   UNL     1      -9.598   8.800  68.484  1.00  0.00    -0.150 C  
BRANCH   4   5
HETATM    5  C   UNL     1      -9.315   8.048  67.136  1.00  0.00    -0.149 C  
HETATM    6  C   UNL     1      -8.819   5.246  68.084  1.00  0.00    -0.105 C  
HETATM    7  C   UNL     1      -7.725   6.321  68.184  1.00  0.00    -0.104 C  
HETATM    8  N   UNL     1      -8.732   4.362  69.225  1.00  0.00    -0.084 NA 
HETATM    9  H   UNL     1     -10.260   6.546  66.045  1.00  0.00     0.000 HD 
HETATM   10  C   UNL     1      -7.897   7.424  67.137  1.00  0.00    -0.117 C  
HETATM   11  O   UNL     1      -8.996   2.137  69.720  1.00  0.00    -0.073 OA 
HETATM   12  C   UNL     1     -10.220   5.906  68.003  1.00  0.00    -0.184 C  
HETATM   13  C   UNL     1      -8.582   4.298  66.892  1.00  0.00    -0.108 C  
HETATM   14  C   UNL     1      -8.876   3.035  68.907  1.00  0.00    -0.105 C  
HETATM   15  C   UNL     1      -8.880   2.891  67.413  1.00  0.00    -0.160 C  
HETATM   16  N   UNL     1     -10.317   6.952  66.979  1.00  0.00    -0.250 NA 
BRANCH   5  17
HETATM   17  C   UNL     1      -9.401   9.016  65.925  1.00  0.00    -0.306 A  
HETATM   18  C   UNL     1      -9.544  10.750  63.690  1.00  0.00    -0.347 A  
HETATM   19  C   UNL     1      -8.538   9.792  63.767  1.00  0.00    -0.208 A  
HETATM   20  C   UNL     1      -8.467   8.940  64.875  1.00  0.00    -0.195 A  
HETATM   21  C   UNL     1     -10.383  10.021  65.836  1.00  0.00    -0.202 A  
HETATM   22  C   UNL     1     -10.460  10.870  64.727  1.00  0.00    -0.373 A  
ENDBRANCH   5  17
ENDBRANCH   4   5
ENDBRANCH   3   4
ENDBRANCH   2   3
BRANCH   2  23
HETATM   23  C   UNL     1      -9.589   8.754  71.118  1.00  0.00    -0.309 A  
HETATM   24  F   UNL     1     -13.387  10.467  71.421  1.00  0.00    -0.423 F  
HETATM   25  C   UNL     1     -10.875   9.306  71.217  1.00  0.00    -0.417 A  
HETATM   26  F   UNL     1      -9.064   5.517  73.910  1.00  0.00    -0.123 F  
HETATM   27  C   UNL     1     -11.907   8.631  71.888  1.00  0.00    -0.420 A  
HETATM   28  C   UNL     1     -11.640   7.376  72.458  1.00  0.00    -0.319 A  
HETATM   29  F   UNL     1      -9.679   4.523  72.075  1.00  0.00    -0.181 F  
HETATM   30  C   UNL     1     -13.280   9.247  72.017  1.00  0.00    -0.447 C  
HETATM   31  F   UNL     1     -11.134   4.910  73.643  1.00  0.00    -0.309 F  
HETATM   32  C   UNL     1     -10.068   5.452  72.990  1.00  0.00    -0.176 C  
HETATM   33  F   UNL     1     -14.253   8.474  71.463  1.00  0.00    -0.419 F  
HETATM   34  F   UNL     1     -13.642   9.435  73.316  1.00  0.00    -0.162 F  
HETATM   35  C   UNL     1      -9.349   7.496  71.694  1.00  0.00    -0.164 A  
HETATM   36  C   UNL     1     -10.365   6.796  72.366  1.00  0.00    -0.218 A  
ENDBRANCH   2  23
TORSDOF 5
ENDMDL
MODEL      198
REMARK 921   NORMALIZED FREE ENERGY PREDICTED BY IDOCK:   -4.50 KCAL/MOL
REMARK 922        TOTAL FREE ENERGY PREDICTED BY IDOCK:   -8.68 KCAL/MOL
REMARK 923 INTER-LIGAND FREE ENERGY PREDICTED BY IDOCK:   -8.41 KCAL/MOL
REMARK 924 INTRA-LIGAND FREE ENERGY PREDICTED BY IDOCK:   -0.27 KCAL/MOL
REMARK 927      BINDING AFFINITY PREDICTED BY RF-SCORE:    0.00 PKD
ROOT
HETATM    1  C   UNL     1      -7.552   9.825  67.149  1.00  0.00    -0.092 C  
HETATM    2  C   UNL     1      -9.047   9.514  67.133  1.00  0.00    -0.134 C  
ENDROOT
BRANCH   2   3
HETATM    3  O   UNL     1      -9.496   9.072  68.414  1.00  0.00    -0.145 OA 
BRANCH   3   4
HETATM    4  C   UNL     1      -8.696   8.027  68.987  1.00  0.00    -0.137 C  
BRANCH   4   5
HETATM    5  C   UNL     1      -9.613   7.067  69.824  1.00  0.00    -0.151 C  
HETATM    6  C   UNL     1     -11.420   9.004  71.230  1.00  0.00    -0.320 C  
HETATM    7  C   UNL     1      -9.992   8.742  71.735  1.00  0.00    -0.396 C  
HETATM    8  N   UNL     1     -11.758  10.393  71.441  1.00  0.00    -0.247 NA 
HETATM    9  H   UNL     1     -11.637   6.573  69.827  1.00  0.00     0.000 HD 
HETATM   10  C   UNL     1      -9.481   7.355  71.340  1.00  0.00    -0.160 C  
HETATM   11  O   UNL     1     -13.576  11.666  72.025  1.00  0.00    -0.309 OA 
HETATM   12  C   UNL     1     -11.539   8.628  69.729  1.00  0.00     0.371 C  
HETATM   13  C   UNL     1     -12.472   8.258  72.073  1.00  0.00    -0.393 C  
HETATM   14  C   UNL     1     -13.028  10.583  71.926  1.00  0.00    -0.447 C  
HETATM   15  C   UNL     1     -13.617   9.250  72.285  1.00  0.00    -0.544 C  
HETATM   16  N   UNL     1     -11.033   7.287  69.419  1.00  0.00    -0.184 NA 
BRANCH   5  17
HETATM   17  C   UNL     1      -9.225   5.581  69.593  1.00  0.00    -0.163 A  
HETATM   18  C   UNL     1      -8.517   2.864  69.214  1.00  0.00    -0.099 A  
HETATM   19  C   UNL     1      -8.015   3.572  70.302  1.00  0.00    -0.051 A  
HETATM   20  C   UNL     1      -8.362   4.916  70.484  1.00  0.00    -0.098 A  
HETATM   21  C   UNL     1      -9.685   4.849  68.481  1.00  0.00    -0.218 A  
HETATM   22  C   UNL     1      -9.344   3.504  68.301  1.00  0.00    -0.235 A  
ENDBRANCH   5  17
ENDBRANCH   4   5
ENDBRANCH   3   4
ENDBRANCH   2   3
BRANCH   2  23
HETATM   23  C   UNL     1      -9.816  10.769  66.751  1.00  0.00    -0.233 A  
HETATM   24  F   UNL     1     -10.719  13.550  69.735  1.00  0.00    -0.043 F  
HETATM   25  C   UNL     1     -10.118  11.722  67.736  1.00  0.00    -0.199 A  
HETATM   26  F   UNL     1     -12.378  11.217  63.318  1.00  0.00    -0.420 F  
HETATM   27  C   UNL     1     -10.900  12.851  67.442  1.00  0.00    -0.272 A  
HETATM   28  C   UNL     1     -11.377  13.025  66.133  1.00  0.00    -0.349 A  
HETATM   29  F   UNL     1     -10.610  12.375  62.799  1.00  0.00    -0.244 F  
HETATM   30  C   UNL     1     -11.246  13.855  68.516  1.00  0.00    -0.270 C  
HETATM   31  F   UNL     1     -12.382  13.377  63.563  1.00  0.00    -0.519 F  
HETATM   32  C   UNL     1     -11.606  12.266  63.719  1.00  0.00    -0.471 C  
HETATM   33  F   UNL     1     -10.804  15.107  68.221  1.00  0.00    -0.238 F  
HETATM   34  F   UNL     1     -12.588  13.964  68.709  1.00  0.00    -0.301 F  
HETATM   35  C   UNL     1     -10.304  10.969  65.449  1.00  0.00    -0.330 A  
HETATM   36  C   UNL     1     -11.084  12.092  65.126  1.00  0.00    -0.369 A  
ENDBRANCH   2  23
TORSDOF 5
ENDMDL
MODEL      199
REMARK 921   NORMALIZED FREE ENERGY PREDICTED BY IDOCK:   -4.48 KCAL/MOL
REMARK 922        TOTAL FREE ENERGY PREDICTED BY IDOCK:   -8.65 KCAL/MOL
REMARK 923 INTER-LIGAND FREE ENERGY PREDICTED BY IDOCK:   -7.58 KCAL/MOL
REMARK 924 INTRA-LIGAND FREE ENERGY PREDICTED BY IDOCK:   -1.07 KCAL/MOL
REMARK 927      BINDING AFFINITY PREDICTED BY RF-SCORE:    0.00 PKD
ROOT
HETATM    1  C   UNL     1      -6.899  10.163  70.377  1.00  0.00    -0.129 C  
HETATM    2  C   UNL     1      -8.203   9.851  69.645  1.00  0.00    -0.171 C  
ENDROOT
BRANCH   2   3
HETATM    3  O   UNL     1      -8.006   8.855  68.642  1.00  0.00    -0.100 OA 
BRANCH   3   4
HETATM    4  C   UNL     1      -9.222   8.369  68.052  1.00  0.00    -0.136 C  
BRANCH   4   5
HETATM    5  C   UNL     1      -8.907   7.744  66.648  1.00  0.00    -0.148 C  
HETATM    6  C   UNL     1      -8.258   4.905  67.366  1.00  0.00    -0.106 C  
HETATM    7  C   UNL     1      -7.222   6.026  67.550  1.00  0.00    -0.076 C  
HETATM    8  N   UNL     1      -8.117   3.939  68.432  1.00  0.00    -0.075 NA 
HETATM    9  H   UNL     1      -9.780   6.286  65.442  1.00  0.00     0.000 HD 
HETATM   10  C   UNL     1      -7.459   7.198  66.596  1.00  0.00    -0.088 C  
HETATM   11  O   UNL     1      -8.260   1.670  68.747  1.00  0.00    -0.051 OA 
HETATM   12  C   UNL     1      -9.693   5.494  67.341  1.00  0.00    -0.135 C  
HETATM   13  C   UNL     1      -7.980   4.070  66.101  1.00  0.00    -0.094 C  
HETATM   14  C   UNL     1      -8.193   2.636  68.008  1.00  0.00    -0.066 C  
HETATM   15  C   UNL     1      -8.199   2.612  66.507  1.00  0.00    -0.086 C  
HETATM   16  N   UNL     1      -9.851   6.612  66.405  1.00  0.00    -0.096 NA 
BRANCH   5  17
HETATM   17  C   UNL     1      -9.053   8.800  65.519  1.00  0.00    -0.221 A  
HETATM   18  C   UNL     1      -9.310  10.696  63.431  1.00  0.00    -0.324 A  
HETATM   19  C   UNL     1      -8.383   9.663  63.326  1.00  0.00    -0.173 A  
HETATM   20  C   UNL     1      -8.254   8.731  64.362  1.00  0.00    -0.169 A  
HETATM   21  C   UNL     1      -9.953   9.878  65.612  1.00  0.00    -0.353 A  
HETATM   22  C   UNL     1     -10.088  10.808  64.575  1.00  0.00    -0.415 A  
ENDBRANCH   5  17
ENDBRANCH   4   5
ENDBRANCH   3   4
ENDBRANCH   2   3
BRANCH   2  23
HETATM   23  C   UNL     1      -9.229   9.341  70.646  1.00  0.00    -0.321 A  
HETATM   24  F   UNL     1      -8.272   6.001  72.967  1.00  0.00    -0.114 F  
HETATM   25  C   UNL     1      -8.922   8.229  71.445  1.00  0.00    -0.211 A  
HETATM   26  F   UNL     1     -13.481   9.999  70.464  1.00  0.00    -0.366 F  
HETATM   27  C   UNL     1      -9.872   7.674  72.317  1.00  0.00    -0.229 A  
HETATM   28  C   UNL     1     -11.148   8.256  72.391  1.00  0.00    -0.447 A  
HETATM   29  F   UNL     1     -12.826  11.292  72.087  1.00  0.00    -0.500 F  
HETATM   30  C   UNL     1      -9.543   6.457  73.150  1.00  0.00    -0.150 C  
HETATM   31  F   UNL     1     -13.701   9.351  72.527  1.00  0.00    -0.455 F  
HETATM   32  C   UNL     1     -12.855   9.996  71.674  1.00  0.00    -0.440 C  
HETATM   33  F   UNL     1      -9.669   6.689  74.485  1.00  0.00    -0.231 F  
HETATM   34  F   UNL     1     -10.359   5.404  72.871  1.00  0.00    -0.191 F  
HETATM   35  C   UNL     1     -10.511   9.905  70.741  1.00  0.00    -0.253 A  
HETATM   36  C   UNL     1     -11.480   9.374  71.610  1.00  0.00    -0.463 A  
ENDBRANCH   2  23
TORSDOF 5
ENDMDL
MODEL      200
REMARK 921   NORMALIZED FREE ENERGY PREDICTED BY IDOCK:   -4.48 KCAL/MOL
REMARK 922        TOTAL FREE ENERGY PREDICTED BY IDOCK:   -8.65 KCAL/MOL
REMARK 923 INTER-LIGAND FREE ENERGY PREDICTED BY IDOCK:   -7.14 KCAL/MOL
REMARK 924 INTRA-LIGAND FREE ENERGY PREDICTED BY IDOCK:   -1.51 KCAL/MOL
REMARK 927      BINDING AFFINITY PREDICTED BY RF-SCORE:    0.00 PKD
ROOT
HETATM    1  C   UNL     1      -7.210  10.462  70.180  1.00  0.00    -0.093 C  
HETATM    2  C   UNL     1      -8.432   9.850  69.500  1.00  0.00    -0.176 C  
ENDROOT
BRANCH   2   3
HETATM    3  O   UNL     1      -8.066   8.738  68.684  1.00  0.00    -0.112 OA 
BRANCH   3   4
HETATM    4  C   UNL     1      -9.050   8.384  67.700  1.00  0.00    -0.135 C  
BRANCH   4   5
HETATM    5  C   UNL     1      -8.561   7.125  66.901  1.00  0.00    -0.124 C  
HETATM    6  C   UNL     1      -8.828   4.950  68.948  1.00  0.00    -0.093 C  
HETATM    7  C   UNL     1      -7.628   5.910  68.965  1.00  0.00    -0.090 C  
HETATM    8  N   UNL     1      -9.198   4.618  70.306  1.00  0.00    -0.121 NA 
HETATM    9  H   UNL     1      -9.436   5.358  66.230  1.00  0.00     0.000 HD 
HETATM   10  C   UNL     1      -7.324   6.485  67.579  1.00  0.00    -0.095 C  
HETATM   11  O   UNL     1      -9.967   2.818  71.504  1.00  0.00    -0.155 OA 
HETATM   12  C   UNL     1     -10.022   5.590  68.192  1.00  0.00    -0.153 C  
HETATM   13  C   UNL     1      -8.458   3.581  68.345  1.00  0.00    -0.107 C  
HETATM   14  C   UNL     1      -9.483   3.289  70.490  1.00  0.00    -0.172 C  
HETATM   15  C   UNL     1      -9.123   2.536  69.243  1.00  0.00    -0.187 C  
HETATM   16  N   UNL     1      -9.663   6.118  66.871  1.00  0.00    -0.143 NA 
BRANCH   5  17
HETATM   17  C   UNL     1      -8.157   7.505  65.450  1.00  0.00    -0.133 A  
HETATM   18  C   UNL     1      -7.391   8.226  62.820  1.00  0.00    -0.100 A  
HETATM   19  C   UNL     1      -7.396   9.180  63.833  1.00  0.00    -0.097 A  
HETATM   20  C   UNL     1      -7.779   8.823  65.130  1.00  0.00    -0.103 A  
HETATM   21  C   UNL     1      -8.179   6.571  64.396  1.00  0.00    -0.010 A  
HETATM   22  C   UNL     1      -7.790   6.926  63.100  1.00  0.00    -0.104 A  
ENDBRANCH   5  17
ENDBRANCH   4   5
ENDBRANCH   3   4
ENDBRANCH   2   3
BRANCH   2  23
HETATM   23  C   UNL     1      -9.412   9.377  70.562  1.00  0.00    -0.327 A  
HETATM   24  F   UNL     1      -8.329   6.153  72.989  1.00  0.00    -0.115 F  
HETATM   25  C   UNL     1      -9.062   8.304  71.396  1.00  0.00    -0.217 A  
HETATM   26  F   UNL     1     -13.675   9.989  70.523  1.00  0.00    -0.347 F  
HETATM   27  C   UNL     1      -9.971   7.781  72.330  1.00  0.00    -0.272 A  
HETATM   28  C   UNL     1     -11.249   8.354  72.430  1.00  0.00    -0.438 A  
HETATM   29  F   UNL     1     -12.970  11.359  72.059  1.00  0.00    -0.547 F  
HETATM   30  C   UNL     1      -9.596   6.606  73.202  1.00  0.00    -0.152 C  
HETATM   31  F   UNL     1     -13.806   9.432  72.619  1.00  0.00    -0.461 F  
HETATM   32  C   UNL     1     -13.001  10.045  71.706  1.00  0.00    -0.458 C  
HETATM   33  F   UNL     1      -9.671   6.896  74.529  1.00  0.00    -0.270 F  
HETATM   34  F   UNL     1     -10.411   5.534  73.004  1.00  0.00    -0.192 F  
HETATM   35  C   UNL     1     -10.696   9.934  70.684  1.00  0.00    -0.372 A  
HETATM   36  C   UNL     1     -11.623   9.433  71.613  1.00  0.00    -0.466 A  
ENDBRANCH   2  23
TORSDOF 5
ENDMDL
MODEL      201
REMARK 921   NORMALIZED FREE ENERGY PREDICTED BY IDOCK:   -4.40 KCAL/MOL
REMARK 922        TOTAL FREE ENERGY PREDICTED BY IDOCK:   -8.55 KCAL/MOL
REMARK 923 INTER-LIGAND FREE ENERGY PREDICTED BY IDOCK:   -8.11 KCAL/MOL
REMARK 924 INTRA-LIGAND FREE ENERGY PREDICTED BY IDOCK:   -0.44 KCAL/MOL
REMARK 927      BINDING AFFINITY PREDICTED BY RF-SCORE:    0.00 PKD
ROOT
HETATM    1  C   UNL     1      -7.719  11.468  68.617  1.00  0.00    -0.139 C  
HETATM    2  C   UNL     1      -8.951  10.720  68.112  1.00  0.00    -0.140 C  
ENDROOT
BRANCH   2   3
HETATM    3  O   UNL     1      -9.451   9.820  69.101  1.00  0.00    -0.169 OA 
BRANCH   3   4
HETATM    4  C   UNL     1      -8.569   8.726  69.396  1.00  0.00    -0.133 C  
BRANCH   4   5
HETATM    5  C   UNL     1      -9.396   7.393  69.461  1.00  0.00    -0.156 C  
HETATM    6  C   UNL     1     -11.633   8.142  71.313  1.00  0.00    -0.273 C  
HETATM    7  C   UNL     1     -10.241   7.782  71.857  1.00  0.00    -0.250 C  
HETATM    8  N   UNL     1     -12.216   9.180  72.133  1.00  0.00    -0.360 NA 
HETATM    9  H   UNL     1     -11.300   6.795  68.864  1.00  0.00     0.000 HD 
HETATM   10  C   UNL     1      -9.470   6.857  70.912  1.00  0.00    -0.157 C  
HETATM   11  O   UNL     1     -14.269   9.794  72.954  1.00  0.00    -0.056 OA 
HETATM   12  C   UNL     1     -11.534   8.597  69.834  1.00  0.00     0.152 C  
HETATM   13  C   UNL     1     -12.628   6.976  71.470  1.00  0.00    -0.426 C  
HETATM   14  C   UNL     1     -13.542   8.976  72.420  1.00  0.00    -0.477 C  
HETATM   15  C   UNL     1     -13.936   7.606  71.950  1.00  0.00    -0.400 C  
HETATM   16  N   UNL     1     -10.784   7.666  68.983  1.00  0.00    -0.169 NA 
BRANCH   5  17
HETATM   17  C   UNL     1      -8.746   6.288  68.584  1.00  0.00    -0.120 A  
HETATM   18  C   UNL     1      -7.532   4.301  66.972  1.00  0.00    -0.077 A  
HETATM   19  C   UNL     1      -7.570   5.624  66.541  1.00  0.00    -0.092 A  
HETATM   20  C   UNL     1      -8.175   6.603  67.337  1.00  0.00    -0.121 A  
HETATM   21  C   UNL     1      -8.727   4.935  68.975  1.00  0.00    -0.105 A  
HETATM   22  C   UNL     1      -8.117   3.956  68.183  1.00  0.00    -0.084 A  
ENDBRANCH   5  17
ENDBRANCH   4   5
ENDBRANCH   3   4
ENDBRANCH   2   3
BRANCH   2  23
HETATM   23  C   UNL     1     -10.041  11.724  67.769  1.00  0.00    -0.199 A  
HETATM   24  F   UNL     1     -11.671  11.672  63.922  1.00  0.00    -0.444 F  
HETATM   25  C   UNL     1     -10.611  11.714  66.487  1.00  0.00    -0.292 A  
HETATM   26  F   UNL     1     -10.723  15.489  69.746  1.00  0.00    -0.217 F  
HETATM   27  C   UNL     1     -11.557  12.679  66.103  1.00  0.00    -0.445 A  
HETATM   28  C   UNL     1     -11.939  13.662  67.029  1.00  0.00    -0.448 A  
HETATM   29  F   UNL     1     -12.363  14.237  70.438  1.00  0.00    -0.331 F  
HETATM   30  C   UNL     1     -12.142  12.680  64.710  1.00  0.00    -0.436 C  
HETATM   31  F   UNL     1     -12.683  15.655  68.822  1.00  0.00     0.026 F  
HETATM   32  C   UNL     1     -11.788  14.754  69.318  1.00  0.00    -0.318 C  
HETATM   33  F   UNL     1     -13.496  12.551  64.713  1.00  0.00    -0.296 F  
HETATM   34  F   UNL     1     -11.873  13.832  64.038  1.00  0.00    -0.413 F  
HETATM   35  C   UNL     1     -10.444  12.717  68.678  1.00  0.00    -0.224 A  
HETATM   36  C   UNL     1     -11.391  13.691  68.321  1.00  0.00    -0.322 A  
ENDBRANCH   2  23
TORSDOF 5
ENDMDL
MODEL      202
REMARK 921   NORMALIZED FREE ENERGY PREDICTED BY IDOCK:   -4.40 KCAL/MOL
REMARK 922        TOTAL FREE ENERGY PREDICTED BY IDOCK:   -8.55 KCAL/MOL
REMARK 923 INTER-LIGAND FREE ENERGY PREDICTED BY IDOCK:   -5.81 KCAL/MOL
REMARK 924 INTRA-LIGAND FREE ENERGY PREDICTED BY IDOCK:   -2.74 KCAL/MOL
REMARK 927      BINDING AFFINITY PREDICTED BY RF-SCORE:    0.00 PKD
ROOT
HETATM    1  C   UNL     1     -12.601   8.083  71.874  1.00  0.00    -0.359 C  
HETATM    2  C   UNL     1     -11.404   7.887  70.946  1.00  0.00    -0.277 C  
ENDROOT
BRANCH   2   3
HETATM    3  O   UNL     1     -10.841   9.141  70.558  1.00  0.00    -0.227 OA 
BRANCH   3   4
HETATM    4  C   UNL     1     -11.155   9.531  69.212  1.00  0.00    -0.082 C  
BRANCH   4   5
HETATM    5  C   UNL     1      -9.825   9.770  68.414  1.00  0.00    -0.152 C  
HETATM    6  C   UNL     1     -10.230  12.546  67.353  1.00  0.00    -0.213 C  
HETATM    7  C   UNL     1     -10.894  11.335  66.678  1.00  0.00    -0.325 C  
HETATM    8  N   UNL     1     -11.117  13.685  67.278  1.00  0.00    -0.287 NA 
HETATM    9  H   UNL     1      -8.193  11.052  68.596  1.00  0.00     0.000 HD 
HETATM   10  C   UNL     1     -10.118  10.038  66.917  1.00  0.00    -0.287 C  
HETATM   11  O   UNL     1     -11.000  15.958  66.986  1.00  0.00    -0.291 OA 
HETATM   12  C   UNL     1      -9.876  12.216  68.827  1.00  0.00    -0.021 C  
HETATM   13  C   UNL     1      -8.986  13.022  66.577  1.00  0.00    -0.076 C  
HETATM   14  C   UNL     1     -10.483  14.856  66.948  1.00  0.00    -0.280 C  
HETATM   15  C   UNL     1      -9.065  14.550  66.562  1.00  0.00    -0.248 C  
HETATM   16  N   UNL     1      -9.132  10.962  68.985  1.00  0.00    -0.140 NA 
BRANCH   5  17
HETATM   17  C   UNL     1      -8.893   8.531  68.496  1.00  0.00    -0.139 A  
HETATM   18  C   UNL     1      -7.210   6.255  68.609  1.00  0.00    -0.085 A  
HETATM   19  C   UNL     1      -8.504   6.143  68.111  1.00  0.00    -0.116 A  
HETATM   20  C   UNL     1      -9.335   7.267  68.061  1.00  0.00    -0.130 A  
HETATM   21  C   UNL     1      -7.592   8.604  69.030  1.00  0.00    -0.090 A  
HETATM   22  C   UNL     1      -6.757   7.482  69.075  1.00  0.00    -0.049 A  
ENDBRANCH   5  17
ENDBRANCH   4   5
ENDBRANCH   3   4
ENDBRANCH   2   3
BRANCH   2  23
HETATM   23  C   UNL     1     -10.338   7.076  71.668  1.00  0.00    -0.216 A  
HETATM   24  F   UNL     1      -6.664   8.884  72.494  1.00  0.00    -0.093 F  
HETATM   25  C   UNL     1      -9.102   7.669  71.967  1.00  0.00    -0.167 A  
HETATM   26  F   UNL     1     -10.065   2.779  71.761  1.00  0.00    -0.228 F  
HETATM   27  C   UNL     1      -8.062   6.929  72.553  1.00  0.00    -0.105 A  
HETATM   28  C   UNL     1      -8.276   5.574  72.850  1.00  0.00    -0.109 A  
HETATM   29  F   UNL     1     -10.750   3.297  73.760  1.00  0.00    -0.205 F  
HETATM   30  C   UNL     1      -6.724   7.568  72.842  1.00  0.00    -0.066 C  
HETATM   31  F   UNL     1      -8.647   2.873  73.405  1.00  0.00    -0.073 F  
HETATM   32  C   UNL     1      -9.737   3.495  72.873  1.00  0.00    -0.135 C  
HETATM   33  F   UNL     1      -6.395   7.514  74.161  1.00  0.00    -0.074 F  
HETATM   34  F   UNL     1      -5.706   6.960  72.174  1.00  0.00    -0.036 F  
HETATM   35  C   UNL     1     -10.527   5.719  71.978  1.00  0.00    -0.267 A  
HETATM   36  C   UNL     1      -9.506   4.957  72.569  1.00  0.00    -0.164 A  
ENDBRANCH   2  23
TORSDOF 5
ENDMDL
MODEL      203
REMARK 921   NORMALIZED FREE ENERGY PREDICTED BY IDOCK:   -4.40 KCAL/MOL
REMARK 922        TOTAL FREE ENERGY PREDICTED BY IDOCK:   -8.55 KCAL/MOL
REMARK 923 INTER-LIGAND FREE ENERGY PREDICTED BY IDOCK:   -7.65 KCAL/MOL
REMARK 924 INTRA-LIGAND FREE ENERGY PREDICTED BY IDOCK:   -0.90 KCAL/MOL
REMARK 927      BINDING AFFINITY PREDICTED BY RF-SCORE:    0.00 PKD
ROOT
HETATM    1  C   UNL     1      -9.758  11.103  64.735  1.00  0.00    -0.303 C  
HETATM    2  C   UNL     1      -8.651  11.187  65.784  1.00  0.00    -0.113 C  
ENDROOT
BRANCH   2   3
HETATM    3  O   UNL     1      -8.717  12.416  66.507  1.00  0.00    -0.164 OA 
BRANCH   3   4
HETATM    4  C   UNL     1      -9.657  13.360  65.973  1.00  0.00    -0.159 C  
BRANCH   4   5
HETATM    5  C   UNL     1     -10.037  14.403  67.082  1.00  0.00    -0.253 C  
HETATM    6  C   UNL     1     -11.790  12.773  68.889  1.00  0.00    -0.308 C  
HETATM    7  C   UNL     1     -12.334  13.361  67.577  1.00  0.00    -0.069 C  
HETATM    8  N   UNL     1     -12.399  11.483  69.128  1.00  0.00    -0.304 NA 
HETATM    9  H   UNL     1      -9.666  14.605  69.122  1.00  0.00     0.000 HD 
HETATM   10  C   UNL     1     -11.571  14.614  67.142  1.00  0.00    -0.394 C  
HETATM   11  O   UNL     1     -13.164  10.225  70.888  1.00  0.00    -0.395 OA 
HETATM   12  C   UNL     1     -10.245  12.650  68.827  1.00  0.00    -0.079 C  
HETATM   13  C   UNL     1     -12.232  13.598  70.113  1.00  0.00    -0.413 C  
HETATM   14  C   UNL     1     -12.782  11.287  70.431  1.00  0.00    -0.130 C  
HETATM   15  C   UNL     1     -12.628  12.577  71.182  1.00  0.00    -0.349 C  
HETATM   16  N   UNL     1      -9.576  13.886  68.404  1.00  0.00    -0.218 NA 
BRANCH   5  17
HETATM   17  C   UNL     1      -9.384  15.783  66.801  1.00  0.00    -0.264 A  
HETATM   18  C   UNL     1      -8.163  18.282  66.262  1.00  0.00    -0.241 A  
HETATM   19  C   UNL     1      -7.389  17.127  66.334  1.00  0.00    -0.334 A  
HETATM   20  C   UNL     1      -7.994  15.895  66.606  1.00  0.00    -0.270 A  
HETATM   21  C   UNL     1     -10.133  16.974  66.760  1.00  0.00    -0.300 A  
HETATM   22  C   UNL     1      -9.531  18.207  66.482  1.00  0.00    -0.307 A  
ENDBRANCH   5  17
ENDBRANCH   4   5
ENDBRANCH   3   4
ENDBRANCH   2   3
BRANCH   2  23
HETATM   23  C   UNL     1      -8.801  10.034  66.764  1.00  0.00    -0.144 A  
HETATM   24  F   UNL     1      -7.073  10.389  70.551  1.00  0.00    -0.153 F  
HETATM   25  C   UNL     1      -8.240  10.139  68.046  1.00  0.00    -0.113 A  
HETATM   26  F   UNL     1      -9.566   5.923  65.734  1.00  0.00    -0.149 F  
HETATM   27  C   UNL     1      -8.280   9.065  68.949  1.00  0.00    -0.120 A  
HETATM   28  C   UNL     1      -8.904   7.870  68.557  1.00  0.00    -0.134 A  
HETATM   29  F   UNL     1     -11.460   6.612  66.553  1.00  0.00    -0.314 F  
HETATM   30  C   UNL     1      -7.646   9.176  70.316  1.00  0.00    -0.108 C  
HETATM   31  F   UNL     1     -10.089   5.471  67.794  1.00  0.00    -0.143 F  
HETATM   32  C   UNL     1     -10.142   6.452  66.850  1.00  0.00    -0.187 C  
HETATM   33  F   UNL     1      -8.539   8.981  71.323  1.00  0.00    -0.206 F  
HETATM   34  F   UNL     1      -6.659   8.257  70.504  1.00  0.00    -0.036 F  
HETATM   35  C   UNL     1      -9.422   8.828  66.398  1.00  0.00    -0.291 A  
HETATM   36  C   UNL     1      -9.481   7.740  67.283  1.00  0.00    -0.187 A  
ENDBRANCH   2  23
TORSDOF 5
ENDMDL
MODEL      204
REMARK 921   NORMALIZED FREE ENERGY PREDICTED BY IDOCK:   -4.39 KCAL/MOL
REMARK 922        TOTAL FREE ENERGY PREDICTED BY IDOCK:   -8.53 KCAL/MOL
REMARK 923 INTER-LIGAND FREE ENERGY PREDICTED BY IDOCK:   -8.76 KCAL/MOL
REMARK 924 INTRA-LIGAND FREE ENERGY PREDICTED BY IDOCK:    0.22 KCAL/MOL
REMARK 927      BINDING AFFINITY PREDICTED BY RF-SCORE:    0.00 PKD
ROOT
HETATM    1  C   UNL     1      -8.690  10.011  69.261  1.00  0.00    -0.182 C  
HETATM    2  C   UNL     1      -9.820  10.905  68.752  1.00  0.00    -0.196 C  
ENDROOT
BRANCH   2   3
HETATM    3  O   UNL     1     -10.356  10.411  67.525  1.00  0.00    -0.197 OA 
BRANCH   3   4
HETATM    4  C   UNL     1     -10.976  11.416  66.710  1.00  0.00    -0.291 C  
BRANCH   4   5
HETATM    5  C   UNL     1      -9.903  12.049  65.754  1.00  0.00    -0.242 C  
HETATM    6  C   UNL     1      -8.645   9.613  64.538  1.00  0.00    -0.188 C  
HETATM    7  C   UNL     1      -8.258  10.084  65.949  1.00  0.00    -0.128 C  
HETATM    8  N   UNL     1      -8.626   8.168  64.491  1.00  0.00     0.013 NA 
HETATM    9  H   UNL     1      -9.607  12.120  63.694  1.00  0.00     0.000 HD 
HETATM   10  C   UNL     1      -8.476  11.587  66.140  1.00  0.00    -0.060 C  
HETATM   11  O   UNL     1      -8.065   6.488  63.032  1.00  0.00    -0.111 OA 
HETATM   12  C   UNL     1     -10.044  10.160  64.151  1.00  0.00     0.114 C  
HETATM   13  C   UNL     1      -7.585  10.009  63.492  1.00  0.00    -0.146 C  
HETATM   14  C   UNL     1      -8.046   7.662  63.355  1.00  0.00    -0.044 C  
HETATM   15  C   UNL     1      -7.417   8.787  62.586  1.00  0.00    -0.103 C  
HETATM   16  N   UNL     1     -10.186  11.605  64.357  1.00  0.00    -0.280 NA 
BRANCH   5  17
HETATM   17  C   UNL     1      -9.932  13.600  65.829  1.00  0.00    -0.277 A  
HETATM   18  C   UNL     1      -9.940  16.428  65.973  1.00  0.00    -0.369 A  
HETATM   19  C   UNL     1      -9.071  15.691  66.772  1.00  0.00    -0.281 A  
HETATM   20  C   UNL     1      -9.072  14.293  66.703  1.00  0.00    -0.249 A  
HETATM   21  C   UNL     1     -10.825  14.372  65.063  1.00  0.00    -0.420 A  
HETATM   22  C   UNL     1     -10.821  15.770  65.127  1.00  0.00    -0.444 A  
ENDBRANCH   5  17
ENDBRANCH   4   5
ENDBRANCH   3   4
ENDBRANCH   2   3
BRANCH   2  23
HETATM   23  C   UNL     1     -10.931  10.948  69.790  1.00  0.00    -0.290 A  
HETATM   24  F   UNL     1     -12.354   7.342  71.348  1.00  0.00    -0.322 F  
HETATM   25  C   UNL     1     -11.414   9.749  70.335  1.00  0.00    -0.347 A  
HETATM   26  F   UNL     1     -13.753  14.154  70.340  1.00  0.00    -0.049 F  
HETATM   27  C   UNL     1     -12.496   9.739  71.229  1.00  0.00    -0.461 A  
HETATM   28  C   UNL     1     -13.095  10.958  71.585  1.00  0.00    -0.538 A  
HETATM   29  F   UNL     1     -12.416  14.343  72.046  1.00  0.00    -0.365 F  
HETATM   30  C   UNL     1     -13.030   8.440  71.788  1.00  0.00    -0.344 C  
HETATM   31  F   UNL     1     -14.337  13.351  72.273  1.00  0.00    -0.537 F  
HETATM   32  C   UNL     1     -13.276  13.488  71.429  1.00  0.00    -0.271 C  
HETATM   33  F   UNL     1     -12.974   8.394  73.146  1.00  0.00    -0.161 F  
HETATM   34  F   UNL     1     -14.333   8.232  71.456  1.00  0.00    -0.429 F  
HETATM   35  C   UNL     1     -11.546  12.154  70.164  1.00  0.00    -0.202 A  
HETATM   36  C   UNL     1     -12.627  12.174  71.061  1.00  0.00    -0.359 A  
ENDBRANCH   2  23
TORSDOF 5
ENDMDL
MODEL      205
REMARK 921   NORMALIZED FREE ENERGY PREDICTED BY IDOCK:   -4.39 KCAL/MOL
REMARK 922        TOTAL FREE ENERGY PREDICTED BY IDOCK:   -8.53 KCAL/MOL
REMARK 923 INTER-LIGAND FREE ENERGY PREDICTED BY IDOCK:   -7.56 KCAL/MOL
REMARK 924 INTRA-LIGAND FREE ENERGY PREDICTED BY IDOCK:   -0.97 KCAL/MOL
REMARK 927      BINDING AFFINITY PREDICTED BY RF-SCORE:    0.00 PKD
ROOT
HETATM    1  C   UNL     1     -10.175   8.012  73.214  1.00  0.00    -0.185 C  
HETATM    2  C   UNL     1     -10.746   7.642  71.846  1.00  0.00    -0.220 C  
ENDROOT
BRANCH   2   3
HETATM    3  O   UNL     1     -10.287   8.540  70.835  1.00  0.00    -0.190 OA 
BRANCH   3   4
HETATM    4  C   UNL     1     -11.220   8.741  69.763  1.00  0.00     0.007 C  
BRANCH   4   5
HETATM    5  C   UNL     1     -11.072  10.203  69.210  1.00  0.00    -0.225 C  
HETATM    6  C   UNL     1      -9.339   9.779  66.799  1.00  0.00    -0.152 C  
HETATM    7  C   UNL     1      -8.735   9.819  68.212  1.00  0.00    -0.119 C  
HETATM    8  N   UNL     1      -8.616   8.820  65.994  1.00  0.00    -0.139 NA 
HETATM    9  H   UNL     1     -11.668  11.205  67.483  1.00  0.00     0.000 HD 
HETATM   10  C   UNL     1      -9.586  10.638  69.185  1.00  0.00    -0.193 C  
HETATM   11  O   UNL     1      -7.896   8.566  63.830  1.00  0.00    -0.135 OA 
HETATM   12  C   UNL     1     -10.846   9.420  66.866  1.00  0.00     0.015 C  
HETATM   13  C   UNL     1      -9.117  11.104  66.045  1.00  0.00    -0.217 C  
HETATM   14  C   UNL     1      -8.347   9.261  64.722  1.00  0.00    -0.162 C  
HETATM   15  C   UNL     1      -8.719  10.711  64.621  1.00  0.00    -0.161 C  
HETATM   16  N   UNL     1     -11.603  10.242  67.815  1.00  0.00    -0.216 NA 
BRANCH   5  17
HETATM   17  C   UNL     1     -11.845  11.217  70.095  1.00  0.00    -0.449 A  
HETATM   18  C   UNL     1     -13.247  13.043  71.746  1.00  0.00    -0.486 A  
HETATM   19  C   UNL     1     -13.333  11.675  71.987  1.00  0.00    -0.405 A  
HETATM   20  C   UNL     1     -12.643  10.775  71.167  1.00  0.00    -0.532 A  
HETATM   21  C   UNL     1     -11.809  12.604  69.854  1.00  0.00    -0.364 A  
HETATM   22  C   UNL     1     -12.493  13.506  70.676  1.00  0.00    -0.405 A  
ENDBRANCH   5  17
ENDBRANCH   4   5
ENDBRANCH   3   4
ENDBRANCH   2   3
BRANCH   2  23
HETATM   23  C   UNL     1     -10.306   6.232  71.484  1.00  0.00    -0.243 A  
HETATM   24  F   UNL     1      -8.884   5.508  67.623  1.00  0.00    -0.109 F  
HETATM   25  C   UNL     1      -9.812   5.970  70.197  1.00  0.00    -0.217 A  
HETATM   26  F   UNL     1     -11.589   2.608  73.424  1.00  0.00    -0.302 F  
HETATM   27  C   UNL     1      -9.477   4.667  69.796  1.00  0.00    -0.238 A  
HETATM   28  C   UNL     1      -9.634   3.613  70.711  1.00  0.00    -0.249 A  
HETATM   29  F   UNL     1      -9.541   2.864  74.111  1.00  0.00    -0.095 F  
HETATM   30  C   UNL     1      -8.977   4.390  68.398  1.00  0.00    -0.115 C  
HETATM   31  F   UNL     1      -9.979   1.495  72.480  1.00  0.00    -0.128 F  
HETATM   32  C   UNL     1     -10.302   2.716  72.992  1.00  0.00    -0.148 C  
HETATM   33  F   UNL     1      -7.740   3.825  68.389  1.00  0.00    -0.060 F  
HETATM   34  F   UNL     1      -9.788   3.534  67.719  1.00  0.00    -0.233 F  
HETATM   35  C   UNL     1     -10.450   5.160  72.381  1.00  0.00    -0.272 A  
HETATM   36  C   UNL     1     -10.118   3.847  72.008  1.00  0.00    -0.220 A  
ENDBRANCH   2  23
TORSDOF 5
ENDMDL
MODEL      206
REMARK 921   NORMALIZED FREE ENERGY PREDICTED BY IDOCK:   -4.38 KCAL/MOL
REMARK 922        TOTAL FREE ENERGY PREDICTED BY IDOCK:   -8.52 KCAL/MOL
REMARK 923 INTER-LIGAND FREE ENERGY PREDICTED BY IDOCK:   -7.42 KCAL/MOL
REMARK 924 INTRA-LIGAND FREE ENERGY PREDICTED BY IDOCK:   -1.10 KCAL/MOL
REMARK 927      BINDING AFFINITY PREDICTED BY RF-SCORE:    0.00 PKD
ROOT
HETATM    1  C   UNL     1      -6.692  10.240  70.414  1.00  0.00    -0.122 C  
HETATM    2  C   UNL     1      -7.905   9.898  69.552  1.00  0.00    -0.140 C  
ENDROOT
BRANCH   2   3
HETATM    3  O   UNL     1      -7.608   8.841  68.639  1.00  0.00    -0.093 OA 
BRANCH   3   4
HETATM    4  C   UNL     1      -8.745   8.366  67.904  1.00  0.00    -0.138 C  
BRANCH   4   5
HETATM    5  C   UNL     1      -8.538   8.659  66.375  1.00  0.00    -0.119 C  
HETATM    6  C   UNL     1      -6.768   6.385  65.544  1.00  0.00    -0.048 C  
HETATM    7  C   UNL     1      -6.194   7.611  66.272  1.00  0.00    -0.045 C  
HETATM    8  N   UNL     1      -6.060   5.198  65.968  1.00  0.00    -0.029 NA 
HETATM    9  H   UNL     1      -9.063   7.711  64.596  1.00  0.00     0.000 HD 
HETATM   10  C   UNL     1      -7.038   8.867  66.050  1.00  0.00    -0.088 C  
HETATM   11  O   UNL     1      -5.302   3.221  65.081  1.00  0.00    -0.009 OA 
HETATM   12  C   UNL     1      -8.288   6.252  65.826  1.00  0.00    -0.145 C  
HETATM   13  C   UNL     1      -6.487   6.435  64.030  1.00  0.00    -0.030 C  
HETATM   14  C   UNL     1      -5.750   4.345  64.939  1.00  0.00    -0.014 C  
HETATM   15  C   UNL     1      -6.072   5.016  63.636  1.00  0.00    -0.022 C  
HETATM   16  N   UNL     1      -9.038   7.490  65.592  1.00  0.00     0.024 NA 
BRANCH   5  17
HETATM   17  C   UNL     1      -9.296   9.944  65.944  1.00  0.00    -0.245 A  
HETATM   18  C   UNL     1     -10.693  12.266  65.121  1.00  0.00    -0.330 A  
HETATM   19  C   UNL     1     -10.113  11.428  64.174  1.00  0.00    -0.358 A  
HETATM   20  C   UNL     1      -9.419  10.284  64.583  1.00  0.00    -0.351 A  
HETATM   21  C   UNL     1      -9.860  10.832  66.879  1.00  0.00    -0.224 A  
HETATM   22  C   UNL     1     -10.560  11.973  66.471  1.00  0.00    -0.269 A  
ENDBRANCH   5  17
ENDBRANCH   4   5
ENDBRANCH   3   4
ENDBRANCH   2   3
BRANCH   2  23
HETATM   23  C   UNL     1      -9.051   9.461  70.451  1.00  0.00    -0.302 A  
HETATM   24  F   UNL     1     -12.752  11.354  70.038  1.00  0.00    -0.256 F  
HETATM   25  C   UNL     1     -10.306  10.074  70.319  1.00  0.00    -0.301 A  
HETATM   26  F   UNL     1      -8.665   7.517  74.274  1.00  0.00    -0.218 F  
HETATM   27  C   UNL     1     -11.365   9.762  71.186  1.00  0.00    -0.459 A  
HETATM   28  C   UNL     1     -11.157   8.809  72.196  1.00  0.00    -0.406 A  
HETATM   29  F   UNL     1      -9.350   5.929  72.954  1.00  0.00    -0.146 F  
HETATM   30  C   UNL     1     -12.703  10.451  71.057  1.00  0.00    -0.394 C  
HETATM   31  F   UNL     1     -10.766   6.962  74.240  1.00  0.00    -0.353 F  
HETATM   32  C   UNL     1      -9.680   7.157  73.440  1.00  0.00    -0.232 C  
HETATM   33  F   UNL     1     -13.720   9.576  70.831  1.00  0.00    -0.380 F  
HETATM   34  F   UNL     1     -13.040  11.140  72.181  1.00  0.00    -0.574 F  
HETATM   35  C   UNL     1      -8.870   8.509  71.468  1.00  0.00    -0.260 A  
HETATM   36  C   UNL     1      -9.914   8.173  72.346  1.00  0.00    -0.345 A  
ENDBRANCH   2  23
TORSDOF 5
ENDMDL
MODEL      207
REMARK 921   NORMALIZED FREE ENERGY PREDICTED BY IDOCK:   -4.37 KCAL/MOL
REMARK 922        TOTAL FREE ENERGY PREDICTED BY IDOCK:   -8.51 KCAL/MOL
REMARK 923 INTER-LIGAND FREE ENERGY PREDICTED BY IDOCK:   -5.81 KCAL/MOL
REMARK 924 INTRA-LIGAND FREE ENERGY PREDICTED BY IDOCK:   -2.70 KCAL/MOL
REMARK 927      BINDING AFFINITY PREDICTED BY RF-SCORE:    0.00 PKD
ROOT
HETATM    1  C   UNL     1      -9.392   9.923  63.658  1.00  0.00    -0.242 C  
HETATM    2  C   UNL     1      -8.651   9.824  64.990  1.00  0.00    -0.162 C  
ENDROOT
BRANCH   2   3
HETATM    3  O   UNL     1      -9.123  10.803  65.916  1.00  0.00    -0.175 OA 
BRANCH   3   4
HETATM    4  C   UNL     1      -8.112  11.718  66.366  1.00  0.00     0.032 C  
BRANCH   4   5
HETATM    5  C   UNL     1      -8.274  11.958  67.908  1.00  0.00    -0.150 C  
HETATM    6  C   UNL     1      -9.228  14.800  67.997  1.00  0.00    -0.194 C  
HETATM    7  C   UNL     1      -7.741  14.470  67.793  1.00  0.00    -0.167 C  
HETATM    8  N   UNL     1      -9.570  15.976  67.228  1.00  0.00    -0.223 NA 
HETATM    9  H   UNL     1      -9.869  12.334  69.195  1.00  0.00     0.000 HD 
HETATM   10  C   UNL     1      -7.360  13.113  68.389  1.00  0.00    -0.116 C  
HETATM   11  O   UNL     1     -10.903  17.836  67.404  1.00  0.00    -0.318 OA 
HETATM   12  C   UNL     1     -10.112  13.594  67.583  1.00  0.00    -0.242 C  
HETATM   13  C   UNL     1      -9.525  15.233  69.446  1.00  0.00    -0.231 C  
HETATM   14  C   UNL     1     -10.367  16.864  67.906  1.00  0.00    -0.332 C  
HETATM   15  C   UNL     1     -10.476  16.426  69.337  1.00  0.00    -0.309 C  
HETATM   16  N   UNL     1      -9.693  12.326  68.190  1.00  0.00    -0.209 NA 
BRANCH   5  17
HETATM   17  C   UNL     1      -7.890  10.688  68.715  1.00  0.00    -0.125 A  
HETATM   18  C   UNL     1      -7.233   8.364  70.196  1.00  0.00    -0.050 A  
HETATM   19  C   UNL     1      -8.298   9.167  70.592  1.00  0.00    -0.239 A  
HETATM   20  C   UNL     1      -8.618  10.317  69.862  1.00  0.00     0.004 A  
HETATM   21  C   UNL     1      -6.795   9.877  68.363  1.00  0.00    -0.063 A  
HETATM   22  C   UNL     1      -6.477   8.723  69.088  1.00  0.00    -0.043 A  
ENDBRANCH   5  17
ENDBRANCH   4   5
ENDBRANCH   3   4
ENDBRANCH   2   3
BRANCH   2  23
HETATM   23  C   UNL     1      -8.871   8.442  65.585  1.00  0.00    -0.196 A  
HETATM   24  F   UNL     1     -10.960   8.123  69.189  1.00  0.00    -0.193 F  
HETATM   25  C   UNL     1      -9.582   8.312  66.787  1.00  0.00    -0.288 A  
HETATM   26  F   UNL     1      -6.482   4.945  64.804  1.00  0.00    -0.031 F  
HETATM   27  C   UNL     1      -9.732   7.064  67.414  1.00  0.00    -0.177 A  
HETATM   28  C   UNL     1      -9.164   5.929  66.812  1.00  0.00    -0.139 A  
HETATM   29  F   UNL     1      -8.329   4.561  63.720  1.00  0.00    -0.091 F  
HETATM   30  C   UNL     1     -10.472   6.938  68.725  1.00  0.00    -0.205 C  
HETATM   31  F   UNL     1      -8.009   3.668  65.676  1.00  0.00    -0.089 F  
HETATM   32  C   UNL     1      -7.829   4.814  64.960  1.00  0.00    -0.094 C  
HETATM   33  F   UNL     1     -11.540   6.100  68.643  1.00  0.00    -0.395 F  
HETATM   34  F   UNL     1      -9.682   6.448  69.719  1.00  0.00    -0.152 F  
HETATM   35  C   UNL     1      -8.316   7.290  65.003  1.00  0.00    -0.054 A  
HETATM   36  C   UNL     1      -8.455   6.029  65.605  1.00  0.00    -0.151 A  
ENDBRANCH   2  23
TORSDOF 5
ENDMDL
MODEL      208
REMARK 921   NORMALIZED FREE ENERGY PREDICTED BY IDOCK:   -4.37 KCAL/MOL
REMARK 922        TOTAL FREE ENERGY PREDICTED BY IDOCK:   -8.50 KCAL/MOL
REMARK 923 INTER-LIGAND FREE ENERGY PREDICTED BY IDOCK:   -8.67 KCAL/MOL
REMARK 924 INTRA-LIGAND FREE ENERGY PREDICTED BY IDOCK:    0.16 KCAL/MOL
REMARK 927      BINDING AFFINITY PREDICTED BY RF-SCORE:    0.00 PKD
ROOT
HETATM    1  C   UNL     1     -10.417  13.689  67.672  1.00  0.00    -0.238 C  
HETATM    2  C   UNL     1     -10.735  12.278  68.162  1.00  0.00    -0.216 C  
ENDROOT
BRANCH   2   3
HETATM    3  O   UNL     1     -12.107  12.160  68.539  1.00  0.00    -0.317 OA 
BRANCH   3   4
HETATM    4  C   UNL     1     -12.459  10.875  69.074  1.00  0.00     0.335 C  
BRANCH   4   5
HETATM    5  C   UNL     1     -12.313  10.902  70.637  1.00  0.00    -0.376 C  
HETATM    6  C   UNL     1     -11.632   8.046  71.245  1.00  0.00    -0.276 C  
HETATM    7  C   UNL     1     -13.082   8.472  70.967  1.00  0.00     0.071 C  
HETATM    8  N   UNL     1     -11.407   6.724  70.704  1.00  0.00    -0.311 NA 
HETATM    9  H   UNL     1     -10.754  10.615  71.989  1.00  0.00     0.000 HD 
HETATM   10  C   UNL     1     -13.330   9.944  71.305  1.00  0.00    -0.419 C  
HETATM   11  O   UNL     1     -10.255   4.809  71.227  1.00  0.00    -0.197 OA 
HETATM   12  C   UNL     1     -10.640   9.069  70.632  1.00  0.00    -0.236 C  
HETATM   13  C   UNL     1     -11.370   7.854  72.751  1.00  0.00    -0.453 C  
HETATM   14  C   UNL     1     -10.695   5.901  71.540  1.00  0.00    -0.256 C  
HETATM   15  C   UNL     1     -10.537   6.576  72.871  1.00  0.00    -0.267 C  
HETATM   16  N   UNL     1     -10.933  10.459  70.997  1.00  0.00     0.056 NA 
BRANCH   5  17
HETATM   17  C   UNL     1     -12.570  12.327  71.198  1.00  0.00    -0.353 A  
HETATM   18  C   UNL     1     -13.051  14.908  72.261  1.00  0.00    -0.439 A  
HETATM   19  C   UNL     1     -13.836  13.831  72.660  1.00  0.00    -0.504 A  
HETATM   20  C   UNL     1     -13.600  12.558  72.129  1.00  0.00    -0.458 A  
HETATM   21  C   UNL     1     -11.818  13.444  70.785  1.00  0.00    -0.065 A  
HETATM   22  C   UNL     1     -12.049  14.717  71.319  1.00  0.00    -0.410 A  
ENDBRANCH   5  17
ENDBRANCH   4   5
ENDBRANCH   3   4
ENDBRANCH   2   3
BRANCH   2  23
HETATM   23  C   UNL     1     -10.447  11.284  67.047  1.00  0.00    -0.272 A  
HETATM   24  F   UNL     1      -8.918   7.530  68.060  1.00  0.00    -0.129 F  
HETATM   25  C   UNL     1      -9.946  10.013  67.367  1.00  0.00    -0.242 A  
HETATM   26  F   UNL     1      -9.690  12.261  62.922  1.00  0.00    -0.266 F  
HETATM   27  C   UNL     1      -9.585   9.099  66.365  1.00  0.00    -0.309 A  
HETATM   28  C   UNL     1      -9.741   9.469  65.019  1.00  0.00    -0.138 A  
HETATM   29  F   UNL     1     -11.695  11.417  62.894  1.00  0.00    -0.253 F  
HETATM   30  C   UNL     1      -9.016   7.744  66.718  1.00  0.00    -0.139 C  
HETATM   31  F   UNL     1      -9.989  10.188  62.343  1.00  0.00    -0.250 F  
HETATM   32  C   UNL     1     -10.404  11.141  63.224  1.00  0.00    -0.308 C  
HETATM   33  F   UNL     1      -9.767   6.720  66.230  1.00  0.00    -0.207 F  
HETATM   34  F   UNL     1      -7.763   7.564  66.220  1.00  0.00    -0.082 F  
HETATM   35  C   UNL     1     -10.596  11.628  65.694  1.00  0.00    -0.324 A  
HETATM   36  C   UNL     1     -10.247  10.731  64.670  1.00  0.00    -0.419 A  
ENDBRANCH   2  23
TORSDOF 5
ENDMDL
MODEL      209
REMARK 921   NORMALIZED FREE ENERGY PREDICTED BY IDOCK:   -4.34 KCAL/MOL
REMARK 922        TOTAL FREE ENERGY PREDICTED BY IDOCK:   -8.47 KCAL/MOL
REMARK 923 INTER-LIGAND FREE ENERGY PREDICTED BY IDOCK:   -7.64 KCAL/MOL
REMARK 924 INTRA-LIGAND FREE ENERGY PREDICTED BY IDOCK:   -0.84 KCAL/MOL
REMARK 927      BINDING AFFINITY PREDICTED BY RF-SCORE:    0.00 PKD
ROOT
HETATM    1  C   UNL     1     -10.073  11.493  68.776  1.00  0.00    -0.191 C  
HETATM    2  C   UNL     1      -8.992  10.429  68.597  1.00  0.00    -0.146 C  
ENDROOT
BRANCH   2   3
HETATM    3  O   UNL     1      -9.266   9.276  69.392  1.00  0.00    -0.149 OA 
BRANCH   3   4
HETATM    4  C   UNL     1     -10.349   8.471  68.901  1.00  0.00    -0.210 C  
BRANCH   4   5
HETATM    5  C   UNL     1     -10.804   7.469  70.020  1.00  0.00    -0.249 C  
HETATM    6  C   UNL     1      -8.927   5.169  69.591  1.00  0.00    -0.106 C  
HETATM    7  C   UNL     1     -10.161   5.362  68.696  1.00  0.00    -0.246 C  
HETATM    8  N   UNL     1      -7.837   4.640  68.802  1.00  0.00    -0.075 NA 
HETATM    9  H   UNL     1      -9.942   6.674  71.743  1.00  0.00     0.000 HD 
HETATM   10  C   UNL     1     -11.279   6.129  69.405  1.00  0.00    -0.466 C  
HETATM   11  O   UNL     1      -6.094   3.164  69.022  1.00  0.00    -0.023 OA 
HETATM   12  C   UNL     1      -8.526   6.512  70.256  1.00  0.00    -0.135 C  
HETATM   13  C   UNL     1      -9.154   4.073  70.650  1.00  0.00    -0.179 C  
HETATM   14  C   UNL     1      -7.138   3.639  69.429  1.00  0.00    -0.045 C  
HETATM   15  C   UNL     1      -7.860   3.256  70.688  1.00  0.00    -0.043 C  
HETATM   16  N   UNL     1      -9.643   7.195  70.918  1.00  0.00    -0.167 NA 
BRANCH   5  17
HETATM   17  C   UNL     1     -11.982   8.050  70.847  1.00  0.00    -0.201 A  
HETATM   18  C   UNL     1     -14.138   9.072  72.375  1.00  0.00    -0.478 A  
HETATM   19  C   UNL     1     -14.176   7.764  71.900  1.00  0.00    -0.502 A  
HETATM   20  C   UNL     1     -13.112   7.264  71.141  1.00  0.00    -0.291 A  
HETATM   21  C   UNL     1     -11.991   9.380  71.309  1.00  0.00    -0.430 A  
HETATM   22  C   UNL     1     -13.051   9.881  72.073  1.00  0.00    -0.545 A  
ENDBRANCH   5  17
ENDBRANCH   4   5
ENDBRANCH   3   4
ENDBRANCH   2   3
BRANCH   2  23
HETATM   23  C   UNL     1      -8.934  10.014  67.135  1.00  0.00    -0.146 A  
HETATM   24  F   UNL     1      -6.546   6.754  66.074  1.00  0.00    -0.045 F  
HETATM   25  C   UNL     1      -8.148   8.914  66.760  1.00  0.00    -0.111 A  
HETATM   26  F   UNL     1      -9.788  12.541  63.754  1.00  0.00    -0.356 F  
HETATM   27  C   UNL     1      -7.999   8.551  65.412  1.00  0.00    -0.113 A  
HETATM   28  C   UNL     1      -8.659   9.305  64.428  1.00  0.00    -0.216 A  
HETATM   29  F   UNL     1     -11.513  11.220  63.861  1.00  0.00    -0.444 F  
HETATM   30  C   UNL     1      -7.126   7.384  65.014  1.00  0.00    -0.064 C  
HETATM   31  F   UNL     1      -9.912  10.807  62.450  1.00  0.00    -0.199 F  
HETATM   32  C   UNL     1     -10.160  11.230  63.721  1.00  0.00    -0.361 C  
HETATM   33  F   UNL     1      -7.814   6.424  64.339  1.00  0.00    -0.091 F  
HETATM   34  F   UNL     1      -6.102   7.758  64.199  1.00  0.00    -0.049 F  
HETATM   35  C   UNL     1      -9.586  10.750  66.132  1.00  0.00    -0.236 A  
HETATM   36  C   UNL     1      -9.458  10.406  64.776  1.00  0.00    -0.329 A  
ENDBRANCH   2  23
TORSDOF 5
ENDMDL
MODEL      210
REMARK 921   NORMALIZED FREE ENERGY PREDICTED BY IDOCK:   -4.32 KCAL/MOL
REMARK 922        TOTAL FREE ENERGY PREDICTED BY IDOCK:   -8.44 KCAL/MOL
REMARK 923 INTER-LIGAND FREE ENERGY PREDICTED BY IDOCK:   -7.24 KCAL/MOL
REMARK 924 INTRA-LIGAND FREE ENERGY PREDICTED BY IDOCK:   -1.20 KCAL/MOL
REMARK 927      BINDING AFFINITY PREDICTED BY RF-SCORE:    0.00 PKD
ROOT
HETATM    1  C   UNL     1     -11.890  12.563  65.893  1.00  0.00    -0.489 C  
HETATM    2  C   UNL     1     -11.536  12.780  67.363  1.00  0.00    -0.356 C  
ENDROOT
BRANCH   2   3
HETATM    3  O   UNL     1     -11.649  11.567  68.106  1.00  0.00    -0.319 OA 
BRANCH   3   4
HETATM    4  C   UNL     1     -12.773  11.529  68.998  1.00  0.00     0.909 C  
BRANCH   4   5
HETATM    5  C   UNL     1     -12.267  11.636  70.480  1.00  0.00    -0.361 C  
HETATM    6  C   UNL     1     -11.440   8.812  71.057  1.00  0.00    -0.285 C  
HETATM    7  C   UNL     1     -12.919   9.229  71.104  1.00  0.00    -0.264 C  
HETATM    8  N   UNL     1     -11.337   7.463  70.547  1.00  0.00    -0.278 NA 
HETATM    9  H   UNL     1     -10.434  11.412  71.444  1.00  0.00     0.000 HD 
HETATM   10  C   UNL     1     -13.093  10.718  71.415  1.00  0.00    -0.469 C  
HETATM   11  O   UNL     1     -10.079   5.573  70.884  1.00  0.00    -0.191 OA 
HETATM   12  C   UNL     1     -10.627   9.798  70.179  1.00  0.00    -0.285 C  
HETATM   13  C   UNL     1     -10.833   8.697  72.469  1.00  0.00    -0.210 C  
HETATM   14  C   UNL     1     -10.443   6.681  71.234  1.00  0.00    -0.215 C  
HETATM   15  C   UNL     1      -9.985   7.424  72.455  1.00  0.00    -0.228 C  
HETATM   16  N   UNL     1     -10.839  11.207  70.531  1.00  0.00     0.543 NA 
BRANCH   5  17
HETATM   17  C   UNL     1     -12.399  13.089  71.013  1.00  0.00    -0.335 A  
HETATM   18  C   UNL     1     -12.629  15.724  72.025  1.00  0.00    -0.524 A  
HETATM   19  C   UNL     1     -13.042  14.642  72.796  1.00  0.00    -0.580 A  
HETATM   20  C   UNL     1     -12.932  13.341  72.291  1.00  0.00    -0.376 A  
HETATM   21  C   UNL     1     -12.026  14.207  70.243  1.00  0.00    -0.404 A  
HETATM   22  C   UNL     1     -12.130  15.508  70.748  1.00  0.00    -0.435 A  
ENDBRANCH   5  17
ENDBRANCH   4   5
ENDBRANCH   3   4
ENDBRANCH   2   3
BRANCH   2  23
HETATM   23  C   UNL     1     -10.105  13.284  67.464  1.00  0.00    -0.223 A  
HETATM   24  F   UNL     1      -6.982  10.552  66.978  1.00  0.00    -0.078 F  
HETATM   25  C   UNL     1      -9.041  12.386  67.290  1.00  0.00    -0.187 A  
HETATM   26  F   UNL     1      -8.816  16.838  69.528  1.00  0.00    -0.127 F  
HETATM   27  C   UNL     1      -7.708  12.792  67.461  1.00  0.00    -0.168 A  
HETATM   28  C   UNL     1      -7.444  14.128  67.804  1.00  0.00    -0.174 A  
HETATM   29  F   UNL     1      -8.651  17.373  67.425  1.00  0.00    -0.206 F  
HETATM   30  C   UNL     1      -6.572  11.810  67.303  1.00  0.00    -0.132 C  
HETATM   31  F   UNL     1      -6.886  16.754  68.532  1.00  0.00    -0.142 F  
HETATM   32  C   UNL     1      -8.211  16.486  68.358  1.00  0.00    -0.194 C  
HETATM   33  F   UNL     1      -5.693  12.180  66.332  1.00  0.00    -0.048 F  
HETATM   34  F   UNL     1      -5.840  11.678  68.443  1.00  0.00    -0.046 F  
HETATM   35  C   UNL     1      -9.813  14.616  67.804  1.00  0.00    -0.216 A  
HETATM   36  C   UNL     1      -8.488  15.050  67.976  1.00  0.00    -0.149 A  
ENDBRANCH   2  23
TORSDOF 5
ENDMDL
MODEL      211
REMARK 921   NORMALIZED FREE ENERGY PREDICTED BY IDOCK:   -4.29 KCAL/MOL
REMARK 922        TOTAL FREE ENERGY PREDICTED BY IDOCK:   -8.41 KCAL/MOL
REMARK 923 INTER-LIGAND FREE ENERGY PREDICTED BY IDOCK:   -7.12 KCAL/MOL
REMARK 924 INTRA-LIGAND FREE ENERGY PREDICTED BY IDOCK:   -1.29 KCAL/MOL
REMARK 927      BINDING AFFINITY PREDICTED BY RF-SCORE:    0.00 PKD
ROOT
HETATM    1  C   UNL     1      -8.583  10.678  67.515  1.00  0.00    -0.122 C  
HETATM    2  C   UNL     1      -9.759   9.744  67.797  1.00  0.00    -0.141 C  
ENDROOT
BRANCH   2   3
HETATM    3  O   UNL     1      -9.308   8.467  68.247  1.00  0.00    -0.138 OA 
BRANCH   3   4
HETATM    4  C   UNL     1     -10.078   7.364  67.746  1.00  0.00    -0.184 C  
BRANCH   4   5
HETATM    5  C   UNL     1      -9.406   6.016  68.186  1.00  0.00    -0.115 C  
HETATM    6  C   UNL     1      -8.496   4.892  65.559  1.00  0.00    -0.130 C  
HETATM    7  C   UNL     1      -9.962   4.777  66.004  1.00  0.00    -0.255 C  
HETATM    8  N   UNL     1      -8.441   5.081  64.127  1.00  0.00    -0.136 NA 
HETATM    9  H   UNL     1      -7.473   5.241  68.158  1.00  0.00     0.000 HD 
HETATM   10  C   UNL     1     -10.111   4.804  67.527  1.00  0.00    -0.161 C  
HETATM   11  O   UNL     1      -7.138   4.457  62.343  1.00  0.00    -0.031 OA 
HETATM   12  C   UNL     1      -7.797   6.063  66.298  1.00  0.00    -0.104 C  
HETATM   13  C   UNL     1      -7.730   3.571  65.764  1.00  0.00    -0.082 C  
HETATM   14  C   UNL     1      -7.467   4.336  63.509  1.00  0.00    -0.055 C  
HETATM   15  C   UNL     1      -6.878   3.383  64.507  1.00  0.00    -0.048 C  
HETATM   16  N   UNL     1      -7.977   6.029  67.753  1.00  0.00    -0.105 NA 
BRANCH   5  17
HETATM   17  C   UNL     1      -9.487   5.826  69.725  1.00  0.00    -0.183 A  
HETATM   18  C   UNL     1      -9.660   5.445  72.527  1.00  0.00    -0.169 A  
HETATM   19  C   UNL     1     -10.759   5.179  71.716  1.00  0.00    -0.203 A  
HETATM   20  C   UNL     1     -10.673   5.372  70.333  1.00  0.00    -0.276 A  
HETATM   21  C   UNL     1      -8.405   6.124  70.576  1.00  0.00    -0.129 A  
HETATM   22  C   UNL     1      -8.488   5.925  71.959  1.00  0.00    -0.125 A  
ENDBRANCH   5  17
ENDBRANCH   4   5
ENDBRANCH   3   4
ENDBRANCH   2   3
BRANCH   2  23
HETATM   23  C   UNL     1     -10.640  10.359  68.874  1.00  0.00    -0.241 A  
HETATM   24  F   UNL     1     -12.749   7.814  71.428  1.00  0.00    -0.321 F  
HETATM   25  C   UNL     1     -11.346   9.522  69.750  1.00  0.00    -0.117 A  
HETATM   26  F   UNL     1     -12.339  14.316  68.794  1.00  0.00    -0.351 F  
HETATM   27  C   UNL     1     -12.236  10.047  70.701  1.00  0.00    -0.360 A  
HETATM   28  C   UNL     1     -12.410  11.439  70.773  1.00  0.00    -0.483 A  
HETATM   29  F   UNL     1     -10.755  14.463  70.278  1.00  0.00    -0.104 F  
HETATM   30  C   UNL     1     -13.016   9.137  71.620  1.00  0.00    -0.365 C  
HETATM   31  F   UNL     1     -12.816  14.187  70.911  1.00  0.00    -0.362 F  
HETATM   32  C   UNL     1     -11.903  13.798  69.977  1.00  0.00    -0.307 C  
HETATM   33  F   UNL     1     -12.766   9.383  72.934  1.00  0.00    -0.313 F  
HETATM   34  F   UNL     1     -14.361   9.270  71.460  1.00  0.00    -0.326 F  
HETATM   35  C   UNL     1     -10.829  11.748  68.969  1.00  0.00    -0.239 A  
HETATM   36  C   UNL     1     -11.710  12.301  69.913  1.00  0.00    -0.346 A  
ENDBRANCH   2  23
TORSDOF 5
ENDMDL
MODEL      212
REMARK 921   NORMALIZED FREE ENERGY PREDICTED BY IDOCK:   -4.29 KCAL/MOL
REMARK 922        TOTAL FREE ENERGY PREDICTED BY IDOCK:   -8.41 KCAL/MOL
REMARK 923 INTER-LIGAND FREE ENERGY PREDICTED BY IDOCK:   -7.98 KCAL/MOL
REMARK 924 INTRA-LIGAND FREE ENERGY PREDICTED BY IDOCK:   -0.43 KCAL/MOL
REMARK 927      BINDING AFFINITY PREDICTED BY RF-SCORE:    0.00 PKD
ROOT
HETATM    1  C   UNL     1     -12.051   8.355  70.237  1.00  0.00     0.412 C  
HETATM    2  C   UNL     1     -10.592   8.806  70.200  1.00  0.00    -0.221 C  
ENDROOT
BRANCH   2   3
HETATM    3  O   UNL     1     -10.473  10.194  70.513  1.00  0.00    -0.261 OA 
BRANCH   3   4
HETATM    4  C   UNL     1      -9.914  10.986  69.454  1.00  0.00     0.011 C  
BRANCH   4   5
HETATM    5  C   UNL     1     -10.998  11.991  68.926  1.00  0.00    -0.232 C  
HETATM    6  C   UNL     1     -10.436  12.014  65.980  1.00  0.00    -0.249 C  
HETATM    7  C   UNL     1      -9.573  12.829  66.958  1.00  0.00    -0.229 C  
HETATM    8  N   UNL     1      -9.604  11.506  64.912  1.00  0.00    -0.219 NA 
HETATM    9  H   UNL     1     -12.668  11.858  67.687  1.00  0.00     0.000 HD 
HETATM   10  C   UNL     1     -10.336  13.205  68.230  1.00  0.00    -0.256 C  
HETATM   11  O   UNL     1      -9.726  11.114  62.655  1.00  0.00    -0.281 OA 
HETATM   12  C   UNL     1     -11.149  10.855  66.724  1.00  0.00    -0.126 C  
HETATM   13  C   UNL     1     -11.451  12.903  65.236  1.00  0.00    -0.348 C  
HETATM   14  C   UNL     1     -10.174  11.617  63.669  1.00  0.00    -0.412 C  
HETATM   15  C   UNL     1     -11.429  12.432  63.780  1.00  0.00    -0.544 C  
HETATM   16  N   UNL     1     -11.861  11.285  67.932  1.00  0.00    -0.634 NA 
BRANCH   5  17
HETATM   17  C   UNL     1     -11.872  12.534  70.088  1.00  0.00    -0.336 A  
HETATM   18  C   UNL     1     -13.478  13.559  72.185  1.00  0.00    -0.631 A  
HETATM   19  C   UNL     1     -12.788  14.428  71.344  1.00  0.00    -0.410 A  
HETATM   20  C   UNL     1     -11.991  13.919  70.312  1.00  0.00    -0.401 A  
HETATM   21  C   UNL     1     -12.551  11.681  70.979  1.00  0.00    -0.431 A  
HETATM   22  C   UNL     1     -13.353  12.188  72.008  1.00  0.00    -0.470 A  
ENDBRANCH   5  17
ENDBRANCH   4   5
ENDBRANCH   3   4
ENDBRANCH   2   3
BRANCH   2  23
HETATM   23  C   UNL     1      -9.794   8.005  71.218  1.00  0.00    -0.200 A  
HETATM   24  F   UNL     1     -11.362   4.383  72.587  1.00  0.00    -0.177 F  
HETATM   25  C   UNL     1     -10.296   6.779  71.680  1.00  0.00    -0.215 A  
HETATM   26  F   UNL     1      -6.821   9.581  73.906  1.00  0.00     0.312 F  
HETATM   27  C   UNL     1      -9.634   6.052  72.682  1.00  0.00    -0.156 A  
HETATM   28  C   UNL     1      -8.443   6.565  73.219  1.00  0.00    -0.125 A  
HETATM   29  F   UNL     1      -5.655   8.496  72.424  1.00  0.00    -0.037 F  
HETATM   30  C   UNL     1     -10.199   4.749  73.196  1.00  0.00    -0.169 C  
HETATM   31  F   UNL     1      -6.106   7.575  74.341  1.00  0.00    -0.077 F  
HETATM   32  C   UNL     1      -6.638   8.349  73.353  1.00  0.00    -0.103 C  
HETATM   33  F   UNL     1      -9.343   3.705  73.026  1.00  0.00    -0.108 F  
HETATM   34  F   UNL     1     -10.477   4.795  74.528  1.00  0.00    -0.250 F  
HETATM   35  C   UNL     1      -8.598   8.494  71.769  1.00  0.00    -0.254 A  
HETATM   36  C   UNL     1      -7.913   7.785  72.769  1.00  0.00    -0.153 A  
ENDBRANCH   2  23
TORSDOF 5
ENDMDL
MODEL      213
REMARK 921   NORMALIZED FREE ENERGY PREDICTED BY IDOCK:   -4.27 KCAL/MOL
REMARK 922        TOTAL FREE ENERGY PREDICTED BY IDOCK:   -8.39 KCAL/MOL
REMARK 923 INTER-LIGAND FREE ENERGY PREDICTED BY IDOCK:   -7.70 KCAL/MOL
REMARK 924 INTRA-LIGAND FREE ENERGY PREDICTED BY IDOCK:   -0.68 KCAL/MOL
REMARK 927      BINDING AFFINITY PREDICTED BY RF-SCORE:    0.00 PKD
ROOT
HETATM    1  C   UNL     1     -11.971  11.320  69.150  1.00  0.00    -0.405 C  
HETATM    2  C   UNL     1     -10.622  11.972  68.851  1.00  0.00    -0.159 C  
ENDROOT
BRANCH   2   3
HETATM    3  O   UNL     1      -9.638  10.992  68.520  1.00  0.00    -0.174 OA 
BRANCH   3   4
HETATM    4  C   UNL     1      -9.892   9.694  69.078  1.00  0.00    -0.182 C  
BRANCH   4   5
HETATM    5  C   UNL     1      -8.575   8.841  69.038  1.00  0.00    -0.132 C  
HETATM    6  C   UNL     1      -9.452   6.422  67.497  1.00  0.00    -0.117 C  
HETATM    7  C   UNL     1      -9.788   6.576  68.989  1.00  0.00    -0.153 C  
HETATM    8  N   UNL     1     -10.546   5.760  66.822  1.00  0.00    -0.291 NA 
HETATM    9  H   UNL     1      -7.268   8.197  67.550  1.00  0.00     0.000 HD 
HETATM   10  C   UNL     1      -8.784   7.467  69.722  1.00  0.00    -0.140 C  
HETATM   11  O   UNL     1     -10.877   4.235  65.139  1.00  0.00    -0.242 OA 
HETATM   12  C   UNL     1      -9.170   7.809  66.861  1.00  0.00    -0.152 C  
HETATM   13  C   UNL     1      -8.271   5.458  67.272  1.00  0.00    -0.104 C  
HETATM   14  C   UNL     1     -10.142   4.800  65.928  1.00  0.00    -0.242 C  
HETATM   15  C   UNL     1      -8.663   4.590  66.075  1.00  0.00    -0.115 C  
HETATM   16  N   UNL     1      -8.198   8.611  67.612  1.00  0.00    -0.110 NA 
BRANCH   5  17
HETATM   17  C   UNL     1      -7.417   9.564  69.778  1.00  0.00    -0.098 A  
HETATM   18  C   UNL     1      -5.283  10.845  71.130  1.00  0.00    -0.093 A  
HETATM   19  C   UNL     1      -5.629   9.536  71.452  1.00  0.00    -0.073 A  
HETATM   20  C   UNL     1      -6.687   8.907  70.786  1.00  0.00    -0.059 A  
HETATM   21  C   UNL     1      -7.069  10.900  69.502  1.00  0.00    -0.123 A  
HETATM   22  C   UNL     1      -6.007  11.528  70.163  1.00  0.00    -0.159 A  
ENDBRANCH   5  17
ENDBRANCH   4   5
ENDBRANCH   3   4
ENDBRANCH   2   3
BRANCH   2  23
HETATM   23  C   UNL     1     -10.776  12.927  67.678  1.00  0.00    -0.237 A  
HETATM   24  F   UNL     1     -11.736  11.353  63.929  1.00  0.00    -0.438 F  
HETATM   25  C   UNL     1     -11.111  12.420  66.413  1.00  0.00    -0.343 A  
HETATM   26  F   UNL     1      -9.030  16.851  67.367  1.00  0.00    -0.202 F  
HETATM   27  C   UNL     1     -11.178  13.256  65.287  1.00  0.00    -0.315 A  
HETATM   28  C   UNL     1     -10.911  14.626  65.441  1.00  0.00    -0.365 A  
HETATM   29  F   UNL     1     -11.139  17.251  67.720  1.00  0.00    -0.349 F  
HETATM   30  C   UNL     1     -11.509  12.697  63.923  1.00  0.00    -0.442 C  
HETATM   31  F   UNL     1     -10.338  17.336  65.701  1.00  0.00    -0.331 F  
HETATM   32  C   UNL     1     -10.278  16.632  66.867  1.00  0.00    -0.291 C  
HETATM   33  F   UNL     1     -12.622  13.262  63.383  1.00  0.00    -0.469 F  
HETATM   34  F   UNL     1     -10.507  12.900  63.025  1.00  0.00    -0.050 F  
HETATM   35  C   UNL     1     -10.517  14.301  67.805  1.00  0.00    -0.245 A  
HETATM   36  C   UNL     1     -10.581  15.162  66.696  1.00  0.00    -0.304 A  
ENDBRANCH   2  23
TORSDOF 5
ENDMDL
MODEL      214
REMARK 921   NORMALIZED FREE ENERGY PREDICTED BY IDOCK:   -4.26 KCAL/MOL
REMARK 922        TOTAL FREE ENERGY PREDICTED BY IDOCK:   -8.37 KCAL/MOL
REMARK 923 INTER-LIGAND FREE ENERGY PREDICTED BY IDOCK:   -7.32 KCAL/MOL
REMARK 924 INTRA-LIGAND FREE ENERGY PREDICTED BY IDOCK:   -1.05 KCAL/MOL
REMARK 927      BINDING AFFINITY PREDICTED BY RF-SCORE:    0.00 PKD
ROOT
HETATM    1  C   UNL     1      -6.901  10.162  70.382  1.00  0.00    -0.129 C  
HETATM    2  C   UNL     1      -8.205   9.843  69.653  1.00  0.00    -0.171 C  
ENDROOT
BRANCH   2   3
HETATM    3  O   UNL     1      -8.010   8.832  68.664  1.00  0.00    -0.104 OA 
BRANCH   3   4
HETATM    4  C   UNL     1      -9.226   8.337  68.085  1.00  0.00    -0.134 C  
BRANCH   4   5
HETATM    5  C   UNL     1      -9.242   8.658  66.549  1.00  0.00    -0.187 C  
HETATM    6  C   UNL     1      -7.838   6.269  65.402  1.00  0.00    -0.104 C  
HETATM    7  C   UNL     1      -7.047   7.418  66.047  1.00  0.00    -0.066 C  
HETATM    8  N   UNL     1      -7.179   5.013  65.685  1.00  0.00    -0.067 NA 
HETATM    9  H   UNL     1     -10.129   7.813  64.863  1.00  0.00     0.000 HD 
HETATM   10  C   UNL     1      -7.802   8.748  65.986  1.00  0.00    -0.105 C  
HETATM   11  O   UNL     1      -6.752   3.008  64.654  1.00  0.00    -0.038 OA 
HETATM   12  C   UNL     1      -9.298   6.256  65.926  1.00  0.00     0.027 C  
HETATM   13  C   UNL     1      -7.801   6.342  63.863  1.00  0.00    -0.112 C  
HETATM   14  C   UNL     1      -7.115   4.169  64.605  1.00  0.00    -0.058 C  
HETATM   15  C   UNL     1      -7.582   4.906  63.383  1.00  0.00    -0.061 C  
HETATM   16  N   UNL     1      -9.963   7.561  65.837  1.00  0.00     0.421 NA 
BRANCH   5  17
HETATM   17  C   UNL     1      -9.943  10.015  66.268  1.00  0.00    -0.310 A  
HETATM   18  C   UNL     1     -11.202  12.507  65.792  1.00  0.00    -0.356 A  
HETATM   19  C   UNL     1     -11.045  12.041  67.094  1.00  0.00    -0.344 A  
HETATM   20  C   UNL     1     -10.426  10.808  67.326  1.00  0.00    -0.282 A  
HETATM   21  C   UNL     1     -10.152  10.496  64.961  1.00  0.00    -0.390 A  
HETATM   22  C   UNL     1     -10.764  11.732  64.727  1.00  0.00    -0.355 A  
ENDBRANCH   5  17
ENDBRANCH   4   5
ENDBRANCH   3   4
ENDBRANCH   2   3
BRANCH   2  23
HETATM   23  C   UNL     1      -9.233   9.349  70.660  1.00  0.00    -0.303 A  
HETATM   24  F   UNL     1      -8.286   6.041  73.029  1.00  0.00    -0.115 F  
HETATM   25  C   UNL     1      -8.930   8.248  71.475  1.00  0.00    -0.223 A  
HETATM   26  F   UNL     1     -13.484  10.014  70.465  1.00  0.00    -0.366 F  
HETATM   27  C   UNL     1      -9.882   7.708  72.354  1.00  0.00    -0.235 A  
HETATM   28  C   UNL     1     -11.156   8.294  72.419  1.00  0.00    -0.447 A  
HETATM   29  F   UNL     1     -12.828  11.329  72.069  1.00  0.00    -0.507 F  
HETATM   30  C   UNL     1      -9.556   6.503  73.205  1.00  0.00    -0.151 C  
HETATM   31  F   UNL     1     -13.707   9.397  72.536  1.00  0.00    -0.455 F  
HETATM   32  C   UNL     1     -12.859  10.027  71.675  1.00  0.00    -0.440 C  
HETATM   33  F   UNL     1      -9.683   6.754  74.536  1.00  0.00    -0.247 F  
HETATM   34  F   UNL     1     -10.374   5.448  72.941  1.00  0.00    -0.191 F  
HETATM   35  C   UNL     1     -10.515   9.918  70.746  1.00  0.00    -0.253 A  
HETATM   36  C   UNL     1     -11.485   9.401  71.621  1.00  0.00    -0.463 A  
ENDBRANCH   2  23
TORSDOF 5
ENDMDL
MODEL      215
REMARK 921   NORMALIZED FREE ENERGY PREDICTED BY IDOCK:   -4.25 KCAL/MOL
REMARK 922        TOTAL FREE ENERGY PREDICTED BY IDOCK:   -8.35 KCAL/MOL
REMARK 923 INTER-LIGAND FREE ENERGY PREDICTED BY IDOCK:   -7.58 KCAL/MOL
REMARK 924 INTRA-LIGAND FREE ENERGY PREDICTED BY IDOCK:   -0.77 KCAL/MOL
REMARK 927      BINDING AFFINITY PREDICTED BY RF-SCORE:    0.00 PKD
ROOT
HETATM    1  C   UNL     1      -9.869  11.447  68.727  1.00  0.00    -0.175 C  
HETATM    2  C   UNL     1      -8.816  10.369  68.474  1.00  0.00    -0.142 C  
ENDROOT
BRANCH   2   3
HETATM    3  O   UNL     1      -9.101   9.184  69.217  1.00  0.00    -0.140 OA 
BRANCH   3   4
HETATM    4  C   UNL     1     -10.299   8.509  68.805  1.00  0.00    -0.213 C  
BRANCH   4   5
HETATM    5  C   UNL     1     -10.740   7.500  69.923  1.00  0.00    -0.246 C  
HETATM    6  C   UNL     1      -8.876   5.198  69.452  1.00  0.00    -0.099 C  
HETATM    7  C   UNL     1     -10.122   5.401  68.575  1.00  0.00    -0.242 C  
HETATM    8  N   UNL     1      -7.799   4.672  68.643  1.00  0.00    -0.079 NA 
HETATM    9  H   UNL     1      -9.857   6.691  71.627  1.00  0.00     0.000 HD 
HETATM   10  C   UNL     1     -11.228   6.166  69.305  1.00  0.00    -0.438 C  
HETATM   11  O   UNL     1      -6.057   3.189  68.828  1.00  0.00    -0.026 OA 
HETATM   12  C   UNL     1      -8.462   6.536  70.120  1.00  0.00    -0.135 C  
HETATM   13  C   UNL     1      -9.091   4.095  70.506  1.00  0.00    -0.176 C  
HETATM   14  C   UNL     1      -7.094   3.664  69.253  1.00  0.00    -0.046 C  
HETATM   15  C   UNL     1      -7.800   3.274  70.519  1.00  0.00    -0.044 C  
HETATM   16  N   UNL     1      -9.567   7.216  70.802  1.00  0.00    -0.168 NA 
BRANCH   5  17
HETATM   17  C   UNL     1     -11.905   8.079  70.771  1.00  0.00    -0.171 A  
HETATM   18  C   UNL     1     -14.035   9.096  72.337  1.00  0.00    -0.488 A  
HETATM   19  C   UNL     1     -14.065   7.780  71.887  1.00  0.00    -0.462 A  
HETATM   20  C   UNL     1     -13.014   7.281  71.109  1.00  0.00    -0.313 A  
HETATM   21  C   UNL     1     -11.922   9.417  71.209  1.00  0.00    -0.430 A  
HETATM   22  C   UNL     1     -12.969   9.916  71.992  1.00  0.00    -0.518 A  
ENDBRANCH   5  17
ENDBRANCH   4   5
ENDBRANCH   3   4
ENDBRANCH   2   3
BRANCH   2  23
HETATM   23  C   UNL     1      -8.797  10.026  66.992  1.00  0.00    -0.147 A  
HETATM   24  F   UNL     1     -10.402  12.769  64.281  1.00  0.00    -0.326 F  
HETATM   25  C   UNL     1      -9.319  10.939  66.064  1.00  0.00    -0.215 A  
HETATM   26  F   UNL     1      -8.578   6.063  65.320  1.00  0.00    -0.146 F  
HETATM   27  C   UNL     1      -9.400  10.624  64.698  1.00  0.00    -0.280 A  
HETATM   28  C   UNL     1      -8.939   9.372  64.261  1.00  0.00    -0.204 A  
HETATM   29  F   UNL     1      -6.598   6.888  64.955  1.00  0.00    -0.040 F  
HETATM   30  C   UNL     1      -9.992  11.602  63.710  1.00  0.00    -0.349 C  
HETATM   31  F   UNL     1      -8.083   6.881  63.368  1.00  0.00    -0.121 F  
HETATM   32  C   UNL     1      -7.921   7.087  64.705  1.00  0.00    -0.122 C  
HETATM   33  F   UNL     1      -9.114  11.951  62.732  1.00  0.00    -0.282 F  
HETATM   34  F   UNL     1     -11.084  11.096  63.075  1.00  0.00    -0.308 F  
HETATM   35  C   UNL     1      -8.340   8.781  66.529  1.00  0.00    -0.112 A  
HETATM   36  C   UNL     1      -8.405   8.441  65.167  1.00  0.00    -0.177 A  
ENDBRANCH   2  23
TORSDOF 5
ENDMDL
MODEL      216
REMARK 921   NORMALIZED FREE ENERGY PREDICTED BY IDOCK:   -4.24 KCAL/MOL
REMARK 922        TOTAL FREE ENERGY PREDICTED BY IDOCK:   -8.34 KCAL/MOL
REMARK 923 INTER-LIGAND FREE ENERGY PREDICTED BY IDOCK:   -6.93 KCAL/MOL
REMARK 924 INTRA-LIGAND FREE ENERGY PREDICTED BY IDOCK:   -1.42 KCAL/MOL
REMARK 927      BINDING AFFINITY PREDICTED BY RF-SCORE:    0.00 PKD
ROOT
HETATM    1  C   UNL     1      -9.628   9.391  66.252  1.00  0.00    -0.297 C  
HETATM    2  C   UNL     1     -10.564   9.931  67.332  1.00  0.00    -0.277 C  
ENDROOT
BRANCH   2   3
HETATM    3  O   UNL     1     -10.472   9.159  68.529  1.00  0.00    -0.210 OA 
BRANCH   3   4
HETATM    4  C   UNL     1      -9.340   8.277  68.570  1.00  0.00    -0.138 C  
BRANCH   4   5
HETATM    5  C   UNL     1      -9.779   6.893  69.167  1.00  0.00    -0.155 C  
HETATM    6  C   UNL     1      -9.394   5.060  66.825  1.00  0.00    -0.135 C  
HETATM    7  C   UNL     1     -10.637   5.958  66.932  1.00  0.00    -0.384 C  
HETATM    8  N   UNL     1      -8.998   4.950  65.439  1.00  0.00    -0.148 NA 
HETATM    9  H   UNL     1      -8.829   5.086  69.582  1.00  0.00     0.000 HD 
HETATM   10  C   UNL     1     -10.978   6.307  68.383  1.00  0.00    -0.409 C  
HETATM   11  O   UNL     1      -8.136   3.383  64.001  1.00  0.00    -0.084 OA 
HETATM   12  C   UNL     1      -8.238   5.632  67.686  1.00  0.00    -0.101 C  
HETATM   13  C   UNL     1      -9.707   3.602  67.214  1.00  0.00    -0.104 C  
HETATM   14  C   UNL     1      -8.650   3.676  65.065  1.00  0.00    -0.109 C  
HETATM   15  C   UNL     1      -8.987   2.732  66.182  1.00  0.00    -0.145 C  
HETATM   16  N   UNL     1      -8.632   5.942  69.064  1.00  0.00    -0.114 NA 
BRANCH   5  17
HETATM   17  C   UNL     1     -10.212   7.035  70.652  1.00  0.00    -0.205 A  
HETATM   18  C   UNL     1     -10.985   7.335  73.360  1.00  0.00    -0.289 A  
HETATM   19  C   UNL     1      -9.791   7.890  72.909  1.00  0.00    -0.348 A  
HETATM   20  C   UNL     1      -9.409   7.737  71.571  1.00  0.00    -0.165 A  
HETATM   21  C   UNL     1     -11.394   6.453  71.148  1.00  0.00    -0.376 A  
HETATM   22  C   UNL     1     -11.780   6.610  72.483  1.00  0.00    -0.200 A  
ENDBRANCH   5  17
ENDBRANCH   4   5
ENDBRANCH   3   4
ENDBRANCH   2   3
BRANCH   2  23
HETATM   23  C   UNL     1     -10.187  11.371  67.648  1.00  0.00    -0.204 A  
HETATM   24  F   UNL     1      -6.197  12.534  67.223  1.00  0.00    -0.128 F  
HETATM   25  C   UNL     1      -8.855  11.785  67.499  1.00  0.00    -0.162 A  
HETATM   26  F   UNL     1     -12.371  14.050  70.217  1.00  0.00    -0.345 F  
HETATM   27  C   UNL     1      -8.449  13.079  67.862  1.00  0.00    -0.185 A  
HETATM   28  C   UNL     1      -9.404  13.972  68.375  1.00  0.00    -0.210 A  
HETATM   29  F   UNL     1     -12.784  14.800  68.217  1.00  0.00     0.035 F  
HETATM   30  C   UNL     1      -7.007  13.507  67.728  1.00  0.00    -0.159 C  
HETATM   31  F   UNL     1     -11.259  15.749  69.442  1.00  0.00    -0.244 F  
HETATM   32  C   UNL     1     -11.776  14.537  69.092  1.00  0.00    -0.314 C  
HETATM   33  F   UNL     1      -6.855  14.582  66.908  1.00  0.00     0.015 F  
HETATM   34  F   UNL     1      -6.460  13.862  68.922  1.00  0.00    -0.080 F  
HETATM   35  C   UNL     1     -11.123  12.284  68.160  1.00  0.00    -0.285 A  
HETATM   36  C   UNL     1     -10.746  13.587  68.527  1.00  0.00    -0.270 A  
ENDBRANCH   2  23
TORSDOF 5
ENDMDL
MODEL      217
REMARK 921   NORMALIZED FREE ENERGY PREDICTED BY IDOCK:   -4.24 KCAL/MOL
REMARK 922        TOTAL FREE ENERGY PREDICTED BY IDOCK:   -8.34 KCAL/MOL
REMARK 923 INTER-LIGAND FREE ENERGY PREDICTED BY IDOCK:   -7.46 KCAL/MOL
REMARK 924 INTRA-LIGAND FREE ENERGY PREDICTED BY IDOCK:   -0.88 KCAL/MOL
REMARK 927      BINDING AFFINITY PREDICTED BY RF-SCORE:    0.00 PKD
ROOT
HETATM    1  C   UNL     1     -11.917  12.715  67.023  1.00  0.00    -0.330 C  
HETATM    2  C   UNL     1     -11.546  11.431  67.763  1.00  0.00    -0.251 C  
ENDROOT
BRANCH   2   3
HETATM    3  O   UNL     1     -10.130  11.257  67.815  1.00  0.00    -0.175 OA 
BRANCH   3   4
HETATM    4  C   UNL     1      -9.429  12.339  68.446  1.00  0.00    -0.175 C  
BRANCH   4   5
HETATM    5  C   UNL     1      -8.133  12.671  67.625  1.00  0.00    -0.173 C  
HETATM    6  C   UNL     1      -7.868  15.627  68.055  1.00  0.00    -0.129 C  
HETATM    7  C   UNL     1      -8.863  15.062  67.028  1.00  0.00    -0.257 C  
HETATM    8  N   UNL     1      -8.432  16.806  68.674  1.00  0.00    -0.250 NA 
HETATM    9  H   UNL     1      -6.217  13.347  68.084  1.00  0.00     0.000 HD 
HETATM   10  C   UNL     1      -8.436  13.691  66.500  1.00  0.00     0.298 C  
HETATM   11  O   UNL     1      -7.747  18.856  69.447  1.00  0.00    -0.097 OA 
HETATM   12  C   UNL     1      -7.524  14.555  69.122  1.00  0.00    -0.118 C  
HETATM   13  C   UNL     1      -6.592  16.166  67.379  1.00  0.00    -0.219 C  
HETATM   14  C   UNL     1      -7.537  17.837  68.814  1.00  0.00    -0.260 C  
HETATM   15  C   UNL     1      -6.273  17.486  68.084  1.00  0.00    -0.165 C  
HETATM   16  N   UNL     1      -7.121  13.266  68.548  1.00  0.00    -0.099 NA 
BRANCH   5  17
HETATM   17  C   UNL     1      -7.550  11.395  66.959  1.00  0.00    -0.151 A  
HETATM   18  C   UNL     1      -6.500   9.083  65.705  1.00  0.00    -0.064 A  
HETATM   19  C   UNL     1      -7.651   9.685  65.207  1.00  0.00    -0.113 A  
HETATM   20  C   UNL     1      -8.171  10.825  65.832  1.00  0.00    -0.155 A  
HETATM   21  C   UNL     1      -6.410  10.740  67.462  1.00  0.00    -0.057 A  
HETATM   22  C   UNL     1      -5.886   9.604  66.836  1.00  0.00    -0.051 A  
ENDBRANCH   5  17
ENDBRANCH   4   5
ENDBRANCH   3   4
ENDBRANCH   2   3
BRANCH   2  23
HETATM   23  C   UNL     1     -12.083  11.499  69.184  1.00  0.00    -0.329 A  
HETATM   24  F   UNL     1     -12.872  15.248  70.849  1.00  0.00    -0.352 F  
HETATM   25  C   UNL     1     -12.368  12.747  69.757  1.00  0.00    -0.096 A  
HETATM   26  F   UNL     1     -11.617   8.469  72.209  1.00  0.00    -0.365 F  
HETATM   27  C   UNL     1     -12.782  12.858  71.094  1.00  0.00    -0.366 A  
HETATM   28  C   UNL     1     -12.921  11.690  71.861  1.00  0.00    -0.442 A  
HETATM   29  F   UNL     1     -13.708   8.305  71.632  1.00  0.00    -0.349 F  
HETATM   30  C   UNL     1     -13.056  14.209  71.712  1.00  0.00    -0.357 C  
HETATM   31  F   UNL     1     -13.157   9.402  73.426  1.00  0.00     0.195 F  
HETATM   32  C   UNL     1     -12.784   9.168  72.136  1.00  0.00    -0.395 C  
HETATM   33  F   UNL     1     -14.331  14.324  72.171  1.00  0.00    -0.505 F  
HETATM   34  F   UNL     1     -12.247  14.464  72.777  1.00  0.00    -0.318 F  
HETATM   35  C   UNL     1     -12.233  10.346  69.973  1.00  0.00    -0.262 A  
HETATM   36  C   UNL     1     -12.651  10.427  71.311  1.00  0.00    -0.525 A  
ENDBRANCH   2  23
TORSDOF 5
ENDMDL
MODEL      218
REMARK 921   NORMALIZED FREE ENERGY PREDICTED BY IDOCK:   -4.21 KCAL/MOL
REMARK 922        TOTAL FREE ENERGY PREDICTED BY IDOCK:   -8.31 KCAL/MOL
REMARK 923 INTER-LIGAND FREE ENERGY PREDICTED BY IDOCK:   -7.23 KCAL/MOL
REMARK 924 INTRA-LIGAND FREE ENERGY PREDICTED BY IDOCK:   -1.08 KCAL/MOL
REMARK 927      BINDING AFFINITY PREDICTED BY RF-SCORE:    0.00 PKD
ROOT
HETATM    1  C   UNL     1     -11.069   6.430  67.180  1.00  0.00    -0.422 C  
HETATM    2  C   UNL     1      -9.888   7.329  67.542  1.00  0.00    -0.155 C  
ENDROOT
BRANCH   2   3
HETATM    3  O   UNL     1     -10.122   8.677  67.134  1.00  0.00    -0.211 OA 
BRANCH   3   4
HETATM    4  C   UNL     1      -8.953   9.509  67.166  1.00  0.00    -0.134 C  
BRANCH   4   5
HETATM    5  C   UNL     1      -8.853  10.321  65.826  1.00  0.00    -0.161 C  
HETATM    6  C   UNL     1     -10.380  12.814  66.498  1.00  0.00    -0.251 C  
HETATM    7  C   UNL     1     -11.110  11.513  66.129  1.00  0.00    -0.302 C  
HETATM    8  N   UNL     1     -11.137  13.523  67.504  1.00  0.00    -0.267 NA 
HETATM    9  H   UNL     1      -7.964  12.110  65.235  1.00  0.00     0.000 HD 
HETATM   10  C   UNL     1     -10.260  10.601  65.241  1.00  0.00    -0.351 C  
HETATM   11  O   UNL     1     -11.667  15.682  68.077  1.00  0.00    -0.306 OA 
HETATM   12  C   UNL     1      -8.946  12.504  67.002  1.00  0.00    -0.211 C  
HETATM   13  C   UNL     1     -10.351  13.808  65.320  1.00  0.00    -0.378 C  
HETATM   14  C   UNL     1     -11.219  14.874  67.282  1.00  0.00    -0.345 C  
HETATM   15  C   UNL     1     -10.653  15.180  65.926  1.00  0.00    -0.347 C  
HETATM   16  N   UNL     1      -8.186  11.627  66.105  1.00  0.00     0.003 NA 
BRANCH   5  17
HETATM   17  C   UNL     1      -8.047   9.537  64.755  1.00  0.00    -0.130 A  
HETATM   18  C   UNL     1      -6.541   8.134  62.809  1.00  0.00    -0.086 A  
HETATM   19  C   UNL     1      -6.357   9.502  62.982  1.00  0.00    -0.101 A  
HETATM   20  C   UNL     1      -7.106  10.194  63.940  1.00  0.00    -0.104 A  
HETATM   21  C   UNL     1      -8.238   8.161  64.530  1.00  0.00    -0.118 A  
HETATM   22  C   UNL     1      -7.486   7.466  63.576  1.00  0.00    -0.104 A  
ENDBRANCH   5  17
ENDBRANCH   4   5
ENDBRANCH   3   4
ENDBRANCH   2   3
BRANCH   2  23
HETATM   23  C   UNL     1      -9.683   7.303  69.049  1.00  0.00    -0.152 A  
HETATM   24  F   UNL     1      -6.089   5.794  70.552  1.00  0.00    -0.024 F  
HETATM   25  C   UNL     1      -8.477   6.813  69.574  1.00  0.00    -0.133 A  
HETATM   26  F   UNL     1     -12.796   7.286  72.025  1.00  0.00    -0.326 F  
HETATM   27  C   UNL     1      -8.282   6.691  70.959  1.00  0.00    -0.120 A  
HETATM   28  C   UNL     1      -9.315   7.078  71.827  1.00  0.00    -0.150 A  
HETATM   29  F   UNL     1     -11.979   9.299  72.142  1.00  0.00    -0.423 F  
HETATM   30  C   UNL     1      -6.993   6.132  71.514  1.00  0.00    -0.076 C  
HETATM   31  F   UNL     1     -11.359   7.787  73.576  1.00  0.00    -0.373 F  
HETATM   32  C   UNL     1     -11.649   7.984  72.259  1.00  0.00    -0.366 C  
HETATM   33  F   UNL     1      -6.355   7.009  72.335  1.00  0.00    -0.050 F  
HETATM   34  F   UNL     1      -7.192   5.004  72.249  1.00  0.00    -0.076 F  
HETATM   35  C   UNL     1     -10.699   7.686  69.940  1.00  0.00    -0.253 A  
HETATM   36  C   UNL     1     -10.528   7.579  71.330  1.00  0.00    -0.226 A  
ENDBRANCH   2  23
TORSDOF 5
ENDMDL
MODEL      219
REMARK 921   NORMALIZED FREE ENERGY PREDICTED BY IDOCK:   -4.17 KCAL/MOL
REMARK 922        TOTAL FREE ENERGY PREDICTED BY IDOCK:   -8.25 KCAL/MOL
REMARK 923 INTER-LIGAND FREE ENERGY PREDICTED BY IDOCK:   -6.50 KCAL/MOL
REMARK 924 INTRA-LIGAND FREE ENERGY PREDICTED BY IDOCK:   -1.75 KCAL/MOL
REMARK 927      BINDING AFFINITY PREDICTED BY RF-SCORE:    0.00 PKD
ROOT
HETATM    1  C   UNL     1      -7.233  10.882  66.912  1.00  0.00    -0.124 C  
HETATM    2  C   UNL     1      -8.576  10.169  66.774  1.00  0.00    -0.126 C  
ENDROOT
BRANCH   2   3
HETATM    3  O   UNL     1      -8.571   8.919  67.465  1.00  0.00    -0.119 OA 
BRANCH   3   4
HETATM    4  C   UNL     1      -9.347   7.894  66.826  1.00  0.00    -0.184 C  
BRANCH   4   5
HETATM    5  C   UNL     1      -9.220   6.559  67.642  1.00  0.00    -0.113 C  
HETATM    6  C   UNL     1      -7.566   4.864  65.801  1.00  0.00    -0.086 C  
HETATM    7  C   UNL     1      -9.073   5.052  65.565  1.00  0.00    -0.159 C  
HETATM    8  N   UNL     1      -6.885   4.787  64.528  1.00  0.00    -0.048 NA 
HETATM    9  H   UNL     1      -7.660   5.509  68.540  1.00  0.00     0.000 HD 
HETATM   10  C   UNL     1      -9.828   5.370  66.857  1.00  0.00    -0.186 C  
HETATM   11  O   UNL     1      -5.127   3.668  63.566  1.00  0.00    -0.005 OA 
HETATM   12  C   UNL     1      -7.004   6.029  66.658  1.00  0.00    -0.067 C  
HETATM   13  C   UNL     1      -7.253   3.500  66.446  1.00  0.00    -0.064 C  
HETATM   14  C   UNL     1      -5.926   3.806  64.475  1.00  0.00    -0.022 C  
HETATM   15  C   UNL     1      -6.019   2.967  65.715  1.00  0.00    -0.023 C  
HETATM   16  N   UNL     1      -7.773   6.280  67.881  1.00  0.00    -0.101 NA 
BRANCH   5  17
HETATM   17  C   UNL     1      -9.967   6.659  68.999  1.00  0.00    -0.162 A  
HETATM   18  C   UNL     1     -11.364   6.817  71.458  1.00  0.00    -0.316 A  
HETATM   19  C   UNL     1     -12.064   6.826  70.255  1.00  0.00    -0.211 A  
HETATM   20  C   UNL     1     -11.371   6.753  69.041  1.00  0.00    -0.152 A  
HETATM   21  C   UNL     1      -9.286   6.691  70.231  1.00  0.00    -0.160 A  
HETATM   22  C   UNL     1      -9.977   6.758  71.445  1.00  0.00    -0.191 A  
ENDBRANCH   5  17
ENDBRANCH   4   5
ENDBRANCH   3   4
ENDBRANCH   2   3
BRANCH   2  23
HETATM   23  C   UNL     1      -9.672  11.046  67.360  1.00  0.00    -0.189 A  
HETATM   24  F   UNL     1     -11.303  10.007  71.063  1.00  0.00    -0.360 F  
HETATM   25  C   UNL     1     -10.224  10.722  68.609  1.00  0.00    -0.198 A  
HETATM   26  F   UNL     1     -12.280  13.655  65.138  1.00  0.00    -0.363 F  
HETATM   27  C   UNL     1     -11.295  11.455  69.144  1.00  0.00    -0.353 A  
HETATM   28  C   UNL     1     -11.811  12.536  68.413  1.00  0.00    -0.353 A  
HETATM   29  F   UNL     1     -10.916  15.020  66.142  1.00  0.00    -0.313 F  
HETATM   30  C   UNL     1     -11.903  11.080  70.475  1.00  0.00    -0.367 C  
HETATM   31  F   UNL     1     -12.893  14.653  66.968  1.00  0.00    -0.053 F  
HETATM   32  C   UNL     1     -11.834  14.042  66.366  1.00  0.00    -0.418 C  
HETATM   33  F   UNL     1     -11.836  12.090  71.383  1.00  0.00    -0.035 F  
HETATM   34  F   UNL     1     -13.220  10.755  70.368  1.00  0.00    -0.324 F  
HETATM   35  C   UNL     1     -10.205  12.135  66.650  1.00  0.00    -0.223 A  
HETATM   36  C   UNL     1     -11.274  12.888  67.165  1.00  0.00    -0.329 A  
ENDBRANCH   2  23
TORSDOF 5
ENDMDL
MODEL      220
REMARK 921   NORMALIZED FREE ENERGY PREDICTED BY IDOCK:   -4.14 KCAL/MOL
REMARK 922        TOTAL FREE ENERGY PREDICTED BY IDOCK:   -8.22 KCAL/MOL
REMARK 923 INTER-LIGAND FREE ENERGY PREDICTED BY IDOCK:   -7.69 KCAL/MOL
REMARK 924 INTRA-LIGAND FREE ENERGY PREDICTED BY IDOCK:   -0.53 KCAL/MOL
REMARK 927      BINDING AFFINITY PREDICTED BY RF-SCORE:    0.00 PKD
ROOT
HETATM    1  C   UNL     1     -12.201  10.010  70.770  1.00  0.00    -0.408 C  
HETATM    2  C   UNL     1     -11.086  10.500  69.848  1.00  0.00    -0.307 C  
ENDROOT
BRANCH   2   3
HETATM    3  O   UNL     1     -10.828   9.559  68.806  1.00  0.00    -0.211 OA 
BRANCH   3   4
HETATM    4  C   UNL     1     -10.244   8.328  69.259  1.00  0.00    -0.204 C  
BRANCH   4   5
HETATM    5  C   UNL     1      -8.706   8.334  68.947  1.00  0.00    -0.137 C  
HETATM    6  C   UNL     1      -7.549   7.296  71.512  1.00  0.00    -0.086 C  
HETATM    7  C   UNL     1      -7.994   8.762  71.379  1.00  0.00    -0.175 C  
HETATM    8  N   UNL     1      -7.827   6.828  72.851  1.00  0.00    -0.098 NA 
HETATM    9  H   UNL     1      -7.225   6.883  68.746  1.00  0.00     0.000 HD 
HETATM   10  C   UNL     1      -7.943   9.255  69.931  1.00  0.00    -0.113 C  
HETATM   11  O   UNL     1      -6.893   5.459  74.439  1.00  0.00    -0.075 OA 
HETATM   12  C   UNL     1      -8.270   6.415  70.458  1.00  0.00    -0.118 C  
HETATM   13  C   UNL     1      -6.019   7.151  71.403  1.00  0.00    -0.037 C  
HETATM   14  C   UNL     1      -6.812   6.083  73.396  1.00  0.00    -0.080 C  
HETATM   15  C   UNL     1      -5.617   6.151  72.490  1.00  0.00    -0.036 C  
HETATM   16  N   UNL     1      -8.182   6.944  69.093  1.00  0.00    -0.120 NA 
BRANCH   5  17
HETATM   17  C   UNL     1      -8.428   8.851  67.509  1.00  0.00    -0.116 A  
HETATM   18  C   UNL     1      -7.947   9.830  64.895  1.00  0.00    -0.133 A  
HETATM   19  C   UNL     1      -9.187  10.025  65.497  1.00  0.00    -0.247 A  
HETATM   20  C   UNL     1      -9.424   9.536  66.786  1.00  0.00    -0.217 A  
HETATM   21  C   UNL     1      -7.198   8.636  66.858  1.00  0.00    -0.075 A  
HETATM   22  C   UNL     1      -6.958   9.130  65.571  1.00  0.00    -0.081 A  
ENDBRANCH   5  17
ENDBRANCH   4   5
ENDBRANCH   3   4
ENDBRANCH   2   3
BRANCH   2  23
HETATM   23  C   UNL     1     -11.499  11.823  69.221  1.00  0.00    -0.369 A  
HETATM   24  F   UNL     1     -11.756  12.072  65.059  1.00  0.00    -0.384 F  
HETATM   25  C   UNL     1     -11.604  11.924  67.826  1.00  0.00    -0.393 A  
HETATM   26  F   UNL     1     -11.112  15.709  71.037  1.00  0.00    -0.317 F  
HETATM   27  C   UNL     1     -11.897  13.148  67.204  1.00  0.00    -0.424 A  
HETATM   28  C   UNL     1     -12.096  14.286  68.003  1.00  0.00    -0.289 A  
HETATM   29  F   UNL     1     -13.248  15.306  71.127  1.00  0.00    -0.395 F  
HETATM   30  C   UNL     1     -11.978  13.254  65.699  1.00  0.00    -0.412 C  
HETATM   31  F   UNL     1     -12.445  16.570  69.552  1.00  0.00     0.172 F  
HETATM   32  C   UNL     1     -12.203  15.435  70.267  1.00  0.00    -0.380 C  
HETATM   33  F   UNL     1     -13.194  13.689  65.271  1.00  0.00    -0.454 F  
HETATM   34  F   UNL     1     -11.065  14.127  65.193  1.00  0.00    -0.302 F  
HETATM   35  C   UNL     1     -11.705  12.975  69.998  1.00  0.00    -0.285 A  
HETATM   36  C   UNL     1     -12.004  14.212  69.402  1.00  0.00    -0.382 A  
ENDBRANCH   2  23
TORSDOF 5
ENDMDL
MODEL      221
REMARK 921   NORMALIZED FREE ENERGY PREDICTED BY IDOCK:   -4.14 KCAL/MOL
REMARK 922        TOTAL FREE ENERGY PREDICTED BY IDOCK:   -8.22 KCAL/MOL
REMARK 923 INTER-LIGAND FREE ENERGY PREDICTED BY IDOCK:   -5.75 KCAL/MOL
REMARK 924 INTRA-LIGAND FREE ENERGY PREDICTED BY IDOCK:   -2.46 KCAL/MOL
REMARK 927      BINDING AFFINITY PREDICTED BY RF-SCORE:    0.00 PKD
ROOT
HETATM    1  C   UNL     1      -8.257   8.597  64.834  1.00  0.00    -0.159 C  
HETATM    2  C   UNL     1      -9.388   8.218  65.789  1.00  0.00    -0.031 C  
ENDROOT
BRANCH   2   3
HETATM    3  O   UNL     1      -8.884   7.549  66.945  1.00  0.00    -0.127 OA 
BRANCH   3   4
HETATM    4  C   UNL     1      -7.451   7.513  67.023  1.00  0.00    -0.098 C  
BRANCH   4   5
HETATM    5  C   UNL     1      -6.981   8.253  68.325  1.00  0.00    -0.076 C  
HETATM    6  C   UNL     1      -6.813   5.998  70.295  1.00  0.00    -0.054 C  
HETATM    7  C   UNL     1      -8.165   6.636  69.933  1.00  0.00    -0.127 C  
HETATM    8  N   UNL     1      -6.993   4.581  70.515  1.00  0.00    -0.037 NA 
HETATM    9  H   UNL     1      -5.273   8.222  69.517  1.00  0.00     0.000 HD 
HETATM   10  C   UNL     1      -8.016   8.085  69.464  1.00  0.00    -0.115 C  
HETATM   11  O   UNL     1      -6.194   2.923  71.886  1.00  0.00    -0.013 OA 
HETATM   12  C   UNL     1      -5.776   6.255  69.170  1.00  0.00    -0.020 C  
HETATM   13  C   UNL     1      -6.291   6.498  71.656  1.00  0.00    -0.042 C  
HETATM   14  C   UNL     1      -6.315   4.103  71.608  1.00  0.00    -0.018 C  
HETATM   15  C   UNL     1      -5.743   5.261  72.371  1.00  0.00    -0.018 C  
HETATM   16  N   UNL     1      -5.684   7.663  68.769  1.00  0.00    -0.023 NA 
BRANCH   5  17
HETATM   17  C   UNL     1      -6.806   9.775  68.070  1.00  0.00    -0.072 A  
HETATM   18  C   UNL     1      -6.489  12.544  67.563  1.00  0.00    -0.153 A  
HETATM   19  C   UNL     1      -5.953  11.607  66.685  1.00  0.00    -0.099 A  
HETATM   20  C   UNL     1      -6.107  10.240  66.940  1.00  0.00    -0.060 A  
HETATM   21  C   UNL     1      -7.303  10.747  68.960  1.00  0.00    -0.109 A  
HETATM   22  C   UNL     1      -7.156  12.115  68.703  1.00  0.00    -0.103 A  
ENDBRANCH   5  17
ENDBRANCH   4   5
ENDBRANCH   3   4
ENDBRANCH   2   3
BRANCH   2  23
HETATM   23  C   UNL     1     -10.114   9.479  66.231  1.00  0.00    -0.327 A  
HETATM   24  F   UNL     1     -10.758  10.090  70.314  1.00  0.00    -0.274 F  
HETATM   25  C   UNL     1     -10.328   9.710  67.599  1.00  0.00    -0.290 A  
HETATM   26  F   UNL     1     -12.797  11.829  63.818  1.00  0.00    -0.557 F  
HETATM   27  C   UNL     1     -11.069  10.817  68.043  1.00  0.00    -0.359 A  
HETATM   28  C   UNL     1     -11.594  11.709  67.094  1.00  0.00    -0.291 A  
HETATM   29  F   UNL     1     -11.002  13.053  63.936  1.00  0.00    -0.369 F  
HETATM   30  C   UNL     1     -11.322  11.040  69.516  1.00  0.00    -0.287 C  
HETATM   31  F   UNL     1     -12.690  13.469  65.240  1.00  0.00    -0.454 F  
HETATM   32  C   UNL     1     -11.961  12.456  64.694  1.00  0.00    -0.394 C  
HETATM   33  F   UNL     1     -10.836  12.233  69.954  1.00  0.00    -0.030 F  
HETATM   34  F   UNL     1     -12.649  11.039  69.818  1.00  0.00    -0.346 F  
HETATM   35  C   UNL     1     -10.647  10.389  65.303  1.00  0.00    -0.064 A  
HETATM   36  C   UNL     1     -11.388  11.507  65.720  1.00  0.00    -0.160 A  
ENDBRANCH   2  23
TORSDOF 5
ENDMDL
MODEL      222
REMARK 921   NORMALIZED FREE ENERGY PREDICTED BY IDOCK:   -4.14 KCAL/MOL
REMARK 922        TOTAL FREE ENERGY PREDICTED BY IDOCK:   -8.21 KCAL/MOL
REMARK 923 INTER-LIGAND FREE ENERGY PREDICTED BY IDOCK:   -6.41 KCAL/MOL
REMARK 924 INTRA-LIGAND FREE ENERGY PREDICTED BY IDOCK:   -1.80 KCAL/MOL
REMARK 927      BINDING AFFINITY PREDICTED BY RF-SCORE:    0.00 PKD
ROOT
HETATM    1  C   UNL     1      -6.883   8.493  64.855  1.00  0.00    -0.072 C  
HETATM    2  C   UNL     1      -6.745   7.973  66.284  1.00  0.00    -0.054 C  
ENDROOT
BRANCH   2   3
HETATM    3  O   UNL     1      -7.135   8.964  67.235  1.00  0.00    -0.080 OA 
BRANCH   3   4
HETATM    4  C   UNL     1      -7.811  10.092  66.660  1.00  0.00    -0.110 C  
BRANCH   4   5
HETATM    5  C   UNL     1      -9.068  10.447  67.531  1.00  0.00    -0.134 C  
HETATM    6  C   UNL     1     -10.622  12.223  65.681  1.00  0.00    -0.260 C  
HETATM    7  C   UNL     1      -9.418  12.762  66.470  1.00  0.00    -0.253 C  
HETATM    8  N   UNL     1     -10.669  12.856  64.382  1.00  0.00    -0.363 NA 
HETATM    9  H   UNL     1     -11.112  10.063  67.418  1.00  0.00     0.000 HD 
HETATM   10  C   UNL     1      -9.170  11.976  67.759  1.00  0.00    -0.190 C  
HETATM   11  O   UNL     1     -12.226  13.638  62.888  1.00  0.00    -0.428 OA 
HETATM   12  C   UNL     1     -10.531  10.681  65.541  1.00  0.00    -0.176 C  
HETATM   13  C   UNL     1     -11.960  12.644  66.321  1.00  0.00    -0.439 C  
HETATM   14  C   UNL     1     -11.931  13.237  63.999  1.00  0.00    -0.465 C  
HETATM   15  C   UNL     1     -12.866  13.055  65.159  1.00  0.00    -0.335 C  
HETATM   16  N   UNL     1     -10.294   9.990  66.813  1.00  0.00    -0.227 NA 
BRANCH   5  17
HETATM   17  C   UNL     1      -8.992   9.768  68.926  1.00  0.00    -0.144 A  
HETATM   18  C   UNL     1      -8.877   8.496  71.454  1.00  0.00    -0.253 A  
HETATM   19  C   UNL     1     -10.016   8.378  70.664  1.00  0.00    -0.212 A  
HETATM   20  C   UNL     1     -10.073   9.012  69.417  1.00  0.00    -0.198 A  
HETATM   21  C   UNL     1      -7.869   9.901  69.765  1.00  0.00    -0.169 A  
HETATM   22  C   UNL     1      -7.809   9.263  71.009  1.00  0.00    -0.109 A  
ENDBRANCH   5  17
ENDBRANCH   4   5
ENDBRANCH   3   4
ENDBRANCH   2   3
BRANCH   2  23
HETATM   23  C   UNL     1      -7.634   6.750  66.460  1.00  0.00    -0.089 A  
HETATM   24  F   UNL     1      -8.614   5.529  70.333  1.00  0.00    -0.118 F  
HETATM   25  C   UNL     1      -7.986   6.332  67.752  1.00  0.00    -0.114 A  
HETATM   26  F   UNL     1      -8.159   3.575  63.599  1.00  0.00    -0.083 F  
HETATM   27  C   UNL     1      -8.731   5.160  67.960  1.00  0.00    -0.102 A  
HETATM   28  C   UNL     1      -9.135   4.405  66.848  1.00  0.00    -0.136 A  
HETATM   29  F   UNL     1     -10.030   4.681  63.493  1.00  0.00    -0.051 F  
HETATM   30  C   UNL     1      -9.079   4.700  69.357  1.00  0.00    -0.108 C  
HETATM   31  F   UNL     1      -9.909   2.857  64.670  1.00  0.00    -0.153 F  
HETATM   32  C   UNL     1      -9.223   3.989  64.343  1.00  0.00    -0.151 C  
HETATM   33  F   UNL     1     -10.421   4.603  69.555  1.00  0.00    -0.285 F  
HETATM   34  F   UNL     1      -8.566   3.471  69.638  1.00  0.00    -0.076 F  
HETATM   35  C   UNL     1      -8.053   5.978  65.364  1.00  0.00    -0.132 A  
HETATM   36  C   UNL     1      -8.804   4.804  65.543  1.00  0.00    -0.139 A  
ENDBRANCH   2  23
TORSDOF 5
ENDMDL
MODEL      223
REMARK 921   NORMALIZED FREE ENERGY PREDICTED BY IDOCK:   -4.12 KCAL/MOL
REMARK 922        TOTAL FREE ENERGY PREDICTED BY IDOCK:   -8.19 KCAL/MOL
REMARK 923 INTER-LIGAND FREE ENERGY PREDICTED BY IDOCK:   -6.98 KCAL/MOL
REMARK 924 INTRA-LIGAND FREE ENERGY PREDICTED BY IDOCK:   -1.21 KCAL/MOL
REMARK 927      BINDING AFFINITY PREDICTED BY RF-SCORE:    0.00 PKD
ROOT
HETATM    1  C   UNL     1     -10.462   5.587  66.688  1.00  0.00    -0.355 C  
HETATM    2  C   UNL     1     -10.667   6.733  67.677  1.00  0.00    -0.288 C  
ENDROOT
BRANCH   2   3
HETATM    3  O   UNL     1     -10.504   6.288  69.023  1.00  0.00    -0.190 OA 
BRANCH   3   4
HETATM    4  C   UNL     1     -11.675   6.444  69.838  1.00  0.00    -0.239 C  
BRANCH   4   5
HETATM    5  C   UNL     1     -11.296   7.202  71.159  1.00  0.00    -0.275 C  
HETATM    6  C   UNL     1      -9.955   5.042  72.750  1.00  0.00    -0.163 C  
HETATM    7  C   UNL     1     -11.488   5.126  72.661  1.00  0.00    -0.221 C  
HETATM    8  N   UNL     1      -9.550   3.654  72.788  1.00  0.00    -0.124 NA 
HETATM    9  H   UNL     1      -9.520   7.747  72.102  1.00  0.00     0.000 HD 
HETATM   10  C   UNL     1     -11.977   6.550  72.388  1.00  0.00    -0.199 C  
HETATM   11  O   UNL     1      -7.962   2.338  73.794  1.00  0.00    -0.052 OA 
HETATM   12  C   UNL     1      -9.304   5.774  71.547  1.00  0.00    -0.146 C  
HETATM   13  C   UNL     1      -9.428   5.595  74.088  1.00  0.00    -0.142 C  
HETATM   14  C   UNL     1      -8.563   3.394  73.704  1.00  0.00    -0.078 C  
HETATM   15  C   UNL     1      -8.341   4.619  74.543  1.00  0.00    -0.100 C  
HETATM   16  N   UNL     1      -9.816   7.134  71.342  1.00  0.00    -0.176 NA 
BRANCH   5  17
HETATM   17  C   UNL     1     -11.750   8.686  71.103  1.00  0.00    -0.334 A  
HETATM   18  C   UNL     1     -12.582  11.393  71.044  1.00  0.00    -0.487 A  
HETATM   19  C   UNL     1     -13.097  10.525  72.001  1.00  0.00    -0.511 A  
HETATM   20  C   UNL     1     -12.688   9.187  72.025  1.00  0.00    -0.473 A  
HETATM   21  C   UNL     1     -11.277   9.579  70.122  1.00  0.00    -0.275 A  
HETATM   22  C   UNL     1     -11.680  10.919  70.101  1.00  0.00    -0.433 A  
ENDBRANCH   5  17
ENDBRANCH   4   5
ENDBRANCH   3   4
ENDBRANCH   2   3
BRANCH   2  23
HETATM   23  C   UNL     1      -9.648   7.826  67.396  1.00  0.00    -0.192 A  
HETATM   24  F   UNL     1      -8.999   8.986  63.435  1.00  0.00    -0.200 F  
HETATM   25  C   UNL     1      -9.425   8.240  66.074  1.00  0.00    -0.189 A  
HETATM   26  F   UNL     1      -6.362   8.936  69.948  1.00  0.00    -0.036 F  
HETATM   27  C   UNL     1      -8.433   9.183  65.763  1.00  0.00    -0.152 A  
HETATM   28  C   UNL     1      -7.660   9.724  66.803  1.00  0.00    -0.095 A  
HETATM   29  F   UNL     1      -7.772  10.577  70.178  1.00  0.00    -0.156 F  
HETATM   30  C   UNL     1      -8.178   9.599  64.333  1.00  0.00    -0.157 C  
HETATM   31  F   UNL     1      -6.077  10.779  68.832  1.00  0.00    -0.041 F  
HETATM   32  C   UNL     1      -7.030   9.903  69.258  1.00  0.00    -0.059 C  
HETATM   33  F   UNL     1      -8.345  10.935  64.141  1.00  0.00    -0.121 F  
HETATM   34  F   UNL     1      -6.910   9.315  63.930  1.00  0.00    -0.088 F  
HETATM   35  C   UNL     1      -8.864   8.385  68.418  1.00  0.00    -0.140 A  
HETATM   36  C   UNL     1      -7.867   9.335  68.136  1.00  0.00    -0.095 A  
ENDBRANCH   2  23
TORSDOF 5
ENDMDL
MODEL      224
REMARK 921   NORMALIZED FREE ENERGY PREDICTED BY IDOCK:   -4.07 KCAL/MOL
REMARK 922        TOTAL FREE ENERGY PREDICTED BY IDOCK:   -8.12 KCAL/MOL
REMARK 923 INTER-LIGAND FREE ENERGY PREDICTED BY IDOCK:   -6.95 KCAL/MOL
REMARK 924 INTRA-LIGAND FREE ENERGY PREDICTED BY IDOCK:   -1.17 KCAL/MOL
REMARK 927      BINDING AFFINITY PREDICTED BY RF-SCORE:    0.00 PKD
ROOT
HETATM    1  C   UNL     1      -9.374   9.984  64.337  1.00  0.00    -0.348 C  
HETATM    2  C   UNL     1      -9.458   9.877  65.858  1.00  0.00    -0.215 C  
ENDROOT
BRANCH   2   3
HETATM    3  O   UNL     1      -8.372   9.114  66.383  1.00  0.00    -0.119 OA 
BRANCH   3   4
HETATM    4  C   UNL     1      -8.456   8.871  67.795  1.00  0.00    -0.125 C  
BRANCH   4   5
HETATM    5  C   UNL     1      -9.009   7.423  68.043  1.00  0.00    -0.132 C  
HETATM    6  C   UNL     1     -10.795   7.840  70.416  1.00  0.00    -0.244 C  
HETATM    7  C   UNL     1      -9.271   7.725  70.582  1.00  0.00    -0.161 C  
HETATM    8  N   UNL     1     -11.314   8.788  71.376  1.00  0.00    -0.272 NA 
HETATM    9  H   UNL     1     -10.877   6.507  67.938  1.00  0.00     0.000 HD 
HETATM   10  C   UNL     1      -8.623   6.917  69.455  1.00  0.00    -0.134 C  
HETATM   11  O   UNL     1     -13.164   9.078  72.702  1.00  0.00    -0.443 OA 
HETATM   12  C   UNL     1     -11.150   8.270  68.968  1.00  0.00     0.258 C  
HETATM   13  C   UNL     1     -11.513   6.531  70.798  1.00  0.00    -0.419 C  
HETATM   14  C   UNL     1     -12.472   8.377  71.986  1.00  0.00    -0.359 C  
HETATM   15  C   UNL     1     -12.742   6.950  71.606  1.00  0.00    -0.396 C  
HETATM   16  N   UNL     1     -10.498   7.454  67.938  1.00  0.00    -0.206 NA 
BRANCH   5  17
HETATM   17  C   UNL     1      -8.430   6.418  67.010  1.00  0.00    -0.112 A  
HETATM   18  C   UNL     1      -7.403   4.601  65.095  1.00  0.00    -0.072 A  
HETATM   19  C   UNL     1      -8.755   4.931  65.090  1.00  0.00    -0.148 A  
HETATM   20  C   UNL     1      -9.261   5.825  66.041  1.00  0.00    -0.155 A  
HETATM   21  C   UNL     1      -7.075   6.035  67.013  1.00  0.00    -0.070 A  
HETATM   22  C   UNL     1      -6.566   5.145  66.060  1.00  0.00    -0.048 A  
ENDBRANCH   5  17
ENDBRANCH   4   5
ENDBRANCH   3   4
ENDBRANCH   2   3
BRANCH   2  23
HETATM   23  C   UNL     1      -9.412  11.273  66.461  1.00  0.00    -0.213 A  
HETATM   24  F   UNL     1      -5.687  12.982  67.270  1.00  0.00    -0.130 F  
HETATM   25  C   UNL     1      -8.171  11.870  66.728  1.00  0.00    -0.129 A  
HETATM   26  F   UNL     1     -12.561  13.157  68.716  1.00  0.00    -0.121 F  
HETATM   27  C   UNL     1      -8.085  13.119  67.363  1.00  0.00    -0.181 A  
HETATM   28  C   UNL     1      -9.270  13.780  67.727  1.00  0.00    -0.206 A  
HETATM   29  F   UNL     1     -12.602  14.194  66.804  1.00  0.00    -0.458 F  
HETATM   30  C   UNL     1      -6.744  13.740  67.675  1.00  0.00    -0.176 C  
HETATM   31  F   UNL     1     -11.595  15.093  68.507  1.00  0.00    -0.284 F  
HETATM   32  C   UNL     1     -11.803  13.908  67.867  1.00  0.00    -0.378 C  
HETATM   33  F   UNL     1      -6.581  14.955  67.084  1.00  0.00    -0.173 F  
HETATM   34  F   UNL     1      -6.565  13.943  69.009  1.00  0.00    -0.085 F  
HETATM   35  C   UNL     1     -10.582  11.956  66.833  1.00  0.00    -0.264 A  
HETATM   36  C   UNL     1     -10.525  13.209  67.466  1.00  0.00    -0.229 A  
ENDBRANCH   2  23
TORSDOF 5
ENDMDL
MODEL      225
REMARK 921   NORMALIZED FREE ENERGY PREDICTED BY IDOCK:   -4.05 KCAL/MOL
REMARK 922        TOTAL FREE ENERGY PREDICTED BY IDOCK:   -8.10 KCAL/MOL
REMARK 923 INTER-LIGAND FREE ENERGY PREDICTED BY IDOCK:   -7.03 KCAL/MOL
REMARK 924 INTRA-LIGAND FREE ENERGY PREDICTED BY IDOCK:   -1.07 KCAL/MOL
REMARK 927      BINDING AFFINITY PREDICTED BY RF-SCORE:    0.00 PKD
ROOT
HETATM    1  C   UNL     1     -12.143  12.192  69.641  1.00  0.00    -0.283 C  
HETATM    2  C   UNL     1     -10.648  12.401  69.406  1.00  0.00     0.251 C  
ENDROOT
BRANCH   2   3
HETATM    3  O   UNL     1      -9.985  11.160  69.170  1.00  0.00    -0.179 OA 
BRANCH   3   4
HETATM    4  C   UNL     1      -8.684  11.294  68.578  1.00  0.00    -0.156 C  
BRANCH   4   5
HETATM    5  C   UNL     1      -8.137   9.875  68.190  1.00  0.00    -0.104 C  
HETATM    6  C   UNL     1      -7.137   8.854  70.827  1.00  0.00    -0.078 C  
HETATM    7  C   UNL     1      -6.309   9.847  69.996  1.00  0.00    -0.071 C  
HETATM    8  N   UNL     1      -6.958   9.136  72.234  1.00  0.00    -0.303 NA 
HETATM    9  H   UNL     1      -8.650   7.909  68.650  1.00  0.00     0.000 HD 
HETATM   10  C   UNL     1      -6.624   9.759  68.502  1.00  0.00    -0.051 C  
HETATM   11  O   UNL     1      -6.784   8.002  74.222  1.00  0.00    -0.105 OA 
HETATM   12  C   UNL     1      -8.636   8.938  70.434  1.00  0.00    -0.180 C  
HETATM   13  C   UNL     1      -6.608   7.413  70.691  1.00  0.00    -0.043 C  
HETATM   14  C   UNL     1      -6.791   8.013  73.004  1.00  0.00    -0.092 C  
HETATM   15  C   UNL     1      -6.642   6.822  72.102  1.00  0.00    -0.058 C  
HETATM   16  N   UNL     1      -8.867   8.846  68.988  1.00  0.00    -0.135 NA 
BRANCH   5  17
HETATM   17  C   UNL     1      -8.328   9.597  66.674  1.00  0.00    -0.123 A  
HETATM   18  C   UNL     1      -8.672   9.047  63.917  1.00  0.00    -0.110 A  
HETATM   19  C   UNL     1      -7.830   8.252  64.688  1.00  0.00    -0.132 A  
HETATM   20  C   UNL     1      -7.657   8.529  66.049  1.00  0.00    -0.089 A  
HETATM   21  C   UNL     1      -9.142  10.406  65.860  1.00  0.00    -0.192 A  
HETATM   22  C   UNL     1      -9.321  10.127  64.500  1.00  0.00    -0.345 A  
ENDBRANCH   5  17
ENDBRANCH   4   5
ENDBRANCH   3   4
ENDBRANCH   2   3
BRANCH   2  23
HETATM   23  C   UNL     1     -10.453  13.298  68.193  1.00  0.00    -0.251 A  
HETATM   24  F   UNL     1     -12.929  12.745  64.874  1.00  0.00    -0.535 F  
HETATM   25  C   UNL     1     -11.283  13.138  67.073  1.00  0.00    -0.325 A  
HETATM   26  F   UNL     1      -6.839  15.401  67.161  1.00  0.00    -0.209 F  
HETATM   27  C   UNL     1     -11.079  13.885  65.902  1.00  0.00    -0.291 A  
HETATM   28  C   UNL     1     -10.028  14.815  65.864  1.00  0.00    -0.351 A  
HETATM   29  F   UNL     1      -8.167  16.972  67.868  1.00  0.00    -0.186 F  
HETATM   30  C   UNL     1     -11.958  13.683  64.690  1.00  0.00    -0.407 C  
HETATM   31  F   UNL     1      -7.924  16.630  65.735  1.00  0.00    -0.302 F  
HETATM   32  C   UNL     1      -8.045  15.991  66.933  1.00  0.00    -0.247 C  
HETATM   33  F   UNL     1     -12.604  14.821  64.319  1.00  0.00    -0.495 F  
HETATM   34  F   UNL     1     -11.251  13.277  63.601  1.00  0.00    -0.398 F  
HETATM   35  C   UNL     1      -9.410  14.237  68.130  1.00  0.00    -0.206 A  
HETATM   36  C   UNL     1      -9.187  15.002  66.972  1.00  0.00    -0.246 A  
ENDBRANCH   2  23
TORSDOF 5
ENDMDL
MODEL      226
REMARK 921   NORMALIZED FREE ENERGY PREDICTED BY IDOCK:   -4.05 KCAL/MOL
REMARK 922        TOTAL FREE ENERGY PREDICTED BY IDOCK:   -8.09 KCAL/MOL
REMARK 923 INTER-LIGAND FREE ENERGY PREDICTED BY IDOCK:   -7.53 KCAL/MOL
REMARK 924 INTRA-LIGAND FREE ENERGY PREDICTED BY IDOCK:   -0.57 KCAL/MOL
REMARK 927      BINDING AFFINITY PREDICTED BY RF-SCORE:    0.00 PKD
ROOT
HETATM    1  C   UNL     1     -12.199  10.011  70.771  1.00  0.00    -0.408 C  
HETATM    2  C   UNL     1     -11.070  10.518  69.875  1.00  0.00    -0.307 C  
ENDROOT
BRANCH   2   3
HETATM    3  O   UNL     1     -10.786   9.590  68.828  1.00  0.00    -0.222 OA 
BRANCH   3   4
HETATM    4  C   UNL     1     -10.212   8.354  69.281  1.00  0.00    -0.208 C  
BRANCH   4   5
HETATM    5  C   UNL     1      -8.663   8.375  69.028  1.00  0.00    -0.142 C  
HETATM    6  C   UNL     1      -8.526   8.668  66.046  1.00  0.00    -0.141 C  
HETATM    7  C   UNL     1      -8.811   7.304  66.696  1.00  0.00    -0.151 C  
HETATM    8  N   UNL     1      -9.276   8.781  64.816  1.00  0.00     0.130 NA 
HETATM    9  H   UNL     1      -7.291   9.774  68.321  1.00  0.00     0.000 HD 
HETATM   10  C   UNL     1      -8.235   7.203  68.110  1.00  0.00    -0.124 C  
HETATM   11  O   UNL     1      -9.029   9.657  62.708  1.00  0.00    -0.238 OA 
HETATM   12  C   UNL     1      -8.889   9.818  67.022  1.00  0.00    -0.135 C  
HETATM   13  C   UNL     1      -7.063   8.782  65.574  1.00  0.00    -0.083 C  
HETATM   14  C   UNL     1      -8.557   9.323  63.780  1.00  0.00    -0.192 C  
HETATM   15  C   UNL     1      -7.121   9.449  64.198  1.00  0.00    -0.102 C  
HETATM   16  N   UNL     1      -8.304   9.660  68.358  1.00  0.00    -0.116 NA 
BRANCH   5  17
HETATM   17  C   UNL     1      -7.876   8.240  70.360  1.00  0.00    -0.089 A  
HETATM   18  C   UNL     1      -6.466   7.958  72.801  1.00  0.00    -0.071 A  
HETATM   19  C   UNL     1      -7.824   7.658  72.740  1.00  0.00    -0.127 A  
HETATM   20  C   UNL     1      -8.519   7.803  71.534  1.00  0.00    -0.129 A  
HETATM   21  C   UNL     1      -6.512   8.572  70.463  1.00  0.00    -0.037 A  
HETATM   22  C   UNL     1      -5.813   8.422  71.667  1.00  0.00    -0.041 A  
ENDBRANCH   5  17
ENDBRANCH   4   5
ENDBRANCH   3   4
ENDBRANCH   2   3
BRANCH   2  23
HETATM   23  C   UNL     1     -11.480  11.845  69.255  1.00  0.00    -0.366 A  
HETATM   24  F   UNL     1     -11.663  12.136  65.091  1.00  0.00    -0.376 F  
HETATM   25  C   UNL     1     -11.561  11.960  67.859  1.00  0.00    -0.393 A  
HETATM   26  F   UNL     1     -11.151  15.714  71.117  1.00  0.00    -0.334 F  
HETATM   27  C   UNL     1     -11.850  13.188  67.245  1.00  0.00    -0.420 A  
HETATM   28  C   UNL     1     -12.070  14.316  68.051  1.00  0.00    -0.289 A  
HETATM   29  F   UNL     1     -13.286  15.297  71.164  1.00  0.00    -0.395 F  
HETATM   30  C   UNL     1     -11.904  13.310  65.740  1.00  0.00    -0.387 C  
HETATM   31  F   UNL     1     -12.462  16.582  69.617  1.00  0.00     0.185 F  
HETATM   32  C   UNL     1     -12.225  15.442  70.324  1.00  0.00    -0.380 C  
HETATM   33  F   UNL     1     -13.115  13.742  65.294  1.00  0.00    -0.478 F  
HETATM   34  F   UNL     1     -10.988  14.194  65.259  1.00  0.00    -0.294 F  
HETATM   35  C   UNL     1     -11.707  12.988  70.039  1.00  0.00    -0.285 A  
HETATM   36  C   UNL     1     -12.003  14.229  69.451  1.00  0.00    -0.381 A  
ENDBRANCH   2  23
TORSDOF 5
ENDMDL
MODEL      227
REMARK 921   NORMALIZED FREE ENERGY PREDICTED BY IDOCK:   -4.03 KCAL/MOL
REMARK 922        TOTAL FREE ENERGY PREDICTED BY IDOCK:   -8.08 KCAL/MOL
REMARK 923 INTER-LIGAND FREE ENERGY PREDICTED BY IDOCK:   -7.75 KCAL/MOL
REMARK 924 INTRA-LIGAND FREE ENERGY PREDICTED BY IDOCK:   -0.32 KCAL/MOL
REMARK 927      BINDING AFFINITY PREDICTED BY RF-SCORE:    0.00 PKD
ROOT
HETATM    1  C   UNL     1     -12.223  13.492  67.239  1.00  0.00    -0.305 C  
HETATM    2  C   UNL     1     -11.769  12.143  67.795  1.00  0.00    -0.320 C  
ENDROOT
BRANCH   2   3
HETATM    3  O   UNL     1     -10.347  12.028  67.775  1.00  0.00    -0.191 OA 
BRANCH   3   4
HETATM    4  C   UNL     1      -9.673  12.947  68.649  1.00  0.00    -0.040 C  
BRANCH   4   5
HETATM    5  C   UNL     1      -8.350  13.443  67.965  1.00  0.00    -0.165 C  
HETATM    6  C   UNL     1      -7.066  10.856  67.154  1.00  0.00    -0.103 C  
HETATM    7  C   UNL     1      -6.986  11.360  68.604  1.00  0.00    -0.087 C  
HETATM    8  N   UNL     1      -7.170   9.414  67.151  1.00  0.00    -0.086 NA 
HETATM    9  H   UNL     1      -7.564  13.391  66.036  1.00  0.00     0.000 HD 
HETATM   10  C   UNL     1      -7.105  12.883  68.697  1.00  0.00    -0.103 C  
HETATM   11  O   UNL     1      -6.433   7.625  65.917  1.00  0.00    -0.041 OA 
HETATM   12  C   UNL     1      -8.276  11.497  66.426  1.00  0.00    -0.092 C  
HETATM   13  C   UNL     1      -5.756  11.112  66.385  1.00  0.00    -0.146 C  
HETATM   14  C   UNL     1      -6.384   8.807  66.204  1.00  0.00    -0.064 C  
HETATM   15  C   UNL     1      -5.489   9.839  65.581  1.00  0.00    -0.046 C  
HETATM   16  N   UNL     1      -8.330  12.958  66.553  1.00  0.00     0.158 NA 
BRANCH   5  17
HETATM   17  C   UNL     1      -8.253  14.992  67.990  1.00  0.00    -0.138 A  
HETATM   18  C   UNL     1      -8.119  17.821  68.035  1.00  0.00    -0.243 A  
HETATM   19  C   UNL     1      -9.137  17.181  67.334  1.00  0.00    -0.226 A  
HETATM   20  C   UNL     1      -9.198  15.783  67.309  1.00  0.00    -0.217 A  
HETATM   21  C   UNL     1      -7.214  15.669  68.657  1.00  0.00    -0.129 A  
HETATM   22  C   UNL     1      -7.155  17.066  68.688  1.00  0.00    -0.210 A  
ENDBRANCH   5  17
ENDBRANCH   4   5
ENDBRANCH   3   4
ENDBRANCH   2   3
BRANCH   2  23
HETATM   23  C   UNL     1     -12.251  12.006  69.231  1.00  0.00    -0.135 A  
HETATM   24  F   UNL     1     -12.963  15.479  71.443  1.00  0.00    -0.385 F  
HETATM   25  C   UNL     1     -12.509  13.160  69.987  1.00  0.00    -0.143 A  
HETATM   26  F   UNL     1     -11.678   8.579  71.775  1.00  0.00    -0.304 F  
HETATM   27  C   UNL     1     -12.871  13.079  71.341  1.00  0.00    -0.385 A  
HETATM   28  C   UNL     1     -12.984  11.813  71.939  1.00  0.00    -0.435 A  
HETATM   29  F   UNL     1     -13.790   8.494  71.261  1.00  0.00    -0.363 F  
HETATM   30  C   UNL     1     -13.116  14.327  72.155  1.00  0.00    -0.382 C  
HETATM   31  F   UNL     1     -13.167   9.326  73.170  1.00  0.00    -0.327 F  
HETATM   32  C   UNL     1     -12.845   9.278  71.847  1.00  0.00    -0.404 C  
HETATM   33  F   UNL     1     -14.373  14.374  72.675  1.00  0.00    -0.493 F  
HETATM   34  F   UNL     1     -12.266  14.430  73.213  1.00  0.00    -0.326 F  
HETATM   35  C   UNL     1     -12.374  10.753  69.853  1.00  0.00    -0.340 A  
HETATM   36  C   UNL     1     -12.739  10.642  71.205  1.00  0.00    -0.537 A  
ENDBRANCH   2  23
TORSDOF 5
ENDMDL
MODEL      228
REMARK 921   NORMALIZED FREE ENERGY PREDICTED BY IDOCK:   -4.02 KCAL/MOL
REMARK 922        TOTAL FREE ENERGY PREDICTED BY IDOCK:   -8.05 KCAL/MOL
REMARK 923 INTER-LIGAND FREE ENERGY PREDICTED BY IDOCK:   -6.20 KCAL/MOL
REMARK 924 INTRA-LIGAND FREE ENERGY PREDICTED BY IDOCK:   -1.86 KCAL/MOL
REMARK 927      BINDING AFFINITY PREDICTED BY RF-SCORE:    0.00 PKD
ROOT
HETATM    1  C   UNL     1      -9.637   9.471  64.870  1.00  0.00    -0.158 C  
HETATM    2  C   UNL     1      -8.373   9.186  65.679  1.00  0.00    -0.125 C  
ENDROOT
BRANCH   2   3
HETATM    3  O   UNL     1      -8.162  10.185  66.677  1.00  0.00    -0.121 OA 
BRANCH   3   4
HETATM    4  C   UNL     1      -8.843  11.422  66.420  1.00  0.00    -0.192 C  
BRANCH   4   5
HETATM    5  C   UNL     1      -9.172  12.129  67.782  1.00  0.00    -0.189 C  
HETATM    6  C   UNL     1      -8.397  14.969  67.207  1.00  0.00    -0.205 C  
HETATM    7  C   UNL     1      -7.335  13.911  67.548  1.00  0.00    -0.181 C  
HETATM    8  N   UNL     1      -7.861  15.894  66.234  1.00  0.00    -0.008 NA 
HETATM    9  H   UNL     1     -10.527  13.580  68.413  1.00  0.00     0.000 HD 
HETATM   10  C   UNL     1      -7.902  12.770  68.395  1.00  0.00    -0.132 C  
HETATM   11  O   UNL     1      -7.951  18.132  65.734  1.00  0.00    -0.521 OA 
HETATM   12  C   UNL     1      -9.685  14.289  66.673  1.00  0.00    -0.287 C  
HETATM   13  C   UNL     1      -8.708  15.876  68.414  1.00  0.00    -0.183 C  
HETATM   14  C   UNL     1      -8.160  17.207  66.498  1.00  0.00    -0.283 C  
HETATM   15  C   UNL     1      -8.796  17.298  67.854  1.00  0.00    -0.235 C  
HETATM   16  N   UNL     1     -10.175  13.206  67.532  1.00  0.00    -0.223 NA 
BRANCH   5  17
HETATM   17  C   UNL     1      -9.734  11.117  68.817  1.00  0.00    -0.194 A  
HETATM   18  C   UNL     1     -10.792   9.262  70.677  1.00  0.00    -0.339 A  
HETATM   19  C   UNL     1     -11.647  10.001  69.865  1.00  0.00    -0.237 A  
HETATM   20  C   UNL     1     -11.122  10.921  68.950  1.00  0.00    -0.307 A  
HETATM   21  C   UNL     1      -8.898  10.383  69.679  1.00  0.00    -0.049 A  
HETATM   22  C   UNL     1      -9.421   9.458  70.590  1.00  0.00    -0.325 A  
ENDBRANCH   5  17
ENDBRANCH   4   5
ENDBRANCH   3   4
ENDBRANCH   2   3
BRANCH   2  23
HETATM   23  C   UNL     1      -8.509   7.833  66.361  1.00  0.00    -0.136 A  
HETATM   24  F   UNL     1      -6.790   7.313  70.133  1.00  0.00    -0.052 F  
HETATM   25  C   UNL     1      -7.950   7.642  67.634  1.00  0.00    -0.121 A  
HETATM   26  F   UNL     1      -9.220   4.069  64.394  1.00  0.00    -0.126 F  
HETATM   27  C   UNL     1      -7.978   6.386  68.261  1.00  0.00    -0.106 A  
HETATM   28  C   UNL     1      -8.587   5.309  67.597  1.00  0.00    -0.104 A  
HETATM   29  F   UNL     1     -11.124   4.524  65.343  1.00  0.00    -0.356 F  
HETATM   30  C   UNL     1      -7.347   6.182  69.618  1.00  0.00    -0.079 C  
HETATM   31  F   UNL     1      -9.739   3.141  66.289  1.00  0.00    -0.140 F  
HETATM   32  C   UNL     1      -9.804   4.315  65.600  1.00  0.00    -0.218 C  
HETATM   33  F   UNL     1      -8.238   5.746  70.548  1.00  0.00    -0.107 F  
HETATM   34  F   UNL     1      -6.349   5.257  69.589  1.00  0.00    -0.025 F  
HETATM   35  C   UNL     1      -9.114   6.740  65.720  1.00  0.00     0.017 A  
HETATM   36  C   UNL     1      -9.160   5.473  66.326  1.00  0.00    -0.149 A  
ENDBRANCH   2  23
TORSDOF 5
ENDMDL
MODEL      229
REMARK 921   NORMALIZED FREE ENERGY PREDICTED BY IDOCK:   -4.01 KCAL/MOL
REMARK 922        TOTAL FREE ENERGY PREDICTED BY IDOCK:   -8.05 KCAL/MOL
REMARK 923 INTER-LIGAND FREE ENERGY PREDICTED BY IDOCK:   -6.95 KCAL/MOL
REMARK 924 INTRA-LIGAND FREE ENERGY PREDICTED BY IDOCK:   -1.10 KCAL/MOL
REMARK 927      BINDING AFFINITY PREDICTED BY RF-SCORE:    0.00 PKD
ROOT
HETATM    1  C   UNL     1     -10.574   5.522  68.755  1.00  0.00    -0.236 C  
HETATM    2  C   UNL     1     -10.650   6.437  67.534  1.00  0.00    -0.283 C  
ENDROOT
BRANCH   2   3
HETATM    3  O   UNL     1     -10.400   7.796  67.891  1.00  0.00    -0.202 OA 
BRANCH   3   4
HETATM    4  C   UNL     1     -11.036   8.208  69.111  1.00  0.00     0.089 C  
BRANCH   4   5
HETATM    5  C   UNL     1     -10.244   9.413  69.731  1.00  0.00    -0.220 C  
HETATM    6  C   UNL     1     -11.042  11.673  67.929  1.00  0.00    -0.247 C  
HETATM    7  C   UNL     1      -9.967  10.660  67.501  1.00  0.00    -0.201 C  
HETATM    8  N   UNL     1     -11.814  12.072  66.774  1.00  0.00    -0.614 NA 
HETATM    9  H   UNL     1     -10.754  11.192  70.688  1.00  0.00     0.000 HD 
HETATM   10  C   UNL     1      -9.262  10.021  68.700  1.00  0.00    -0.152 C  
HETATM   11  O   UNL     1     -12.831  13.949  65.931  1.00  0.00    -0.472 OA 
HETATM   12  C   UNL     1     -11.958  11.061  69.021  1.00  0.00    -0.293 C  
HETATM   13  C   UNL     1     -10.420  13.000  68.406  1.00  0.00    -0.261 C  
HETATM   14  C   UNL     1     -12.070  13.419  66.721  1.00  0.00    -0.365 C  
HETATM   15  C   UNL     1     -11.282  14.107  67.797  1.00  0.00    -0.307 C  
HETATM   16  N   UNL     1     -11.219  10.467  70.140  1.00  0.00    -0.301 NA 
BRANCH   5  17
HETATM   17  C   UNL     1      -9.412   8.961  70.962  1.00  0.00    -0.318 A  
HETATM   18  C   UNL     1      -7.924   8.106  73.216  1.00  0.00    -0.234 A  
HETATM   19  C   UNL     1      -9.315   8.074  73.244  1.00  0.00    -0.344 A  
HETATM   20  C   UNL     1     -10.048   8.502  72.131  1.00  0.00    -0.393 A  
HETATM   21  C   UNL     1      -8.005   9.017  70.979  1.00  0.00    -0.186 A  
HETATM   22  C   UNL     1      -7.270   8.584  72.088  1.00  0.00    -0.102 A  
ENDBRANCH   5  17
ENDBRANCH   4   5
ENDBRANCH   3   4
ENDBRANCH   2   3
BRANCH   2  23
HETATM   23  C   UNL     1      -9.610   5.999  66.514  1.00  0.00    -0.182 A  
HETATM   24  F   UNL     1     -10.474   2.738  64.050  1.00  0.00    -0.164 F  
HETATM   25  C   UNL     1      -9.886   4.915  65.668  1.00  0.00    -0.153 A  
HETATM   26  F   UNL     1      -5.378   6.767  66.730  1.00  0.00    -0.014 F  
HETATM   27  C   UNL     1      -8.921   4.425  64.774  1.00  0.00    -0.149 A  
HETATM   28  C   UNL     1      -7.662   5.044  64.726  1.00  0.00    -0.084 A  
HETATM   29  F   UNL     1      -6.068   8.110  65.164  1.00  0.00    -0.043 F  
HETATM   30  C   UNL     1      -9.216   3.237  63.888  1.00  0.00    -0.103 C  
HETATM   31  F   UNL     1      -5.140   6.215  64.642  1.00  0.00    -0.012 F  
HETATM   32  C   UNL     1      -6.004   6.798  65.520  1.00  0.00    -0.035 C  
HETATM   33  F   UNL     1      -9.097   3.529  62.565  1.00  0.00    -0.087 F  
HETATM   34  F   UNL     1      -8.371   2.196  64.122  1.00  0.00    -0.078 F  
HETATM   35  C   UNL     1      -8.344   6.603  66.445  1.00  0.00    -0.121 A  
HETATM   36  C   UNL     1      -7.361   6.136  65.556  1.00  0.00    -0.080 A  
ENDBRANCH   2  23
TORSDOF 5
ENDMDL
MODEL      230
REMARK 921   NORMALIZED FREE ENERGY PREDICTED BY IDOCK:   -4.01 KCAL/MOL
REMARK 922        TOTAL FREE ENERGY PREDICTED BY IDOCK:   -8.05 KCAL/MOL
REMARK 923 INTER-LIGAND FREE ENERGY PREDICTED BY IDOCK:   -7.12 KCAL/MOL
REMARK 924 INTRA-LIGAND FREE ENERGY PREDICTED BY IDOCK:   -0.92 KCAL/MOL
REMARK 927      BINDING AFFINITY PREDICTED BY RF-SCORE:    0.00 PKD
ROOT
HETATM    1  C   UNL     1     -12.673  12.742  70.209  1.00  0.00     0.074 C  
HETATM    2  C   UNL     1     -11.248  13.131  69.822  1.00  0.00     0.051 C  
ENDROOT
BRANCH   2   3
HETATM    3  O   UNL     1     -10.474  11.982  69.479  1.00  0.00     0.131 OA 
BRANCH   3   4
HETATM    4  C   UNL     1     -11.251  10.793  69.274  1.00  0.00    -0.272 C  
BRANCH   4   5
HETATM    5  C   UNL     1     -10.301   9.543  69.274  1.00  0.00    -0.208 C  
HETATM    6  C   UNL     1      -9.246   9.565  66.467  1.00  0.00    -0.160 C  
HETATM    7  C   UNL     1     -10.645   9.011  66.783  1.00  0.00    -0.201 C  
HETATM    8  N   UNL     1      -9.270  10.226  65.181  1.00  0.00    -0.188 NA 
HETATM    9  H   UNL     1      -8.250   9.234  69.079  1.00  0.00     0.000 HD 
HETATM   10  C   UNL     1     -10.756   8.501  68.222  1.00  0.00    -0.092 C  
HETATM   11  O   UNL     1      -7.913  10.509  63.352  1.00  0.00    -0.138 OA 
HETATM   12  C   UNL     1      -8.787  10.542  67.581  1.00  0.00    -0.131 C  
HETATM   13  C   UNL     1      -8.217   8.437  66.260  1.00  0.00    -0.111 C  
HETATM   14  C   UNL     1      -8.179   9.943  64.397  1.00  0.00    -0.164 C  
HETATM   15  C   UNL     1      -7.378   8.855  65.051  1.00  0.00    -0.095 C  
HETATM   16  N   UNL     1      -8.919   9.991  68.934  1.00  0.00    -0.143 NA 
BRANCH   5  17
HETATM   17  C   UNL     1     -10.300   8.841  70.660  1.00  0.00    -0.253 A  
HETATM   18  C   UNL     1     -10.271   7.593  73.202  1.00  0.00    -0.401 A  
HETATM   19  C   UNL     1      -9.126   8.217  72.717  1.00  0.00    -0.332 A  
HETATM   20  C   UNL     1      -9.141   8.829  71.459  1.00  0.00    -0.322 A  
HETATM   21  C   UNL     1     -11.431   8.168  71.161  1.00  0.00    -0.304 A  
HETATM   22  C   UNL     1     -11.419   7.561  72.422  1.00  0.00    -0.362 A  
ENDBRANCH   5  17
ENDBRANCH   4   5
ENDBRANCH   3   4
ENDBRANCH   2   3
BRANCH   2  23
HETATM   23  C   UNL     1     -11.293  14.067  68.623  1.00  0.00    -0.307 A  
HETATM   24  F   UNL     1     -10.155  18.052  69.151  1.00  0.00    -0.355 F  
HETATM   25  C   UNL     1     -10.902  15.406  68.776  1.00  0.00    -0.252 A  
HETATM   26  F   UNL     1     -13.713  13.547  65.099  1.00  0.00     0.050 F  
HETATM   27  C   UNL     1     -11.010  16.322  67.717  1.00  0.00    -0.281 A  
HETATM   28  C   UNL     1     -11.513  15.878  66.483  1.00  0.00     0.347 A  
HETATM   29  F   UNL     1     -11.701  13.081  64.417  1.00  0.00    -0.343 F  
HETATM   30  C   UNL     1     -10.617  17.769  67.900  1.00  0.00    -0.382 C  
HETATM   31  F   UNL     1     -12.550  15.046  64.040  1.00  0.00    -0.495 F  
HETATM   32  C   UNL     1     -12.458  14.062  64.979  1.00  0.00    -0.425 C  
HETATM   33  F   UNL     1      -9.634  18.155  67.043  1.00  0.00    -0.263 F  
HETATM   34  F   UNL     1     -11.658  18.619  67.688  1.00  0.00    -0.015 F  
HETATM   35  C   UNL     1     -11.789  13.648  67.377  1.00  0.00    -0.429 A  
HETATM   36  C   UNL     1     -11.904  14.542  66.300  1.00  0.00    -0.354 A  
ENDBRANCH   2  23
TORSDOF 5
ENDMDL
MODEL      231
REMARK 921   NORMALIZED FREE ENERGY PREDICTED BY IDOCK:   -3.98 KCAL/MOL
REMARK 922        TOTAL FREE ENERGY PREDICTED BY IDOCK:   -8.00 KCAL/MOL
REMARK 923 INTER-LIGAND FREE ENERGY PREDICTED BY IDOCK:   -7.45 KCAL/MOL
REMARK 924 INTRA-LIGAND FREE ENERGY PREDICTED BY IDOCK:   -0.55 KCAL/MOL
REMARK 927      BINDING AFFINITY PREDICTED BY RF-SCORE:    0.00 PKD
ROOT
HETATM    1  C   UNL     1     -10.371   7.660  66.916  1.00  0.00    -0.388 C  
HETATM    2  C   UNL     1      -9.529   7.634  68.189  1.00  0.00    -0.145 C  
ENDROOT
BRANCH   2   3
HETATM    3  O   UNL     1     -10.048   8.531  69.171  1.00  0.00    -0.192 OA 
BRANCH   3   4
HETATM    4  C   UNL     1      -9.796   9.916  68.890  1.00  0.00    -0.176 C  
BRANCH   4   5
HETATM    5  C   UNL     1     -11.075  10.759  69.232  1.00  0.00    -0.256 C  
HETATM    6  C   UNL     1     -10.940  12.946  67.184  1.00  0.00    -0.262 C  
HETATM    7  C   UNL     1     -10.073  12.994  68.453  1.00  0.00    -0.225 C  
HETATM    8  N   UNL     1     -10.202  13.508  66.075  1.00  0.00    -0.299 NA 
HETATM    9  H   UNL     1     -12.866  11.201  68.265  1.00  0.00     0.000 HD 
HETATM   10  C   UNL     1     -10.695  12.212  69.612  1.00  0.00     0.321 C  
HETATM   11  O   UNL     1     -10.583  14.792  64.212  1.00  0.00     0.025 OA 
HETATM   12  C   UNL     1     -11.370  11.487  66.878  1.00  0.00    -0.253 C  
HETATM   13  C   UNL     1     -12.165  13.874  67.293  1.00  0.00    -0.324 C  
HETATM   14  C   UNL     1     -10.950  14.340  65.281  1.00  0.00    -0.343 C  
HETATM   15  C   UNL     1     -12.280  14.573  65.937  1.00  0.00    -0.270 C  
HETATM   16  N   UNL     1     -11.959  10.797  68.030  1.00  0.00    -0.446 NA 
BRANCH   5  17
HETATM   17  C   UNL     1     -11.845  10.146  70.433  1.00  0.00    -0.373 A  
HETATM   18  C   UNL     1     -13.289   9.038  72.604  1.00  0.00    -0.391 A  
HETATM   19  C   UNL     1     -13.774  10.162  71.943  1.00  0.00    -0.201 A  
HETATM   20  C   UNL     1     -13.057  10.711  70.874  1.00  0.00    -0.342 A  
HETATM   21  C   UNL     1     -11.361   9.033  71.146  1.00  0.00    -0.375 A  
HETATM   22  C   UNL     1     -12.080   8.479  72.211  1.00  0.00    -0.455 A  
ENDBRANCH   5  17
ENDBRANCH   4   5
ENDBRANCH   3   4
ENDBRANCH   2   3
BRANCH   2  23
HETATM   23  C   UNL     1      -9.532   6.225  68.763  1.00  0.00    -0.124 A  
HETATM   24  F   UNL     1     -10.311   5.726  72.837  1.00  0.00    -0.189 F  
HETATM   25  C   UNL     1      -9.805   6.035  70.126  1.00  0.00    -0.217 A  
HETATM   26  F   UNL     1      -7.516   2.808  67.088  1.00  0.00    -0.061 F  
HETATM   27  C   UNL     1      -9.732   4.761  70.713  1.00  0.00    -0.267 A  
HETATM   28  C   UNL     1      -9.389   3.662  69.909  1.00  0.00    -0.246 A  
HETATM   29  F   UNL     1      -9.615   2.431  66.659  1.00  0.00    -0.069 F  
HETATM   30  C   UNL     1      -9.997   4.570  72.188  1.00  0.00    -0.183 C  
HETATM   31  F   UNL     1      -8.662   1.469  68.359  1.00  0.00    -0.072 F  
HETATM   32  C   UNL     1      -8.735   2.645  67.674  1.00  0.00    -0.114 C  
HETATM   33  F   UNL     1     -11.027   3.715  72.427  1.00  0.00    -0.109 F  
HETATM   34  F   UNL     1      -8.920   4.056  72.843  1.00  0.00    -0.101 F  
HETATM   35  C   UNL     1      -9.194   5.108  67.981  1.00  0.00    -0.132 A  
HETATM   36  C   UNL     1      -9.119   3.822  68.541  1.00  0.00    -0.196 A  
ENDBRANCH   2  23
TORSDOF 5
ENDMDL
MODEL      232
REMARK 921   NORMALIZED FREE ENERGY PREDICTED BY IDOCK:   -3.96 KCAL/MOL
REMARK 922        TOTAL FREE ENERGY PREDICTED BY IDOCK:   -7.98 KCAL/MOL
REMARK 923 INTER-LIGAND FREE ENERGY PREDICTED BY IDOCK:   -6.93 KCAL/MOL
REMARK 924 INTRA-LIGAND FREE ENERGY PREDICTED BY IDOCK:   -1.05 KCAL/MOL
REMARK 927      BINDING AFFINITY PREDICTED BY RF-SCORE:    0.00 PKD
ROOT
HETATM    1  C   UNL     1      -5.910   8.391  69.830  1.00  0.00    -0.025 C  
HETATM    2  C   UNL     1      -6.687   7.096  69.598  1.00  0.00    -0.049 C  
ENDROOT
BRANCH   2   3
HETATM    3  O   UNL     1      -7.573   6.824  70.683  1.00  0.00    -0.091 OA 
BRANCH   3   4
HETATM    4  C   UNL     1      -8.720   6.041  70.320  1.00  0.00    -0.143 C  
BRANCH   4   5
HETATM    5  C   UNL     1      -9.784   6.108  71.472  1.00  0.00    -0.162 C  
HETATM    6  C   UNL     1     -10.894   8.873  71.130  1.00  0.00    -0.281 C  
HETATM    7  C   UNL     1      -9.548   8.642  71.835  1.00  0.00    -0.377 C  
HETATM    8  N   UNL     1     -10.836  10.105  70.375  1.00  0.00    -0.307 NA 
HETATM    9  H   UNL     1     -11.859   6.266  71.572  1.00  0.00     0.000 HD 
HETATM   10  C   UNL     1      -9.454   7.250  72.465  1.00  0.00    -0.180 C  
HETATM   11  O   UNL     1     -12.200  11.866  69.823  1.00  0.00    -0.251 OA 
HETATM   12  C   UNL     1     -11.233   7.675  70.205  1.00  0.00    -0.216 C  
HETATM   13  C   UNL     1     -12.030   9.136  72.137  1.00  0.00    -0.364 C  
HETATM   14  C   UNL     1     -11.965  10.876  70.491  1.00  0.00    -0.371 C  
HETATM   15  C   UNL     1     -12.852  10.284  71.548  1.00  0.00    -0.557 C  
HETATM   16  N   UNL     1     -11.125   6.372  70.871  1.00  0.00    -0.281 NA 
BRANCH   5  17
HETATM   17  C   UNL     1      -9.822   4.781  72.278  1.00  0.00    -0.221 A  
HETATM   18  C   UNL     1      -9.933   2.357  73.739  1.00  0.00    -0.153 A  
HETATM   19  C   UNL     1     -11.007   3.241  73.770  1.00  0.00    -0.310 A  
HETATM   20  C   UNL     1     -10.948   4.440  73.051  1.00  0.00    -0.289 A  
HETATM   21  C   UNL     1      -8.736   3.885  72.298  1.00  0.00    -0.118 A  
HETATM   22  C   UNL     1      -8.796   2.682  73.011  1.00  0.00    -0.084 A  
ENDBRANCH   5  17
ENDBRANCH   4   5
ENDBRANCH   3   4
ENDBRANCH   2   3
BRANCH   2  23
HETATM   23  C   UNL     1      -7.502   7.222  68.320  1.00  0.00    -0.102 A  
HETATM   24  F   UNL     1      -6.920   4.407  65.289  1.00  0.00    -0.052 F  
HETATM   25  C   UNL     1      -7.331   6.280  67.295  1.00  0.00    -0.083 A  
HETATM   26  F   UNL     1      -9.318  10.831  66.827  1.00  0.00    -0.163 F  
HETATM   27  C   UNL     1      -7.999   6.409  66.067  1.00  0.00    -0.115 A  
HETATM   28  C   UNL     1      -8.859   7.502  65.874  1.00  0.00    -0.157 A  
HETATM   29  F   UNL     1     -11.005   9.668  67.559  1.00  0.00    -0.334 F  
HETATM   30  C   UNL     1      -7.785   5.406  64.958  1.00  0.00    -0.087 C  
HETATM   31  F   UNL     1     -10.532   9.682  65.437  1.00  0.00    -0.271 F  
HETATM   32  C   UNL     1      -9.968   9.642  66.678  1.00  0.00    -0.236 C  
HETATM   33  F   UNL     1      -8.939   4.792  64.580  1.00  0.00    -0.145 F  
HETATM   34  F   UNL     1      -7.277   5.980  63.833  1.00  0.00    -0.049 F  
HETATM   35  C   UNL     1      -8.370   8.305  68.102  1.00  0.00    -0.129 A  
HETATM   36  C   UNL     1      -9.055   8.457  66.885  1.00  0.00    -0.179 A  
ENDBRANCH   2  23
TORSDOF 5
ENDMDL
MODEL      233
REMARK 921   NORMALIZED FREE ENERGY PREDICTED BY IDOCK:   -3.96 KCAL/MOL
REMARK 922        TOTAL FREE ENERGY PREDICTED BY IDOCK:   -7.98 KCAL/MOL
REMARK 923 INTER-LIGAND FREE ENERGY PREDICTED BY IDOCK:   -6.94 KCAL/MOL
REMARK 924 INTRA-LIGAND FREE ENERGY PREDICTED BY IDOCK:   -1.03 KCAL/MOL
REMARK 927      BINDING AFFINITY PREDICTED BY RF-SCORE:    0.00 PKD
ROOT
HETATM    1  C   UNL     1      -9.169  10.274  65.851  1.00  0.00    -0.205 C  
HETATM    2  C   UNL     1      -9.218  10.535  67.355  1.00  0.00    -0.142 C  
ENDROOT
BRANCH   2   3
HETATM    3  O   UNL     1      -8.108   9.934  68.020  1.00  0.00    -0.107 OA 
BRANCH   3   4
HETATM    4  C   UNL     1      -8.364   9.587  69.390  1.00  0.00    -0.140 C  
BRANCH   4   5
HETATM    5  C   UNL     1      -8.795   8.080  69.475  1.00  0.00    -0.144 C  
HETATM    6  C   UNL     1     -11.292   8.244  71.128  1.00  0.00    -0.263 C  
HETATM    7  C   UNL     1      -9.903   8.304  71.783  1.00  0.00    -0.284 C  
HETATM    8  N   UNL     1     -12.202   9.108  71.847  1.00  0.00    -0.366 NA 
HETATM    9  H   UNL     1     -10.408   6.955  68.787  1.00  0.00     0.000 HD 
HETATM   10  C   UNL     1      -8.835   7.597  70.946  1.00  0.00    -0.146 C  
HETATM   11  O   UNL     1     -14.403   9.156  72.493  1.00  0.00    -0.529 OA 
HETATM   12  C   UNL     1     -11.204   8.655  69.635  1.00  0.00     0.079 C  
HETATM   13  C   UNL     1     -11.938   6.853  71.283  1.00  0.00    -0.402 C  
HETATM   14  C   UNL     1     -13.439   8.554  72.056  1.00  0.00    -0.381 C  
HETATM   15  C   UNL     1     -13.404   7.112  71.639  1.00  0.00    -0.397 C  
HETATM   16  N   UNL     1     -10.162   7.939  68.891  1.00  0.00    -0.202 NA 
BRANCH   5  17
HETATM   17  C   UNL     1      -7.800   7.168  68.708  1.00  0.00    -0.122 A  
HETATM   18  C   UNL     1      -6.002   5.517  67.270  1.00  0.00    -0.022 A  
HETATM   19  C   UNL     1      -7.312   5.674  66.828  1.00  0.00    -0.083 A  
HETATM   20  C   UNL     1      -8.200   6.486  67.543  1.00  0.00    -0.121 A  
HETATM   21  C   UNL     1      -6.480   6.959  69.150  1.00  0.00    -0.043 A  
HETATM   22  C   UNL     1      -5.589   6.152  68.434  1.00  0.00    -0.012 A  
ENDBRANCH   5  17
ENDBRANCH   4   5
ENDBRANCH   3   4
ENDBRANCH   2   3
BRANCH   2  23
HETATM   23  C   UNL     1      -9.184  12.036  67.605  1.00  0.00    -0.182 A  
HETATM   24  F   UNL     1     -12.582  14.293  66.706  1.00  0.00    -0.460 F  
HETATM   25  C   UNL     1     -10.319  12.810  67.322  1.00  0.00    -0.235 A  
HETATM   26  F   UNL     1      -5.646  14.482  67.813  1.00  0.00    -0.126 F  
HETATM   27  C   UNL     1     -10.300  14.207  67.456  1.00  0.00    -0.248 A  
HETATM   28  C   UNL     1      -9.120  14.832  67.890  1.00  0.00    -0.183 A  
HETATM   29  F   UNL     1      -6.304  14.348  69.882  1.00  0.00    -0.115 F  
HETATM   30  C   UNL     1     -11.518  15.036  67.119  1.00  0.00    -0.297 C  
HETATM   31  F   UNL     1      -6.784  16.108  68.699  1.00  0.00    -0.115 F  
HETATM   32  C   UNL     1      -6.694  14.749  68.642  1.00  0.00    -0.088 C  
HETATM   33  F   UNL     1     -11.960  15.767  68.178  1.00  0.00    -0.314 F  
HETATM   34  F   UNL     1     -11.276  15.927  66.119  1.00  0.00    -0.246 F  
HETATM   35  C   UNL     1      -8.017  12.685  68.040  1.00  0.00    -0.155 A  
HETATM   36  C   UNL     1      -7.971  14.082  68.187  1.00  0.00    -0.149 A  
ENDBRANCH   2  23
TORSDOF 5
ENDMDL
MODEL      234
REMARK 921   NORMALIZED FREE ENERGY PREDICTED BY IDOCK:   -3.95 KCAL/MOL
REMARK 922        TOTAL FREE ENERGY PREDICTED BY IDOCK:   -7.96 KCAL/MOL
REMARK 923 INTER-LIGAND FREE ENERGY PREDICTED BY IDOCK:   -6.70 KCAL/MOL
REMARK 924 INTRA-LIGAND FREE ENERGY PREDICTED BY IDOCK:   -1.26 KCAL/MOL
REMARK 927      BINDING AFFINITY PREDICTED BY RF-SCORE:    0.00 PKD
ROOT
HETATM    1  C   UNL     1      -6.950  10.530  65.961  1.00  0.00    -0.134 C  
HETATM    2  C   UNL     1      -7.190  10.787  67.448  1.00  0.00    -0.093 C  
ENDROOT
BRANCH   2   3
HETATM    3  O   UNL     1      -8.074  11.891  67.644  1.00  0.00    -0.131 OA 
BRANCH   3   4
HETATM    4  C   UNL     1      -8.951  12.143  66.536  1.00  0.00    -0.179 C  
BRANCH   4   5
HETATM    5  C   UNL     1     -10.234  12.889  67.046  1.00  0.00    -0.243 C  
HETATM    6  C   UNL     1     -11.280  10.982  69.111  1.00  0.00    -0.255 C  
HETATM    7  C   UNL     1     -11.522  10.738  67.613  1.00  0.00    -0.234 C  
HETATM    8  N   UNL     1     -11.090   9.715  69.781  1.00  0.00    -0.236 NA 
HETATM    9  H   UNL     1     -10.837  13.749  68.845  1.00  0.00     0.000 HD 
HETATM   10  C   UNL     1     -11.504  12.037  66.803  1.00  0.00    -0.410 C  
HETATM   11  O   UNL     1     -11.601   8.717  71.783  1.00  0.00    -0.299 OA 
HETATM   12  C   UNL     1     -10.050  11.905  69.317  1.00  0.00     0.303 C  
HETATM   13  C   UNL     1     -12.528  11.559  69.806  1.00  0.00    -0.122 C  
HETATM   14  C   UNL     1     -11.748   9.622  70.981  1.00  0.00    -0.353 C  
HETATM   15  C   UNL     1     -12.644  10.816  71.139  1.00  0.00    -0.532 C  
HETATM   16  N   UNL     1     -10.097  13.131  68.513  1.00  0.00    -0.229 NA 
BRANCH   5  17
HETATM   17  C   UNL     1     -10.427  14.241  66.306  1.00  0.00    -0.291 A  
HETATM   18  C   UNL     1     -10.740  16.720  64.973  1.00  0.00    -0.118 A  
HETATM   19  C   UNL     1     -10.128  16.671  66.221  1.00  0.00    -0.342 A  
HETATM   20  C   UNL     1      -9.979  15.445  66.880  1.00  0.00    -0.247 A  
HETATM   21  C   UNL     1     -11.076  14.329  65.060  1.00  0.00    -0.377 A  
HETATM   22  C   UNL     1     -11.221  15.552  64.397  1.00  0.00    -0.232 A  
ENDBRANCH   5  17
ENDBRANCH   4   5
ENDBRANCH   3   4
ENDBRANCH   2   3
BRANCH   2  23
HETATM   23  C   UNL     1      -7.808   9.547  68.077  1.00  0.00    -0.087 A  
HETATM   24  F   UNL     1      -6.830   8.611  72.029  1.00  0.00    -0.080 F  
HETATM   25  C   UNL     1      -7.503   9.222  69.407  1.00  0.00    -0.078 A  
HETATM   26  F   UNL     1      -9.333   6.127  65.951  1.00  0.00    -0.176 F  
HETATM   27  C   UNL     1      -7.982   8.042  69.997  1.00  0.00    -0.106 A  
HETATM   28  C   UNL     1      -8.789   7.181  69.236  1.00  0.00    -0.136 A  
HETATM   29  F   UNL     1     -11.126   7.140  66.654  1.00  0.00    -0.400 F  
HETATM   30  C   UNL     1      -7.623   7.685  71.421  1.00  0.00    -0.080 C  
HETATM   31  F   UNL     1     -10.347   5.427  67.742  1.00  0.00    -0.194 F  
HETATM   32  C   UNL     1      -9.972   6.556  67.076  1.00  0.00    -0.166 C  
HETATM   33  F   UNL     1      -8.718   7.549  72.217  1.00  0.00    -0.121 F  
HETATM   34  F   UNL     1      -6.948   6.506  71.503  1.00  0.00    -0.065 F  
HETATM   35  C   UNL     1      -8.619   8.670  67.338  1.00  0.00    -0.134 A  
HETATM   36  C   UNL     1      -9.116   7.485  67.905  1.00  0.00    -0.130 A  
ENDBRANCH   2  23
TORSDOF 5
ENDMDL
MODEL      235
REMARK 921   NORMALIZED FREE ENERGY PREDICTED BY IDOCK:   -3.93 KCAL/MOL
REMARK 922        TOTAL FREE ENERGY PREDICTED BY IDOCK:   -7.94 KCAL/MOL
REMARK 923 INTER-LIGAND FREE ENERGY PREDICTED BY IDOCK:   -5.56 KCAL/MOL
REMARK 924 INTRA-LIGAND FREE ENERGY PREDICTED BY IDOCK:   -2.38 KCAL/MOL
REMARK 927      BINDING AFFINITY PREDICTED BY RF-SCORE:    0.00 PKD
ROOT
HETATM    1  C   UNL     1     -10.093   9.968  66.178  1.00  0.00    -0.317 C  
HETATM    2  C   UNL     1     -10.562   8.861  67.120  1.00  0.00    -0.231 C  
ENDROOT
BRANCH   2   3
HETATM    3  O   UNL     1     -10.193   7.573  66.626  1.00  0.00    -0.250 OA 
BRANCH   3   4
HETATM    4  C   UNL     1      -8.781   7.403  66.430  1.00  0.00    -0.142 C  
BRANCH   4   5
HETATM    5  C   UNL     1      -8.330   6.031  67.045  1.00  0.00    -0.105 C  
HETATM    6  C   UNL     1      -9.623   4.065  65.186  1.00  0.00    -0.181 C  
HETATM    7  C   UNL     1     -10.432   4.758  66.294  1.00  0.00    -0.311 C  
HETATM    8  N   UNL     1     -10.458   3.886  64.019  1.00  0.00    -0.239 NA 
HETATM    9  H   UNL     1      -7.124   4.450  66.424  1.00  0.00     0.000 HD 
HETATM   10  C   UNL     1      -9.555   5.186  67.472  1.00  0.00    -0.159 C  
HETATM   11  O   UNL     1     -10.804   2.346  62.353  1.00  0.00    -0.135 OA 
HETATM   12  C   UNL     1      -8.360   4.897  64.838  1.00  0.00    -0.138 C  
HETATM   13  C   UNL     1      -9.247   2.620  65.569  1.00  0.00    -0.099 C  
HETATM   14  C   UNL     1     -10.323   2.655  63.429  1.00  0.00    -0.183 C  
HETATM   15  C   UNL     1      -9.479   1.781  64.311  1.00  0.00    -0.134 C  
HETATM   16  N   UNL     1      -7.565   5.272  66.012  1.00  0.00    -0.086 NA 
BRANCH   5  17
HETATM   17  C   UNL     1      -7.445   6.246  68.303  1.00  0.00    -0.090 A  
HETATM   18  C   UNL     1      -5.851   6.604  70.617  1.00  0.00    -0.024 A  
HETATM   19  C   UNL     1      -7.186   6.230  70.739  1.00  0.00    -0.074 A  
HETATM   20  C   UNL     1      -7.973   6.059  69.594  1.00  0.00    -0.106 A  
HETATM   21  C   UNL     1      -6.102   6.661  68.214  1.00  0.00    -0.029 A  
HETATM   22  C   UNL     1      -5.313   6.826  69.357  1.00  0.00    -0.014 A  
ENDBRANCH   5  17
ENDBRANCH   4   5
ENDBRANCH   3   4
ENDBRANCH   2   3
BRANCH   2  23
HETATM   23  C   UNL     1      -9.924   9.062  68.486  1.00  0.00    -0.193 A  
HETATM   24  F   UNL     1      -6.148  10.838  68.690  1.00  0.00    -0.041 F  
HETATM   25  C   UNL     1      -8.662   9.669  68.577  1.00  0.00    -0.120 A  
HETATM   26  F   UNL     1     -10.839   6.833  72.056  1.00  0.00    -0.227 F  
HETATM   27  C   UNL     1      -8.001   9.794  69.810  1.00  0.00    -0.169 A  
HETATM   28  C   UNL     1      -8.627   9.308  70.969  1.00  0.00    -0.166 A  
HETATM   29  F   UNL     1     -11.752   8.776  72.411  1.00  0.00    -0.417 F  
HETATM   30  C   UNL     1      -6.629  10.421  69.894  1.00  0.00    -0.124 C  
HETATM   31  F   UNL     1      -9.814   8.310  73.278  1.00  0.00    -0.341 F  
HETATM   32  C   UNL     1     -10.565   8.165  72.150  1.00  0.00    -0.290 C  
HETATM   33  F   UNL     1      -6.603  11.512  70.706  1.00  0.00     0.084 F  
HETATM   34  F   UNL     1      -5.697   9.560  70.388  1.00  0.00    -0.035 F  
HETATM   35  C   UNL     1     -10.529   8.586  69.661  1.00  0.00    -0.221 A  
HETATM   36  C   UNL     1      -9.892   8.703  70.908  1.00  0.00    -0.256 A  
ENDBRANCH   2  23
TORSDOF 5
ENDMDL
MODEL      236
REMARK 921   NORMALIZED FREE ENERGY PREDICTED BY IDOCK:   -3.91 KCAL/MOL
REMARK 922        TOTAL FREE ENERGY PREDICTED BY IDOCK:   -7.92 KCAL/MOL
REMARK 923 INTER-LIGAND FREE ENERGY PREDICTED BY IDOCK:   -6.22 KCAL/MOL
REMARK 924 INTRA-LIGAND FREE ENERGY PREDICTED BY IDOCK:   -1.70 KCAL/MOL
REMARK 927      BINDING AFFINITY PREDICTED BY RF-SCORE:    0.00 PKD
ROOT
HETATM    1  C   UNL     1     -10.328   5.272  67.288  1.00  0.00    -0.254 C  
HETATM    2  C   UNL     1     -10.091   6.719  66.857  1.00  0.00    -0.202 C  
ENDROOT
BRANCH   2   3
HETATM    3  O   UNL     1      -9.846   7.559  67.984  1.00  0.00    -0.143 OA 
BRANCH   3   4
HETATM    4  C   UNL     1     -10.782   8.639  68.125  1.00  0.00    -0.058 C  
BRANCH   4   5
HETATM    5  C   UNL     1     -10.172   9.740  69.062  1.00  0.00    -0.203 C  
HETATM    6  C   UNL     1      -9.973  12.090  67.208  1.00  0.00    -0.194 C  
HETATM    7  C   UNL     1      -8.928  10.963  67.175  1.00  0.00    -0.141 C  
HETATM    8  N   UNL     1     -10.194  12.582  65.867  1.00  0.00    -0.256 NA 
HETATM    9  H   UNL     1     -10.826  11.559  69.838  1.00  0.00     0.000 HD 
HETATM   10  C   UNL     1      -8.810  10.239  68.518  1.00  0.00    -0.127 C  
HETATM   11  O   UNL     1     -10.606  14.570  64.796  1.00  0.00    -0.425 OA 
HETATM   12  C   UNL     1     -11.298  11.579  67.833  1.00  0.00    -0.303 C  
HETATM   13  C   UNL     1      -9.451  13.333  67.955  1.00  0.00    -0.214 C  
HETATM   14  C   UNL     1     -10.269  13.950  65.789  1.00  0.00    -0.318 C  
HETATM   15  C   UNL     1      -9.892  14.536  67.118  1.00  0.00    -0.245 C  
HETATM   16  N   UNL     1     -11.115  10.896  69.119  1.00  0.00    -0.224 NA 
BRANCH   5  17
HETATM   17  C   UNL     1      -9.932   9.187  70.493  1.00  0.00    -0.288 A  
HETATM   18  C   UNL     1      -9.459   8.205  73.107  1.00  0.00    -0.316 A  
HETATM   19  C   UNL     1      -8.390   8.548  72.286  1.00  0.00    -0.184 A  
HETATM   20  C   UNL     1      -8.625   9.028  70.993  1.00  0.00    -0.264 A  
HETATM   21  C   UNL     1     -10.991   8.795  71.334  1.00  0.00    -0.360 A  
HETATM   22  C   UNL     1     -10.757   8.320  72.629  1.00  0.00    -0.384 A  
ENDBRANCH   5  17
ENDBRANCH   4   5
ENDBRANCH   3   4
ENDBRANCH   2   3
BRANCH   2  23
HETATM   23  C   UNL     1      -8.884   6.775  65.933  1.00  0.00    -0.127 A  
HETATM   24  F   UNL     1      -7.963  10.395  64.062  1.00  0.00    -0.154 F  
HETATM   25  C   UNL     1      -8.549   7.984  65.305  1.00  0.00    -0.112 A  
HETATM   26  F   UNL     1      -7.097   3.423  63.903  1.00  0.00    -0.045 F  
HETATM   27  C   UNL     1      -7.497   8.058  64.379  1.00  0.00    -0.104 A  
HETATM   28  C   UNL     1      -6.765   6.895  64.088  1.00  0.00    -0.045 A  
HETATM   29  F   UNL     1      -5.671   3.894  65.477  1.00  0.00    -0.018 F  
HETATM   30  C   UNL     1      -7.164   9.357  63.685  1.00  0.00    -0.101 C  
HETATM   31  F   UNL     1      -5.327   4.601  63.450  1.00  0.00    -0.009 F  
HETATM   32  C   UNL     1      -6.299   4.415  64.388  1.00  0.00    -0.034 C  
HETATM   33  F   UNL     1      -5.887   9.763  63.921  1.00  0.00    -0.085 F  
HETATM   34  F   UNL     1      -7.288   9.267  62.332  1.00  0.00    -0.106 F  
HETATM   35  C   UNL     1      -8.135   5.627  65.626  1.00  0.00    -0.120 A  
HETATM   36  C   UNL     1      -7.073   5.673  64.707  1.00  0.00    -0.060 A  
ENDBRANCH   2  23
TORSDOF 5
ENDMDL
MODEL      237
REMARK 921   NORMALIZED FREE ENERGY PREDICTED BY IDOCK:   -3.91 KCAL/MOL
REMARK 922        TOTAL FREE ENERGY PREDICTED BY IDOCK:   -7.91 KCAL/MOL
REMARK 923 INTER-LIGAND FREE ENERGY PREDICTED BY IDOCK:   -7.32 KCAL/MOL
REMARK 924 INTRA-LIGAND FREE ENERGY PREDICTED BY IDOCK:   -0.59 KCAL/MOL
REMARK 927      BINDING AFFINITY PREDICTED BY RF-SCORE:    0.00 PKD
ROOT
HETATM    1  C   UNL     1      -9.079  10.289  69.162  1.00  0.00    -0.199 C  
HETATM    2  C   UNL     1      -9.770  10.180  67.804  1.00  0.00    -0.153 C  
ENDROOT
BRANCH   2   3
HETATM    3  O   UNL     1      -9.580  11.366  67.032  1.00  0.00    -0.174 OA 
BRANCH   3   4
HETATM    4  C   UNL     1      -9.693  12.581  67.787  1.00  0.00    -0.202 C  
BRANCH   4   5
HETATM    5  C   UNL     1     -11.092  13.238  67.514  1.00  0.00    -0.270 C  
HETATM    6  C   UNL     1     -11.913  14.110  70.264  1.00  0.00    -0.334 C  
HETATM    7  C   UNL     1     -12.060  12.645  69.820  1.00  0.00    -0.301 C  
HETATM    8  N   UNL     1     -11.559  14.155  71.665  1.00  0.00     0.356 NA 
HETATM    9  H   UNL     1     -11.884  15.160  67.652  1.00  0.00     0.000 HD 
HETATM   10  C   UNL     1     -12.209  12.510  68.303  1.00  0.00     0.089 C  
HETATM   11  O   UNL     1     -11.988  15.434  73.522  1.00  0.00    -0.458 OA 
HETATM   12  C   UNL     1     -10.845  14.831  69.401  1.00  0.00    -0.255 C  
HETATM   13  C   UNL     1     -13.259  14.859  70.222  1.00  0.00     0.005 C  
HETATM   14  C   UNL     1     -12.239  15.112  72.375  1.00  0.00    -0.374 C  
HETATM   15  C   UNL     1     -13.311  15.697  71.501  1.00  0.00    -0.535 C  
HETATM   16  N   UNL     1     -11.047  14.663  67.958  1.00  0.00    -0.270 NA 
BRANCH   5  17
HETATM   17  C   UNL     1     -11.459  13.167  66.007  1.00  0.00    -0.370 A  
HETATM   18  C   UNL     1     -12.113  13.080  63.253  1.00  0.00    -0.499 A  
HETATM   19  C   UNL     1     -12.212  14.276  63.956  1.00  0.00    -0.336 A  
HETATM   20  C   UNL     1     -11.894  14.316  65.318  1.00  0.00    -0.374 A  
HETATM   21  C   UNL     1     -11.406  11.965  65.277  1.00  0.00    -0.333 A  
HETATM   22  C   UNL     1     -11.718  11.924  63.914  1.00  0.00    -0.509 A  
ENDBRANCH   5  17
ENDBRANCH   4   5
ENDBRANCH   3   4
ENDBRANCH   2   3
BRANCH   2  23
HETATM   23  C   UNL     1      -9.190   9.000  67.040  1.00  0.00    -0.169 A  
HETATM   24  F   UNL     1      -7.274   9.721  63.398  1.00  0.00    -0.106 F  
HETATM   25  C   UNL     1      -8.530   9.222  65.821  1.00  0.00    -0.144 A  
HETATM   26  F   UNL     1     -10.429   4.893  67.411  1.00  0.00    -0.214 F  
HETATM   27  C   UNL     1      -8.058   8.154  65.043  1.00  0.00    -0.155 A  
HETATM   28  C   UNL     1      -8.245   6.841  65.506  1.00  0.00    -0.131 A  
HETATM   29  F   UNL     1      -8.500   4.943  68.415  1.00  0.00    -0.094 F  
HETATM   30  C   UNL     1      -7.377   8.401  63.717  1.00  0.00    -0.106 C  
HETATM   31  F   UNL     1      -8.643   4.226  66.368  1.00  0.00    -0.111 F  
HETATM   32  C   UNL     1      -9.111   5.180  67.222  1.00  0.00    -0.113 C  
HETATM   33  F   UNL     1      -6.110   7.907  63.681  1.00  0.00    -0.058 F  
HETATM   34  F   UNL     1      -8.039   7.819  62.680  1.00  0.00    -0.135 F  
HETATM   35  C   UNL     1      -9.361   7.678  67.482  1.00  0.00    -0.159 A  
HETATM   36  C   UNL     1      -8.894   6.590  66.725  1.00  0.00    -0.130 A  
ENDBRANCH   2  23
TORSDOF 5
ENDMDL
MODEL      238
REMARK 921   NORMALIZED FREE ENERGY PREDICTED BY IDOCK:   -3.90 KCAL/MOL
REMARK 922        TOTAL FREE ENERGY PREDICTED BY IDOCK:   -7.91 KCAL/MOL
REMARK 923 INTER-LIGAND FREE ENERGY PREDICTED BY IDOCK:   -6.67 KCAL/MOL
REMARK 924 INTRA-LIGAND FREE ENERGY PREDICTED BY IDOCK:   -1.24 KCAL/MOL
REMARK 927      BINDING AFFINITY PREDICTED BY RF-SCORE:    0.00 PKD
ROOT
HETATM    1  C   UNL     1      -7.033  10.336  65.603  1.00  0.00    -0.133 C  
HETATM    2  C   UNL     1      -7.106  10.616  67.102  1.00  0.00    -0.093 C  
ENDROOT
BRANCH   2   3
HETATM    3  O   UNL     1      -8.124  11.573  67.399  1.00  0.00    -0.133 OA 
BRANCH   3   4
HETATM    4  C   UNL     1      -9.045  11.801  66.322  1.00  0.00    -0.206 C  
BRANCH   4   5
HETATM    5  C   UNL     1     -10.353  12.462  66.885  1.00  0.00    -0.224 C  
HETATM    6  C   UNL     1     -11.017  10.657  69.187  1.00  0.00    -0.247 C  
HETATM    7  C   UNL     1     -11.356  10.256  67.742  1.00  0.00    -0.137 C  
HETATM    8  N   UNL     1     -10.640   9.480  69.937  1.00  0.00    -0.225 NA 
HETATM    9  H   UNL     1     -10.890  13.419  68.656  1.00  0.00     0.000 HD 
HETATM   10  C   UNL     1     -11.542  11.471  66.830  1.00  0.00    -0.166 C  
HETATM   11  O   UNL     1     -10.875   8.622  72.052  1.00  0.00    -0.314 OA 
HETATM   12  C   UNL     1      -9.878  11.710  69.202  1.00  0.00     0.169 C  
HETATM   13  C   UNL     1     -12.257  11.170  69.944  1.00  0.00    -0.385 C  
HETATM   14  C   UNL     1     -11.182   9.432  71.196  1.00  0.00    -0.357 C  
HETATM   15  C   UNL     1     -12.182  10.543  71.338  1.00  0.00    -0.429 C  
HETATM   16  N   UNL     1     -10.120  12.848  68.309  1.00  0.00    -0.239 NA 
BRANCH   5  17
HETATM   17  C   UNL     1     -10.747  13.716  66.059  1.00  0.00    -0.280 A  
HETATM   18  C   UNL     1     -11.424  16.015  64.550  1.00  0.00    -0.274 A  
HETATM   19  C   UNL     1     -10.389  16.069  65.478  1.00  0.00    -0.415 A  
HETATM   20  C   UNL     1     -10.059  14.933  66.226  1.00  0.00    -0.298 A  
HETATM   21  C   UNL     1     -11.814  13.705  65.140  1.00  0.00    -0.364 A  
HETATM   22  C   UNL     1     -12.140  14.838  64.387  1.00  0.00    -0.457 A  
ENDBRANCH   5  17
ENDBRANCH   4   5
ENDBRANCH   3   4
ENDBRANCH   2   3
BRANCH   2  23
HETATM   23  C   UNL     1      -7.421   9.323  67.839  1.00  0.00    -0.084 A  
HETATM   24  F   UNL     1      -9.301   6.234  65.746  1.00  0.00    -0.155 F  
HETATM   25  C   UNL     1      -8.040   8.268  67.151  1.00  0.00    -0.108 A  
HETATM   26  F   UNL     1      -7.892   8.890  72.098  1.00  0.00    -0.140 F  
HETATM   27  C   UNL     1      -8.425   7.093  67.814  1.00  0.00    -0.120 A  
HETATM   28  C   UNL     1      -8.173   6.975  69.191  1.00  0.00    -0.122 A  
HETATM   29  F   UNL     1      -5.964   7.966  71.694  1.00  0.00    -0.035 F  
HETATM   30  C   UNL     1      -9.119   5.975  67.072  1.00  0.00    -0.117 C  
HETATM   31  F   UNL     1      -7.737   6.729  71.927  1.00  0.00    -0.091 F  
HETATM   32  C   UNL     1      -7.288   7.897  71.386  1.00  0.00    -0.066 C  
HETATM   33  F   UNL     1      -8.432   4.802  67.132  1.00  0.00    -0.106 F  
HETATM   34  F   UNL     1     -10.358   5.714  67.572  1.00  0.00    -0.165 F  
HETATM   35  C   UNL     1      -7.178   9.179  69.215  1.00  0.00    -0.065 A  
HETATM   36  C   UNL     1      -7.548   8.011  69.903  1.00  0.00    -0.087 A  
ENDBRANCH   2  23
TORSDOF 5
ENDMDL
MODEL      239
REMARK 921   NORMALIZED FREE ENERGY PREDICTED BY IDOCK:   -3.89 KCAL/MOL
REMARK 922        TOTAL FREE ENERGY PREDICTED BY IDOCK:   -7.90 KCAL/MOL
REMARK 923 INTER-LIGAND FREE ENERGY PREDICTED BY IDOCK:   -6.33 KCAL/MOL
REMARK 924 INTRA-LIGAND FREE ENERGY PREDICTED BY IDOCK:   -1.56 KCAL/MOL
REMARK 927      BINDING AFFINITY PREDICTED BY RF-SCORE:    0.00 PKD
ROOT
HETATM    1  C   UNL     1      -9.623   9.489  64.879  1.00  0.00    -0.158 C  
HETATM    2  C   UNL     1      -8.261   9.343  65.555  1.00  0.00    -0.126 C  
ENDROOT
BRANCH   2   3
HETATM    3  O   UNL     1      -8.086  10.321  66.579  1.00  0.00    -0.116 OA 
BRANCH   3   4
HETATM    4  C   UNL     1      -8.942  11.466  66.448  1.00  0.00    -0.191 C  
BRANCH   4   5
HETATM    5  C   UNL     1      -9.166  12.115  67.860  1.00  0.00    -0.188 C  
HETATM    6  C   UNL     1      -8.882  15.038  67.251  1.00  0.00    -0.201 C  
HETATM    7  C   UNL     1      -7.646  14.138  67.411  1.00  0.00    -0.179 C  
HETATM    8  N   UNL     1      -8.626  16.033  66.234  1.00  0.00    -0.331 NA 
HETATM    9  H   UNL     1     -10.604  13.358  68.713  1.00  0.00     0.000 HD 
HETATM   10  C   UNL     1      -7.922  12.925  68.302  1.00  0.00    -0.151 C  
HETATM   11  O   UNL     1      -9.095  18.238  65.807  1.00  0.00    -0.443 OA 
HETATM   12  C   UNL     1     -10.127  14.186  66.888  1.00  0.00    -0.258 C  
HETATM   13  C   UNL     1      -9.140  15.887  68.511  1.00  0.00    -0.200 C  
HETATM   14  C   UNL     1      -9.062  17.289  66.570  1.00  0.00    -0.265 C  
HETATM   15  C   UNL     1      -9.503  17.284  68.004  1.00  0.00    -0.271 C  
HETATM   16  N   UNL     1     -10.334  13.041  67.781  1.00  0.00    -0.222 NA 
BRANCH   5  17
HETATM   17  C   UNL     1      -9.428  11.029  68.939  1.00  0.00    -0.166 A  
HETATM   18  C   UNL     1      -9.940   9.036  70.885  1.00  0.00    -0.326 A  
HETATM   19  C   UNL     1     -10.997   9.664  70.234  1.00  0.00    -0.337 A  
HETATM   20  C   UNL     1     -10.742  10.652  69.276  1.00  0.00    -0.275 A  
HETATM   21  C   UNL     1      -8.382  10.404  69.644  1.00  0.00    -0.085 A  
HETATM   22  C   UNL     1      -8.635   9.411  70.597  1.00  0.00    -0.247 A  
ENDBRANCH   5  17
ENDBRANCH   4   5
ENDBRANCH   3   4
ENDBRANCH   2   3
BRANCH   2  23
HETATM   23  C   UNL     1      -8.156   7.959  66.176  1.00  0.00    -0.109 A  
HETATM   24  F   UNL     1      -5.414   5.247  64.571  1.00  0.00    -0.014 F  
HETATM   25  C   UNL     1      -7.232   7.038  65.661  1.00  0.00    -0.073 A  
HETATM   26  F   UNL     1     -11.221   5.974  68.459  1.00  0.00    -0.367 F  
HETATM   27  C   UNL     1      -7.164   5.723  66.148  1.00  0.00    -0.076 A  
HETATM   28  C   UNL     1      -8.036   5.335  67.178  1.00  0.00    -0.101 A  
HETATM   29  F   UNL     1      -9.751   6.547  69.956  1.00  0.00    -0.162 F  
HETATM   30  C   UNL     1      -6.187   4.729  65.566  1.00  0.00    -0.034 C  
HETATM   31  F   UNL     1      -9.782   4.516  69.183  1.00  0.00    -0.205 F  
HETATM   32  C   UNL     1      -9.915   5.822  68.817  1.00  0.00    -0.159 C  
HETATM   33  F   UNL     1      -5.323   4.240  66.495  1.00  0.00    -0.010 F  
HETATM   34  F   UNL     1      -6.812   3.647  65.025  1.00  0.00    -0.044 F  
HETATM   35  C   UNL     1      -9.014   7.546  67.208  1.00  0.00    -0.130 A  
HETATM   36  C   UNL     1      -8.965   6.238  67.718  1.00  0.00    -0.112 A  
ENDBRANCH   2  23
TORSDOF 5
ENDMDL
MODEL      240
REMARK 921   NORMALIZED FREE ENERGY PREDICTED BY IDOCK:   -3.88 KCAL/MOL
REMARK 922        TOTAL FREE ENERGY PREDICTED BY IDOCK:   -7.87 KCAL/MOL
REMARK 923 INTER-LIGAND FREE ENERGY PREDICTED BY IDOCK:   -6.56 KCAL/MOL
REMARK 924 INTRA-LIGAND FREE ENERGY PREDICTED BY IDOCK:   -1.31 KCAL/MOL
REMARK 927      BINDING AFFINITY PREDICTED BY RF-SCORE:    0.00 PKD
ROOT
HETATM    1  C   UNL     1      -9.713   9.483  65.264  1.00  0.00    -0.268 C  
HETATM    2  C   UNL     1      -9.585   9.515  66.786  1.00  0.00    -0.176 C  
ENDROOT
BRANCH   2   3
HETATM    3  O   UNL     1      -8.255   9.843  67.186  1.00  0.00    -0.119 OA 
BRANCH   3   4
HETATM    4  C   UNL     1      -7.562   8.773  67.846  1.00  0.00    -0.097 C  
BRANCH   4   5
HETATM    5  C   UNL     1      -6.965   9.295  69.201  1.00  0.00    -0.058 C  
HETATM    6  C   UNL     1      -7.580   7.026  71.063  1.00  0.00    -0.086 C  
HETATM    7  C   UNL     1      -8.661   8.049  70.677  1.00  0.00    -0.130 C  
HETATM    8  N   UNL     1      -8.183   5.720  71.206  1.00  0.00    -0.121 NA 
HETATM    9  H   UNL     1      -5.411   8.716  70.461  1.00  0.00     0.000 HD 
HETATM   10  C   UNL     1      -8.065   9.403  70.286  1.00  0.00    -0.180 C  
HETATM   11  O   UNL     1      -7.986   3.853  72.527  1.00  0.00    -0.078 OA 
HETATM   12  C   UNL     1      -6.454   7.001  69.997  1.00  0.00    -0.036 C  
HETATM   13  C   UNL     1      -7.009   7.301  72.468  1.00  0.00    -0.067 C  
HETATM   14  C   UNL     1      -7.738   5.024  72.302  1.00  0.00    -0.096 C  
HETATM   15  C   UNL     1      -6.891   5.933  73.144  1.00  0.00    -0.079 C  
HETATM   16  N   UNL     1      -5.927   8.330  69.670  1.00  0.00    -0.029 NA 
BRANCH   5  17
HETATM   17  C   UNL     1      -6.334  10.703  69.029  1.00  0.00    -0.046 A  
HETATM   18  C   UNL     1      -5.202  13.275  68.675  1.00  0.00    -0.070 A  
HETATM   19  C   UNL     1      -5.326  12.412  67.591  1.00  0.00    -0.103 A  
HETATM   20  C   UNL     1      -5.881  11.140  67.770  1.00  0.00    -0.047 A  
HETATM   21  C   UNL     1      -6.160  11.585  70.113  1.00  0.00    -0.156 A  
HETATM   22  C   UNL     1      -5.611  12.860  69.935  1.00  0.00    -0.112 A  
ENDBRANCH   5  17
ENDBRANCH   4   5
ENDBRANCH   3   4
ENDBRANCH   2   3
BRANCH   2  23
HETATM   23  C   UNL     1     -10.537  10.561  67.346  1.00  0.00    -0.313 A  
HETATM   24  F   UNL     1     -11.209  14.042  65.136  1.00  0.00    -0.299 F  
HETATM   25  C   UNL     1     -10.786  11.731  66.613  1.00  0.00    -0.318 A  
HETATM   26  F   UNL     1     -11.570  11.075  71.495  1.00  0.00    -0.100 F  
HETATM   27  C   UNL     1     -11.588  12.760  67.133  1.00  0.00    -0.426 A  
HETATM   28  C   UNL     1     -12.154  12.601  68.409  1.00  0.00    -0.135 A  
HETATM   29  F   UNL     1     -13.358  10.197  70.622  1.00  0.00    -0.424 F  
HETATM   30  C   UNL     1     -11.826  14.029  66.350  1.00  0.00    -0.418 C  
HETATM   31  F   UNL     1     -13.250  12.342  70.952  1.00  0.00    -0.195 F  
HETATM   32  C   UNL     1     -12.522  11.267  70.539  1.00  0.00    -0.310 C  
HETATM   33  F   UNL     1     -13.146  14.249  66.101  1.00  0.00    -0.427 F  
HETATM   34  F   UNL     1     -11.377  15.133  67.007  1.00  0.00    -0.330 F  
HETATM   35  C   UNL     1     -11.117  10.426  68.618  1.00  0.00    -0.313 A  
HETATM   36  C   UNL     1     -11.928  11.437  69.161  1.00  0.00    -0.395 A  
ENDBRANCH   2  23
TORSDOF 5
ENDMDL
MODEL      241
REMARK 921   NORMALIZED FREE ENERGY PREDICTED BY IDOCK:   -3.85 KCAL/MOL
REMARK 922        TOTAL FREE ENERGY PREDICTED BY IDOCK:   -7.84 KCAL/MOL
REMARK 923 INTER-LIGAND FREE ENERGY PREDICTED BY IDOCK:   -6.89 KCAL/MOL
REMARK 924 INTRA-LIGAND FREE ENERGY PREDICTED BY IDOCK:   -0.95 KCAL/MOL
REMARK 927      BINDING AFFINITY PREDICTED BY RF-SCORE:    0.00 PKD
ROOT
HETATM    1  C   UNL     1      -8.134  11.097  67.589  1.00  0.00    -0.117 C  
HETATM    2  C   UNL     1      -9.457  10.335  67.635  1.00  0.00    -0.151 C  
ENDROOT
BRANCH   2   3
HETATM    3  O   UNL     1      -9.270   9.005  68.116  1.00  0.00    -0.136 OA 
BRANCH   3   4
HETATM    4  C   UNL     1      -7.911   8.546  68.055  1.00  0.00    -0.103 C  
BRANCH   4   5
HETATM    5  C   UNL     1      -7.886   7.046  67.594  1.00  0.00    -0.113 C  
HETATM    6  C   UNL     1      -8.690   5.613  70.102  1.00  0.00    -0.137 C  
HETATM    7  C   UNL     1      -7.253   6.120  69.906  1.00  0.00    -0.074 C  
HETATM    8  N   UNL     1      -9.062   5.745  71.494  1.00  0.00    -0.140 NA 
HETATM    9  H   UNL     1      -9.306   5.541  67.356  1.00  0.00     0.000 HD 
HETATM   10  C   UNL     1      -6.871   6.226  68.428  1.00  0.00    -0.071 C  
HETATM   11  O   UNL     1     -10.278   4.615  73.078  1.00  0.00    -0.155 OA 
HETATM   12  C   UNL     1      -9.670   6.400  69.193  1.00  0.00    -0.136 C  
HETATM   13  C   UNL     1      -8.801   4.096  69.855  1.00  0.00    -0.134 C  
HETATM   14  C   UNL     1      -9.734   4.656  71.989  1.00  0.00    -0.168 C  
HETATM   15  C   UNL     1      -9.702   3.557  70.968  1.00  0.00    -0.225 C  
HETATM   16  N   UNL     1      -9.246   6.462  67.790  1.00  0.00    -0.114 NA 
BRANCH   5  17
HETATM   17  C   UNL     1      -7.473   6.926  66.101  1.00  0.00    -0.080 A  
HETATM   18  C   UNL     1      -6.728   6.750  63.374  1.00  0.00    -0.043 A  
HETATM   19  C   UNL     1      -7.739   7.622  63.767  1.00  0.00    -0.126 A  
HETATM   20  C   UNL     1      -8.109   7.703  65.115  1.00  0.00    -0.134 A  
HETATM   21  C   UNL     1      -6.481   6.026  65.667  1.00  0.00    -0.043 A  
HETATM   22  C   UNL     1      -6.106   5.948  64.321  1.00  0.00    -0.025 A  
ENDBRANCH   5  17
ENDBRANCH   4   5
ENDBRANCH   3   4
ENDBRANCH   2   3
BRANCH   2  23
HETATM   23  C   UNL     1     -10.420  11.060  68.562  1.00  0.00    -0.210 A  
HETATM   24  F   UNL     1     -10.506  15.236  68.493  1.00  0.00    -0.220 F  
HETATM   25  C   UNL     1     -10.475  12.462  68.545  1.00  0.00    -0.244 A  
HETATM   26  F   UNL     1     -12.084   9.485  72.209  1.00  0.00    -0.403 F  
HETATM   27  C   UNL     1     -11.286  13.171  69.445  1.00  0.00    -0.210 A  
HETATM   28  C   UNL     1     -12.061  12.454  70.371  1.00  0.00    -0.381 A  
HETATM   29  F   UNL     1     -13.757   9.445  70.818  1.00  0.00    -0.286 F  
HETATM   30  C   UNL     1     -11.314  14.681  69.440  1.00  0.00    -0.284 C  
HETATM   31  F   UNL     1     -13.572  11.069  72.251  1.00  0.00    -0.505 F  
HETATM   32  C   UNL     1     -12.854  10.275  71.408  1.00  0.00    -0.441 C  
HETATM   33  F   UNL     1     -12.558  15.179  69.208  1.00  0.00    -0.194 F  
HETATM   34  F   UNL     1     -10.910  15.210  70.627  1.00  0.00    -0.298 F  
HETATM   35  C   UNL     1     -11.208  10.367  69.496  1.00  0.00    -0.325 A  
HETATM   36  C   UNL     1     -12.033  11.051  70.405  1.00  0.00    -0.459 A  
ENDBRANCH   2  23
TORSDOF 5
ENDMDL
MODEL      242
REMARK 921   NORMALIZED FREE ENERGY PREDICTED BY IDOCK:   -3.82 KCAL/MOL
REMARK 922        TOTAL FREE ENERGY PREDICTED BY IDOCK:   -7.80 KCAL/MOL
REMARK 923 INTER-LIGAND FREE ENERGY PREDICTED BY IDOCK:   -7.17 KCAL/MOL
REMARK 924 INTRA-LIGAND FREE ENERGY PREDICTED BY IDOCK:   -0.63 KCAL/MOL
REMARK 927      BINDING AFFINITY PREDICTED BY RF-SCORE:    0.00 PKD
ROOT
HETATM    1  C   UNL     1     -12.510  13.957  70.033  1.00  0.00    -0.325 C  
HETATM    2  C   UNL     1     -11.058  13.985  69.561  1.00  0.00    -0.153 C  
ENDROOT
BRANCH   2   3
HETATM    3  O   UNL     1     -10.633  12.697  69.118  1.00  0.00    -0.106 OA 
BRANCH   3   4
HETATM    4  C   UNL     1     -10.062  12.689  67.801  1.00  0.00    -0.220 C  
BRANCH   4   5
HETATM    5  C   UNL     1      -8.557  12.251  67.887  1.00  0.00    -0.169 C  
HETATM    6  C   UNL     1      -8.730   9.319  67.283  1.00  0.00    -0.128 C  
HETATM    7  C   UNL     1      -9.074   9.862  68.680  1.00  0.00    -0.132 C  
HETATM    8  N   UNL     1      -9.600   8.206  66.972  1.00  0.00    -0.180 NA 
HETATM    9  H   UNL     1      -7.143  11.522  66.543  1.00  0.00     0.000 HD 
HETATM   10  C   UNL     1      -8.354  11.178  68.984  1.00  0.00    -0.054 C  
HETATM   11  O   UNL     1      -9.508   6.181  65.897  1.00  0.00    -0.077 OA 
HETATM   12  C   UNL     1      -8.865  10.440  66.219  1.00  0.00    -0.152 C  
HETATM   13  C   UNL     1      -7.327   8.684  67.245  1.00  0.00    -0.088 C  
HETATM   14  C   UNL     1      -8.953   7.149  66.385  1.00  0.00    -0.155 C  
HETATM   15  C   UNL     1      -7.473   7.398  66.430  1.00  0.00    -0.084 C  
HETATM   16  N   UNL     1      -8.151  11.671  66.572  1.00  0.00    -0.122 NA 
BRANCH   5  17
HETATM   17  C   UNL     1      -7.642  13.457  68.234  1.00  0.00    -0.135 A  
HETATM   18  C   UNL     1      -5.945  15.629  68.885  1.00  0.00    -0.103 A  
HETATM   19  C   UNL     1      -6.020  14.525  69.728  1.00  0.00    -0.122 A  
HETATM   20  C   UNL     1      -6.864  13.455  69.407  1.00  0.00     0.005 A  
HETATM   21  C   UNL     1      -7.573  14.605  67.422  1.00  0.00    -0.218 A  
HETATM   22  C   UNL     1      -6.726  15.673  67.738  1.00  0.00    -0.180 A  
ENDBRANCH   5  17
ENDBRANCH   4   5
ENDBRANCH   3   4
ENDBRANCH   2   3
BRANCH   2  23
HETATM   23  C   UNL     1     -10.925  14.968  68.408  1.00  0.00    -0.266 A  
HETATM   24  F   UNL     1      -9.805  18.904  69.250  1.00  0.00    -0.378 F  
HETATM   25  C   UNL     1     -10.537  16.291  68.667  1.00  0.00    -0.297 A  
HETATM   26  F   UNL     1     -12.856  14.638  64.572  1.00  0.00    -0.396 F  
HETATM   27  C   UNL     1     -10.487  17.250  67.643  1.00  0.00    -0.363 A  
HETATM   28  C   UNL     1     -10.825  16.866  66.336  1.00  0.00     0.033 A  
HETATM   29  F   UNL     1     -10.778  14.157  64.148  1.00  0.00    -0.324 F  
HETATM   30  C   UNL     1     -10.099  18.680  67.938  1.00  0.00    -0.369 C  
HETATM   31  F   UNL     1     -11.537  16.153  63.743  1.00  0.00    -0.271 F  
HETATM   32  C   UNL     1     -11.588  15.131  64.643  1.00  0.00    -0.357 C  
HETATM   33  F   UNL     1      -9.003  19.078  67.236  1.00  0.00    -0.281 F  
HETATM   34  F   UNL     1     -11.088  19.560  67.624  1.00  0.00    -0.541 F  
HETATM   35  C   UNL     1     -11.255  14.609  67.090  1.00  0.00    -0.349 A  
HETATM   36  C   UNL     1     -11.209  15.547  66.046  1.00  0.00    -0.107 A  
ENDBRANCH   2  23
TORSDOF 5
ENDMDL
MODEL      243
REMARK 921   NORMALIZED FREE ENERGY PREDICTED BY IDOCK:   -3.82 KCAL/MOL
REMARK 922        TOTAL FREE ENERGY PREDICTED BY IDOCK:   -7.79 KCAL/MOL
REMARK 923 INTER-LIGAND FREE ENERGY PREDICTED BY IDOCK:   -6.26 KCAL/MOL
REMARK 924 INTRA-LIGAND FREE ENERGY PREDICTED BY IDOCK:   -1.53 KCAL/MOL
REMARK 927      BINDING AFFINITY PREDICTED BY RF-SCORE:    0.00 PKD
ROOT
HETATM    1  C   UNL     1      -9.661   9.768  66.470  1.00  0.00    -0.267 C  
HETATM    2  C   UNL     1     -10.516   8.864  67.356  1.00  0.00    -0.277 C  
ENDROOT
BRANCH   2   3
HETATM    3  O   UNL     1     -10.518   7.521  66.873  1.00  0.00    -0.309 OA 
BRANCH   3   4
HETATM    4  C   UNL     1      -9.212   6.935  66.765  1.00  0.00    -0.152 C  
BRANCH   4   5
HETATM    5  C   UNL     1      -9.339   5.371  66.785  1.00  0.00    -0.134 C  
HETATM    6  C   UNL     1      -9.116   4.768  69.714  1.00  0.00    -0.108 C  
HETATM    7  C   UNL     1      -7.866   5.062  68.869  1.00  0.00    -0.077 C  
HETATM    8  N   UNL     1      -8.938   5.313  71.042  1.00  0.00    -0.136 NA 
HETATM    9  H   UNL     1     -10.719   4.000  67.531  1.00  0.00     0.000 HD 
HETATM   10  C   UNL     1      -8.071   4.720  67.391  1.00  0.00    -0.102 C  
HETATM   11  O   UNL     1      -9.450   4.785  73.216  1.00  0.00    -0.123 OA 
HETATM   12  C   UNL     1     -10.379   5.363  69.038  1.00  0.00    -0.212 C  
HETATM   13  C   UNL     1      -9.287   3.259  69.977  1.00  0.00    -0.238 C  
HETATM   14  C   UNL     1      -9.356   4.472  72.042  1.00  0.00    -0.139 C  
HETATM   15  C   UNL     1      -9.693   3.136  71.447  1.00  0.00    -0.219 C  
HETATM   16  N   UNL     1     -10.515   4.995  67.624  1.00  0.00    -0.070 NA 
BRANCH   5  17
HETATM   17  C   UNL     1      -9.516   4.805  65.349  1.00  0.00    -0.159 A  
HETATM   18  C   UNL     1      -9.797   3.770  62.728  1.00  0.00    -0.138 A  
HETATM   19  C   UNL     1      -8.708   4.576  63.048  1.00  0.00    -0.119 A  
HETATM   20  C   UNL     1      -8.575   5.090  64.342  1.00  0.00    -0.135 A  
HETATM   21  C   UNL     1     -10.626   4.020  64.984  1.00  0.00    -0.116 A  
HETATM   22  C   UNL     1     -10.758   3.499  63.692  1.00  0.00    -0.265 A  
ENDBRANCH   5  17
ENDBRANCH   4   5
ENDBRANCH   3   4
ENDBRANCH   2   3
BRANCH   2  23
HETATM   23  C   UNL     1      -9.956   8.874  68.770  1.00  0.00    -0.195 A  
HETATM   24  F   UNL     1      -5.858   9.498  69.295  1.00  0.00    -0.035 F  
HETATM   25  C   UNL     1      -8.585   9.096  68.969  1.00  0.00    -0.133 A  
HETATM   26  F   UNL     1     -11.743   6.999  72.211  1.00  0.00    -0.281 F  
HETATM   27  C   UNL     1      -8.014   9.026  70.250  1.00  0.00    -0.124 A  
HETATM   28  C   UNL     1      -8.840   8.739  71.348  1.00  0.00    -0.292 A  
HETATM   29  F   UNL     1     -12.090   9.121  72.540  1.00  0.00    -0.390 F  
HETATM   30  C   UNL     1      -6.531   9.235  70.450  1.00  0.00    -0.064 C  
HETATM   31  F   UNL     1     -10.439   8.121  73.539  1.00  0.00    -0.306 F  
HETATM   32  C   UNL     1     -11.109   8.196  72.354  1.00  0.00    -0.369 C  
HETATM   33  F   UNL     1      -6.258  10.273  71.286  1.00  0.00    -0.046 F  
HETATM   34  F   UNL     1      -5.924   8.144  70.992  1.00  0.00    -0.033 F  
HETATM   35  C   UNL     1     -10.761   8.591  69.886  1.00  0.00    -0.224 A  
HETATM   36  C   UNL     1     -10.217   8.520  71.179  1.00  0.00    -0.272 A  
ENDBRANCH   2  23
TORSDOF 5
ENDMDL
MODEL      244
REMARK 921   NORMALIZED FREE ENERGY PREDICTED BY IDOCK:   -3.81 KCAL/MOL
REMARK 922        TOTAL FREE ENERGY PREDICTED BY IDOCK:   -7.79 KCAL/MOL
REMARK 923 INTER-LIGAND FREE ENERGY PREDICTED BY IDOCK:   -5.64 KCAL/MOL
REMARK 924 INTRA-LIGAND FREE ENERGY PREDICTED BY IDOCK:   -2.15 KCAL/MOL
REMARK 927      BINDING AFFINITY PREDICTED BY RF-SCORE:    0.00 PKD
ROOT
HETATM    1  C   UNL     1      -6.088  12.134  67.066  1.00  0.00    -0.097 C  
HETATM    2  C   UNL     1      -7.107  11.398  67.934  1.00  0.00    -0.075 C  
ENDROOT
BRANCH   2   3
HETATM    3  O   UNL     1      -8.172  12.264  68.327  1.00  0.00    -0.158 OA 
BRANCH   3   4
HETATM    4  C   UNL     1      -7.824  13.657  68.327  1.00  0.00    -0.141 C  
BRANCH   4   5
HETATM    5  C   UNL     1      -8.890  14.462  67.502  1.00  0.00    -0.193 C  
HETATM    6  C   UNL     1      -7.867  17.271  67.743  1.00  0.00    -0.188 C  
HETATM    7  C   UNL     1      -8.654  16.614  68.888  1.00  0.00    -0.235 C  
HETATM    8  N   UNL     1      -6.846  18.133  68.294  1.00  0.00    -0.222 NA 
HETATM    9  H   UNL     1      -8.876  15.571  65.738  1.00  0.00     0.000 HD 
HETATM   10  C   UNL     1      -9.597  15.516  68.389  1.00  0.00    -0.199 C  
HETATM   11  O   UNL     1      -5.846  20.149  67.838  1.00  0.00    -0.203 OA 
HETATM   12  C   UNL     1      -7.239  16.187  66.827  1.00  0.00    -0.155 C  
HETATM   13  C   UNL     1      -8.743  18.244  66.930  1.00  0.00    -0.273 C  
HETATM   14  C   UNL     1      -6.737  19.340  67.649  1.00  0.00    -0.217 C  
HETATM   15  C   UNL     1      -7.872  19.476  66.676  1.00  0.00    -0.300 C  
HETATM   16  N   UNL     1      -8.196  15.168  66.384  1.00  0.00     0.067 NA 
BRANCH   5  17
HETATM   17  C   UNL     1      -9.983  13.519  66.930  1.00  0.00    -0.256 A  
HETATM   18  C   UNL     1     -11.946  11.776  65.867  1.00  0.00     0.207 A  
HETATM   19  C   UNL     1     -10.802  12.071  65.132  1.00  0.00    -0.347 A  
HETATM   20  C   UNL     1      -9.836  12.936  65.657  1.00  0.00    -0.185 A  
HETATM   21  C   UNL     1     -11.169  13.232  67.632  1.00  0.00    -0.307 A  
HETATM   22  C   UNL     1     -12.133  12.362  67.111  1.00  0.00    -0.072 A  
ENDBRANCH   5  17
ENDBRANCH   4   5
ENDBRANCH   3   4
ENDBRANCH   2   3
BRANCH   2  23
HETATM   23  C   UNL     1      -7.689  10.234  67.146  1.00  0.00    -0.092 A  
HETATM   24  F   UNL     1      -7.487  10.341  62.975  1.00  0.00    -0.136 F  
HETATM   25  C   UNL     1      -7.619  10.244  65.745  1.00  0.00    -0.143 A  
HETATM   26  F   UNL     1     -10.719   7.506  68.534  1.00  0.00    -0.214 F  
HETATM   27  C   UNL     1      -8.219   9.233  64.979  1.00  0.00    -0.146 A  
HETATM   28  C   UNL     1      -8.893   8.190  65.636  1.00  0.00    -0.160 A  
HETATM   29  F   UNL     1      -8.897   6.319  68.573  1.00  0.00    -0.116 F  
HETATM   30  C   UNL     1      -8.167   9.268  63.469  1.00  0.00    -0.173 C  
HETATM   31  F   UNL     1     -10.277   6.138  66.904  1.00  0.00    -0.170 F  
HETATM   32  C   UNL     1      -9.706   7.040  67.751  1.00  0.00    -0.135 C  
HETATM   33  F   UNL     1      -7.564   8.168  62.942  1.00  0.00    -0.098 F  
HETATM   34  F   UNL     1      -9.406   9.324  62.910  1.00  0.00    -0.231 F  
HETATM   35  C   UNL     1      -8.365   9.179  67.780  1.00  0.00    -0.117 A  
HETATM   36  C   UNL     1      -8.971   8.151  67.038  1.00  0.00    -0.160 A  
ENDBRANCH   2  23
TORSDOF 5
ENDMDL
MODEL      245
REMARK 921   NORMALIZED FREE ENERGY PREDICTED BY IDOCK:   -3.81 KCAL/MOL
REMARK 922        TOTAL FREE ENERGY PREDICTED BY IDOCK:   -7.78 KCAL/MOL
REMARK 923 INTER-LIGAND FREE ENERGY PREDICTED BY IDOCK:   -8.35 KCAL/MOL
REMARK 924 INTRA-LIGAND FREE ENERGY PREDICTED BY IDOCK:    0.57 KCAL/MOL
REMARK 927      BINDING AFFINITY PREDICTED BY RF-SCORE:    0.00 PKD
ROOT
HETATM    1  C   UNL     1     -11.931  13.395  64.850  1.00  0.00    -0.414 C  
HETATM    2  C   UNL     1     -11.798  13.416  66.371  1.00  0.00    -0.396 C  
ENDROOT
BRANCH   2   3
HETATM    3  O   UNL     1     -11.589  12.102  66.890  1.00  0.00    -0.386 OA 
BRANCH   3   4
HETATM    4  C   UNL     1     -10.495  12.005  67.815  1.00  0.00    -0.203 C  
BRANCH   4   5
HETATM    5  C   UNL     1     -10.810  10.897  68.880  1.00  0.00    -0.219 C  
HETATM    6  C   UNL     1      -9.295   8.547  67.795  1.00  0.00    -0.137 C  
HETATM    7  C   UNL     1     -10.661   8.947  67.213  1.00  0.00    -0.304 C  
HETATM    8  N   UNL     1      -8.446   8.052  66.735  1.00  0.00    -0.125 NA 
HETATM    9  H   UNL     1      -9.700   9.818  70.274  1.00  0.00     0.000 HD 
HETATM   10  C   UNL     1     -11.530   9.690  68.229  1.00  0.00     0.317 C  
HETATM   11  O   UNL     1      -6.849   6.437  66.404  1.00  0.00    -0.058 OA 
HETATM   12  C   UNL     1      -8.638   9.756  68.511  1.00  0.00    -0.120 C  
HETATM   13  C   UNL     1      -9.410   7.337  68.743  1.00  0.00    -0.143 C  
HETATM   14  C   UNL     1      -7.737   6.927  67.077  1.00  0.00    -0.103 C  
HETATM   15  C   UNL     1      -8.223   6.431  68.408  1.00  0.00    -0.113 C  
HETATM   16  N   UNL     1      -9.524  10.421  69.471  1.00  0.00    -0.182 NA 
BRANCH   5  17
HETATM   17  C   UNL     1     -11.733  11.445  70.003  1.00  0.00    -0.416 A  
HETATM   18  C   UNL     1     -13.404  12.412  72.075  1.00  0.00    -0.511 A  
HETATM   19  C   UNL     1     -13.248  11.042  71.885  1.00  0.00    -0.503 A  
HETATM   20  C   UNL     1     -12.426  10.567  70.857  1.00  0.00    -0.488 A  
HETATM   21  C   UNL     1     -11.942  12.824  70.196  1.00  0.00    -0.371 A  
HETATM   22  C   UNL     1     -12.759  13.301  71.227  1.00  0.00    -0.411 A  
ENDBRANCH   5  17
ENDBRANCH   4   5
ENDBRANCH   3   4
ENDBRANCH   2   3
BRANCH   2  23
HETATM   23  C   UNL     1     -10.614  14.289  66.759  1.00  0.00    -0.278 A  
HETATM   24  F   UNL     1     -10.984  18.435  66.402  1.00  0.00    -0.302 F  
HETATM   25  C   UNL     1     -10.723  15.684  66.659  1.00  0.00    -0.296 A  
HETATM   26  F   UNL     1      -6.490  13.053  66.868  1.00  0.00    -0.062 F  
HETATM   27  C   UNL     1      -9.627  16.521  66.924  1.00  0.00    -0.253 A  
HETATM   28  C   UNL     1      -8.405  15.941  67.303  1.00  0.00    -0.211 A  
HETATM   29  F   UNL     1      -7.041  13.203  68.967  1.00  0.00    -0.098 F  
HETATM   30  C   UNL     1      -9.743  18.020  66.783  1.00  0.00    -0.323 C  
HETATM   31  F   UNL     1      -5.957  14.824  68.009  1.00  0.00    -0.106 F  
HETATM   32  C   UNL     1      -6.955  13.918  67.813  1.00  0.00    -0.172 C  
HETATM   33  F   UNL     1      -9.470  18.676  67.943  1.00  0.00    -0.286 F  
HETATM   34  F   UNL     1      -8.883  18.521  65.855  1.00  0.00    -0.224 F  
HETATM   35  C   UNL     1      -9.382  13.735  67.143  1.00  0.00    -0.240 A  
HETATM   36  C   UNL     1      -8.271  14.548  67.419  1.00  0.00    -0.220 A  
ENDBRANCH   2  23
TORSDOF 5
ENDMDL
MODEL      246
REMARK 921   NORMALIZED FREE ENERGY PREDICTED BY IDOCK:   -3.76 KCAL/MOL
REMARK 922        TOTAL FREE ENERGY PREDICTED BY IDOCK:   -7.73 KCAL/MOL
REMARK 923 INTER-LIGAND FREE ENERGY PREDICTED BY IDOCK:   -7.86 KCAL/MOL
REMARK 924 INTRA-LIGAND FREE ENERGY PREDICTED BY IDOCK:    0.14 KCAL/MOL
REMARK 927      BINDING AFFINITY PREDICTED BY RF-SCORE:    0.00 PKD
ROOT
HETATM    1  C   UNL     1      -9.931  14.913  65.114  1.00  0.00    -0.277 C  
HETATM    2  C   UNL     1     -10.675  15.515  66.304  1.00  0.00    -0.307 C  
ENDROOT
BRANCH   2   3
HETATM    3  O   UNL     1     -11.303  14.500  67.087  1.00  0.00    -0.323 OA 
BRANCH   3   4
HETATM    4  C   UNL     1     -10.507  14.030  68.185  1.00  0.00    -0.243 C  
BRANCH   4   5
HETATM    5  C   UNL     1     -10.904  12.549  68.522  1.00  0.00    -0.243 C  
HETATM    6  C   UNL     1      -9.428  11.016  66.409  1.00  0.00    -0.193 C  
HETATM    7  C   UNL     1     -10.753  11.728  66.091  1.00  0.00    -0.320 C  
HETATM    8  N   UNL     1      -8.553  11.093  65.260  1.00  0.00    -0.047 NA 
HETATM    9  H   UNL     1      -9.891  10.852  69.180  1.00  0.00     0.000 HD 
HETATM   10  C   UNL     1     -11.638  11.887  67.329  1.00  0.00    -0.364 C  
HETATM   11  O   UNL     1      -7.001   9.798  64.173  1.00  0.00    -0.112 OA 
HETATM   12  C   UNL     1      -8.759  11.650  67.656  1.00  0.00    -0.156 C  
HETATM   13  C   UNL     1      -9.624   9.499  66.596  1.00  0.00    -0.243 C  
HETATM   14  C   UNL     1      -7.899   9.918  64.987  1.00  0.00    -0.131 C  
HETATM   15  C   UNL     1      -8.457   8.834  65.863  1.00  0.00    -0.154 C  
HETATM   16  N   UNL     1      -9.661  11.772  68.806  1.00  0.00    -0.126 NA 
BRANCH   5  17
HETATM   17  C   UNL     1     -11.853  12.490  69.750  1.00  0.00    -0.380 A  
HETATM   18  C   UNL     1     -13.571  12.341  71.996  1.00  0.00    -0.306 A  
HETATM   19  C   UNL     1     -13.359  11.217  71.203  1.00  0.00     0.107 A  
HETATM   20  C   UNL     1     -12.514  11.295  70.091  1.00  0.00    -0.297 A  
HETATM   21  C   UNL     1     -12.118  13.618  70.548  1.00  0.00    -0.411 A  
HETATM   22  C   UNL     1     -12.958  13.541  71.665  1.00  0.00    -0.447 A  
ENDBRANCH   5  17
ENDBRANCH   4   5
ENDBRANCH   3   4
ENDBRANCH   2   3
BRANCH   2  23
HETATM   23  C   UNL     1      -9.688  16.269  67.182  1.00  0.00    -0.240 A  
HETATM   24  F   UNL     1      -9.836  20.444  67.229  1.00  0.00    -0.506 F  
HETATM   25  C   UNL     1      -9.730  17.671  67.223  1.00  0.00    -0.284 A  
HETATM   26  F   UNL     1      -5.889  14.786  68.565  1.00  0.00    -0.082 F  
HETATM   27  C   UNL     1      -8.782  18.407  67.951  1.00  0.00    -0.296 A  
HETATM   28  C   UNL     1      -7.783  17.719  68.658  1.00  0.00    -0.283 A  
HETATM   29  F   UNL     1      -7.140  14.740  70.344  1.00  0.00    -0.155 F  
HETATM   30  C   UNL     1      -8.816  19.918  67.963  1.00  0.00    -0.271 C  
HETATM   31  F   UNL     1      -5.760  16.389  70.027  1.00  0.00    -0.160 F  
HETATM   32  C   UNL     1      -6.641  15.569  69.388  1.00  0.00    -0.158 C  
HETATM   33  F   UNL     1      -8.957  20.427  69.217  1.00  0.00     0.211 F  
HETATM   34  F   UNL     1      -7.676  20.464  67.460  1.00  0.00    -0.308 F  
HETATM   35  C   UNL     1      -8.680  15.604  67.900  1.00  0.00    -0.166 A  
HETATM   36  C   UNL     1      -7.722  16.316  68.642  1.00  0.00    -0.192 A  
ENDBRANCH   2  23
TORSDOF 5
ENDMDL
MODEL      247
REMARK 921   NORMALIZED FREE ENERGY PREDICTED BY IDOCK:   -3.76 KCAL/MOL
REMARK 922        TOTAL FREE ENERGY PREDICTED BY IDOCK:   -7.73 KCAL/MOL
REMARK 923 INTER-LIGAND FREE ENERGY PREDICTED BY IDOCK:   -7.71 KCAL/MOL
REMARK 924 INTRA-LIGAND FREE ENERGY PREDICTED BY IDOCK:   -0.02 KCAL/MOL
REMARK 927      BINDING AFFINITY PREDICTED BY RF-SCORE:    0.00 PKD
ROOT
HETATM    1  C   UNL     1     -11.659   8.401  69.702  1.00  0.00     0.490 C  
HETATM    2  C   UNL     1     -10.215   8.887  69.588  1.00  0.00    -0.206 C  
ENDROOT
BRANCH   2   3
HETATM    3  O   UNL     1     -10.050  10.165  70.203  1.00  0.00    -0.246 OA 
BRANCH   3   4
HETATM    4  C   UNL     1      -9.685  11.211  69.291  1.00  0.00     0.057 C  
BRANCH   4   5
HETATM    5  C   UNL     1     -10.981  11.938  68.785  1.00  0.00    -0.235 C  
HETATM    6  C   UNL     1     -10.592  11.899  65.811  1.00  0.00    -0.267 C  
HETATM    7  C   UNL     1      -9.867  12.930  66.691  1.00  0.00    -0.250 C  
HETATM    8  N   UNL     1      -9.730  11.508  64.718  1.00  0.00    -0.237 NA 
HETATM    9  H   UNL     1     -12.650  11.392  67.664  1.00  0.00     0.000 HD 
HETATM   10  C   UNL     1     -10.623  13.219  67.990  1.00  0.00    -0.249 C  
HETATM   11  O   UNL     1      -9.888  10.963  62.495  1.00  0.00    -0.186 OA 
HETATM   12  C   UNL     1     -11.008  10.665  66.655  1.00  0.00    -0.074 C  
HETATM   13  C   UNL     1     -11.808  12.514  65.092  1.00  0.00    -0.450 C  
HETATM   14  C   UNL     1     -10.376  11.425  63.510  1.00  0.00    -0.423 C  
HETATM   15  C   UNL     1     -11.766  11.971  63.662  1.00  0.00    -0.587 C  
HETATM   16  N   UNL     1     -11.729  11.012  67.884  1.00  0.00    -0.592 NA 
BRANCH   5  17
HETATM   17  C   UNL     1     -11.886  12.361  69.974  1.00  0.00    -0.363 A  
HETATM   18  C   UNL     1     -13.556  13.161  72.117  1.00  0.00    -0.637 A  
HETATM   19  C   UNL     1     -13.085  14.104  71.209  1.00  0.00    -0.420 A  
HETATM   20  C   UNL     1     -12.256  13.707  70.154  1.00  0.00    -0.413 A  
HETATM   21  C   UNL     1     -12.346  11.437  70.932  1.00  0.00    -0.483 A  
HETATM   22  C   UNL     1     -13.180  11.831  71.984  1.00  0.00    -0.460 A  
ENDBRANCH   5  17
ENDBRANCH   4   5
ENDBRANCH   3   4
ENDBRANCH   2   3
BRANCH   2  23
HETATM   23  C   UNL     1      -9.295   7.890  70.277  1.00  0.00    -0.159 A  
HETATM   24  F   UNL     1      -6.421   5.905  67.985  1.00  0.00    -0.035 F  
HETATM   25  C   UNL     1      -8.314   7.223  69.528  1.00  0.00    -0.133 A  
HETATM   26  F   UNL     1     -10.122   5.813  73.958  1.00  0.00    -0.167 F  
HETATM   27  C   UNL     1      -7.504   6.233  70.106  1.00  0.00    -0.094 A  
HETATM   28  C   UNL     1      -7.680   5.918  71.463  1.00  0.00    -0.101 A  
HETATM   29  F   UNL     1      -8.627   7.289  74.522  1.00  0.00    -0.193 F  
HETATM   30  C   UNL     1      -6.472   5.497  69.284  1.00  0.00    -0.038 C  
HETATM   31  F   UNL     1      -8.035   5.233  74.136  1.00  0.00    -0.100 F  
HETATM   32  C   UNL     1      -8.852   6.231  73.696  1.00  0.00    -0.124 C  
HETATM   33  F   UNL     1      -5.211   5.648  69.773  1.00  0.00    -0.003 F  
HETATM   34  F   UNL     1      -6.703   4.157  69.243  1.00  0.00    -0.040 F  
HETATM   35  C   UNL     1      -9.449   7.558  71.633  1.00  0.00    -0.170 A  
HETATM   36  C   UNL     1      -8.648   6.575  72.239  1.00  0.00    -0.123 A  
ENDBRANCH   2  23
TORSDOF 5
ENDMDL
MODEL      248
REMARK 921   NORMALIZED FREE ENERGY PREDICTED BY IDOCK:   -3.75 KCAL/MOL
REMARK 922        TOTAL FREE ENERGY PREDICTED BY IDOCK:   -7.71 KCAL/MOL
REMARK 923 INTER-LIGAND FREE ENERGY PREDICTED BY IDOCK:   -6.46 KCAL/MOL
REMARK 924 INTRA-LIGAND FREE ENERGY PREDICTED BY IDOCK:   -1.24 KCAL/MOL
REMARK 927      BINDING AFFINITY PREDICTED BY RF-SCORE:    0.00 PKD
ROOT
HETATM    1  C   UNL     1      -8.936   9.708  66.910  1.00  0.00    -0.151 C  
HETATM    2  C   UNL     1     -10.227   9.036  67.376  1.00  0.00    -0.245 C  
ENDROOT
BRANCH   2   3
HETATM    3  O   UNL     1     -10.305   7.689  66.910  1.00  0.00    -0.290 OA 
BRANCH   3   4
HETATM    4  C   UNL     1      -9.028   7.077  66.671  1.00  0.00    -0.142 C  
BRANCH   4   5
HETATM    5  C   UNL     1      -9.190   5.516  66.666  1.00  0.00    -0.135 C  
HETATM    6  C   UNL     1      -9.216   4.886  69.598  1.00  0.00    -0.118 C  
HETATM    7  C   UNL     1      -7.896   5.158  68.857  1.00  0.00    -0.082 C  
HETATM    8  N   UNL     1      -9.133   5.416  70.940  1.00  0.00    -0.137 NA 
HETATM    9  H   UNL     1     -10.656   4.172  67.286  1.00  0.00     0.000 HD 
HETATM   10  C   UNL     1      -7.989   4.832  67.365  1.00  0.00    -0.094 C  
HETATM   11  O   UNL     1      -9.828   4.883  73.061  1.00  0.00    -0.144 OA 
HETATM   12  C   UNL     1     -10.407   5.515  68.828  1.00  0.00    -0.201 C  
HETATM   13  C   UNL     1      -9.440   3.379  69.832  1.00  0.00    -0.236 C  
HETATM   14  C   UNL     1      -9.649   4.577  71.896  1.00  0.00    -0.153 C  
HETATM   15  C   UNL     1      -9.966   3.254  71.263  1.00  0.00    -0.071 C  
HETATM   16  N   UNL     1     -10.437   5.161  67.405  1.00  0.00    -0.150 NA 
BRANCH   5  17
HETATM   17  C   UNL     1      -9.265   4.966  65.215  1.00  0.00    -0.144 A  
HETATM   18  C   UNL     1      -9.357   3.963  62.568  1.00  0.00    -0.110 A  
HETATM   19  C   UNL     1      -8.348   4.843  62.947  1.00  0.00    -0.107 A  
HETATM   20  C   UNL     1      -8.307   5.341  64.254  1.00  0.00    -0.134 A  
HETATM   21  C   UNL     1     -10.295   4.105  64.791  1.00  0.00    -0.206 A  
HETATM   22  C   UNL     1     -10.333   3.601  63.486  1.00  0.00    -0.233 A  
ENDBRANCH   5  17
ENDBRANCH   4   5
ENDBRANCH   3   4
ENDBRANCH   2   3
BRANCH   2  23
HETATM   23  C   UNL     1     -10.267   9.031  68.897  1.00  0.00    -0.223 A  
HETATM   24  F   UNL     1     -13.873   9.932  70.804  1.00  0.00    -0.378 F  
HETATM   25  C   UNL     1     -11.472   9.318  69.557  1.00  0.00     0.186 A  
HETATM   26  F   UNL     1      -6.892   9.567  71.518  1.00  0.00    -0.051 F  
HETATM   27  C   UNL     1     -11.532   9.409  70.956  1.00  0.00    -0.403 A  
HETATM   28  C   UNL     1     -10.361   9.199  71.702  1.00  0.00    -0.388 A  
HETATM   29  F   UNL     1      -7.350   7.447  71.691  1.00  0.00    -0.071 F  
HETATM   30  C   UNL     1     -12.826   9.749  71.657  1.00  0.00    -0.421 C  
HETATM   31  F   UNL     1      -8.049   8.839  73.207  1.00  0.00    -0.166 F  
HETATM   32  C   UNL     1      -7.876   8.690  71.864  1.00  0.00    -0.070 C  
HETATM   33  F   UNL     1     -13.218   8.781  72.528  1.00  0.00    -0.396 F  
HETATM   34  F   UNL     1     -12.735  10.896  72.384  1.00  0.00    -0.346 F  
HETATM   35  C   UNL     1      -9.111   8.823  69.666  1.00  0.00    -0.149 A  
HETATM   36  C   UNL     1      -9.143   8.903  71.068  1.00  0.00    -0.303 A  
ENDBRANCH   2  23
TORSDOF 5
ENDMDL
MODEL      249
REMARK 921   NORMALIZED FREE ENERGY PREDICTED BY IDOCK:   -3.74 KCAL/MOL
REMARK 922        TOTAL FREE ENERGY PREDICTED BY IDOCK:   -7.69 KCAL/MOL
REMARK 923 INTER-LIGAND FREE ENERGY PREDICTED BY IDOCK:   -7.81 KCAL/MOL
REMARK 924 INTRA-LIGAND FREE ENERGY PREDICTED BY IDOCK:    0.12 KCAL/MOL
REMARK 927      BINDING AFFINITY PREDICTED BY RF-SCORE:    0.00 PKD
ROOT
HETATM    1  C   UNL     1     -12.252  13.666  70.782  1.00  0.00    -0.424 C  
HETATM    2  C   UNL     1     -12.034  13.445  69.287  1.00  0.00    -0.317 C  
ENDROOT
BRANCH   2   3
HETATM    3  O   UNL     1     -11.080  14.368  68.762  1.00  0.00    -0.236 OA 
BRANCH   3   4
HETATM    4  C   UNL     1     -10.105  13.772  67.893  1.00  0.00    -0.246 C  
BRANCH   4   5
HETATM    5  C   UNL     1      -8.695  14.397  68.183  1.00  0.00    -0.175 C  
HETATM    6  C   UNL     1      -9.290  17.335  68.093  1.00  0.00    -0.274 C  
HETATM    7  C   UNL     1      -9.114  16.522  66.800  1.00  0.00    -0.262 C  
HETATM    8  N   UNL     1     -10.300  18.350  67.889  1.00  0.00    -0.388 NA 
HETATM    9  H   UNL     1      -7.861  15.534  69.717  1.00  0.00     0.000 HD 
HETATM   10  C   UNL     1      -8.231  15.289  67.005  1.00  0.00    -0.267 C  
HETATM   11  O   UNL     1     -10.727  20.519  68.504  1.00  0.00    -0.007 OA 
HETATM   12  C   UNL     1      -9.675  16.401  69.270  1.00  0.00    -0.221 C  
HETATM   13  C   UNL     1      -8.032  18.159  68.427  1.00  0.00    -0.312 C  
HETATM   14  C   UNL     1      -9.967  19.572  68.417  1.00  0.00    -0.443 C  
HETATM   15  C   UNL     1      -8.539  19.530  68.878  1.00  0.00    -0.292 C  
HETATM   16  N   UNL     1      -8.789  15.241  69.411  1.00  0.00    -0.240 NA 
BRANCH   5  17
HETATM   17  C   UNL     1      -7.623  13.292  68.386  1.00  0.00    -0.137 A  
HETATM   18  C   UNL     1      -5.701  11.246  68.760  1.00  0.00    -0.042 A  
HETATM   19  C   UNL     1      -6.911  11.201  69.445  1.00  0.00    -0.125 A  
HETATM   20  C   UNL     1      -7.857  12.215  69.263  1.00  0.00     0.426 A  
HETATM   21  C   UNL     1      -6.374  13.329  67.737  1.00  0.00    -0.161 A  
HETATM   22  C   UNL     1      -5.429  12.312  67.914  1.00  0.00    -0.075 A  
ENDBRANCH   5  17
ENDBRANCH   4   5
ENDBRANCH   3   4
ENDBRANCH   2   3
BRANCH   2  23
HETATM   23  C   UNL     1     -11.523  12.030  69.059  1.00  0.00    -0.357 A  
HETATM   24  F   UNL     1     -11.378   9.408  72.309  1.00  0.00    -0.375 F  
HETATM   25  C   UNL     1     -11.479  11.130  70.135  1.00  0.00    -0.361 A  
HETATM   26  F   UNL     1      -8.930  10.763  65.863  1.00  0.00    -0.161 F  
HETATM   27  C   UNL     1     -10.933   9.845  69.987  1.00  0.00    -0.338 A  
HETATM   28  C   UNL     1     -10.433   9.459  68.733  1.00  0.00    -0.236 A  
HETATM   29  F   UNL     1     -10.868   9.944  65.311  1.00  0.00    -0.003 F  
HETATM   30  C   UNL     1     -10.861   8.893  71.158  1.00  0.00    -0.281 C  
HETATM   31  F   UNL     1      -9.387   8.679  66.276  1.00  0.00    -0.194 F  
HETATM   32  C   UNL     1      -9.922   9.933  66.289  1.00  0.00    -0.256 C  
HETATM   33  F   UNL     1     -11.536   7.734  70.931  1.00  0.00    -0.273 F  
HETATM   34  F   UNL     1      -9.582   8.533  71.453  1.00  0.00    -0.190 F  
HETATM   35  C   UNL     1     -11.018  11.619  67.815  1.00  0.00    -0.287 A  
HETATM   36  C   UNL     1     -10.471  10.337  67.638  1.00  0.00    -0.285 A  
ENDBRANCH   2  23
TORSDOF 5
ENDMDL
MODEL      250
REMARK 921   NORMALIZED FREE ENERGY PREDICTED BY IDOCK:   -3.68 KCAL/MOL
REMARK 922        TOTAL FREE ENERGY PREDICTED BY IDOCK:   -7.62 KCAL/MOL
REMARK 923 INTER-LIGAND FREE ENERGY PREDICTED BY IDOCK:   -6.25 KCAL/MOL
REMARK 924 INTRA-LIGAND FREE ENERGY PREDICTED BY IDOCK:   -1.37 KCAL/MOL
REMARK 927      BINDING AFFINITY PREDICTED BY RF-SCORE:    0.00 PKD
ROOT
HETATM    1  C   UNL     1      -6.426  10.095  64.790  1.00  0.00    -0.128 C  
HETATM    2  C   UNL     1      -6.473   9.909  66.305  1.00  0.00    -0.077 C  
ENDROOT
BRANCH   2   3
HETATM    3  O   UNL     1      -7.357  10.850  66.914  1.00  0.00    -0.113 OA 
BRANCH   3   4
HETATM    4  C   UNL     1      -8.611  11.001  66.231  1.00  0.00    -0.167 C  
BRANCH   4   5
HETATM    5  C   UNL     1      -9.577  11.880  67.101  1.00  0.00    -0.186 C  
HETATM    6  C   UNL     1     -10.732   9.852  68.983  1.00  0.00    -0.222 C  
HETATM    7  C   UNL     1     -11.253   9.983  67.543  1.00  0.00    -0.052 C  
HETATM    8  N   UNL     1     -10.761   8.462  69.380  1.00  0.00    -0.196 NA 
HETATM    9  H   UNL     1      -9.666  12.454  69.102  1.00  0.00     0.000 HD 
HETATM   10  C   UNL     1     -11.040  11.388  66.974  1.00  0.00    -0.364 C  
HETATM   11  O   UNL     1     -11.191   7.200  71.249  1.00  0.00    -0.248 OA 
HETATM   12  C   UNL     1      -9.296  10.428  69.093  1.00  0.00    -0.199 C  
HETATM   13  C   UNL     1     -11.678  10.522  69.998  1.00  0.00    -0.394 C  
HETATM   14  C   UNL     1     -11.230   8.262  70.654  1.00  0.00    -0.256 C  
HETATM   15  C   UNL     1     -11.769   9.559  71.184  1.00  0.00    -0.438 C  
HETATM   16  N   UNL     1      -9.161  11.776  68.531  1.00  0.00    -0.183 NA 
BRANCH   5  17
HETATM   17  C   UNL     1      -9.540  13.366  66.651  1.00  0.00    -0.272 A  
HETATM   18  C   UNL     1      -9.431  16.076  65.834  1.00  0.00    -0.351 A  
HETATM   19  C   UNL     1      -8.553  15.603  66.804  1.00  0.00    -0.309 A  
HETATM   20  C   UNL     1      -8.612  14.265  67.210  1.00  0.00    -0.229 A  
HETATM   21  C   UNL     1     -10.440  13.884  65.700  1.00  0.00    -0.320 A  
HETATM   22  C   UNL     1     -10.378  15.220  65.289  1.00  0.00    -0.430 A  
ENDBRANCH   5  17
ENDBRANCH   4   5
ENDBRANCH   3   4
ENDBRANCH   2   3
BRANCH   2  23
HETATM   23  C   UNL     1      -6.960   8.503  66.623  1.00  0.00    -0.076 A  
HETATM   24  F   UNL     1      -7.248   7.343  70.626  1.00  0.00    -0.063 F  
HETATM   25  C   UNL     1      -7.077   8.098  67.961  1.00  0.00    -0.086 A  
HETATM   26  F   UNL     1      -6.778   5.107  63.981  1.00  0.00    -0.040 F  
HETATM   27  C   UNL     1      -7.439   6.784  68.296  1.00  0.00    -0.099 A  
HETATM   28  C   UNL     1      -7.695   5.866  67.264  1.00  0.00    -0.101 A  
HETATM   29  F   UNL     1      -8.889   5.635  64.000  1.00  0.00    -0.060 F  
HETATM   30  C   UNL     1      -7.531   6.348  69.739  1.00  0.00    -0.085 C  
HETATM   31  F   UNL     1      -8.162   4.009  65.247  1.00  0.00    -0.098 F  
HETATM   32  C   UNL     1      -7.855   5.260  64.802  1.00  0.00    -0.097 C  
HETATM   33  F   UNL     1      -8.771   5.895  70.069  1.00  0.00    -0.124 F  
HETATM   34  F   UNL     1      -6.670   5.336  70.030  1.00  0.00    -0.037 F  
HETATM   35  C   UNL     1      -7.225   7.567  65.610  1.00  0.00    -0.066 A  
HETATM   36  C   UNL     1      -7.594   6.246  65.917  1.00  0.00    -0.084 A  
ENDBRANCH   2  23
TORSDOF 5
ENDMDL
MODEL      251
REMARK 921   NORMALIZED FREE ENERGY PREDICTED BY IDOCK:   -3.66 KCAL/MOL
REMARK 922        TOTAL FREE ENERGY PREDICTED BY IDOCK:   -7.59 KCAL/MOL
REMARK 923 INTER-LIGAND FREE ENERGY PREDICTED BY IDOCK:   -6.96 KCAL/MOL
REMARK 924 INTRA-LIGAND FREE ENERGY PREDICTED BY IDOCK:   -0.63 KCAL/MOL
REMARK 927      BINDING AFFINITY PREDICTED BY RF-SCORE:    0.00 PKD
ROOT
HETATM    1  C   UNL     1      -6.530   9.994  68.948  1.00  0.00    -0.048 C  
HETATM    2  C   UNL     1      -7.261   8.794  68.347  1.00  0.00    -0.081 C  
ENDROOT
BRANCH   2   3
HETATM    3  O   UNL     1      -8.233   8.275  69.254  1.00  0.00    -0.114 OA 
BRANCH   3   4
HETATM    4  C   UNL     1      -8.852   7.056  68.813  1.00  0.00    -0.129 C  
BRANCH   4   5
HETATM    5  C   UNL     1      -9.652   6.417  70.003  1.00  0.00    -0.158 C  
HETATM    6  C   UNL     1     -11.170   8.776  71.066  1.00  0.00    -0.273 C  
HETATM    7  C   UNL     1      -9.688   8.565  71.415  1.00  0.00    -0.287 C  
HETATM    8  N   UNL     1     -11.436  10.191  70.933  1.00  0.00    -0.351 NA 
HETATM    9  H   UNL     1     -11.663   6.078  70.429  1.00  0.00     0.000 HD 
HETATM   10  C   UNL     1      -9.279   7.091  71.347  1.00  0.00    -0.151 C  
HETATM   11  O   UNL     1     -13.108  11.692  71.398  1.00  0.00    -0.375 OA 
HETATM   12  C   UNL     1     -11.529   8.022  69.759  1.00  0.00     0.247 C  
HETATM   13  C   UNL     1     -12.096   8.355  72.222  1.00  0.00    -0.456 C  
HETATM   14  C   UNL     1     -12.609  10.588  71.523  1.00  0.00    -0.424 C  
HETATM   15  C   UNL     1     -13.169   9.442  72.314  1.00  0.00    -0.528 C  
HETATM   16  N   UNL     1     -11.111   6.616  69.760  1.00  0.00    -0.315 NA 
BRANCH   5  17
HETATM   17  C   UNL     1      -9.342   4.901  70.136  1.00  0.00    -0.217 A  
HETATM   18  C   UNL     1      -8.809   2.133  70.409  1.00  0.00    -0.130 A  
HETATM   19  C   UNL     1      -9.177   2.886  71.519  1.00  0.00    -0.186 A  
HETATM   20  C   UNL     1      -9.435   4.255  71.383  1.00  0.00    -0.225 A  
HETATM   21  C   UNL     1      -8.930   4.121  69.039  1.00  0.00    -0.163 A  
HETATM   22  C   UNL     1      -8.678   2.751  69.173  1.00  0.00    -0.134 A  
ENDBRANCH   5  17
ENDBRANCH   4   5
ENDBRANCH   3   4
ENDBRANCH   2   3
BRANCH   2  23
HETATM   23  C   UNL     1      -7.964   9.225  67.069  1.00  0.00    -0.102 A  
HETATM   24  F   UNL     1      -6.898   7.376  63.478  1.00  0.00    -0.050 F  
HETATM   25  C   UNL     1      -7.630   8.607  65.854  1.00  0.00    -0.089 A  
HETATM   26  F   UNL     1      -9.906  13.011  66.406  1.00  0.00    -0.243 F  
HETATM   27  C   UNL     1      -8.192   9.035  64.641  1.00  0.00    -0.160 A  
HETATM   28  C   UNL     1      -9.112  10.096  64.654  1.00  0.00    -0.268 A  
HETATM   29  F   UNL     1     -11.559  11.612  66.615  1.00  0.00    -0.381 F  
HETATM   30  C   UNL     1      -7.803   8.384  63.334  1.00  0.00    -0.152 C  
HETATM   31  F   UNL     1     -10.898  12.228  64.638  1.00  0.00    -0.298 F  
HETATM   32  C   UNL     1     -10.448  11.879  65.876  1.00  0.00    -0.258 C  
HETATM   33  F   UNL     1      -8.868   7.841  62.684  1.00  0.00     0.018 F  
HETATM   34  F   UNL     1      -7.240   9.267  62.465  1.00  0.00    -0.103 F  
HETATM   35  C   UNL     1      -8.889  10.282  67.055  1.00  0.00    -0.143 A  
HETATM   36  C   UNL     1      -9.470  10.727  65.856  1.00  0.00    -0.236 A  
ENDBRANCH   2  23
TORSDOF 5
ENDMDL
MODEL      252
REMARK 921   NORMALIZED FREE ENERGY PREDICTED BY IDOCK:   -3.64 KCAL/MOL
REMARK 922        TOTAL FREE ENERGY PREDICTED BY IDOCK:   -7.56 KCAL/MOL
REMARK 923 INTER-LIGAND FREE ENERGY PREDICTED BY IDOCK:   -6.41 KCAL/MOL
REMARK 924 INTRA-LIGAND FREE ENERGY PREDICTED BY IDOCK:   -1.15 KCAL/MOL
REMARK 927      BINDING AFFINITY PREDICTED BY RF-SCORE:    0.00 PKD
ROOT
HETATM    1  C   UNL     1      -6.034   8.320  69.629  1.00  0.00    -0.029 C  
HETATM    2  C   UNL     1      -6.523   6.903  69.335  1.00  0.00    -0.044 C  
ENDROOT
BRANCH   2   3
HETATM    3  O   UNL     1      -7.369   6.422  70.379  1.00  0.00    -0.083 OA 
BRANCH   3   4
HETATM    4  C   UNL     1      -8.731   6.210  69.979  1.00  0.00    -0.137 C  
BRANCH   4   5
HETATM    5  C   UNL     1      -9.690   6.619  71.152  1.00  0.00    -0.174 C  
HETATM    6  C   UNL     1     -10.582   9.353  70.299  1.00  0.00    -0.250 C  
HETATM    7  C   UNL     1      -9.209   9.136  70.955  1.00  0.00    -0.321 C  
HETATM    8  N   UNL     1     -10.479  10.391  69.298  1.00  0.00    -0.220 NA 
HETATM    9  H   UNL     1     -11.729   7.002  71.340  1.00  0.00     0.000 HD 
HETATM   10  C   UNL     1      -9.185   7.902  71.859  1.00  0.00    -0.202 C  
HETATM   11  O   UNL     1     -11.726  12.129  68.468  1.00  0.00    -0.295 OA 
HETATM   12  C   UNL     1     -11.095   8.030  69.671  1.00  0.00    -0.015 C  
HETATM   13  C   UNL     1     -11.608   9.929  71.294  1.00  0.00    -0.456 C  
HETATM   14  C   UNL     1     -11.525  11.279  69.316  1.00  0.00    -0.301 C  
HETATM   15  C   UNL     1     -12.372  11.009  70.525  1.00  0.00    -0.462 C  
HETATM   16  N   UNL     1     -11.047   6.888  70.591  1.00  0.00    -0.263 NA 
BRANCH   5  17
HETATM   17  C   UNL     1      -9.777   5.497  72.222  1.00  0.00    -0.181 A  
HETATM   18  C   UNL     1      -9.906   3.425  74.149  1.00  0.00    -0.159 A  
HETATM   19  C   UNL     1      -9.747   3.116  72.801  1.00  0.00    -0.188 A  
HETATM   20  C   UNL     1      -9.688   4.141  71.851  1.00  0.00    -0.235 A  
HETATM   21  C   UNL     1      -9.976   5.775  73.587  1.00  0.00    -0.192 A  
HETATM   22  C   UNL     1     -10.029   4.751  74.540  1.00  0.00    -0.239 A  
ENDBRANCH   5  17
ENDBRANCH   4   5
ENDBRANCH   3   4
ENDBRANCH   2   3
BRANCH   2  23
HETATM   23  C   UNL     1      -7.308   6.905  68.031  1.00  0.00    -0.097 A  
HETATM   24  F   UNL     1      -8.765  10.540  66.577  1.00  0.00    -0.132 F  
HETATM   25  C   UNL     1      -7.794   8.117  67.519  1.00  0.00    -0.110 A  
HETATM   26  F   UNL     1      -9.410   3.547  66.343  1.00  0.00    -0.151 F  
HETATM   27  C   UNL     1      -8.596   8.151  66.367  1.00  0.00    -0.150 A  
HETATM   28  C   UNL     1      -8.904   6.945  65.717  1.00  0.00    -0.088 A  
HETATM   29  F   UNL     1      -7.661   3.757  65.066  1.00  0.00    -0.079 F  
HETATM   30  C   UNL     1      -9.142   9.458  65.840  1.00  0.00    -0.195 C  
HETATM   31  F   UNL     1      -9.575   4.570  64.433  1.00  0.00    -0.160 F  
HETATM   32  C   UNL     1      -8.763   4.416  65.517  1.00  0.00    -0.123 C  
HETATM   33  F   UNL     1      -8.740   9.715  64.566  1.00  0.00    -0.154 F  
HETATM   34  F   UNL     1     -10.502   9.478  65.819  1.00  0.00    -0.307 F  
HETATM   35  C   UNL     1      -7.628   5.713  67.361  1.00  0.00    -0.089 A  
HETATM   36  C   UNL     1      -8.424   5.719  66.203  1.00  0.00    -0.130 A  
ENDBRANCH   2  23
TORSDOF 5
ENDMDL
MODEL      253
REMARK 921   NORMALIZED FREE ENERGY PREDICTED BY IDOCK:   -3.61 KCAL/MOL
REMARK 922        TOTAL FREE ENERGY PREDICTED BY IDOCK:   -7.52 KCAL/MOL
REMARK 923 INTER-LIGAND FREE ENERGY PREDICTED BY IDOCK:   -6.01 KCAL/MOL
REMARK 924 INTRA-LIGAND FREE ENERGY PREDICTED BY IDOCK:   -1.51 KCAL/MOL
REMARK 927      BINDING AFFINITY PREDICTED BY RF-SCORE:    0.00 PKD
ROOT
HETATM    1  C   UNL     1      -7.226   4.192  69.556  1.00  0.00    -0.050 C  
HETATM    2  C   UNL     1      -7.622   5.644  69.293  1.00  0.00    -0.087 C  
ENDROOT
BRANCH   2   3
HETATM    3  O   UNL     1      -8.182   5.798  67.989  1.00  0.00    -0.104 OA 
BRANCH   3   4
HETATM    4  C   UNL     1      -7.572   6.838  67.210  1.00  0.00    -0.104 C  
BRANCH   4   5
HETATM    5  C   UNL     1      -8.358   7.010  65.862  1.00  0.00    -0.141 C  
HETATM    6  C   UNL     1      -9.413   9.806  66.111  1.00  0.00    -0.205 C  
HETATM    7  C   UNL     1     -10.097   8.634  66.832  1.00  0.00    -0.355 C  
HETATM    8  N   UNL     1      -9.490  10.991  66.937  1.00  0.00    -0.175 NA 
HETATM    9  H   UNL     1      -8.158   8.204  64.166  1.00  0.00     0.000 HD 
HETATM   10  C   UNL     1      -9.856   7.297  66.127  1.00  0.00     0.095 C  
HETATM   11  O   UNL     1      -9.774  13.255  66.698  1.00  0.00    -0.255 OA 
HETATM   12  C   UNL     1      -7.937   9.454  65.788  1.00  0.00    -0.110 C  
HETATM   13  C   UNL     1     -10.175  10.219  64.838  1.00  0.00    -0.261 C  
HETATM   14  C   UNL     1      -9.811  12.128  66.239  1.00  0.00    -0.234 C  
HETATM   15  C   UNL     1     -10.186  11.749  64.836  1.00  0.00    -0.315 C  
HETATM   16  N   UNL     1      -7.777   8.162  65.112  1.00  0.00    -0.100 NA 
BRANCH   5  17
HETATM   17  C   UNL     1      -8.272   5.723  64.996  1.00  0.00    -0.137 A  
HETATM   18  C   UNL     1      -8.159   3.376  63.415  1.00  0.00    -0.084 A  
HETATM   19  C   UNL     1      -9.199   3.558  64.321  1.00  0.00    -0.131 A  
HETATM   20  C   UNL     1      -9.250   4.716  65.105  1.00  0.00    -0.156 A  
HETATM   21  C   UNL     1      -7.212   5.491  64.099  1.00  0.00    -0.051 A  
HETATM   22  C   UNL     1      -7.163   4.337  63.310  1.00  0.00    -0.049 A  
ENDBRANCH   5  17
ENDBRANCH   4   5
ENDBRANCH   3   4
ENDBRANCH   2   3
BRANCH   2  23
HETATM   23  C   UNL     1      -8.656   6.075  70.323  1.00  0.00    -0.143 A  
HETATM   24  F   UNL     1      -9.818   3.339  73.258  1.00  0.00    -0.120 F  
HETATM   25  C   UNL     1      -9.050   5.176  71.325  1.00  0.00    -0.173 A  
HETATM   26  F   UNL     1     -11.553   9.223  69.832  1.00  0.00    -0.195 F  
HETATM   27  C   UNL     1     -10.062   5.503  72.241  1.00  0.00    -0.225 A  
HETATM   28  C   UNL     1     -10.680   6.760  72.150  1.00  0.00    -0.249 A  
HETATM   29  F   UNL     1     -10.103  10.066  71.217  1.00  0.00    -0.160 F  
HETATM   30  C   UNL     1     -10.502   4.516  73.297  1.00  0.00    -0.195 C  
HETATM   31  F   UNL     1     -11.961   9.223  71.966  1.00  0.00    -0.409 F  
HETATM   32  C   UNL     1     -10.971   9.032  71.049  1.00  0.00    -0.284 C  
HETATM   33  F   UNL     1     -10.345   4.999  74.559  1.00  0.00    -0.229 F  
HETATM   34  F   UNL     1     -11.817   4.186  73.180  1.00  0.00    -0.252 F  
HETATM   35  C   UNL     1      -9.288   7.327  70.255  1.00  0.00    -0.158 A  
HETATM   36  C   UNL     1     -10.301   7.683  71.162  1.00  0.00    -0.212 A  
ENDBRANCH   2  23
TORSDOF 5
ENDMDL
MODEL      254
REMARK 921   NORMALIZED FREE ENERGY PREDICTED BY IDOCK:   -3.56 KCAL/MOL
REMARK 922        TOTAL FREE ENERGY PREDICTED BY IDOCK:   -7.46 KCAL/MOL
REMARK 923 INTER-LIGAND FREE ENERGY PREDICTED BY IDOCK:   -7.01 KCAL/MOL
REMARK 924 INTRA-LIGAND FREE ENERGY PREDICTED BY IDOCK:   -0.45 KCAL/MOL
REMARK 927      BINDING AFFINITY PREDICTED BY RF-SCORE:    0.00 PKD
ROOT
HETATM    1  C   UNL     1     -12.292  10.059  69.629  1.00  0.00     0.286 C  
HETATM    2  C   UNL     1     -10.953  10.795  69.592  1.00  0.00    -0.264 C  
ENDROOT
BRANCH   2   3
HETATM    3  O   UNL     1     -10.199  10.436  68.434  1.00  0.00    -0.154 OA 
BRANCH   3   4
HETATM    4  C   UNL     1      -8.910   9.876  68.725  1.00  0.00    -0.136 C  
BRANCH   4   5
HETATM    5  C   UNL     1      -8.363   9.137  67.454  1.00  0.00    -0.115 C  
HETATM    6  C   UNL     1      -9.608  10.721  65.233  1.00  0.00    -0.229 C  
HETATM    7  C   UNL     1     -10.416   9.662  66.000  1.00  0.00    -0.047 C  
HETATM    8  N   UNL     1     -10.472  11.827  64.885  1.00  0.00    -0.273 NA 
HETATM    9  H   UNL     1      -7.093   9.632  65.878  1.00  0.00     0.000 HD 
HETATM   10  C   UNL     1      -9.524   8.572  66.598  1.00  0.00    -0.268 C  
HETATM   11  O   UNL     1     -10.789  13.303  63.157  1.00  0.00     0.410 OA 
HETATM   12  C   UNL     1      -8.406  11.206  66.085  1.00  0.00    -0.144 C  
HETATM   13  C   UNL     1      -9.140  10.201  63.860  1.00  0.00    -0.293 C  
HETATM   14  C   UNL     1     -10.289  12.287  63.605  1.00  0.00    -0.432 C  
HETATM   15  C   UNL     1      -9.368  11.352  62.878  1.00  0.00    -0.351 C  
HETATM   16  N   UNL     1      -7.593  10.112  66.627  1.00  0.00    -0.104 NA 
BRANCH   5  17
HETATM   17  C   UNL     1      -7.448   7.946  67.849  1.00  0.00    -0.104 A  
HETATM   18  C   UNL     1      -5.785   5.756  68.530  1.00  0.00    -0.012 A  
HETATM   19  C   UNL     1      -6.882   5.567  67.695  1.00  0.00    -0.060 A  
HETATM   20  C   UNL     1      -7.705   6.649  67.364  1.00  0.00    -0.109 A  
HETATM   21  C   UNL     1      -6.354   8.097  68.722  1.00  0.00    -0.045 A  
HETATM   22  C   UNL     1      -5.526   7.017  69.049  1.00  0.00    -0.018 A  
ENDBRANCH   5  17
ENDBRANCH   4   5
ENDBRANCH   3   4
ENDBRANCH   2   3
BRANCH   2  23
HETATM   23  C   UNL     1     -11.207  12.295  69.566  1.00  0.00    -0.185 A  
HETATM   24  F   UNL     1     -13.450  13.999  72.651  1.00  0.00    -0.493 F  
HETATM   25  C   UNL     1     -11.946  12.889  70.599  1.00  0.00    -0.207 A  
HETATM   26  F   UNL     1     -11.115  14.813  66.073  1.00  0.00    -0.309 F  
HETATM   27  C   UNL     1     -12.276  14.253  70.568  1.00  0.00    -0.427 A  
HETATM   28  C   UNL     1     -11.846  15.031  69.481  1.00  0.00    -0.360 A  
HETATM   29  F   UNL     1      -9.290  15.335  67.136  1.00  0.00    -0.199 F  
HETATM   30  C   UNL     1     -13.100  14.878  71.670  1.00  0.00    -0.341 C  
HETATM   31  F   UNL     1     -11.054  16.592  67.320  1.00  0.00    -0.251 F  
HETATM   32  C   UNL     1     -10.644  15.294  67.258  1.00  0.00    -0.290 C  
HETATM   33  F   UNL     1     -12.449  15.896  72.295  1.00  0.00    -0.399 F  
HETATM   34  F   UNL     1     -14.267  15.403  71.208  1.00  0.00    -0.530 F  
HETATM   35  C   UNL     1     -10.786  13.096  68.492  1.00  0.00    -0.285 A  
HETATM   36  C   UNL     1     -11.098  14.465  68.437  1.00  0.00    -0.272 A  
ENDBRANCH   2  23
TORSDOF 5
ENDMDL
MODEL      255
REMARK 921   NORMALIZED FREE ENERGY PREDICTED BY IDOCK:   -3.54 KCAL/MOL
REMARK 922        TOTAL FREE ENERGY PREDICTED BY IDOCK:   -7.44 KCAL/MOL
REMARK 923 INTER-LIGAND FREE ENERGY PREDICTED BY IDOCK:   -7.80 KCAL/MOL
REMARK 924 INTRA-LIGAND FREE ENERGY PREDICTED BY IDOCK:    0.36 KCAL/MOL
REMARK 927      BINDING AFFINITY PREDICTED BY RF-SCORE:    0.00 PKD
ROOT
HETATM    1  C   UNL     1     -12.145  12.402  66.137  1.00  0.00    -0.295 C  
HETATM    2  C   UNL     1     -11.433  12.087  67.452  1.00  0.00    -0.336 C  
ENDROOT
BRANCH   2   3
HETATM    3  O   UNL     1     -12.185  11.161  68.236  1.00  0.00    -0.613 OA 
BRANCH   3   4
HETATM    4  C   UNL     1     -11.379  10.234  68.980  1.00  0.00    -0.180 C  
BRANCH   4   5
HETATM    5  C   UNL     1     -11.801  10.273  70.492  1.00  0.00    -0.329 C  
HETATM    6  C   UNL     1     -11.217   7.465  71.369  1.00  0.00    -0.246 C  
HETATM    7  C   UNL     1     -12.495   7.800  70.584  1.00  0.00     0.146 C  
HETATM    8  N   UNL     1     -10.738   6.159  70.974  1.00  0.00    -0.248 NA 
HETATM    9  H   UNL     1     -10.811  10.085  72.315  1.00  0.00     0.000 HD 
HETATM   10  C   UNL     1     -12.932   9.254  70.778  1.00  0.00     0.058 C  
HETATM   11  O   UNL     1      -9.738   4.320  71.916  1.00  0.00    -0.149 OA 
HETATM   12  C   UNL     1     -10.133   8.547  71.124  1.00  0.00    -0.205 C  
HETATM   13  C   UNL     1     -11.498   7.292  72.874  1.00  0.00    -0.227 C  
HETATM   14  C   UNL     1     -10.323   5.383  72.027  1.00  0.00    -0.213 C  
HETATM   15  C   UNL     1     -10.688   6.069  73.311  1.00  0.00    -0.284 C  
HETATM   16  N   UNL     1     -10.616   9.917  71.328  1.00  0.00    -0.063 NA 
BRANCH   5  17
HETATM   17  C   UNL     1     -12.323  11.679  70.892  1.00  0.00    -0.436 A  
HETATM   18  C   UNL     1     -13.277  14.232  71.663  1.00  0.00    -0.429 A  
HETATM   19  C   UNL     1     -13.699  13.094  72.344  1.00  0.00    -0.640 A  
HETATM   20  C   UNL     1     -13.230  11.833  71.957  1.00  0.00    -0.460 A  
HETATM   21  C   UNL     1     -11.945  12.845  70.199  1.00  0.00    -0.373 A  
HETATM   22  C   UNL     1     -12.408  14.107  70.588  1.00  0.00    -0.435 A  
ENDBRANCH   5  17
ENDBRANCH   4   5
ENDBRANCH   3   4
ENDBRANCH   2   3
BRANCH   2  23
HETATM   23  C   UNL     1     -10.071  11.480  67.151  1.00  0.00    -0.223 A  
HETATM   24  F   UNL     1      -6.732  12.957  69.182  1.00  0.00    -0.095 F  
HETATM   25  C   UNL     1      -8.939  11.953  67.832  1.00  0.00    -0.179 A  
HETATM   26  F   UNL     1      -8.963   9.418  63.537  1.00  0.00    -0.230 F  
HETATM   27  C   UNL     1      -7.653  11.481  67.523  1.00  0.00    -0.121 A  
HETATM   28  C   UNL     1      -7.508  10.512  66.517  1.00  0.00    -0.128 A  
HETATM   29  F   UNL     1      -9.133   7.826  65.009  1.00  0.00     0.026 F  
HETATM   30  C   UNL     1      -6.437  12.019  68.239  1.00  0.00    -0.053 C  
HETATM   31  F   UNL     1      -7.180   8.630  64.496  1.00  0.00    -0.085 F  
HETATM   32  C   UNL     1      -8.474   8.984  64.732  1.00  0.00    -0.180 C  
HETATM   33  F   UNL     1      -5.739  11.045  68.886  1.00  0.00    -0.042 F  
HETATM   34  F   UNL     1      -5.556  12.612  67.389  1.00  0.00    -0.109 F  
HETATM   35  C   UNL     1      -9.899  10.509  66.152  1.00  0.00    -0.271 A  
HETATM   36  C   UNL     1      -8.625  10.016  65.825  1.00  0.00    -0.156 A  
ENDBRANCH   2  23
TORSDOF 5
ENDMDL
MODEL      256
REMARK 921   NORMALIZED FREE ENERGY PREDICTED BY IDOCK:   -3.52 KCAL/MOL
REMARK 922        TOTAL FREE ENERGY PREDICTED BY IDOCK:   -7.42 KCAL/MOL
REMARK 923 INTER-LIGAND FREE ENERGY PREDICTED BY IDOCK:   -6.65 KCAL/MOL
REMARK 924 INTRA-LIGAND FREE ENERGY PREDICTED BY IDOCK:   -0.77 KCAL/MOL
REMARK 927      BINDING AFFINITY PREDICTED BY RF-SCORE:    0.00 PKD
ROOT
HETATM    1  C   UNL     1     -10.140  11.126  69.488  1.00  0.00     0.105 C  
HETATM    2  C   UNL     1     -10.201  11.078  67.962  1.00  0.00    -0.179 C  
ENDROOT
BRANCH   2   3
HETATM    3  O   UNL     1      -9.962  12.366  67.396  1.00  0.00    -0.200 OA 
BRANCH   3   4
HETATM    4  C   UNL     1      -9.914  13.430  68.359  1.00  0.00    -0.231 C  
BRANCH   4   5
HETATM    5  C   UNL     1     -11.180  14.342  68.194  1.00  0.00    -0.275 C  
HETATM    6  C   UNL     1     -12.234  14.452  70.999  1.00  0.00    -0.351 C  
HETATM    7  C   UNL     1     -12.495  13.231  70.103  1.00  0.00    -0.210 C  
HETATM    8  N   UNL     1     -12.056  14.016  72.366  1.00  0.00     0.203 NA 
HETATM    9  H   UNL     1     -11.752  16.228  68.869  1.00  0.00     0.000 HD 
HETATM   10  C   UNL     1     -12.466  13.586  68.614  1.00  0.00     0.283 C  
HETATM   11  O   UNL     1     -12.563  14.720  74.491  1.00  0.00    -0.378 OA 
HETATM   12  C   UNL     1     -10.988  15.231  70.502  1.00  0.00    -0.288 C  
HETATM   13  C   UNL     1     -13.467  15.373  71.085  1.00  0.00    -0.565 C  
HETATM   14  C   UNL     1     -12.704  14.804  73.284  1.00  0.00    -0.482 C  
HETATM   15  C   UNL     1     -13.580  15.781  72.556  1.00  0.00    -0.589 C  
HETATM   16  N   UNL     1     -11.025  15.541  69.069  1.00  0.00    -0.241 NA 
BRANCH   5  17
HETATM   17  C   UNL     1     -11.360  14.788  66.717  1.00  0.00    -0.347 A  
HETATM   18  C   UNL     1     -11.730  15.591  64.026  1.00  0.00     0.053 A  
HETATM   19  C   UNL     1     -12.410  14.484  64.525  1.00  0.00    -0.434 A  
HETATM   20  C   UNL     1     -12.222  14.086  65.853  1.00  0.00    -0.481 A  
HETATM   21  C   UNL     1     -10.657  15.880  66.172  1.00  0.00    -0.310 A  
HETATM   22  C   UNL     1     -10.849  16.282  64.846  1.00  0.00    -0.315 A  
ENDBRANCH   5  17
ENDBRANCH   4   5
ENDBRANCH   3   4
ENDBRANCH   2   3
BRANCH   2  23
HETATM   23  C   UNL     1      -9.142  10.114  67.449  1.00  0.00    -0.149 A  
HETATM   24  F   UNL     1      -8.313  10.046  63.355  1.00  0.00    -0.135 F  
HETATM   25  C   UNL     1      -8.839  10.085  66.080  1.00  0.00    -0.164 A  
HETATM   26  F   UNL     1      -7.858   6.497  69.403  1.00  0.00    -0.096 F  
HETATM   27  C   UNL     1      -7.933   9.151  65.554  1.00  0.00    -0.104 A  
HETATM   28  C   UNL     1      -7.316   8.238  66.424  1.00  0.00    -0.080 A  
HETATM   29  F   UNL     1      -6.192   7.864  69.699  1.00  0.00    -0.031 F  
HETATM   30  C   UNL     1      -7.636   9.106  64.073  1.00  0.00    -0.113 C  
HETATM   31  F   UNL     1      -6.114   6.382  68.112  1.00  0.00    -0.022 F  
HETATM   32  C   UNL     1      -6.945   7.260  68.740  1.00  0.00    -0.079 C  
HETATM   33  F   UNL     1      -6.318   9.303  63.799  1.00  0.00    -0.086 F  
HETATM   34  F   UNL     1      -7.963   7.908  63.516  1.00  0.00    -0.135 F  
HETATM   35  C   UNL     1      -8.509   9.191  68.299  1.00  0.00    -0.125 A  
HETATM   36  C   UNL     1      -7.594   8.249  67.800  1.00  0.00    -0.102 A  
ENDBRANCH   2  23
TORSDOF 5
ENDMDL
MODEL      257
REMARK 921   NORMALIZED FREE ENERGY PREDICTED BY IDOCK:   -3.50 KCAL/MOL
REMARK 922        TOTAL FREE ENERGY PREDICTED BY IDOCK:   -7.39 KCAL/MOL
REMARK 923 INTER-LIGAND FREE ENERGY PREDICTED BY IDOCK:   -6.29 KCAL/MOL
REMARK 924 INTRA-LIGAND FREE ENERGY PREDICTED BY IDOCK:   -1.10 KCAL/MOL
REMARK 927      BINDING AFFINITY PREDICTED BY RF-SCORE:    0.00 PKD
ROOT
HETATM    1  C   UNL     1     -10.721  11.768  65.909  1.00  0.00    -0.328 C  
HETATM    2  C   UNL     1     -10.518  11.504  67.400  1.00  0.00    -0.209 C  
ENDROOT
BRANCH   2   3
HETATM    3  O   UNL     1      -9.720  10.340  67.614  1.00  0.00    -0.160 OA 
BRANCH   3   4
HETATM    4  C   UNL     1     -10.148   9.191  66.868  1.00  0.00    -0.258 C  
BRANCH   4   5
HETATM    5  C   UNL     1      -9.107   8.031  67.052  1.00  0.00    -0.144 C  
HETATM    6  C   UNL     1      -9.855   6.950  69.748  1.00  0.00    -0.171 C  
HETATM    7  C   UNL     1      -9.014   8.230  69.613  1.00  0.00    -0.149 C  
HETATM    8  N   UNL     1     -10.737   7.071  70.887  1.00  0.00    -0.231 NA 
HETATM    9  H   UNL     1      -9.205   5.955  67.196  1.00  0.00     0.000 HD 
HETATM   10  C   UNL     1      -8.225   8.271  68.302  1.00  0.00    -0.128 C  
HETATM   11  O   UNL     1     -11.600   5.757  72.559  1.00  0.00    -0.303 OA 
HETATM   12  C   UNL     1     -10.664   6.695  68.449  1.00  0.00    -0.258 C  
HETATM   13  C   UNL     1      -8.986   5.730  70.109  1.00  0.00    -0.148 C  
HETATM   14  C   UNL     1     -10.806   5.934  71.653  1.00  0.00    -0.263 C  
HETATM   15  C   UNL     1      -9.769   4.960  71.174  1.00  0.00    -0.245 C  
HETATM   16  N   UNL     1      -9.847   6.747  67.231  1.00  0.00    -0.136 NA 
BRANCH   5  17
HETATM   17  C   UNL     1      -8.163   7.926  65.824  1.00  0.00    -0.130 A  
HETATM   18  C   UNL     1      -6.466   7.704  63.566  1.00  0.00    -0.058 A  
HETATM   19  C   UNL     1      -7.110   6.578  64.070  1.00  0.00    -0.054 A  
HETATM   20  C   UNL     1      -7.943   6.689  65.188  1.00  0.00    -0.124 A  
HETATM   21  C   UNL     1      -7.468   9.040  65.314  1.00  0.00    -0.093 A  
HETATM   22  C   UNL     1      -6.638   8.931  64.192  1.00  0.00    -0.082 A  
ENDBRANCH   5  17
ENDBRANCH   4   5
ENDBRANCH   3   4
ENDBRANCH   2   3
BRANCH   2  23
HETATM   23  C   UNL     1      -9.818  12.699  68.030  1.00  0.00    -0.218 A  
HETATM   24  F   UNL     1     -12.004  16.209  68.627  1.00  0.00    -0.378 F  
HETATM   25  C   UNL     1     -10.538  13.883  68.251  1.00  0.00    -0.263 A  
HETATM   26  F   UNL     1      -5.575  13.436  68.026  1.00  0.00    -0.077 F  
HETATM   27  C   UNL     1      -9.909  15.036  68.749  1.00  0.00    -0.233 A  
HETATM   28  C   UNL     1      -8.536  14.990  69.036  1.00  0.00    -0.200 A  
HETATM   29  F   UNL     1      -5.996  12.846  70.078  1.00  0.00    -0.109 F  
HETATM   30  C   UNL     1     -10.685  16.315  68.955  1.00  0.00    -0.300 C  
HETATM   31  F   UNL     1      -5.805  14.951  69.568  1.00  0.00    -0.094 F  
HETATM   32  C   UNL     1      -6.311  13.765  69.125  1.00  0.00    -0.105 C  
HETATM   33  F   UNL     1     -10.654  16.743  70.246  1.00  0.00    -0.210 F  
HETATM   34  F   UNL     1     -10.198  17.341  68.206  1.00  0.00    -0.275 F  
HETATM   35  C   UNL     1      -8.446  12.679  68.328  1.00  0.00    -0.163 A  
HETATM   36  C   UNL     1      -7.793  13.817  68.831  1.00  0.00     0.005 A  
ENDBRANCH   2  23
TORSDOF 5
ENDMDL
MODEL      258
REMARK 921   NORMALIZED FREE ENERGY PREDICTED BY IDOCK:   -3.46 KCAL/MOL
REMARK 922        TOTAL FREE ENERGY PREDICTED BY IDOCK:   -7.33 KCAL/MOL
REMARK 923 INTER-LIGAND FREE ENERGY PREDICTED BY IDOCK:   -6.00 KCAL/MOL
REMARK 924 INTRA-LIGAND FREE ENERGY PREDICTED BY IDOCK:   -1.33 KCAL/MOL
REMARK 927      BINDING AFFINITY PREDICTED BY RF-SCORE:    0.00 PKD
ROOT
HETATM    1  C   UNL     1     -10.479   8.177  66.425  1.00  0.00     0.175 C  
HETATM    2  C   UNL     1      -9.061   7.671  66.680  1.00  0.00    -0.164 C  
ENDROOT
BRANCH   2   3
HETATM    3  O   UNL     1      -8.426   8.415  67.719  1.00  0.00    -0.128 OA 
BRANCH   3   4
HETATM    4  C   UNL     1      -8.385   9.831  67.485  1.00  0.00    -0.114 C  
BRANCH   4   5
HETATM    5  C   UNL     1      -9.244  10.566  68.574  1.00  0.00    -0.168 C  
HETATM    6  C   UNL     1      -9.874  13.164  67.215  1.00  0.00    -0.232 C  
HETATM    7  C   UNL     1      -8.506  12.926  67.873  1.00  0.00    -0.181 C  
HETATM    8  N   UNL     1      -9.704  13.970  66.027  1.00  0.00    -0.285 NA 
HETATM    9  H   UNL     1     -11.221  11.206  68.725  1.00  0.00     0.000 HD 
HETATM   10  C   UNL     1      -8.575  11.895  69.002  1.00  0.00     0.278 C  
HETATM   11  O   UNL     1     -10.792  15.644  64.896  1.00  0.00    -0.426 OA 
HETATM   12  C   UNL     1     -10.552  11.812  66.873  1.00  0.00    -0.235 C  
HETATM   13  C   UNL     1     -10.789  14.035  68.098  1.00  0.00    -0.260 C  
HETATM   14  C   UNL     1     -10.647  14.957  65.891  1.00  0.00    -0.325 C  
HETATM   15  C   UNL     1     -11.466  15.025  67.147  1.00  0.00    -0.304 C  
HETATM   16  N   UNL     1     -10.587  10.872  67.998  1.00  0.00    -0.188 NA 
BRANCH   5  17
HETATM   17  C   UNL     1      -9.405   9.689  69.845  1.00  0.00    -0.256 A  
HETATM   18  C   UNL     1      -9.664   8.112  72.184  1.00  0.00    -0.311 A  
HETATM   19  C   UNL     1      -8.407   8.528  71.758  1.00  0.00    -0.221 A  
HETATM   20  C   UNL     1      -8.280   9.303  70.599  1.00  0.00    -0.224 A  
HETATM   21  C   UNL     1     -10.659   9.220  70.280  1.00  0.00    -0.278 A  
HETATM   22  C   UNL     1     -10.788   8.450  71.442  1.00  0.00    -0.304 A  
ENDBRANCH   5  17
ENDBRANCH   4   5
ENDBRANCH   3   4
ENDBRANCH   2   3
BRANCH   2  23
HETATM   23  C   UNL     1      -9.117   6.207  67.090  1.00  0.00    -0.114 A  
HETATM   24  F   UNL     1      -9.118   5.269  71.161  1.00  0.00    -0.140 F  
HETATM   25  C   UNL     1      -9.132   5.871  68.452  1.00  0.00    -0.115 A  
HETATM   26  F   UNL     1      -7.899   2.856  64.675  1.00  0.00    -0.074 F  
HETATM   27  C   UNL     1      -9.096   4.532  68.873  1.00  0.00    -0.171 A  
HETATM   28  C   UNL     1      -9.054   3.517  67.904  1.00  0.00    -0.200 A  
HETATM   29  F   UNL     1     -10.072   2.737  64.666  1.00  0.00    -0.117 F  
HETATM   30  C   UNL     1      -9.080   4.181  70.342  1.00  0.00    -0.110 C  
HETATM   31  F   UNL     1      -8.919   1.480  66.014  1.00  0.00    -0.112 F  
HETATM   32  C   UNL     1      -8.987   2.736  65.487  1.00  0.00    -0.135 C  
HETATM   33  F   UNL     1     -10.137   3.404  70.704  1.00  0.00    -0.206 F  
HETATM   34  F   UNL     1      -7.963   3.488  70.696  1.00  0.00    -0.051 F  
HETATM   35  C   UNL     1      -9.078   5.172  66.141  1.00  0.00    -0.144 A  
HETATM   36  C   UNL     1      -9.046   3.824  66.534  1.00  0.00    -0.162 A  
ENDBRANCH   2  23
TORSDOF 5
ENDMDL
MODEL      259
REMARK 921   NORMALIZED FREE ENERGY PREDICTED BY IDOCK:   -3.46 KCAL/MOL
REMARK 922        TOTAL FREE ENERGY PREDICTED BY IDOCK:   -7.33 KCAL/MOL
REMARK 923 INTER-LIGAND FREE ENERGY PREDICTED BY IDOCK:   -5.93 KCAL/MOL
REMARK 924 INTRA-LIGAND FREE ENERGY PREDICTED BY IDOCK:   -1.40 KCAL/MOL
REMARK 927      BINDING AFFINITY PREDICTED BY RF-SCORE:    0.00 PKD
ROOT
HETATM    1  C   UNL     1      -6.374   4.779  69.443  1.00  0.00    -0.031 C  
HETATM    2  C   UNL     1      -7.369   5.939  69.441  1.00  0.00    -0.075 C  
ENDROOT
BRANCH   2   3
HETATM    3  O   UNL     1      -7.891   6.168  68.133  1.00  0.00    -0.101 OA 
BRANCH   3   4
HETATM    4  C   UNL     1      -7.377   7.348  67.495  1.00  0.00    -0.102 C  
BRANCH   4   5
HETATM    5  C   UNL     1      -8.077   7.536  66.103  1.00  0.00    -0.116 C  
HETATM    6  C   UNL     1      -9.369  10.224  66.420  1.00  0.00    -0.165 C  
HETATM    7  C   UNL     1     -10.006   8.963  67.025  1.00  0.00    -0.300 C  
HETATM    8  N   UNL     1      -9.600  11.349  67.298  1.00  0.00    -0.174 NA 
HETATM    9  H   UNL     1      -7.855   8.839  64.493  1.00  0.00     0.000 HD 
HETATM   10  C   UNL     1      -9.609   7.692  66.270  1.00  0.00    -0.155 C  
HETATM   11  O   UNL     1     -10.048  13.596  67.158  1.00  0.00    -0.240 OA 
HETATM   12  C   UNL     1      -7.850  10.006  66.190  1.00  0.00    -0.114 C  
HETATM   13  C   UNL     1     -10.071  10.651  65.116  1.00  0.00    -0.374 C  
HETATM   14  C   UNL     1      -9.962  12.497  66.639  1.00  0.00    -0.236 C  
HETATM   15  C   UNL     1     -10.205  12.173  65.194  1.00  0.00    -0.308 C  
HETATM   16  N   UNL     1      -7.540   8.772  65.461  1.00  0.00    -0.085 NA 
BRANCH   5  17
HETATM   17  C   UNL     1      -7.827   6.313  65.180  1.00  0.00    -0.109 A  
HETATM   18  C   UNL     1      -7.406   4.092  63.473  1.00  0.00    -0.051 A  
HETATM   19  C   UNL     1      -8.700   4.508  63.772  1.00  0.00    -0.139 A  
HETATM   20  C   UNL     1      -8.906   5.603  64.619  1.00  0.00     0.097 A  
HETATM   21  C   UNL     1      -6.532   5.843  64.891  1.00  0.00    -0.038 A  
HETATM   22  C   UNL     1      -6.324   4.753  64.038  1.00  0.00    -0.026 A  
ENDBRANCH   5  17
ENDBRANCH   4   5
ENDBRANCH   3   4
ENDBRANCH   2   3
BRANCH   2  23
HETATM   23  C   UNL     1      -8.522   5.611  70.378  1.00  0.00    -0.127 A  
HETATM   24  F   UNL     1     -11.196   8.654  71.399  1.00  0.00    -0.271 F  
HETATM   25  C   UNL     1      -9.439   6.616  70.722  1.00  0.00    -0.173 A  
HETATM   26  F   UNL     1      -8.640   2.362  73.202  1.00  0.00    -0.066 F  
HETATM   27  C   UNL     1     -10.465   6.378  71.651  1.00  0.00    -0.251 A  
HETATM   28  C   UNL     1     -10.573   5.105  72.233  1.00  0.00    -0.278 A  
HETATM   29  F   UNL     1      -9.995   1.725  71.624  1.00  0.00    -0.197 F  
HETATM   30  C   UNL     1     -11.429   7.474  72.040  1.00  0.00    -0.279 C  
HETATM   31  F   UNL     1     -10.785   2.610  73.445  1.00  0.00    -0.201 F  
HETATM   32  C   UNL     1      -9.776   2.711  72.535  1.00  0.00    -0.132 C  
HETATM   33  F   UNL     1     -12.723   7.151  71.771  1.00  0.00    -0.338 F  
HETATM   34  F   UNL     1     -11.379   7.759  73.369  1.00  0.00    -0.426 F  
HETATM   35  C   UNL     1      -8.653   4.346  70.973  1.00  0.00    -0.113 A  
HETATM   36  C   UNL     1      -9.674   4.079  71.901  1.00  0.00    -0.236 A  
ENDBRANCH   2  23
TORSDOF 5
ENDMDL
MODEL      260
REMARK 921   NORMALIZED FREE ENERGY PREDICTED BY IDOCK:   -3.44 KCAL/MOL
REMARK 922        TOTAL FREE ENERGY PREDICTED BY IDOCK:   -7.31 KCAL/MOL
REMARK 923 INTER-LIGAND FREE ENERGY PREDICTED BY IDOCK:   -6.74 KCAL/MOL
REMARK 924 INTRA-LIGAND FREE ENERGY PREDICTED BY IDOCK:   -0.56 KCAL/MOL
REMARK 927      BINDING AFFINITY PREDICTED BY RF-SCORE:    0.00 PKD
ROOT
HETATM    1  C   UNL     1      -6.242  10.892  68.432  1.00  0.00    -0.046 C  
HETATM    2  C   UNL     1      -7.437  10.064  68.899  1.00  0.00    -0.083 C  
ENDROOT
BRANCH   2   3
HETATM    3  O   UNL     1      -8.446  10.893  69.476  1.00  0.00     0.001 OA 
BRANCH   3   4
HETATM    4  C   UNL     1      -8.939  11.914  68.596  1.00  0.00    -0.041 C  
BRANCH   4   5
HETATM    5  C   UNL     1     -10.508  11.872  68.574  1.00  0.00    -0.224 C  
HETATM    6  C   UNL     1     -11.155  13.953  66.514  1.00  0.00    -0.308 C  
HETATM    7  C   UNL     1     -10.781  14.350  67.951  1.00  0.00    -0.246 C  
HETATM    8  N   UNL     1     -10.628  14.933  65.591  1.00  0.00    -0.321 NA 
HETATM    9  H   UNL     1     -11.961  11.339  67.180  1.00  0.00     0.000 HD 
HETATM   10  C   UNL     1     -11.105  13.247  68.962  1.00  0.00    -0.291 C  
HETATM   11  O   UNL     1     -11.223  15.964  63.629  1.00  0.00    -0.072 OA 
HETATM   12  C   UNL     1     -10.612  12.537  66.186  1.00  0.00    -0.253 C  
HETATM   13  C   UNL     1     -12.675  14.033  66.276  1.00  0.00    -0.226 C  
HETATM   14  C   UNL     1     -11.508  15.284  64.599  1.00  0.00    -0.354 C  
HETATM   15  C   UNL     1     -12.847  14.677  64.899  1.00  0.00     0.108 C  
HETATM   16  N   UNL     1     -10.959  11.529  67.193  1.00  0.00    -0.270 NA 
BRANCH   5  17
HETATM   17  C   UNL     1     -11.053  10.822  69.581  1.00  0.00    -0.339 A  
HETATM   18  C   UNL     1     -12.085   8.932  71.420  1.00  0.00    -0.381 A  
HETATM   19  C   UNL     1     -12.368  10.285  71.577  1.00  0.00    -0.488 A  
HETATM   20  C   UNL     1     -11.853  11.218  70.669  1.00  0.00    -0.368 A  
HETATM   21  C   UNL     1     -10.753   9.451  69.472  1.00  0.00    -0.238 A  
HETATM   22  C   UNL     1     -11.272   8.516  70.375  1.00  0.00    -0.224 A  
ENDBRANCH   5  17
ENDBRANCH   4   5
ENDBRANCH   3   4
ENDBRANCH   2   3
BRANCH   2  23
HETATM   23  C   UNL     1      -8.032   9.328  67.707  1.00  0.00    -0.100 A  
HETATM   24  F   UNL     1     -10.035   5.724  68.379  1.00  0.00    -0.136 F  
HETATM   25  C   UNL     1      -8.721   8.123  67.913  1.00  0.00    -0.128 A  
HETATM   26  F   UNL     1      -6.772   9.720  63.608  1.00  0.00    -0.099 F  
HETATM   27  C   UNL     1      -9.208   7.369  66.833  1.00  0.00    -0.183 A  
HETATM   28  C   UNL     1      -9.007   7.843  65.527  1.00  0.00    -0.016 A  
HETATM   29  F   UNL     1      -8.677  10.769  63.666  1.00  0.00    -0.176 F  
HETATM   30  C   UNL     1      -9.921   6.057  67.062  1.00  0.00    -0.163 C  
HETATM   31  F   UNL     1      -8.581   8.728  62.924  1.00  0.00    -0.192 F  
HETATM   32  C   UNL     1      -8.096   9.559  63.889  1.00  0.00    -0.152 C  
HETATM   33  F   UNL     1     -11.187   6.057  66.565  1.00  0.00    -0.348 F  
HETATM   34  F   UNL     1      -9.282   5.012  66.469  1.00  0.00    -0.125 F  
HETATM   35  C   UNL     1      -7.846   9.782  66.391  1.00  0.00    -0.106 A  
HETATM   36  C   UNL     1      -8.328   9.050  65.293  1.00  0.00    -0.157 A  
ENDBRANCH   2  23
TORSDOF 5
ENDMDL
MODEL      261
REMARK 921   NORMALIZED FREE ENERGY PREDICTED BY IDOCK:   -3.42 KCAL/MOL
REMARK 922        TOTAL FREE ENERGY PREDICTED BY IDOCK:   -7.28 KCAL/MOL
REMARK 923 INTER-LIGAND FREE ENERGY PREDICTED BY IDOCK:   -6.84 KCAL/MOL
REMARK 924 INTRA-LIGAND FREE ENERGY PREDICTED BY IDOCK:   -0.44 KCAL/MOL
REMARK 927      BINDING AFFINITY PREDICTED BY RF-SCORE:    0.00 PKD
ROOT
HETATM    1  C   UNL     1      -8.537  10.146  65.316  1.00  0.00    -0.169 C  
HETATM    2  C   UNL     1      -9.749   9.454  65.937  1.00  0.00    -0.285 C  
ENDROOT
BRANCH   2   3
HETATM    3  O   UNL     1      -9.355   8.340  66.737  1.00  0.00    -0.158 OA 
BRANCH   3   4
HETATM    4  C   UNL     1      -9.375   7.084  66.042  1.00  0.00     0.034 C  
BRANCH   4   5
HETATM    5  C   UNL     1      -8.339   6.106  66.702  1.00  0.00    -0.111 C  
HETATM    6  C   UNL     1      -8.269   7.095  69.532  1.00  0.00    -0.132 C  
HETATM    7  C   UNL     1      -7.491   7.818  68.421  1.00  0.00    -0.104 C  
HETATM    8  N   UNL     1      -8.773   8.067  70.477  1.00  0.00    -0.134 NA 
HETATM    9  H   UNL     1      -8.415   4.634  68.174  1.00  0.00     0.000 HD 
HETATM   10  C   UNL     1      -7.124   6.883  67.266  1.00  0.00    -0.084 C  
HETATM   11  O   UNL     1      -9.119   8.270  72.737  1.00  0.00    -0.230 OA 
HETATM   12  C   UNL     1      -9.429   6.262  68.926  1.00  0.00    -0.127 C  
HETATM   13  C   UNL     1      -7.346   6.215  70.397  1.00  0.00    -0.089 C  
HETATM   14  C   UNL     1      -8.626   7.687  71.788  1.00  0.00    -0.113 C  
HETATM   15  C   UNL     1      -7.789   6.443  71.844  1.00  0.00    -0.100 C  
HETATM   16  N   UNL     1      -9.008   5.387  67.826  1.00  0.00    -0.109 NA 
BRANCH   5  17
HETATM   17  C   UNL     1      -7.802   5.079  65.668  1.00  0.00    -0.091 A  
HETATM   18  C   UNL     1      -6.852   3.220  63.754  1.00  0.00    -0.040 A  
HETATM   19  C   UNL     1      -8.213   3.494  63.846  1.00  0.00    -0.090 A  
HETATM   20  C   UNL     1      -8.680   4.409  64.796  1.00  0.00    -0.140 A  
HETATM   21  C   UNL     1      -6.435   4.752  65.576  1.00  0.00    -0.040 A  
HETATM   22  C   UNL     1      -5.965   3.842  64.623  1.00  0.00    -0.022 A  
ENDBRANCH   5  17
ENDBRANCH   4   5
ENDBRANCH   3   4
ENDBRANCH   2   3
BRANCH   2  23
HETATM   23  C   UNL     1     -10.497  10.446  66.814  1.00  0.00    -0.287 A  
HETATM   24  F   UNL     1     -11.725   9.226  70.616  1.00  0.00    -0.284 F  
HETATM   25  C   UNL     1     -10.906  10.061  68.100  1.00  0.00    -0.303 A  
HETATM   26  F   UNL     1     -12.723  13.865  65.434  1.00  0.00    -0.457 F  
HETATM   27  C   UNL     1     -11.674  10.915  68.907  1.00  0.00    -0.376 A  
HETATM   28  C   UNL     1     -12.025  12.182  68.413  1.00  0.00    -0.257 A  
HETATM   29  F   UNL     1     -10.932  14.734  66.311  1.00  0.00    -0.305 F  
HETATM   30  C   UNL     1     -12.137  10.480  70.278  1.00  0.00    -0.318 C  
HETATM   31  F   UNL     1     -12.783  14.678  67.448  1.00  0.00    -0.109 F  
HETATM   32  C   UNL     1     -12.010  13.953  66.592  1.00  0.00    -0.442 C  
HETATM   33  F   UNL     1     -11.688  11.301  71.265  1.00  0.00    -0.255 F  
HETATM   34  F   UNL     1     -13.493  10.467  70.385  1.00  0.00    -0.360 F  
HETATM   35  C   UNL     1     -10.860  11.720  66.345  1.00  0.00    -0.325 A  
HETATM   36  C   UNL     1     -11.623  12.597  67.134  1.00  0.00    -0.434 A  
ENDBRANCH   2  23
TORSDOF 5
ENDMDL
MODEL      262
REMARK 921   NORMALIZED FREE ENERGY PREDICTED BY IDOCK:   -3.38 KCAL/MOL
REMARK 922        TOTAL FREE ENERGY PREDICTED BY IDOCK:   -7.23 KCAL/MOL
REMARK 923 INTER-LIGAND FREE ENERGY PREDICTED BY IDOCK:   -5.60 KCAL/MOL
REMARK 924 INTRA-LIGAND FREE ENERGY PREDICTED BY IDOCK:   -1.63 KCAL/MOL
REMARK 927      BINDING AFFINITY PREDICTED BY RF-SCORE:    0.00 PKD
ROOT
HETATM    1  C   UNL     1      -7.509   8.684  68.208  1.00  0.00    -0.095 C  
HETATM    2  C   UNL     1      -6.937   7.284  68.426  1.00  0.00    -0.079 C  
ENDROOT
BRANCH   2   3
HETATM    3  O   UNL     1      -7.751   6.528  69.322  1.00  0.00    -0.097 OA 
BRANCH   3   4
HETATM    4  C   UNL     1      -9.150   6.550  69.003  1.00  0.00    -0.132 C  
BRANCH   4   5
HETATM    5  C   UNL     1      -9.974   6.015  70.227  1.00  0.00    -0.187 C  
HETATM    6  C   UNL     1     -11.343   8.505  71.187  1.00  0.00    -0.270 C  
HETATM    7  C   UNL     1      -9.872   8.225  71.535  1.00  0.00    -0.250 C  
HETATM    8  N   UNL     1     -11.529   9.925  70.989  1.00  0.00    -0.363 NA 
HETATM    9  H   UNL     1     -11.997   5.814  70.684  1.00  0.00     0.000 HD 
HETATM   10  C   UNL     1      -9.550   6.729  71.534  1.00  0.00    -0.165 C  
HETATM   11  O   UNL     1     -13.107  11.541  71.394  1.00  0.00    -0.380 OA 
HETATM   12  C   UNL     1     -11.758   7.712  69.920  1.00  0.00     0.289 C  
HETATM   13  C   UNL     1     -12.281   8.193  72.369  1.00  0.00    -0.374 C  
HETATM   14  C   UNL     1     -12.671  10.417  71.568  1.00  0.00    -0.459 C  
HETATM   15  C   UNL     1     -13.288   9.344  72.417  1.00  0.00    -0.503 C  
HETATM   16  N   UNL     1     -11.422   6.286  69.985  1.00  0.00    -0.426 NA 
BRANCH   5  17
HETATM   17  C   UNL     1      -9.751   4.492  70.430  1.00  0.00    -0.287 A  
HETATM   18  C   UNL     1      -9.315   1.713  70.767  1.00  0.00    -0.178 A  
HETATM   19  C   UNL     1      -9.298   2.274  69.493  1.00  0.00    -0.161 A  
HETATM   20  C   UNL     1      -9.518   3.646  69.329  1.00  0.00    -0.244 A  
HETATM   21  C   UNL     1      -9.801   3.889  71.701  1.00  0.00    -0.247 A  
HETATM   22  C   UNL     1      -9.575   2.518  71.868  1.00  0.00    -0.208 A  
ENDBRANCH   5  17
ENDBRANCH   4   5
ENDBRANCH   3   4
ENDBRANCH   2   3
BRANCH   2  23
HETATM   23  C   UNL     1      -6.873   6.556  67.091  1.00  0.00    -0.066 A  
HETATM   24  F   UNL     1      -7.587   8.725  63.593  1.00  0.00    -0.106 F  
HETATM   25  C   UNL     1      -7.096   7.269  65.904  1.00  0.00    -0.066 A  
HETATM   26  F   UNL     1      -7.409   2.326  66.491  1.00  0.00    -0.056 F  
HETATM   27  C   UNL     1      -7.131   6.619  64.660  1.00  0.00    -0.057 A  
HETATM   28  C   UNL     1      -6.929   5.231  64.612  1.00  0.00    -0.049 A  
HETATM   29  F   UNL     1      -5.272   2.620  66.215  1.00  0.00    -0.004 F  
HETATM   30  C   UNL     1      -7.404   7.390  63.389  1.00  0.00    -0.087 C  
HETATM   31  F   UNL     1      -6.582   2.473  64.487  1.00  0.00    -0.027 F  
HETATM   32  C   UNL     1      -6.490   2.997  65.742  1.00  0.00    -0.032 C  
HETATM   33  F   UNL     1      -6.391   7.285  62.487  1.00  0.00    -0.050 F  
HETATM   34  F   UNL     1      -8.524   6.955  62.751  1.00  0.00    -0.080 F  
HETATM   35  C   UNL     1      -6.670   5.169  67.016  1.00  0.00    -0.055 A  
HETATM   36  C   UNL     1      -6.695   4.494  65.784  1.00  0.00    -0.053 A  
ENDBRANCH   2  23
TORSDOF 5
ENDMDL
MODEL      263
REMARK 921   NORMALIZED FREE ENERGY PREDICTED BY IDOCK:   -3.35 KCAL/MOL
REMARK 922        TOTAL FREE ENERGY PREDICTED BY IDOCK:   -7.19 KCAL/MOL
REMARK 923 INTER-LIGAND FREE ENERGY PREDICTED BY IDOCK:   -6.12 KCAL/MOL
REMARK 924 INTRA-LIGAND FREE ENERGY PREDICTED BY IDOCK:   -1.07 KCAL/MOL
REMARK 927      BINDING AFFINITY PREDICTED BY RF-SCORE:    0.00 PKD
ROOT
HETATM    1  C   UNL     1      -6.389  12.917  68.819  1.00  0.00    -0.080 C  
HETATM    2  C   UNL     1      -7.121  12.863  67.480  1.00  0.00    -0.152 C  
ENDROOT
BRANCH   2   3
HETATM    3  O   UNL     1      -7.748  11.595  67.285  1.00  0.00    -0.137 OA 
BRANCH   3   4
HETATM    4  C   UNL     1      -6.842  10.482  67.319  1.00  0.00    -0.082 C  
BRANCH   4   5
HETATM    5  C   UNL     1      -7.336   9.377  66.319  1.00  0.00    -0.096 C  
HETATM    6  C   UNL     1      -6.690   6.858  67.813  1.00  0.00    -0.067 C  
HETATM    7  C   UNL     1      -5.599   7.631  67.055  1.00  0.00    -0.031 C  
HETATM    8  N   UNL     1      -6.128   6.287  69.016  1.00  0.00    -0.024 NA 
HETATM    9  H   UNL     1      -8.830   7.926  66.328  1.00  0.00     0.000 HD 
HETATM   10  C   UNL     1      -6.168   8.452  65.895  1.00  0.00    -0.052 C  
HETATM   11  O   UNL     1      -6.311   4.380  70.281  1.00  0.00    -0.025 OA 
HETATM   12  C   UNL     1      -7.880   7.794  68.151  1.00  0.00    -0.121 C  
HETATM   13  C   UNL     1      -7.165   5.619  67.029  1.00  0.00    -0.075 C  
HETATM   14  C   UNL     1      -6.530   4.996  69.254  1.00  0.00    -0.039 C  
HETATM   15  C   UNL     1      -7.290   4.496  68.060  1.00  0.00    -0.065 C  
HETATM   16  N   UNL     1      -8.378   8.550  66.997  1.00  0.00    -0.110 NA 
BRANCH   5  17
HETATM   17  C   UNL     1      -7.925  10.011  65.030  1.00  0.00    -0.143 A  
HETATM   18  C   UNL     1      -8.978  11.137  62.654  1.00  0.00    -0.347 A  
HETATM   19  C   UNL     1      -7.701  10.587  62.659  1.00  0.00    -0.146 A  
HETATM   20  C   UNL     1      -7.180  10.035  63.835  1.00  0.00    -0.125 A  
HETATM   21  C   UNL     1      -9.199  10.611  65.002  1.00  0.00    -0.245 A  
HETATM   22  C   UNL     1      -9.723  11.157  63.826  1.00  0.00    -0.338 A  
ENDBRANCH   5  17
ENDBRANCH   4   5
ENDBRANCH   3   4
ENDBRANCH   2   3
BRANCH   2  23
HETATM   23  C   UNL     1      -8.188  13.947  67.447  1.00  0.00    -0.198 A  
HETATM   24  F   UNL     1     -12.203  12.800  67.318  1.00  0.00    -0.397 F  
HETATM   25  C   UNL     1      -9.542  13.583  67.417  1.00  0.00    -0.227 A  
HETATM   26  F   UNL     1      -7.635  17.997  66.092  1.00  0.00    -0.260 F  
HETATM   27  C   UNL     1     -10.554  14.549  67.299  1.00  0.00    -0.280 A  
HETATM   28  C   UNL     1     -10.193  15.904  67.219  1.00  0.00    -0.278 A  
HETATM   29  F   UNL     1      -7.778  18.190  68.254  1.00  0.00    -0.244 F  
HETATM   30  C   UNL     1     -12.008  14.146  67.236  1.00  0.00    -0.414 C  
HETATM   31  F   UNL     1      -9.513  18.593  67.008  1.00  0.00    -0.277 F  
HETATM   32  C   UNL     1      -8.451  17.752  67.155  1.00  0.00    -0.228 C  
HETATM   33  F   UNL     1     -12.745  14.692  68.241  1.00  0.00    -0.005 F  
HETATM   34  F   UNL     1     -12.603  14.537  66.076  1.00  0.00    -0.385 F  
HETATM   35  C   UNL     1      -7.854  15.309  67.369  1.00  0.00    -0.220 A  
HETATM   36  C   UNL     1      -8.846  16.297  67.255  1.00  0.00    -0.204 A  
ENDBRANCH   2  23
TORSDOF 5
ENDMDL
MODEL      264
REMARK 921   NORMALIZED FREE ENERGY PREDICTED BY IDOCK:   -3.33 KCAL/MOL
REMARK 922        TOTAL FREE ENERGY PREDICTED BY IDOCK:   -7.16 KCAL/MOL
REMARK 923 INTER-LIGAND FREE ENERGY PREDICTED BY IDOCK:   -6.62 KCAL/MOL
REMARK 924 INTRA-LIGAND FREE ENERGY PREDICTED BY IDOCK:   -0.55 KCAL/MOL
REMARK 927      BINDING AFFINITY PREDICTED BY RF-SCORE:    0.00 PKD
ROOT
HETATM    1  C   UNL     1      -9.632   7.809  65.827  1.00  0.00     0.264 C  
HETATM    2  C   UNL     1      -9.624   8.557  67.159  1.00  0.00    -0.178 C  
ENDROOT
BRANCH   2   3
HETATM    3  O   UNL     1     -10.469   9.706  67.110  1.00  0.00    -0.247 OA 
BRANCH   3   4
HETATM    4  C   UNL     1     -10.172  10.607  66.033  1.00  0.00    -0.247 C  
BRANCH   4   5
HETATM    5  C   UNL     1      -9.864  12.032  66.613  1.00  0.00    -0.204 C  
HETATM    6  C   UNL     1      -7.858  11.408  68.754  1.00  0.00    -0.128 C  
HETATM    7  C   UNL     1      -9.362  11.192  68.990  1.00  0.00    -0.065 C  
HETATM    8  N   UNL     1      -7.110  10.375  69.434  1.00  0.00    -0.088 NA 
HETATM    9  H   UNL     1      -8.199  13.281  66.680  1.00  0.00     0.000 HD 
HETATM   10  C   UNL     1     -10.224  12.107  68.118  1.00  0.00    -0.203 C  
HETATM   11  O   UNL     1      -5.143  10.133  70.590  1.00  0.00    -0.037 OA 
HETATM   12  C   UNL     1      -7.544  11.409  67.235  1.00  0.00    -0.138 C  
HETATM   13  C   UNL     1      -7.354  12.701  69.425  1.00  0.00     0.349 C  
HETATM   14  C   UNL     1      -5.999  10.840  70.090  1.00  0.00    -0.106 C  
HETATM   15  C   UNL     1      -6.013  12.341  70.067  1.00  0.00    -0.153 C  
HETATM   16  N   UNL     1      -8.405  12.307  66.458  1.00  0.00    -0.018 NA 
BRANCH   5  17
HETATM   17  C   UNL     1     -10.686  13.125  65.878  1.00  0.00    -0.287 A  
HETATM   18  C   UNL     1     -12.153  15.124  64.508  1.00  0.00    -0.310 A  
HETATM   19  C   UNL     1     -10.766  15.203  64.582  1.00  0.00    -0.234 A  
HETATM   20  C   UNL     1     -10.044  14.217  65.264  1.00  0.00    -0.378 A  
HETATM   21  C   UNL     1     -12.093  13.094  65.819  1.00  0.00    -0.502 A  
HETATM   22  C   UNL     1     -12.816  14.076  65.132  1.00  0.00    -0.368 A  
ENDBRANCH   5  17
ENDBRANCH   4   5
ENDBRANCH   3   4
ENDBRANCH   2   3
BRANCH   2  23
HETATM   23  C   UNL     1     -10.121   7.630  68.258  1.00  0.00    -0.214 A  
HETATM   24  F   UNL     1     -12.648   9.186  71.198  1.00  0.00    -0.326 F  
HETATM   25  C   UNL     1     -10.981   8.129  69.247  1.00  0.00     0.030 A  
HETATM   26  F   UNL     1      -8.214   3.990  69.548  1.00  0.00    -0.058 F  
HETATM   27  C   UNL     1     -11.393   7.331  70.326  1.00  0.00    -0.266 A  
HETATM   28  C   UNL     1     -10.936   6.005  70.403  1.00  0.00    -0.399 A  
HETATM   29  F   UNL     1      -9.955   3.298  68.443  1.00  0.00    -0.157 F  
HETATM   30  C   UNL     1     -12.294   7.886  71.403  1.00  0.00    -0.312 C  
HETATM   31  F   UNL     1     -10.010   3.390  70.614  1.00  0.00    -0.244 F  
HETATM   32  C   UNL     1      -9.574   4.055  69.507  1.00  0.00    -0.195 C  
HETATM   33  F   UNL     1     -13.460   7.194  71.517  1.00  0.00    -0.399 F  
HETATM   34  F   UNL     1     -11.712   7.850  72.633  1.00  0.00    -0.363 F  
HETATM   35  C   UNL     1      -9.681   6.300  68.357  1.00  0.00    -0.130 A  
HETATM   36  C   UNL     1     -10.081   5.477  69.423  1.00  0.00    -0.306 A  
ENDBRANCH   2  23
TORSDOF 5
ENDMDL
MODEL      265
REMARK 921   NORMALIZED FREE ENERGY PREDICTED BY IDOCK:   -3.32 KCAL/MOL
REMARK 922        TOTAL FREE ENERGY PREDICTED BY IDOCK:   -7.16 KCAL/MOL
REMARK 923 INTER-LIGAND FREE ENERGY PREDICTED BY IDOCK:   -5.92 KCAL/MOL
REMARK 924 INTRA-LIGAND FREE ENERGY PREDICTED BY IDOCK:   -1.24 KCAL/MOL
REMARK 927      BINDING AFFINITY PREDICTED BY RF-SCORE:    0.00 PKD
ROOT
HETATM    1  C   UNL     1      -8.802   9.744  67.388  1.00  0.00    -0.137 C  
HETATM    2  C   UNL     1      -9.573   9.003  68.479  1.00  0.00    -0.153 C  
ENDROOT
BRANCH   2   3
HETATM    3  O   UNL     1      -8.692   8.505  69.485  1.00  0.00    -0.133 OA 
BRANCH   3   4
HETATM    4  C   UNL     1      -7.515   7.865  68.968  1.00  0.00    -0.097 C  
BRANCH   4   5
HETATM    5  C   UNL     1      -7.226   6.560  69.791  1.00  0.00    -0.078 C  
HETATM    6  C   UNL     1      -6.745   4.551  67.616  1.00  0.00    -0.048 C  
HETATM    7  C   UNL     1      -8.171   4.968  68.008  1.00  0.00    -0.097 C  
HETATM    8  N   UNL     1      -6.686   4.316  66.191  1.00  0.00    -0.048 NA 
HETATM    9  H   UNL     1      -5.582   5.310  70.065  1.00  0.00     0.000 HD 
HETATM   10  C   UNL     1      -8.258   5.454  69.456  1.00  0.00    -0.096 C  
HETATM   11  O   UNL     1      -5.663   2.893  64.708  1.00  0.00    -0.013 OA 
HETATM   12  C   UNL     1      -5.727   5.644  68.038  1.00  0.00    -0.012 C  
HETATM   13  C   UNL     1      -6.365   3.181  68.210  1.00  0.00    -0.033 C  
HETATM   14  C   UNL     1      -5.976   3.194  65.847  1.00  0.00    -0.023 C  
HETATM   15  C   UNL     1      -5.639   2.429  67.093  1.00  0.00    -0.018 C  
HETATM   16  N   UNL     1      -5.863   6.062  69.437  1.00  0.00    -0.019 NA 
BRANCH   5  17
HETATM   17  C   UNL     1      -7.306   6.831  71.318  1.00  0.00    -0.082 A  
HETATM   18  C   UNL     1      -7.457   7.283  74.110  1.00  0.00    -0.127 A  
HETATM   19  C   UNL     1      -8.214   6.274  73.524  1.00  0.00    -0.117 A  
HETATM   20  C   UNL     1      -8.141   6.055  72.143  1.00  0.00    -0.107 A  
HETATM   21  C   UNL     1      -6.582   7.870  71.934  1.00  0.00    -0.050 A  
HETATM   22  C   UNL     1      -6.649   8.085  73.315  1.00  0.00    -0.108 A  
ENDBRANCH   5  17
ENDBRANCH   4   5
ENDBRANCH   3   4
ENDBRANCH   2   3
BRANCH   2  23
HETATM   23  C   UNL     1     -10.565   9.957  69.127  1.00  0.00    -0.240 A  
HETATM   24  F   UNL     1     -10.428  14.000  68.083  1.00  0.00    -0.224 F  
HETATM   25  C   UNL     1     -10.545  11.316  68.780  1.00  0.00    -0.234 A  
HETATM   26  F   UNL     1     -12.582   9.340  72.881  1.00  0.00    -0.313 F  
HETATM   27  C   UNL     1     -11.384  12.244  69.417  1.00  0.00    -0.294 A  
HETATM   28  C   UNL     1     -12.264  11.791  70.414  1.00  0.00    -0.416 A  
HETATM   29  F   UNL     1     -14.143   9.029  71.399  1.00  0.00    -0.424 F  
HETATM   30  C   UNL     1     -11.333  13.711  69.060  1.00  0.00    -0.287 C  
HETATM   31  F   UNL     1     -13.984  10.938  72.427  1.00  0.00    -0.191 F  
HETATM   32  C   UNL     1     -13.246   9.944  71.856  1.00  0.00    -0.458 C  
HETATM   33  F   UNL     1     -12.529  14.181  68.613  1.00  0.00    -0.330 F  
HETATM   34  F   UNL     1     -10.994  14.490  70.123  1.00  0.00    -0.250 F  
HETATM   35  C   UNL     1     -11.457   9.530  70.124  1.00  0.00    -0.205 A  
HETATM   36  C   UNL     1     -12.311  10.435  70.775  1.00  0.00    -0.463 A  
ENDBRANCH   2  23
TORSDOF 5
ENDMDL
MODEL      266
REMARK 921   NORMALIZED FREE ENERGY PREDICTED BY IDOCK:   -3.32 KCAL/MOL
REMARK 922        TOTAL FREE ENERGY PREDICTED BY IDOCK:   -7.15 KCAL/MOL
REMARK 923 INTER-LIGAND FREE ENERGY PREDICTED BY IDOCK:   -6.36 KCAL/MOL
REMARK 924 INTRA-LIGAND FREE ENERGY PREDICTED BY IDOCK:   -0.79 KCAL/MOL
REMARK 927      BINDING AFFINITY PREDICTED BY RF-SCORE:    0.00 PKD
ROOT
HETATM    1  C   UNL     1      -7.604   9.921  64.912  1.00  0.00    -0.135 C  
HETATM    2  C   UNL     1      -7.650  10.664  66.247  1.00  0.00    -0.137 C  
ENDROOT
BRANCH   2   3
HETATM    3  O   UNL     1      -6.963  11.912  66.166  1.00  0.00     0.336 OA 
BRANCH   3   4
HETATM    4  C   UNL     1      -5.769  11.976  66.961  1.00  0.00    -0.123 C  
BRANCH   4   5
HETATM    5  C   UNL     1      -6.116  12.555  68.379  1.00  0.00    -0.058 C  
HETATM    6  C   UNL     1      -6.665  15.436  67.753  1.00  0.00    -0.166 C  
HETATM    7  C   UNL     1      -5.225  14.911  67.872  1.00  0.00    -0.091 C  
HETATM    8  N   UNL     1      -6.725  16.451  66.725  1.00  0.00    -0.250 NA 
HETATM    9  H   UNL     1      -7.811  13.366  69.278  1.00  0.00     0.000 HD 
HETATM   10  C   UNL     1      -5.128  13.680  68.775  1.00  0.00    -0.074 C  
HETATM   11  O   UNL     1      -7.795  18.438  66.310  1.00  0.00    -0.259 OA 
HETATM   12  C   UNL     1      -7.640  14.272  67.436  1.00  0.00    -0.163 C  
HETATM   13  C   UNL     1      -7.103  16.197  69.019  1.00  0.00    -0.187 C  
HETATM   14  C   UNL     1      -7.478  17.544  67.074  1.00  0.00    -0.200 C  
HETATM   15  C   UNL     1      -7.852  17.435  68.523  1.00  0.00    -0.268 C  
HETATM   16  N   UNL     1      -7.495  13.124  68.339  1.00  0.00    -0.118 NA 
BRANCH   5  17
HETATM   17  C   UNL     1      -6.034  11.452  69.469  1.00  0.00    -0.086 A  
HETATM   18  C   UNL     1      -5.884   9.410  71.426  1.00  0.00    -0.075 A  
HETATM   19  C   UNL     1      -6.581   9.193  70.242  1.00  0.00    -0.052 A  
HETATM   20  C   UNL     1      -6.659  10.205  69.279  1.00  0.00    -0.053 A  
HETATM   21  C   UNL     1      -5.369  11.655  70.693  1.00  0.00    -0.141 A  
HETATM   22  C   UNL     1      -5.286  10.642  71.655  1.00  0.00     0.002 A  
ENDBRANCH   5  17
ENDBRANCH   4   5
ENDBRANCH   3   4
ENDBRANCH   2   3
BRANCH   2  23
HETATM   23  C   UNL     1      -9.100  10.926  66.623  1.00  0.00    -0.175 A  
HETATM   24  F   UNL     1     -11.416  13.333  64.113  1.00  0.00    -0.361 F  
HETATM   25  C   UNL     1      -9.899  11.721  65.787  1.00  0.00    -0.267 A  
HETATM   26  F   UNL     1     -10.767  10.678  70.587  1.00  0.00    -0.272 F  
HETATM   27  C   UNL     1     -11.215  12.059  66.142  1.00  0.00    -0.394 A  
HETATM   28  C   UNL     1     -11.735  11.580  67.355  1.00  0.00    -0.231 A  
HETATM   29  F   UNL     1     -11.549   8.912  69.585  1.00  0.00    -0.044 F  
HETATM   30  C   UNL     1     -12.057  12.940  65.250  1.00  0.00    -0.453 C  
HETATM   31  F   UNL     1     -12.783  10.691  69.774  1.00  0.00    -0.354 F  
HETATM   32  C   UNL     1     -11.511  10.270  69.520  1.00  0.00    -0.210 C  
HETATM   33  F   UNL     1     -13.201  12.329  64.842  1.00  0.00    -0.399 F  
HETATM   34  F   UNL     1     -12.442  14.087  65.872  1.00  0.00    -0.422 F  
HETATM   35  C   UNL     1      -9.646  10.458  67.830  1.00  0.00    -0.169 A  
HETATM   36  C   UNL     1     -10.962  10.777  68.207  1.00  0.00    -0.307 A  
ENDBRANCH   2  23
TORSDOF 5
ENDMDL
MODEL      267
REMARK 921   NORMALIZED FREE ENERGY PREDICTED BY IDOCK:   -3.30 KCAL/MOL
REMARK 922        TOTAL FREE ENERGY PREDICTED BY IDOCK:   -7.13 KCAL/MOL
REMARK 923 INTER-LIGAND FREE ENERGY PREDICTED BY IDOCK:   -7.68 KCAL/MOL
REMARK 924 INTRA-LIGAND FREE ENERGY PREDICTED BY IDOCK:    0.55 KCAL/MOL
REMARK 927      BINDING AFFINITY PREDICTED BY RF-SCORE:    0.00 PKD
ROOT
HETATM    1  C   UNL     1     -10.739  16.926  70.479  1.00  0.00     0.483 C  
HETATM    2  C   UNL     1     -10.473  16.066  69.245  1.00  0.00    -0.257 C  
ENDROOT
BRANCH   2   3
HETATM    3  O   UNL     1     -11.694  15.654  68.630  1.00  0.00    -0.366 OA 
BRANCH   3   4
HETATM    4  C   UNL     1     -11.557  14.520  67.760  1.00  0.00    -0.365 C  
BRANCH   4   5
HETATM    5  C   UNL     1     -11.394  13.218  68.620  1.00  0.00    -0.288 C  
HETATM    6  C   UNL     1      -9.515  11.595  66.937  1.00  0.00    -0.185 C  
HETATM    7  C   UNL     1     -11.013  11.673  66.601  1.00  0.00    -0.349 C  
HETATM    8  N   UNL     1      -8.750  11.533  65.713  1.00  0.00    -0.078 NA 
HETATM    9  H   UNL     1      -9.830  12.299  69.645  1.00  0.00     0.000 HD 
HETATM   10  C   UNL     1     -11.870  11.971  67.834  1.00  0.00    -0.320 C  
HETATM   11  O   UNL     1      -6.862  10.514  64.897  1.00  0.00    -0.080 OA 
HETATM   12  C   UNL     1      -9.089  12.817  67.794  1.00  0.00    -0.197 C  
HETATM   13  C   UNL     1      -9.154  10.272  67.640  1.00  0.00    -0.144 C  
HETATM   14  C   UNL     1      -7.726  10.620  65.749  1.00  0.00    -0.130 C  
HETATM   15  C   UNL     1      -7.843   9.807  67.005  1.00  0.00    -0.102 C  
HETATM   16  N   UNL     1      -9.951  13.044  68.959  1.00  0.00     0.123 NA 
BRANCH   5  17
HETATM   17  C   UNL     1     -12.234  13.299  69.924  1.00  0.00    -0.313 A  
HETATM   18  C   UNL     1     -13.737  13.421  72.322  1.00  0.00    -0.705 A  
HETATM   19  C   UNL     1     -13.115  12.234  71.946  1.00  0.00    -0.469 A  
HETATM   20  C   UNL     1     -12.377  12.175  70.759  1.00  0.00    -0.391 A  
HETATM   21  C   UNL     1     -12.907  14.474  70.311  1.00  0.00    -0.249 A  
HETATM   22  C   UNL     1     -13.640  14.537  71.501  1.00  0.00    -0.465 A  
ENDBRANCH   5  17
ENDBRANCH   4   5
ENDBRANCH   3   4
ENDBRANCH   2   3
BRANCH   2  23
HETATM   23  C   UNL     1      -9.666  16.871  68.237  1.00  0.00    -0.256 A  
HETATM   24  F   UNL     1      -5.598  16.028  67.801  1.00  0.00    -0.108 F  
HETATM   25  C   UNL     1      -8.301  16.595  68.066  1.00  0.00    -0.187 A  
HETATM   26  F   UNL     1     -10.655  20.795  66.764  1.00  0.00    -0.243 F  
HETATM   27  C   UNL     1      -7.502  17.371  67.211  1.00  0.00    -0.211 A  
HETATM   28  C   UNL     1      -8.092  18.437  66.512  1.00  0.00    -0.291 A  
HETATM   29  F   UNL     1     -11.088  19.487  65.081  1.00  0.00    -0.470 F  
HETATM   30  C   UNL     1      -6.027  17.086  67.057  1.00  0.00    -0.179 C  
HETATM   31  F   UNL     1      -9.214  20.587  65.150  1.00  0.00     0.089 F  
HETATM   32  C   UNL     1     -10.094  19.885  65.920  1.00  0.00    -0.421 C  
HETATM   33  F   UNL     1      -5.682  16.803  65.772  1.00  0.00     0.283 F  
HETATM   34  F   UNL     1      -5.254  18.141  67.432  1.00  0.00    -0.131 F  
HETATM   35  C   UNL     1     -10.232  17.941  67.524  1.00  0.00    -0.366 A  
HETATM   36  C   UNL     1      -9.457  18.731  66.659  1.00  0.00    -0.346 A  
ENDBRANCH   2  23
TORSDOF 5
ENDMDL
MODEL      268
REMARK 921   NORMALIZED FREE ENERGY PREDICTED BY IDOCK:   -3.29 KCAL/MOL
REMARK 922        TOTAL FREE ENERGY PREDICTED BY IDOCK:   -7.11 KCAL/MOL
REMARK 923 INTER-LIGAND FREE ENERGY PREDICTED BY IDOCK:   -7.75 KCAL/MOL
REMARK 924 INTRA-LIGAND FREE ENERGY PREDICTED BY IDOCK:    0.64 KCAL/MOL
REMARK 927      BINDING AFFINITY PREDICTED BY RF-SCORE:    0.00 PKD
ROOT
HETATM    1  C   UNL     1     -12.142  12.406  66.127  1.00  0.00    -0.295 C  
HETATM    2  C   UNL     1     -11.408  12.132  67.437  1.00  0.00    -0.326 C  
ENDROOT
BRANCH   2   3
HETATM    3  O   UNL     1     -12.130  11.207  68.251  1.00  0.00    -0.620 OA 
BRANCH   3   4
HETATM    4  C   UNL     1     -11.296  10.307  68.996  1.00  0.00    -0.180 C  
BRANCH   4   5
HETATM    5  C   UNL     1     -11.751  10.299  70.499  1.00  0.00    -0.331 C  
HETATM    6  C   UNL     1     -11.116   7.485  71.321  1.00  0.00    -0.246 C  
HETATM    7  C   UNL     1     -12.386   7.808  70.516  1.00  0.00     0.206 C  
HETATM    8  N   UNL     1     -10.597   6.201  70.905  1.00  0.00    -0.230 NA 
HETATM    9  H   UNL     1     -10.796  10.090  72.339  1.00  0.00     0.000 HD 
HETATM   10  C   UNL     1     -12.862   9.246  70.736  1.00  0.00     0.023 C  
HETATM   11  O   UNL     1      -9.573   4.364  71.825  1.00  0.00    -0.142 OA 
HETATM   12  C   UNL     1     -10.054   8.599  71.126  1.00  0.00    -0.226 C  
HETATM   13  C   UNL     1     -11.425   7.268  72.815  1.00  0.00    -0.273 C  
HETATM   14  C   UNL     1     -10.186   5.410  71.948  1.00  0.00    -0.203 C  
HETATM   15  C   UNL     1     -10.595   6.055  73.240  1.00  0.00    -0.276 C  
HETATM   16  N   UNL     1     -10.576   9.951  71.352  1.00  0.00     0.051 NA 
BRANCH   5  17
HETATM   17  C   UNL     1     -12.316  11.682  70.921  1.00  0.00    -0.436 A  
HETATM   18  C   UNL     1     -13.350  14.191  71.732  1.00  0.00    -0.459 A  
HETATM   19  C   UNL     1     -13.785  13.023  72.351  1.00  0.00    -0.593 A  
HETATM   20  C   UNL     1     -13.276  11.784  71.945  1.00  0.00    -0.468 A  
HETATM   21  C   UNL     1     -11.925  12.877  70.288  1.00  0.00    -0.359 A  
HETATM   22  C   UNL     1     -12.428  14.118  70.697  1.00  0.00    -0.432 A  
ENDBRANCH   5  17
ENDBRANCH   4   5
ENDBRANCH   3   4
ENDBRANCH   2   3
BRANCH   2  23
HETATM   23  C   UNL     1     -10.037  11.546  67.131  1.00  0.00    -0.223 A  
HETATM   24  F   UNL     1      -9.238  10.257  63.238  1.00  0.00    -0.203 F  
HETATM   25  C   UNL     1      -9.744  11.120  65.827  1.00  0.00    -0.266 A  
HETATM   26  F   UNL     1      -7.350   9.771  69.989  1.00  0.00    -0.076 F  
HETATM   27  C   UNL     1      -8.524  10.495  65.521  1.00  0.00    -0.177 A  
HETATM   28  C   UNL     1      -7.583  10.306  66.546  1.00  0.00    -0.113 A  
HETATM   29  F   UNL     1      -6.423  11.684  69.527  1.00  0.00    -0.080 F  
HETATM   30  C   UNL     1      -8.230  10.011  64.121  1.00  0.00    -0.159 C  
HETATM   31  F   UNL     1      -5.715   9.870  68.560  1.00  0.00    -0.042 F  
HETATM   32  C   UNL     1      -6.843  10.517  68.967  1.00  0.00    -0.068 C  
HETATM   33  F   UNL     1      -7.119  10.591  63.591  1.00  0.00    -0.126 F  
HETATM   34  F   UNL     1      -8.014   8.668  64.073  1.00  0.00    -0.125 F  
HETATM   35  C   UNL     1      -9.077  11.348  68.136  1.00  0.00    -0.174 A  
HETATM   36  C   UNL     1      -7.846  10.730  67.858  1.00  0.00    -0.109 A  
ENDBRANCH   2  23
TORSDOF 5
ENDMDL
MODEL      269
REMARK 921   NORMALIZED FREE ENERGY PREDICTED BY IDOCK:   -3.29 KCAL/MOL
REMARK 922        TOTAL FREE ENERGY PREDICTED BY IDOCK:   -7.11 KCAL/MOL
REMARK 923 INTER-LIGAND FREE ENERGY PREDICTED BY IDOCK:   -5.26 KCAL/MOL
REMARK 924 INTRA-LIGAND FREE ENERGY PREDICTED BY IDOCK:   -1.85 KCAL/MOL
REMARK 927      BINDING AFFINITY PREDICTED BY RF-SCORE:    0.00 PKD
ROOT
HETATM    1  C   UNL     1      -9.459   9.978  64.020  1.00  0.00    -0.299 C  
HETATM    2  C   UNL     1      -8.577  10.092  65.262  1.00  0.00    -0.154 C  
ENDROOT
BRANCH   2   3
HETATM    3  O   UNL     1      -8.524  11.437  65.736  1.00  0.00    -0.089 OA 
BRANCH   3   4
HETATM    4  C   UNL     1      -7.218  11.856  66.162  1.00  0.00     0.659 C  
BRANCH   4   5
HETATM    5  C   UNL     1      -7.237  12.139  67.705  1.00  0.00    -0.113 C  
HETATM    6  C   UNL     1      -8.116  15.005  67.799  1.00  0.00    -0.149 C  
HETATM    7  C   UNL     1      -6.660  14.633  67.474  1.00  0.00    -0.113 C  
HETATM    8  N   UNL     1      -8.498  16.169  67.032  1.00  0.00    -0.190 NA 
HETATM    9  H   UNL     1      -8.704  12.587  69.116  1.00  0.00     0.000 HD 
HETATM   10  C   UNL     1      -6.259  13.282  68.072  1.00  0.00    -0.129 C  
HETATM   11  O   UNL     1      -9.768  18.066  67.273  1.00  0.00    -0.283 OA 
HETATM   12  C   UNL     1      -9.059  13.811  67.497  1.00  0.00    -0.209 C  
HETATM   13  C   UNL     1      -8.273  15.482  69.256  1.00  0.00    -0.255 C  
HETATM   14  C   UNL     1      -9.211  17.094  67.752  1.00  0.00    -0.241 C  
HETATM   15  C   UNL     1      -9.204  16.695  69.199  1.00  0.00    -0.167 C  
HETATM   16  N   UNL     1      -8.618  12.549  68.100  1.00  0.00    -0.184 NA 
BRANCH   5  17
HETATM   17  C   UNL     1      -6.812  10.881  68.510  1.00  0.00    -0.059 A  
HETATM   18  C   UNL     1      -6.074   8.589  70.002  1.00  0.00    -0.031 A  
HETATM   19  C   UNL     1      -6.747   9.638  70.621  1.00  0.00    -0.116 A  
HETATM   20  C   UNL     1      -7.106  10.772  69.883  1.00  0.00    -0.099 A  
HETATM   21  C   UNL     1      -6.097   9.820  67.922  1.00  0.00    -0.051 A  
HETATM   22  C   UNL     1      -5.742   8.683  68.657  1.00  0.00    -0.041 A  
ENDBRANCH   5  17
ENDBRANCH   4   5
ENDBRANCH   3   4
ENDBRANCH   2   3
BRANCH   2  23
HETATM   23  C   UNL     1      -9.145   9.208  66.362  1.00  0.00    -0.211 A  
HETATM   24  F   UNL     1      -9.138   5.067  65.806  1.00  0.00    -0.135 F  
HETATM   25  C   UNL     1      -9.140   7.814  66.201  1.00  0.00    -0.199 A  
HETATM   26  F   UNL     1     -11.994  10.415  69.358  1.00  0.00    -0.295 F  
HETATM   27  C   UNL     1      -9.732   6.968  67.152  1.00  0.00    -0.206 A  
HETATM   28  C   UNL     1     -10.331   7.536  68.288  1.00  0.00    -0.233 A  
HETATM   29  F   UNL     1     -10.124  10.252  70.458  1.00  0.00    -0.269 F  
HETATM   30  C   UNL     1      -9.749   5.470  66.955  1.00  0.00    -0.150 C  
HETATM   31  F   UNL     1     -11.571   8.631  70.525  1.00  0.00    -0.273 F  
HETATM   32  C   UNL     1     -10.999   9.546  69.692  1.00  0.00    -0.212 C  
HETATM   33  F   UNL     1      -9.127   4.804  67.964  1.00  0.00    -0.109 F  
HETATM   34  F   UNL     1     -11.014   4.971  66.897  1.00  0.00    -0.237 F  
HETATM   35  C   UNL     1      -9.748   9.751  67.509  1.00  0.00    -0.192 A  
HETATM   36  C   UNL     1     -10.344   8.927  68.479  1.00  0.00    -0.229 A  
ENDBRANCH   2  23
TORSDOF 5
ENDMDL
MODEL      270
REMARK 921   NORMALIZED FREE ENERGY PREDICTED BY IDOCK:   -3.28 KCAL/MOL
REMARK 922        TOTAL FREE ENERGY PREDICTED BY IDOCK:   -7.11 KCAL/MOL
REMARK 923 INTER-LIGAND FREE ENERGY PREDICTED BY IDOCK:   -6.04 KCAL/MOL
REMARK 924 INTRA-LIGAND FREE ENERGY PREDICTED BY IDOCK:   -1.06 KCAL/MOL
REMARK 927      BINDING AFFINITY PREDICTED BY RF-SCORE:    0.00 PKD
ROOT
HETATM    1  C   UNL     1      -6.835   9.587  70.522  1.00  0.00    -0.112 C  
HETATM    2  C   UNL     1      -8.010   8.984  69.755  1.00  0.00    -0.099 C  
ENDROOT
BRANCH   2   3
HETATM    3  O   UNL     1      -8.121   9.553  68.450  1.00  0.00    -0.100 OA 
BRANCH   3   4
HETATM    4  C   UNL     1      -9.410   9.380  67.843  1.00  0.00    -0.129 C  
BRANCH   4   5
HETATM    5  C   UNL     1     -10.486  10.171  68.668  1.00  0.00    -0.202 C  
HETATM    6  C   UNL     1     -10.480  12.838  67.296  1.00  0.00    -0.232 C  
HETATM    7  C   UNL     1      -9.386  12.466  68.310  1.00  0.00    -0.199 C  
HETATM    8  N   UNL     1      -9.906  13.645  66.243  1.00  0.00    -0.297 NA 
HETATM    9  H   UNL     1     -12.362  10.985  68.269  1.00  0.00     0.000 HD 
HETATM   10  C   UNL     1      -9.865  11.428  69.327  1.00  0.00     0.138 C  
HETATM   11  O   UNL     1     -10.478  15.429  64.917  1.00  0.00    -0.396 OA 
HETATM   12  C   UNL     1     -11.137  11.558  66.716  1.00  0.00    -0.302 C  
HETATM   13  C   UNL     1     -11.538  13.773  67.913  1.00  0.00    -0.376 C  
HETATM   14  C   UNL     1     -10.685  14.715  65.882  1.00  0.00    -0.309 C  
HETATM   15  C   UNL     1     -11.825  14.836  66.850  1.00  0.00    -0.279 C  
HETATM   16  N   UNL     1     -11.574  10.607  67.743  1.00  0.00    -0.476 NA 
BRANCH   5  17
HETATM   17  C   UNL     1     -11.081   9.292  69.802  1.00  0.00    -0.168 A  
HETATM   18  C   UNL     1     -12.188   7.722  71.883  1.00  0.00    -0.341 A  
HETATM   19  C   UNL     1     -11.901   9.066  72.099  1.00  0.00    -0.384 A  
HETATM   20  C   UNL     1     -11.349   9.838  71.071  1.00  0.00    -0.460 A  
HETATM   21  C   UNL     1     -11.346   7.920  69.626  1.00  0.00     0.170 A  
HETATM   22  C   UNL     1     -11.903   7.148  70.652  1.00  0.00    -0.334 A  
ENDBRANCH   5  17
ENDBRANCH   4   5
ENDBRANCH   3   4
ENDBRANCH   2   3
BRANCH   2  23
HETATM   23  C   UNL     1      -7.802   7.483  69.618  1.00  0.00    -0.119 A  
HETATM   24  F   UNL     1      -6.291   5.992  66.020  1.00  0.00    -0.036 F  
HETATM   25  C   UNL     1      -7.283   6.963  68.423  1.00  0.00    -0.088 A  
HETATM   26  F   UNL     1      -9.820   4.434  71.894  1.00  0.00    -0.200 F  
HETATM   27  C   UNL     1      -7.158   5.579  68.224  1.00  0.00    -0.066 A  
HETATM   28  C   UNL     1      -7.553   4.707  69.251  1.00  0.00    -0.056 A  
HETATM   29  F   UNL     1      -7.806   4.444  72.715  1.00  0.00    -0.079 F  
HETATM   30  C   UNL     1      -6.627   5.027  66.922  1.00  0.00    -0.050 C  
HETATM   31  F   UNL     1      -8.374   2.948  71.244  1.00  0.00    -0.059 F  
HETATM   32  C   UNL     1      -8.509   4.266  71.564  1.00  0.00    -0.095 C  
HETATM   33  F   UNL     1      -5.510   4.270  67.093  1.00  0.00    -0.011 F  
HETATM   34  F   UNL     1      -7.532   4.229  66.292  1.00  0.00    -0.078 F  
HETATM   35  C   UNL     1      -8.188   6.589  70.630  1.00  0.00    -0.125 A  
HETATM   36  C   UNL     1      -8.068   5.200  70.460  1.00  0.00    -0.095 A  
ENDBRANCH   2  23
TORSDOF 5
ENDMDL
MODEL      271
REMARK 921   NORMALIZED FREE ENERGY PREDICTED BY IDOCK:   -3.23 KCAL/MOL
REMARK 922        TOTAL FREE ENERGY PREDICTED BY IDOCK:   -7.04 KCAL/MOL
REMARK 923 INTER-LIGAND FREE ENERGY PREDICTED BY IDOCK:   -4.70 KCAL/MOL
REMARK 924 INTRA-LIGAND FREE ENERGY PREDICTED BY IDOCK:   -2.35 KCAL/MOL
REMARK 927      BINDING AFFINITY PREDICTED BY RF-SCORE:    0.00 PKD
ROOT
HETATM    1  C   UNL     1     -11.954  10.133  68.695  1.00  0.00     0.510 C  
HETATM    2  C   UNL     1     -10.563  10.758  68.782  1.00  0.00    -0.200 C  
ENDROOT
BRANCH   2   3
HETATM    3  O   UNL     1      -9.550   9.755  68.858  1.00  0.00    -0.157 OA 
BRANCH   3   4
HETATM    4  C   UNL     1      -9.797   8.610  68.029  1.00  0.00    -0.169 C  
BRANCH   4   5
HETATM    5  C   UNL     1      -8.429   8.016  67.538  1.00  0.00    -0.127 C  
HETATM    6  C   UNL     1      -7.834   5.989  69.666  1.00  0.00    -0.102 C  
HETATM    7  C   UNL     1      -7.565   7.485  69.899  1.00  0.00    -0.093 C  
HETATM    8  N   UNL     1      -8.275   5.381  70.902  1.00  0.00    -0.115 NA 
HETATM    9  H   UNL     1      -7.773   6.160  66.857  1.00  0.00     0.000 HD 
HETATM   10  C   UNL     1      -7.317   8.241  68.592  1.00  0.00    -0.089 C  
HETATM   11  O   UNL     1      -8.043   3.401  72.039  1.00  0.00    -0.061 OA 
HETATM   12  C   UNL     1      -8.892   5.798  68.548  1.00  0.00    -0.110 C  
HETATM   13  C   UNL     1      -6.539   5.219  69.342  1.00  0.00    -0.047 C  
HETATM   14  C   UNL     1      -7.702   4.159  71.149  1.00  0.00    -0.066 C  
HETATM   15  C   UNL     1      -6.620   3.914  70.137  1.00  0.00    -0.033 C  
HETATM   16  N   UNL     1      -8.593   6.548  67.324  1.00  0.00    -0.112 NA 
BRANCH   5  17
HETATM   17  C   UNL     1      -7.968   8.691  66.218  1.00  0.00    -0.102 A  
HETATM   18  C   UNL     1      -7.162   9.906  63.789  1.00  0.00    -0.125 A  
HETATM   19  C   UNL     1      -7.795   8.667  63.774  1.00  0.00    -0.148 A  
HETATM   20  C   UNL     1      -8.188   8.067  64.975  1.00  0.00    -0.144 A  
HETATM   21  C   UNL     1      -7.290   9.926  66.202  1.00  0.00    -0.104 A  
HETATM   22  C   UNL     1      -6.902  10.530  65.002  1.00  0.00     0.004 A  
ENDBRANCH   5  17
ENDBRANCH   4   5
ENDBRANCH   3   4
ENDBRANCH   2   3
BRANCH   2  23
HETATM   23  C   UNL     1     -10.317  11.608  67.544  1.00  0.00    -0.220 A  
HETATM   24  F   UNL     1      -8.611  15.391  68.021  1.00  0.00    -0.147 F  
HETATM   25  C   UNL     1      -9.733  12.876  67.681  1.00  0.00    -0.212 A  
HETATM   26  F   UNL     1     -12.374  11.242  63.778  1.00  0.00    -0.268 F  
HETATM   27  C   UNL     1      -9.569  13.726  66.576  1.00  0.00    -0.295 A  
HETATM   28  C   UNL     1      -9.993  13.286  65.311  1.00  0.00    -0.192 A  
HETATM   29  F   UNL     1     -10.400  10.423  63.371  1.00  0.00    -0.285 F  
HETATM   30  C   UNL     1      -8.968  15.102  66.738  1.00  0.00    -0.264 C  
HETATM   31  F   UNL     1     -10.869  12.467  62.801  1.00  0.00    -0.226 F  
HETATM   32  C   UNL     1     -11.046  11.545  63.789  1.00  0.00    -0.390 C  
HETATM   33  F   UNL     1      -7.844  15.272  65.990  1.00  0.00     0.257 F  
HETATM   34  F   UNL     1      -9.825  16.089  66.360  1.00  0.00    -0.241 F  
HETATM   35  C   UNL     1     -10.731  11.191  66.268  1.00  0.00    -0.298 A  
HETATM   36  C   UNL     1     -10.574  12.019  65.144  1.00  0.00    -0.330 A  
ENDBRANCH   2  23
TORSDOF 5
ENDMDL
MODEL      272
REMARK 921   NORMALIZED FREE ENERGY PREDICTED BY IDOCK:   -3.21 KCAL/MOL
REMARK 922        TOTAL FREE ENERGY PREDICTED BY IDOCK:   -7.01 KCAL/MOL
REMARK 923 INTER-LIGAND FREE ENERGY PREDICTED BY IDOCK:   -5.49 KCAL/MOL
REMARK 924 INTRA-LIGAND FREE ENERGY PREDICTED BY IDOCK:   -1.53 KCAL/MOL
REMARK 927      BINDING AFFINITY PREDICTED BY RF-SCORE:    0.00 PKD
ROOT
HETATM    1  C   UNL     1      -7.237   3.428  69.012  1.00  0.00    -0.049 C  
HETATM    2  C   UNL     1      -7.310   4.947  68.864  1.00  0.00    -0.057 C  
ENDROOT
BRANCH   2   3
HETATM    3  O   UNL     1      -8.075   5.317  67.717  1.00  0.00    -0.099 OA 
BRANCH   3   4
HETATM    4  C   UNL     1      -7.782   6.631  67.218  1.00  0.00    -0.104 C  
BRANCH   4   5
HETATM    5  C   UNL     1      -8.779   6.983  66.058  1.00  0.00    -0.144 C  
HETATM    6  C   UNL     1      -9.403   9.860  66.631  1.00  0.00    -0.157 C  
HETATM    7  C   UNL     1     -10.084   8.730  67.420  1.00  0.00    -0.289 C  
HETATM    8  N   UNL     1      -9.173  10.988  67.506  1.00  0.00    -0.144 NA 
HETATM    9  H   UNL     1      -8.752   8.257  64.410  1.00  0.00     0.000 HD 
HETATM   10  C   UNL     1     -10.152   7.425  66.623  1.00  0.00    -0.253 C  
HETATM   11  O   UNL     1      -9.205  13.281  67.427  1.00  0.00    -0.199 OA 
HETATM   12  C   UNL     1      -8.072   9.361  66.011  1.00  0.00    -0.111 C  
HETATM   13  C   UNL     1     -10.334  10.444  65.550  1.00  0.00    -0.265 C  
HETATM   14  C   UNL     1      -9.472  12.199  66.935  1.00  0.00    -0.210 C  
HETATM   15  C   UNL     1     -10.149  11.962  65.617  1.00  0.00    -0.274 C  
HETATM   16  N   UNL     1      -8.208   8.108  65.261  1.00  0.00    -0.142 NA 
BRANCH   5  17
HETATM   17  C   UNL     1      -9.023   5.757  65.138  1.00  0.00     0.046 A  
HETATM   18  C   UNL     1      -9.510   3.527  63.460  1.00  0.00    -0.121 A  
HETATM   19  C   UNL     1     -10.405   3.845  64.477  1.00  0.00    -0.231 A  
HETATM   20  C   UNL     1     -10.160   4.944  65.307  1.00  0.00     0.031 A  
HETATM   21  C   UNL     1      -8.116   5.386  64.126  1.00  0.00    -0.123 A  
HETATM   22  C   UNL     1      -8.363   4.291  63.290  1.00  0.00    -0.095 A  
ENDBRANCH   5  17
ENDBRANCH   4   5
ENDBRANCH   3   4
ENDBRANCH   2   3
BRANCH   2  23
HETATM   23  C   UNL     1      -7.967   5.538  70.102  1.00  0.00    -0.090 A  
HETATM   24  F   UNL     1     -12.070   6.322  70.011  1.00  0.00    -0.441 F  
HETATM   25  C   UNL     1      -9.346   5.796  70.097  1.00  0.00    -0.184 A  
HETATM   26  F   UNL     1      -5.976   7.787  73.189  1.00  0.00    -0.049 F  
HETATM   27  C   UNL     1      -9.975   6.422  71.186  1.00  0.00    -0.203 A  
HETATM   28  C   UNL     1      -9.201   6.784  72.300  1.00  0.00    -0.138 A  
HETATM   29  F   UNL     1      -6.382   5.867  74.128  1.00  0.00    -0.063 F  
HETATM   30  C   UNL     1     -11.454   6.724  71.158  1.00  0.00    -0.314 C  
HETATM   31  F   UNL     1      -7.692   7.561  74.504  1.00  0.00    -0.137 F  
HETATM   32  C   UNL     1      -6.981   6.931  73.527  1.00  0.00    -0.074 C  
HETATM   33  F   UNL     1     -12.129   6.123  72.175  1.00  0.00    -0.359 F  
HETATM   34  F   UNL     1     -11.712   8.056  71.270  1.00  0.00    -0.265 F  
HETATM   35  C   UNL     1      -7.217   5.908  71.231  1.00  0.00    -0.078 A  
HETATM   36  C   UNL     1      -7.821   6.531  72.336  1.00  0.00    -0.101 A  
ENDBRANCH   2  23
TORSDOF 5
ENDMDL
MODEL      273
REMARK 921   NORMALIZED FREE ENERGY PREDICTED BY IDOCK:   -3.14 KCAL/MOL
REMARK 922        TOTAL FREE ENERGY PREDICTED BY IDOCK:   -6.92 KCAL/MOL
REMARK 923 INTER-LIGAND FREE ENERGY PREDICTED BY IDOCK:   -5.77 KCAL/MOL
REMARK 924 INTRA-LIGAND FREE ENERGY PREDICTED BY IDOCK:   -1.15 KCAL/MOL
REMARK 927      BINDING AFFINITY PREDICTED BY RF-SCORE:    0.00 PKD
ROOT
HETATM    1  C   UNL     1      -6.601   8.476  66.119  1.00  0.00    -0.057 C  
HETATM    2  C   UNL     1      -7.622   8.032  67.165  1.00  0.00    -0.097 C  
ENDROOT
BRANCH   2   3
HETATM    3  O   UNL     1      -8.802   8.833  67.106  1.00  0.00    -0.125 OA 
BRANCH   3   4
HETATM    4  C   UNL     1      -9.874   8.359  67.934  1.00  0.00    -0.170 C  
BRANCH   4   5
HETATM    5  C   UNL     1     -10.078   9.344  69.139  1.00  0.00    -0.195 C  
HETATM    6  C   UNL     1      -9.813   7.505  71.494  1.00  0.00    -0.166 C  
HETATM    7  C   UNL     1     -11.120   7.576  70.687  1.00  0.00    -0.280 C  
HETATM    8  N   UNL     1      -9.594   6.146  71.937  1.00  0.00    -0.154 NA 
HETATM    9  H   UNL     1      -8.893  10.045  70.702  1.00  0.00     0.000 HD 
HETATM   10  C   UNL     1     -11.301   8.928  69.994  1.00  0.00    -0.050 C  
HETATM   11  O   UNL     1      -8.768   5.030  73.764  1.00  0.00    -0.110 OA 
HETATM   12  C   UNL     1      -8.621   8.004  70.636  1.00  0.00    -0.130 C  
HETATM   13  C   UNL     1      -9.912   8.290  72.816  1.00  0.00    -0.333 C  
HETATM   14  C   UNL     1      -9.164   6.053  73.237  1.00  0.00    -0.132 C  
HETATM   15  C   UNL     1      -9.246   7.410  73.875  1.00  0.00    -0.312 C  
HETATM   16  N   UNL     1      -8.860   9.305  70.001  1.00  0.00    -0.178 NA 
BRANCH   5  17
HETATM   17  C   UNL     1     -10.323  10.794  68.641  1.00  0.00    -0.208 A  
HETATM   18  C   UNL     1     -10.730  13.440  67.718  1.00  0.00    -0.259 A  
HETATM   19  C   UNL     1      -9.486  13.055  68.208  1.00  0.00    -0.208 A  
HETATM   20  C   UNL     1      -9.289  11.748  68.669  1.00  0.00    -0.096 A  
HETATM   21  C   UNL     1     -11.580  11.225  68.176  1.00  0.00    -0.359 A  
HETATM   22  C   UNL     1     -11.777  12.530  67.709  1.00  0.00    -0.419 A  
ENDBRANCH   5  17
ENDBRANCH   4   5
ENDBRANCH   3   4
ENDBRANCH   2   3
BRANCH   2  23
HETATM   23  C   UNL     1      -8.002   6.582  66.910  1.00  0.00    -0.112 A  
HETATM   24  F   UNL     1      -8.913   5.409  63.005  1.00  0.00    -0.085 F  
HETATM   25  C   UNL     1      -8.299   6.164  65.604  1.00  0.00    -0.146 A  
HETATM   26  F   UNL     1      -9.599   3.838  69.820  1.00  0.00    -0.227 F  
HETATM   27  C   UNL     1      -8.737   4.857  65.338  1.00  0.00    -0.143 A  
HETATM   28  C   UNL     1      -8.870   3.955  66.406  1.00  0.00    -0.125 A  
HETATM   29  F   UNL     1      -7.555   3.152  69.530  1.00  0.00    -0.044 F  
HETATM   30  C   UNL     1      -9.085   4.425  63.933  1.00  0.00    -0.138 C  
HETATM   31  F   UNL     1      -9.193   2.157  68.504  1.00  0.00    -0.146 F  
HETATM   32  C   UNL     1      -8.727   3.382  68.877  1.00  0.00    -0.095 C  
HETATM   33  F   UNL     1      -8.331   3.375  63.508  1.00  0.00    -0.086 F  
HETATM   34  F   UNL     1     -10.382   4.030  63.819  1.00  0.00    -0.183 F  
HETATM   35  C   UNL     1      -8.141   5.659  67.960  1.00  0.00    -0.097 A  
HETATM   36  C   UNL     1      -8.573   4.343  67.722  1.00  0.00    -0.109 A  
ENDBRANCH   2  23
TORSDOF 5
ENDMDL
MODEL      274
REMARK 921   NORMALIZED FREE ENERGY PREDICTED BY IDOCK:   -3.13 KCAL/MOL
REMARK 922        TOTAL FREE ENERGY PREDICTED BY IDOCK:   -6.90 KCAL/MOL
REMARK 923 INTER-LIGAND FREE ENERGY PREDICTED BY IDOCK:   -4.93 KCAL/MOL
REMARK 924 INTRA-LIGAND FREE ENERGY PREDICTED BY IDOCK:   -1.97 KCAL/MOL
REMARK 927      BINDING AFFINITY PREDICTED BY RF-SCORE:    0.00 PKD
ROOT
HETATM    1  C   UNL     1     -10.771   9.376  69.373  1.00  0.00    -0.234 C  
HETATM    2  C   UNL     1      -9.281   9.388  69.035  1.00  0.00    -0.145 C  
ENDROOT
BRANCH   2   3
HETATM    3  O   UNL     1      -8.727   8.074  69.098  1.00  0.00    -0.136 OA 
BRANCH   3   4
HETATM    4  C   UNL     1      -9.686   7.024  68.898  1.00  0.00    -0.144 C  
BRANCH   4   5
HETATM    5  C   UNL     1      -8.937   5.698  68.518  1.00  0.00    -0.115 C  
HETATM    6  C   UNL     1      -8.666   4.354  71.185  1.00  0.00    -0.106 C  
HETATM    7  C   UNL     1      -7.715   5.489  70.769  1.00  0.00    -0.091 C  
HETATM    8  N   UNL     1      -8.926   4.440  72.605  1.00  0.00    -0.114 NA 
HETATM    9  H   UNL     1      -9.399   3.667  68.556  1.00  0.00     0.000 HD 
HETATM   10  C   UNL     1      -7.575   5.601  69.250  1.00  0.00    -0.087 C  
HETATM   11  O   UNL     1      -9.244   3.043  74.397  1.00  0.00    -0.081 OA 
HETATM   12  C   UNL     1      -9.987   4.432  70.376  1.00  0.00    -0.183 C  
HETATM   13  C   UNL     1      -8.004   2.970  71.036  1.00  0.00    -0.056 C  
HETATM   14  C   UNL     1      -8.898   3.226  73.244  1.00  0.00    -0.080 C  
HETATM   15  C   UNL     1      -8.398   2.183  72.288  1.00  0.00    -0.054 C  
HETATM   16  N   UNL     1      -9.781   4.537  68.927  1.00  0.00    -0.167 NA 
BRANCH   5  17
HETATM   17  C   UNL     1      -8.656   5.631  66.992  1.00  0.00    -0.109 A  
HETATM   18  C   UNL     1      -8.188   5.509  64.201  1.00  0.00    -0.120 A  
HETATM   19  C   UNL     1      -9.271   4.836  64.758  1.00  0.00    -0.101 A  
HETATM   20  C   UNL     1      -9.498   4.894  66.137  1.00  0.00    -0.165 A  
HETATM   21  C   UNL     1      -7.547   6.269  66.404  1.00  0.00    -0.094 A  
HETATM   22  C   UNL     1      -7.322   6.217  65.024  1.00  0.00    -0.078 A  
ENDBRANCH   5  17
ENDBRANCH   4   5
ENDBRANCH   3   4
ENDBRANCH   2   3
BRANCH   2  23
HETATM   23  C   UNL     1      -9.091   9.932  67.628  1.00  0.00    -0.140 A  
HETATM   24  F   UNL     1      -5.529   9.083  65.617  1.00  0.00    -0.039 F  
HETATM   25  C   UNL     1      -7.908   9.647  66.930  1.00  0.00    -0.102 A  
HETATM   26  F   UNL     1     -11.102  13.349  65.946  1.00  0.00    -0.282 F  
HETATM   27  C   UNL     1      -7.656  10.201  65.665  1.00  0.00    -0.144 A  
HETATM   28  C   UNL     1      -8.617  11.049  65.091  1.00  0.00    -0.015 A  
HETATM   29  F   UNL     1     -12.044  11.656  64.956  1.00  0.00    -0.242 F  
HETATM   30  C   UNL     1      -6.365   9.914  64.935  1.00  0.00    -0.110 C  
HETATM   31  F   UNL     1     -10.476  12.773  63.946  1.00  0.00    -0.373 F  
HETATM   32  C   UNL     1     -10.845  12.268  65.157  1.00  0.00    -0.301 C  
HETATM   33  F   UNL     1      -6.569   9.328  63.724  1.00  0.00    -0.088 F  
HETATM   34  F   UNL     1      -5.647  11.044  64.691  1.00  0.00    -0.116 F  
HETATM   35  C   UNL     1     -10.037  10.781  67.030  1.00  0.00    -0.249 A  
HETATM   36  C   UNL     1      -9.814  11.346  65.763  1.00  0.00    -0.270 A  
ENDBRANCH   2  23
TORSDOF 5
ENDMDL
MODEL      275
REMARK 921   NORMALIZED FREE ENERGY PREDICTED BY IDOCK:   -3.12 KCAL/MOL
REMARK 922        TOTAL FREE ENERGY PREDICTED BY IDOCK:   -6.90 KCAL/MOL
REMARK 923 INTER-LIGAND FREE ENERGY PREDICTED BY IDOCK:   -5.78 KCAL/MOL
REMARK 924 INTRA-LIGAND FREE ENERGY PREDICTED BY IDOCK:   -1.11 KCAL/MOL
REMARK 927      BINDING AFFINITY PREDICTED BY RF-SCORE:    0.00 PKD
ROOT
HETATM    1  C   UNL     1     -10.389   5.313  68.482  1.00  0.00    -0.182 C  
HETATM    2  C   UNL     1     -10.716   6.602  67.730  1.00  0.00    -0.283 C  
ENDROOT
BRANCH   2   3
HETATM    3  O   UNL     1     -10.537   7.746  68.564  1.00  0.00    -0.189 OA 
BRANCH   3   4
HETATM    4  C   UNL     1     -11.479   7.837  69.643  1.00  0.00     0.286 C  
BRANCH   4   5
HETATM    5  C   UNL     1     -10.946   8.850  70.717  1.00  0.00    -0.253 C  
HETATM    6  C   UNL     1      -9.728   7.012  72.751  1.00  0.00    -0.153 C  
HETATM    7  C   UNL     1     -11.248   7.241  72.698  1.00  0.00    -0.355 C  
HETATM    8  N   UNL     1      -9.460   5.641  73.121  1.00  0.00    -0.146 NA 
HETATM    9  H   UNL     1      -9.070   9.410  71.430  1.00  0.00     0.000 HD 
HETATM   10  C   UNL     1     -11.610   8.599  72.094  1.00  0.00    -0.440 C  
HETATM   11  O   UNL     1      -7.950   4.444  74.368  1.00  0.00    -0.087 OA 
HETATM   12  C   UNL     1      -9.083   7.350  71.381  1.00  0.00    -0.141 C  
HETATM   13  C   UNL     1      -9.068   7.815  73.888  1.00  0.00    -0.298 C  
HETATM   14  C   UNL     1      -8.448   5.505  74.038  1.00  0.00    -0.115 C  
HETATM   15  C   UNL     1      -8.056   6.866  74.535  1.00  0.00    -0.159 C  
HETATM   16  N   UNL     1      -9.471   8.665  70.860  1.00  0.00    -0.179 NA 
BRANCH   5  17
HETATM   17  C   UNL     1     -11.255  10.315  70.307  1.00  0.00    -0.395 A  
HETATM   18  C   UNL     1     -11.806  12.979  69.517  1.00  0.00    -0.385 A  
HETATM   19  C   UNL     1     -10.736  12.291  68.954  1.00  0.00    -0.210 A  
HETATM   20  C   UNL     1     -10.463  10.976  69.349  1.00  0.00    -0.177 A  
HETATM   21  C   UNL     1     -12.306  11.052  70.887  1.00  0.00    -0.503 A  
HETATM   22  C   UNL     1     -12.584  12.364  70.488  1.00  0.00    -0.169 A  
ENDBRANCH   5  17
ENDBRANCH   4   5
ENDBRANCH   3   4
ENDBRANCH   2   3
BRANCH   2  23
HETATM   23  C   UNL     1      -9.795   6.725  66.525  1.00  0.00    -0.167 A  
HETATM   24  F   UNL     1      -9.370   3.435  63.986  1.00  0.00    -0.113 F  
HETATM   25  C   UNL     1      -9.649   5.637  65.652  1.00  0.00     0.077 A  
HETATM   26  F   UNL     1      -6.522   9.495  66.119  1.00  0.00    -0.065 F  
HETATM   27  C   UNL     1      -8.744   5.679  64.580  1.00  0.00     0.060 A  
HETATM   28  C   UNL     1      -7.982   6.841  64.379  1.00  0.00    -0.096 A  
HETATM   29  F   UNL     1      -8.048  10.299  64.793  1.00  0.00    -0.143 F  
HETATM   30  C   UNL     1      -8.570   4.491  63.664  1.00  0.00    -0.126 C  
HETATM   31  F   UNL     1      -6.419   9.109  63.983  1.00  0.00    -0.084 F  
HETATM   32  C   UNL     1      -7.286   9.197  65.031  1.00  0.00    -0.100 C  
HETATM   33  F   UNL     1      -8.847   4.787  62.365  1.00  0.00    -0.101 F  
HETATM   34  F   UNL     1      -7.297   4.009  63.678  1.00  0.00    -0.048 F  
HETATM   35  C   UNL     1      -9.023   7.877  66.301  1.00  0.00    -0.207 A  
HETATM   36  C   UNL     1      -8.114   7.949  65.232  1.00  0.00    -0.135 A  
ENDBRANCH   2  23
TORSDOF 5
ENDMDL
MODEL      276
REMARK 921   NORMALIZED FREE ENERGY PREDICTED BY IDOCK:   -3.09 KCAL/MOL
REMARK 922        TOTAL FREE ENERGY PREDICTED BY IDOCK:   -6.86 KCAL/MOL
REMARK 923 INTER-LIGAND FREE ENERGY PREDICTED BY IDOCK:   -6.22 KCAL/MOL
REMARK 924 INTRA-LIGAND FREE ENERGY PREDICTED BY IDOCK:   -0.64 KCAL/MOL
REMARK 927      BINDING AFFINITY PREDICTED BY RF-SCORE:    0.00 PKD
ROOT
HETATM    1  C   UNL     1     -12.142  12.426  65.743  1.00  0.00    -0.381 C  
HETATM    2  C   UNL     1     -11.467  12.633  67.098  1.00  0.00    -0.346 C  
ENDROOT
BRANCH   2   3
HETATM    3  O   UNL     1     -12.026  11.772  68.090  1.00  0.00    -0.521 OA 
BRANCH   3   4
HETATM    4  C   UNL     1     -11.083  11.328  69.078  1.00  0.00    -0.244 C  
BRANCH   4   5
HETATM    5  C   UNL     1     -11.819  11.132  70.450  1.00  0.00    -0.369 C  
HETATM    6  C   UNL     1     -11.467   8.192  70.926  1.00  0.00    -0.271 C  
HETATM    7  C   UNL     1     -12.544   8.715  69.961  1.00  0.00     1.375 C  
HETATM    8  N   UNL     1     -10.928   6.949  70.419  1.00  0.00    -0.259 NA 
HETATM    9  H   UNL     1     -11.247  10.592  72.380  1.00  0.00     0.000 HD 
HETATM   10  C   UNL     1     -12.996  10.134  70.310  1.00  0.00    -0.011 C  
HETATM   11  O   UNL     1     -10.175   4.933  71.214  1.00  0.00    -0.198 OA 
HETATM   12  C   UNL     1     -10.345   9.247  71.107  1.00  0.00    -0.322 C  
HETATM   13  C   UNL     1     -12.067   7.781  72.285  1.00  0.00    -0.332 C  
HETATM   14  C   UNL     1     -10.758   5.988  71.383  1.00  0.00    -0.259 C  
HETATM   15  C   UNL     1     -11.384   6.465  72.662  1.00  0.00    -0.266 C  
HETATM   16  N   UNL     1     -10.847  10.584  71.442  1.00  0.00     1.016 NA 
BRANCH   5  17
HETATM   17  C   UNL     1     -12.401  12.474  70.971  1.00  0.00    -0.307 A  
HETATM   18  C   UNL     1     -13.458  14.940  71.881  1.00  0.00    -0.477 A  
HETATM   19  C   UNL     1     -12.477  14.922  70.894  1.00  0.00    -0.395 A  
HETATM   20  C   UNL     1     -11.952  13.703  70.450  1.00  0.00    -0.372 A  
HETATM   21  C   UNL     1     -13.366  12.527  71.995  1.00  0.00    -0.528 A  
HETATM   22  C   UNL     1     -13.896  13.745  72.436  1.00  0.00    -0.681 A  
ENDBRANCH   5  17
ENDBRANCH   4   5
ENDBRANCH   3   4
ENDBRANCH   2   3
BRANCH   2  23
HETATM   23  C   UNL     1      -9.981  12.330  66.968  1.00  0.00    -0.220 A  
HETATM   24  F   UNL     1      -8.821   8.569  65.568  1.00  0.00    -0.173 F  
HETATM   25  C   UNL     1      -9.571  11.078  66.487  1.00  0.00    -0.223 A  
HETATM   26  F   UNL     1      -6.805  14.287  69.119  1.00  0.00    -0.097 F  
HETATM   27  C   UNL     1      -8.212  10.727  66.434  1.00  0.00    -0.155 A  
HETATM   28  C   UNL     1      -7.253  11.658  66.865  1.00  0.00    -0.125 A  
HETATM   29  F   UNL     1      -6.624  15.075  67.100  1.00  0.00    -0.186 F  
HETATM   30  C   UNL     1      -7.781   9.365  65.945  1.00  0.00    -0.099 C  
HETATM   31  F   UNL     1      -5.329  13.458  67.757  1.00  0.00    -0.099 F  
HETATM   32  C   UNL     1      -6.609  13.922  67.821  1.00  0.00    -0.176 C  
HETATM   33  F   UNL     1      -6.955   9.435  64.866  1.00  0.00    -0.087 F  
HETATM   34  F   UNL     1      -7.103   8.665  66.894  1.00  0.00    -0.070 F  
HETATM   35  C   UNL     1      -9.002  13.244  67.390  1.00  0.00    -0.215 A  
HETATM   36  C   UNL     1      -7.635  12.921  67.343  1.00  0.00    -0.150 A  
ENDBRANCH   2  23
TORSDOF 5
ENDMDL
MODEL      277
REMARK 921   NORMALIZED FREE ENERGY PREDICTED BY IDOCK:   -2.96 KCAL/MOL
REMARK 922        TOTAL FREE ENERGY PREDICTED BY IDOCK:   -6.69 KCAL/MOL
REMARK 923 INTER-LIGAND FREE ENERGY PREDICTED BY IDOCK:   -6.38 KCAL/MOL
REMARK 924 INTRA-LIGAND FREE ENERGY PREDICTED BY IDOCK:   -0.32 KCAL/MOL
REMARK 927      BINDING AFFINITY PREDICTED BY RF-SCORE:    0.00 PKD
ROOT
HETATM    1  C   UNL     1      -6.805  10.565  69.426  1.00  0.00    -0.088 C  
HETATM    2  C   UNL     1      -8.255  10.225  69.768  1.00  0.00    -0.094 C  
ENDROOT
BRANCH   2   3
HETATM    3  O   UNL     1      -9.107  10.398  68.636  1.00  0.00    -0.141 OA 
BRANCH   3   4
HETATM    4  C   UNL     1      -8.416  10.397  67.378  1.00  0.00    -0.121 C  
BRANCH   4   5
HETATM    5  C   UNL     1      -9.301  11.110  66.295  1.00  0.00    -0.195 C  
HETATM    6  C   UNL     1     -10.675  13.227  67.916  1.00  0.00    -0.239 C  
HETATM    7  C   UNL     1     -11.162  11.769  67.941  1.00  0.00    -0.331 C  
HETATM    8  N   UNL     1     -10.845  13.814  69.226  1.00  0.00    -0.161 NA 
HETATM    9  H   UNL     1      -9.358  13.007  65.437  1.00  0.00     0.000 HD 
HETATM   10  C   UNL     1     -10.804  11.015  66.658  1.00  0.00    -0.284 C  
HETATM   11  O   UNL     1     -11.421  15.829  70.162  1.00  0.00    -0.303 OA 
HETATM   12  C   UNL     1      -9.190  13.293  67.470  1.00  0.00    -0.213 C  
HETATM   13  C   UNL     1     -11.562  14.112  67.020  1.00  0.00    -0.404 C  
HETATM   14  C   UNL     1     -11.348  15.090  69.196  1.00  0.00    -0.296 C  
HETATM   15  C   UNL     1     -11.762  15.418  67.791  1.00  0.00    -0.159 C  
HETATM   16  N   UNL     1      -8.916  12.551  66.235  1.00  0.00    -0.078 NA 
BRANCH   5  17
HETATM   17  C   UNL     1      -9.112  10.457  64.899  1.00  0.00    -0.242 A  
HETATM   18  C   UNL     1      -8.757   9.228  62.372  1.00  0.00    -0.241 A  
HETATM   19  C   UNL     1      -7.931   8.885  63.438  1.00  0.00    -0.157 A  
HETATM   20  C   UNL     1      -8.105   9.497  64.684  1.00  0.00    -0.136 A  
HETATM   21  C   UNL     1      -9.907  10.810  63.792  1.00  0.00    -0.396 A  
HETATM   22  C   UNL     1      -9.738  10.194  62.547  1.00  0.00    -0.043 A  
ENDBRANCH   5  17
ENDBRANCH   4   5
ENDBRANCH   3   4
ENDBRANCH   2   3
BRANCH   2  23
HETATM   23  C   UNL     1      -8.335   8.776  70.224  1.00  0.00    -0.139 A  
HETATM   24  F   UNL     1     -11.871   6.657  69.545  1.00  0.00    -0.349 F  
HETATM   25  C   UNL     1      -9.508   8.042  69.993  1.00  0.00    -0.160 A  
HETATM   26  F   UNL     1      -5.954   6.965  73.322  1.00  0.00    -0.054 F  
HETATM   27  C   UNL     1      -9.655   6.732  70.475  1.00  0.00    -0.174 A  
HETATM   28  C   UNL     1      -8.598   6.149  71.192  1.00  0.00    -0.125 A  
HETATM   29  F   UNL     1      -5.127   6.140  71.487  1.00  0.00    -0.015 F  
HETATM   30  C   UNL     1     -10.934   5.961  70.249  1.00  0.00    -0.320 C  
HETATM   31  F   UNL     1      -6.543   4.981  72.660  1.00  0.00    -0.046 F  
HETATM   32  C   UNL     1      -6.273   6.241  72.214  1.00  0.00    -0.046 C  
HETATM   33  F   UNL     1     -10.732   4.805  69.561  1.00  0.00    -0.220 F  
HETATM   34  F   UNL     1     -11.537   5.605  71.416  1.00  0.00    -0.267 F  
HETATM   35  C   UNL     1      -7.291   8.169  70.942  1.00  0.00    -0.059 A  
HETATM   36  C   UNL     1      -7.409   6.857  71.431  1.00  0.00    -0.081 A  
ENDBRANCH   2  23
TORSDOF 5
ENDMDL
MODEL      278
REMARK 921   NORMALIZED FREE ENERGY PREDICTED BY IDOCK:   -2.96 KCAL/MOL
REMARK 922        TOTAL FREE ENERGY PREDICTED BY IDOCK:   -6.68 KCAL/MOL
REMARK 923 INTER-LIGAND FREE ENERGY PREDICTED BY IDOCK:   -6.89 KCAL/MOL
REMARK 924 INTRA-LIGAND FREE ENERGY PREDICTED BY IDOCK:    0.21 KCAL/MOL
REMARK 927      BINDING AFFINITY PREDICTED BY RF-SCORE:    0.00 PKD
ROOT
HETATM    1  C   UNL     1     -11.605   8.402  69.669  1.00  0.00     0.490 C  
HETATM    2  C   UNL     1     -10.133   8.763  69.482  1.00  0.00    -0.202 C  
ENDROOT
BRANCH   2   3
HETATM    3  O   UNL     1      -9.821  10.002  70.118  1.00  0.00    -0.241 OA 
BRANCH   3   4
HETATM    4  C   UNL     1      -9.456  11.052  69.209  1.00  0.00     0.043 C  
BRANCH   4   5
HETATM    5  C   UNL     1     -10.754  11.764  68.686  1.00  0.00    -0.220 C  
HETATM    6  C   UNL     1     -10.329  11.722  65.718  1.00  0.00    -0.253 C  
HETATM    7  C   UNL     1      -9.626  12.763  66.604  1.00  0.00    -0.255 C  
HETATM    8  N   UNL     1      -9.450  11.338  64.636  1.00  0.00    -0.216 NA 
HETATM    9  H   UNL     1     -12.403  11.197  67.547  1.00  0.00     0.000 HD 
HETATM   10  C   UNL     1     -10.401  13.046  67.893  1.00  0.00    -0.233 C  
HETATM   11  O   UNL     1      -9.575  10.786  62.412  1.00  0.00    -0.224 OA 
HETATM   12  C   UNL     1     -10.741  10.485  66.559  1.00  0.00    -0.121 C  
HETATM   13  C   UNL     1     -11.543  12.322  64.982  1.00  0.00    -0.394 C  
HETATM   14  C   UNL     1     -10.080  11.245  63.421  1.00  0.00    -0.400 C  
HETATM   15  C   UNL     1     -11.477  11.776  63.555  1.00  0.00    -0.489 C  
HETATM   16  N   UNL     1     -11.481  10.827  67.779  1.00  0.00    -0.513 NA 
BRANCH   5  17
HETATM   17  C   UNL     1     -11.678  12.178  69.863  1.00  0.00    -0.361 A  
HETATM   18  C   UNL     1     -13.370  12.974  71.991  1.00  0.00    -0.588 A  
HETATM   19  C   UNL     1     -12.569  13.912  71.348  1.00  0.00    -0.444 A  
HETATM   20  C   UNL     1     -11.729  13.516  70.301  1.00  0.00    -0.244 A  
HETATM   21  C   UNL     1     -12.472  11.247  70.559  1.00  0.00    -0.398 A  
HETATM   22  C   UNL     1     -13.316  11.642  71.602  1.00  0.00    -0.254 A  
ENDBRANCH   5  17
ENDBRANCH   4   5
ENDBRANCH   3   4
ENDBRANCH   2   3
BRANCH   2  23
HETATM   23  C   UNL     1      -9.268   7.669  70.088  1.00  0.00    -0.154 A  
HETATM   24  F   UNL     1     -10.207   6.263  73.908  1.00  0.00    -0.193 F  
HETATM   25  C   UNL     1      -9.574   7.174  71.364  1.00  0.00    -0.163 A  
HETATM   26  F   UNL     1      -5.194   6.780  69.011  1.00  0.00    -0.011 F  
HETATM   27  C   UNL     1      -8.751   6.227  71.995  1.00  0.00    -0.134 A  
HETATM   28  C   UNL     1      -7.606   5.768  71.325  1.00  0.00    -0.104 A  
HETATM   29  F   UNL     1      -6.327   5.137  68.147  1.00  0.00    -0.030 F  
HETATM   30  C   UNL     1      -9.072   5.722  73.383  1.00  0.00    -0.132 C  
HETATM   31  F   UNL     1      -5.304   4.872  70.046  1.00  0.00     0.000 F  
HETATM   32  C   UNL     1      -6.042   5.760  69.322  1.00  0.00    -0.031 C  
HETATM   33  F   UNL     1      -9.247   4.374  73.420  1.00  0.00    -0.111 F  
HETATM   34  F   UNL     1      -8.082   5.999  74.275  1.00  0.00    -0.103 F  
HETATM   35  C   UNL     1      -8.118   7.191  69.438  1.00  0.00    -0.130 A  
HETATM   36  C   UNL     1      -7.280   6.240  70.044  1.00  0.00    -0.077 A  
ENDBRANCH   2  23
TORSDOF 5
ENDMDL
MODEL      279
REMARK 921   NORMALIZED FREE ENERGY PREDICTED BY IDOCK:   -2.94 KCAL/MOL
REMARK 922        TOTAL FREE ENERGY PREDICTED BY IDOCK:   -6.66 KCAL/MOL
REMARK 923 INTER-LIGAND FREE ENERGY PREDICTED BY IDOCK:   -8.03 KCAL/MOL
REMARK 924 INTRA-LIGAND FREE ENERGY PREDICTED BY IDOCK:    1.36 KCAL/MOL
REMARK 927      BINDING AFFINITY PREDICTED BY RF-SCORE:    0.00 PKD
ROOT
HETATM    1  C   UNL     1     -10.342  15.289  65.096  1.00  0.00    -0.413 C  
HETATM    2  C   UNL     1     -10.121  15.553  66.584  1.00  0.00    -0.267 C  
ENDROOT
BRANCH   2   3
HETATM    3  O   UNL     1      -9.195  14.620  67.141  1.00  0.00    -0.202 OA 
BRANCH   3   4
HETATM    4  C   UNL     1      -9.663  13.974  68.335  1.00  0.00    -0.223 C  
BRANCH   4   5
HETATM    5  C   UNL     1     -11.195  13.661  68.194  1.00  0.00    -0.275 C  
HETATM    6  C   UNL     1     -12.252  14.528  70.863  1.00  0.00    -0.339 C  
HETATM    7  C   UNL     1     -11.546  13.174  70.693  1.00  0.00     0.313 C  
HETATM    8  N   UNL     1     -11.930  15.080  72.161  1.00  0.00    -0.375 NA 
HETATM    9  H   UNL     1     -12.944  14.792  68.147  1.00  0.00     0.000 HD 
HETATM   10  C   UNL     1     -11.652  12.639  69.263  1.00  0.00    -0.376 C  
HETATM   11  O   UNL     1     -12.940  16.287  73.831  1.00  0.00    -0.675 OA 
HETATM   12  C   UNL     1     -11.834  15.502  69.730  1.00  0.00    -0.359 C  
HETATM   13  C   UNL     1     -13.784  14.372  70.922  1.00  0.00    -0.074 C  
HETATM   14  C   UNL     1     -13.008  15.630  72.808  1.00  0.00    -0.480 C  
HETATM   15  C   UNL     1     -14.255  15.305  72.040  1.00  0.00    -0.679 C  
HETATM   16  N   UNL     1     -11.962  14.927  68.387  1.00  0.00    -0.268 NA 
BRANCH   5  17
HETATM   17  C   UNL     1     -11.517  13.059  66.799  1.00  0.00    -0.392 A  
HETATM   18  C   UNL     1     -12.118  12.000  64.242  1.00  0.00    -0.414 A  
HETATM   19  C   UNL     1     -12.908  13.010  64.783  1.00  0.00    -0.336 A  
HETATM   20  C   UNL     1     -12.612  13.528  66.049  1.00  0.00    -0.408 A  
HETATM   21  C   UNL     1     -10.760  12.011  66.241  1.00  0.00    -0.302 A  
HETATM   22  C   UNL     1     -11.051  11.496  64.973  1.00  0.00    -0.268 A  
ENDBRANCH   5  17
ENDBRANCH   4   5
ENDBRANCH   3   4
ENDBRANCH   2   3
BRANCH   2  23
HETATM   23  C   UNL     1      -9.568  16.958  66.766  1.00  0.00    -0.273 A  
HETATM   24  F   UNL     1      -6.123  18.042  64.666  1.00  0.00    -0.058 F  
HETATM   25  C   UNL     1      -8.420  17.347  66.060  1.00  0.00    -0.127 A  
HETATM   26  F   UNL     1     -10.246  19.521  70.160  1.00  0.00    -0.157 F  
HETATM   27  C   UNL     1      -7.828  18.603  66.265  1.00  0.00    -0.288 A  
HETATM   28  C   UNL     1      -8.409  19.485  67.190  1.00  0.00    -0.321 A  
HETATM   29  F   UNL     1     -11.461  20.410  68.590  1.00  0.00     0.637 F  
HETATM   30  C   UNL     1      -6.573  19.001  65.523  1.00  0.00    -0.274 C  
HETATM   31  F   UNL     1      -9.505  21.237  69.052  1.00  0.00     1.080 F  
HETATM   32  C   UNL     1     -10.186  20.065  68.912  1.00  0.00    -0.235 C  
HETATM   33  F   UNL     1      -6.744  20.122  64.773  1.00  0.00    -0.305 F  
HETATM   34  F   UNL     1      -5.537  19.263  66.365  1.00  0.00    -0.154 F  
HETATM   35  C   UNL     1     -10.131  17.860  67.684  1.00  0.00    -0.350 A  
HETATM   36  C   UNL     1      -9.563  19.126  67.905  1.00  0.00    -0.390 A  
ENDBRANCH   2  23
TORSDOF 5
ENDMDL
MODEL      280
REMARK 921   NORMALIZED FREE ENERGY PREDICTED BY IDOCK:   -2.89 KCAL/MOL
REMARK 922        TOTAL FREE ENERGY PREDICTED BY IDOCK:   -6.60 KCAL/MOL
REMARK 923 INTER-LIGAND FREE ENERGY PREDICTED BY IDOCK:   -5.55 KCAL/MOL
REMARK 924 INTRA-LIGAND FREE ENERGY PREDICTED BY IDOCK:   -1.06 KCAL/MOL
REMARK 927      BINDING AFFINITY PREDICTED BY RF-SCORE:    0.00 PKD
ROOT
HETATM    1  C   UNL     1     -10.667  11.797  65.838  1.00  0.00    -0.328 C  
HETATM    2  C   UNL     1      -9.989  12.050  67.184  1.00  0.00    -0.195 C  
ENDROOT
BRANCH   2   3
HETATM    3  O   UNL     1      -8.994  11.063  67.454  1.00  0.00    -0.140 OA 
BRANCH   3   4
HETATM    4  C   UNL     1      -9.380   9.728  67.092  1.00  0.00    -0.142 C  
BRANCH   4   5
HETATM    5  C   UNL     1      -8.202   8.740  67.408  1.00  0.00    -0.109 C  
HETATM    6  C   UNL     1      -8.317   8.578  70.401  1.00  0.00    -0.124 C  
HETATM    7  C   UNL     1      -7.661   9.777  69.697  1.00  0.00    -0.136 C  
HETATM    8  N   UNL     1      -8.981   9.030  71.603  1.00  0.00    -0.351 NA 
HETATM    9  H   UNL     1      -8.045   6.826  68.215  1.00  0.00     0.000 HD 
HETATM   10  C   UNL     1      -7.137   9.417  68.305  1.00  0.00    -0.076 C  
HETATM   11  O   UNL     1      -9.373   8.305  73.745  1.00  0.00    -0.098 OA 
HETATM   12  C   UNL     1      -9.319   7.874  69.448  1.00  0.00    -0.152 C  
HETATM   13  C   UNL     1      -7.268   7.584  70.936  1.00  0.00    -0.067 C  
HETATM   14  C   UNL     1      -8.784   8.208  72.684  1.00  0.00    -0.213 C  
HETATM   15  C   UNL     1      -7.753   7.176  72.329  1.00  0.00    -0.089 C  
HETATM   16  N   UNL     1      -8.752   7.556  68.133  1.00  0.00    -0.123 NA 
BRANCH   5  17
HETATM   17  C   UNL     1      -7.495   8.277  66.106  1.00  0.00    -0.081 A  
HETATM   18  C   UNL     1      -6.179   7.406  63.754  1.00  0.00    -0.049 A  
HETATM   19  C   UNL     1      -5.467   7.549  64.940  1.00  0.00    -0.033 A  
HETATM   20  C   UNL     1      -6.118   7.985  66.100  1.00  0.00    -0.045 A  
HETATM   21  C   UNL     1      -8.180   8.159  64.881  1.00  0.00    -0.150 A  
HETATM   22  C   UNL     1      -7.531   7.718  63.722  1.00  0.00    -0.108 A  
ENDBRANCH   5  17
ENDBRANCH   4   5
ENDBRANCH   3   4
ENDBRANCH   2   3
BRANCH   2  23
HETATM   23  C   UNL     1      -9.326  13.419  67.161  1.00  0.00    -0.240 A  
HETATM   24  F   UNL     1      -5.338  13.731  68.367  1.00  0.00    -0.075 F  
HETATM   25  C   UNL     1      -7.983  13.543  67.549  1.00  0.00    -0.186 A  
HETATM   26  F   UNL     1     -11.355  17.213  67.341  1.00  0.00    -0.098 F  
HETATM   27  C   UNL     1      -7.360  14.799  67.626  1.00  0.00    -0.206 A  
HETATM   28  C   UNL     1      -8.101  15.946  67.296  1.00  0.00    -0.213 A  
HETATM   29  F   UNL     1     -10.699  17.075  65.271  1.00  0.00    -0.372 F  
HETATM   30  C   UNL     1      -5.924  14.927  68.075  1.00  0.00    -0.148 C  
HETATM   31  F   UNL     1      -9.552  18.244  66.700  1.00  0.00    -0.272 F  
HETATM   32  C   UNL     1     -10.249  17.082  66.555  1.00  0.00    -0.320 C  
HETATM   33  F   UNL     1      -5.133  15.511  67.135  1.00  0.00    -0.006 F  
HETATM   34  F   UNL     1      -5.799  15.685  69.198  1.00  0.00    -0.102 F  
HETATM   35  C   UNL     1     -10.043  14.582  66.834  1.00  0.00    -0.257 A  
HETATM   36  C   UNL     1      -9.443  15.850  66.897  1.00  0.00    -0.242 A  
ENDBRANCH   2  23
TORSDOF 5
ENDMDL
MODEL      281
REMARK 921   NORMALIZED FREE ENERGY PREDICTED BY IDOCK:   -2.86 KCAL/MOL
REMARK 922        TOTAL FREE ENERGY PREDICTED BY IDOCK:   -6.56 KCAL/MOL
REMARK 923 INTER-LIGAND FREE ENERGY PREDICTED BY IDOCK:   -5.97 KCAL/MOL
REMARK 924 INTRA-LIGAND FREE ENERGY PREDICTED BY IDOCK:   -0.58 KCAL/MOL
REMARK 927      BINDING AFFINITY PREDICTED BY RF-SCORE:    0.00 PKD
ROOT
HETATM    1  C   UNL     1      -9.367   6.327  65.931  1.00  0.00    -0.007 C  
HETATM    2  C   UNL     1     -10.565   6.548  66.854  1.00  0.00    -0.305 C  
ENDROOT
BRANCH   2   3
HETATM    3  O   UNL     1     -10.428   5.804  68.064  1.00  0.00    -0.200 OA 
BRANCH   3   4
HETATM    4  C   UNL     1      -9.325   6.218  68.884  1.00  0.00    -0.128 C  
BRANCH   4   5
HETATM    5  C   UNL     1      -8.930   5.051  69.857  1.00  0.00    -0.106 C  
HETATM    6  C   UNL     1      -7.369   3.238  68.048  1.00  0.00    -0.054 C  
HETATM    7  C   UNL     1      -8.906   3.246  68.027  1.00  0.00    -0.159 C  
HETATM    8  N   UNL     1      -6.870   3.018  66.709  1.00  0.00    -0.048 NA 
HETATM    9  H   UNL     1      -7.149   4.309  70.642  1.00  0.00     0.000 HD 
HETATM   10  C   UNL     1      -9.502   3.699  69.362  1.00  0.00    -0.249 C  
HETATM   11  O   UNL     1      -5.148   1.924  65.658  1.00  0.00    -0.004 OA 
HETATM   12  C   UNL     1      -6.830   4.574  68.625  1.00  0.00    -0.051 C  
HETATM   13  C   UNL     1      -6.812   2.032  68.829  1.00  0.00    -0.036 C  
HETATM   14  C   UNL     1      -5.822   2.134  66.650  1.00  0.00    -0.022 C  
HETATM   15  C   UNL     1      -5.641   1.503  68.000  1.00  0.00    -0.018 C  
HETATM   16  N   UNL     1      -7.442   4.949  69.904  1.00  0.00    -0.055 NA 
BRANCH   5  17
HETATM   17  C   UNL     1      -9.485   5.301  71.285  1.00  0.00    -0.197 A  
HETATM   18  C   UNL     1     -10.495   5.801  73.884  1.00  0.00    -0.295 A  
HETATM   19  C   UNL     1      -9.546   6.652  73.328  1.00  0.00    -0.175 A  
HETATM   20  C   UNL     1      -9.045   6.401  72.046  1.00  0.00    -0.141 A  
HETATM   21  C   UNL     1     -10.417   4.436  71.890  1.00  0.00    -0.101 A  
HETATM   22  C   UNL     1     -10.924   4.690  73.170  1.00  0.00    -0.364 A  
ENDBRANCH   5  17
ENDBRANCH   4   5
ENDBRANCH   3   4
ENDBRANCH   2   3
BRANCH   2  23
HETATM   23  C   UNL     1     -10.667   8.026  67.197  1.00  0.00    -0.285 A  
HETATM   24  F   UNL     1      -9.831  10.834  64.219  1.00  0.00    -0.262 F  
HETATM   25  C   UNL     1     -10.404   8.986  66.207  1.00  0.00    -0.130 A  
HETATM   26  F   UNL     1     -10.361   9.733  71.139  1.00  0.00    -0.362 F  
HETATM   27  C   UNL     1     -10.402  10.358  66.505  1.00  0.00    -0.287 A  
HETATM   28  C   UNL     1     -10.680  10.768  67.818  1.00  0.00    -0.296 A  
HETATM   29  F   UNL     1     -12.479   9.893  70.669  1.00  0.00    -0.325 F  
HETATM   30  C   UNL     1     -10.086  11.382  65.440  1.00  0.00    -0.261 C  
HETATM   31  F   UNL     1     -11.176  11.616  70.421  1.00  0.00    -0.233 F  
HETATM   32  C   UNL     1     -11.241  10.266  70.245  1.00  0.00    -0.323 C  
HETATM   33  F   UNL     1     -11.102  12.266  65.249  1.00  0.00    -0.317 F  
HETATM   34  F   UNL     1      -8.990  12.127  65.749  1.00  0.00    -0.150 F  
HETATM   35  C   UNL     1     -10.945   8.464  68.502  1.00  0.00     0.157 A  
HETATM   36  C   UNL     1     -10.955   9.831  68.827  1.00  0.00    -0.185 A  
ENDBRANCH   2  23
TORSDOF 5
ENDMDL
MODEL      282
REMARK 921   NORMALIZED FREE ENERGY PREDICTED BY IDOCK:   -2.82 KCAL/MOL
REMARK 922        TOTAL FREE ENERGY PREDICTED BY IDOCK:   -6.50 KCAL/MOL
REMARK 923 INTER-LIGAND FREE ENERGY PREDICTED BY IDOCK:   -5.09 KCAL/MOL
REMARK 924 INTRA-LIGAND FREE ENERGY PREDICTED BY IDOCK:   -1.41 KCAL/MOL
REMARK 927      BINDING AFFINITY PREDICTED BY RF-SCORE:    0.00 PKD
ROOT
HETATM    1  C   UNL     1      -7.199   3.327  69.196  1.00  0.00    -0.049 C  
HETATM    2  C   UNL     1      -7.288   4.849  69.103  1.00  0.00    -0.053 C  
ENDROOT
BRANCH   2   3
HETATM    3  O   UNL     1      -8.166   5.252  68.053  1.00  0.00    -0.098 OA 
BRANCH   3   4
HETATM    4  C   UNL     1      -7.788   6.481  67.413  1.00  0.00    -0.112 C  
BRANCH   4   5
HETATM    5  C   UNL     1      -8.820   6.817  66.279  1.00  0.00    -0.147 C  
HETATM    6  C   UNL     1      -9.535   9.659  66.917  1.00  0.00    -0.153 C  
HETATM    7  C   UNL     1     -10.159   8.491  67.697  1.00  0.00    -0.271 C  
HETATM    8  N   UNL     1      -9.328  10.778  67.809  1.00  0.00    -0.150 NA 
HETATM    9  H   UNL     1      -8.870   8.121  64.655  1.00  0.00     0.000 HD 
HETATM   10  C   UNL     1     -10.196   7.199  66.877  1.00  0.00    -0.330 C  
HETATM   11  O   UNL     1      -9.444  13.070  67.773  1.00  0.00    -0.195 OA 
HETATM   12  C   UNL     1      -8.198   9.220  66.263  1.00  0.00    -0.107 C  
HETATM   13  C   UNL     1     -10.506  10.229  65.865  1.00  0.00    -0.167 C  
HETATM   14  C   UNL     1      -9.681  11.988  67.266  1.00  0.00    -0.185 C  
HETATM   15  C   UNL     1     -10.376  11.750  65.957  1.00  0.00    -0.276 C  
HETATM   16  N   UNL     1      -8.305   7.977  65.492  1.00  0.00    -0.141 NA 
BRANCH   5  17
HETATM   17  C   UNL     1      -9.037   5.600  65.340  1.00  0.00    -0.027 A  
HETATM   18  C   UNL     1      -9.390   3.370  63.629  1.00  0.00    -0.108 A  
HETATM   19  C   UNL     1      -8.228   4.131  63.554  1.00  0.00    -0.093 A  
HETATM   20  C   UNL     1      -8.058   5.235  64.397  1.00  0.00    -0.121 A  
HETATM   21  C   UNL     1     -10.218   4.834  65.365  1.00  0.00    -0.104 A  
HETATM   22  C   UNL     1     -10.387   3.726  64.527  1.00  0.00    -0.208 A  
ENDBRANCH   5  17
ENDBRANCH   4   5
ENDBRANCH   3   4
ENDBRANCH   2   3
BRANCH   2  23
HETATM   23  C   UNL     1      -7.814   5.401  70.420  1.00  0.00    -0.088 A  
HETATM   24  F   UNL     1      -5.294   7.797  72.736  1.00  0.00    -0.036 F  
HETATM   25  C   UNL     1      -6.989   6.219  71.206  1.00  0.00    -0.072 A  
HETATM   26  F   UNL     1     -11.031   3.739  72.751  1.00  0.00    -0.229 F  
HETATM   27  C   UNL     1      -7.404   6.676  72.466  1.00  0.00    -0.088 A  
HETATM   28  C   UNL     1      -8.676   6.311  72.937  1.00  0.00    -0.125 A  
HETATM   29  F   UNL     1     -11.900   5.531  71.875  1.00  0.00    -0.216 F  
HETATM   30  C   UNL     1      -6.496   7.530  73.320  1.00  0.00    -0.065 C  
HETATM   31  F   UNL     1     -11.168   5.565  73.921  1.00  0.00    -0.262 F  
HETATM   32  C   UNL     1     -10.890   5.092  72.674  1.00  0.00    -0.247 C  
HETATM   33  F   UNL     1      -7.044   8.740  73.616  1.00  0.00    -0.134 F  
HETATM   34  F   UNL     1      -6.207   6.944  74.513  1.00  0.00    -0.078 F  
HETATM   35  C   UNL     1      -9.083   5.052  70.912  1.00  0.00    -0.181 A  
HETATM   36  C   UNL     1      -9.526   5.500  72.168  1.00  0.00    -0.169 A  
ENDBRANCH   2  23
TORSDOF 5
ENDMDL
MODEL      283
REMARK 921   NORMALIZED FREE ENERGY PREDICTED BY IDOCK:   -2.80 KCAL/MOL
REMARK 922        TOTAL FREE ENERGY PREDICTED BY IDOCK:   -6.48 KCAL/MOL
REMARK 923 INTER-LIGAND FREE ENERGY PREDICTED BY IDOCK:   -5.19 KCAL/MOL
REMARK 924 INTRA-LIGAND FREE ENERGY PREDICTED BY IDOCK:   -1.29 KCAL/MOL
REMARK 927      BINDING AFFINITY PREDICTED BY RF-SCORE:    0.00 PKD
ROOT
HETATM    1  C   UNL     1      -9.436   8.423  66.770  1.00  0.00    -0.255 C  
HETATM    2  C   UNL     1     -10.354   8.998  67.847  1.00  0.00    -0.235 C  
ENDROOT
BRANCH   2   3
HETATM    3  O   UNL     1     -10.214   8.289  69.078  1.00  0.00    -0.208 OA 
BRANCH   3   4
HETATM    4  C   UNL     1      -9.050   7.452  69.142  1.00  0.00    -0.134 C  
BRANCH   4   5
HETATM    5  C   UNL     1      -9.425   6.087  69.819  1.00  0.00    -0.149 C  
HETATM    6  C   UNL     1      -9.065   4.152  67.556  1.00  0.00    -0.140 C  
HETATM    7  C   UNL     1     -10.330   5.019  67.664  1.00  0.00    -0.131 C  
HETATM    8  N   UNL     1      -8.712   3.986  66.163  1.00  0.00    -0.114 NA 
HETATM    9  H   UNL     1      -8.407   4.330  70.287  1.00  0.00     0.000 HD 
HETATM   10  C   UNL     1     -10.632   5.428  69.107  1.00  0.00    -0.241 C  
HETATM   11  O   UNL     1      -7.852   2.376  64.772  1.00  0.00    -0.072 OA 
HETATM   12  C   UNL     1      -7.897   4.799  68.347  1.00  0.00    -0.081 C  
HETATM   13  C   UNL     1      -9.319   2.707  68.025  1.00  0.00    -0.255 C  
HETATM   14  C   UNL     1      -8.339   2.706  65.839  1.00  0.00    -0.091 C  
HETATM   15  C   UNL     1      -8.608   1.808  67.011  1.00  0.00    -0.113 C  
HETATM   16  N   UNL     1      -8.254   5.166  69.722  1.00  0.00    -0.088 NA 
BRANCH   5  17
HETATM   17  C   UNL     1      -9.812   6.289  71.310  1.00  0.00    -0.197 A  
HETATM   18  C   UNL     1     -10.513   6.701  74.023  1.00  0.00    -0.309 A  
HETATM   19  C   UNL     1      -9.588   7.537  73.406  1.00  0.00    -0.323 A  
HETATM   20  C   UNL     1      -9.239   7.328  72.067  1.00  0.00    -0.149 A  
HETATM   21  C   UNL     1     -10.715   5.436  71.973  1.00  0.00    -0.281 A  
HETATM   22  C   UNL     1     -11.069   5.647  73.310  1.00  0.00    -0.288 A  
ENDBRANCH   5  17
ENDBRANCH   4   5
ENDBRANCH   3   4
ENDBRANCH   2   3
BRANCH   2  23
HETATM   23  C   UNL     1      -9.998  10.459  68.081  1.00  0.00    -0.170 A  
HETATM   24  F   UNL     1     -12.946  13.025  69.557  1.00  0.00     0.230 F  
HETATM   25  C   UNL     1     -10.970  11.334  68.589  1.00  0.00    -0.266 A  
HETATM   26  F   UNL     1      -6.809  12.621  66.159  1.00  0.00     0.863 F  
HETATM   27  C   UNL     1     -10.709  12.706  68.737  1.00  0.00    -0.240 A  
HETATM   28  C   UNL     1      -9.445  13.200  68.375  1.00  0.00    -0.166 A  
HETATM   29  F   UNL     1      -6.081  12.320  68.186  1.00  0.00    -0.050 F  
HETATM   30  C   UNL     1     -11.771  13.646  69.255  1.00  0.00    -0.325 C  
HETATM   31  F   UNL     1      -6.970  14.221  67.621  1.00  0.00    -0.135 F  
HETATM   32  C   UNL     1      -7.095  12.873  67.467  1.00  0.00    -0.152 C  
HETATM   33  F   UNL     1     -11.388  14.293  70.389  1.00  0.00    -0.284 F  
HETATM   34  F   UNL     1     -12.086  14.617  68.355  1.00  0.00    -0.344 F  
HETATM   35  C   UNL     1      -8.742  10.978  67.729  1.00  0.00    -0.130 A  
HETATM   36  C   UNL     1      -8.452  12.345  67.871  1.00  0.00    -0.166 A  
ENDBRANCH   2  23
TORSDOF 5
ENDMDL
MODEL      284
REMARK 921   NORMALIZED FREE ENERGY PREDICTED BY IDOCK:   -2.75 KCAL/MOL
REMARK 922        TOTAL FREE ENERGY PREDICTED BY IDOCK:   -6.41 KCAL/MOL
REMARK 923 INTER-LIGAND FREE ENERGY PREDICTED BY IDOCK:   -7.06 KCAL/MOL
REMARK 924 INTRA-LIGAND FREE ENERGY PREDICTED BY IDOCK:    0.65 KCAL/MOL
REMARK 927      BINDING AFFINITY PREDICTED BY RF-SCORE:    0.00 PKD
ROOT
HETATM    1  C   UNL     1     -10.742  14.956  71.015  1.00  0.00     0.208 C  
HETATM    2  C   UNL     1     -11.574  14.573  69.793  1.00  0.00    -0.295 C  
ENDROOT
BRANCH   2   3
HETATM    3  O   UNL     1     -11.060  15.179  68.607  1.00  0.00    -0.247 OA 
BRANCH   3   4
HETATM    4  C   UNL     1      -9.811  14.628  68.164  1.00  0.00    -0.224 C  
BRANCH   4   5
HETATM    5  C   UNL     1      -8.678  15.703  68.330  1.00  0.00    -0.178 C  
HETATM    6  C   UNL     1      -9.704  17.951  66.631  1.00  0.00    -0.319 C  
HETATM    7  C   UNL     1      -9.014  16.731  65.999  1.00  0.00    -0.220 C  
HETATM    8  N   UNL     1     -10.762  18.411  65.759  1.00  0.00    -0.466 NA 
HETATM    9  H   UNL     1      -8.546  17.603  69.173  1.00  0.00     0.000 HD 
HETATM   10  C   UNL     1      -8.039  16.051  66.963  1.00  0.00    -0.257 C  
HETATM   11  O   UNL     1     -11.711  20.386  65.077  1.00  0.00     0.641 OA 
HETATM   12  C   UNL     1     -10.261  17.591  68.033  1.00  0.00    -0.354 C  
HETATM   13  C   UNL     1      -8.761  19.168  66.705  1.00  0.00    -0.333 C  
HETATM   14  C   UNL     1     -10.812  19.776  65.627  1.00  0.00    -0.232 C  
HETATM   15  C   UNL     1      -9.603  20.374  66.285  1.00  0.00    -0.337 C  
HETATM   16  N   UNL     1      -9.277  16.944  68.906  1.00  0.00    -0.255 NA 
BRANCH   5  17
HETATM   17  C   UNL     1      -7.547  15.185  69.259  1.00  0.00    -0.201 A  
HETATM   18  C   UNL     1      -5.483  14.278  70.974  1.00  0.00    -0.173 A  
HETATM   19  C   UNL     1      -5.514  15.606  70.559  1.00  0.00    -0.144 A  
HETATM   20  C   UNL     1      -6.531  16.050  69.707  1.00  0.00    -0.164 A  
HETATM   21  C   UNL     1      -7.467  13.839  69.666  1.00  0.00     0.461 A  
HETATM   22  C   UNL     1      -6.454  13.394  70.522  1.00  0.00     0.316 A  
ENDBRANCH   5  17
ENDBRANCH   4   5
ENDBRANCH   3   4
ENDBRANCH   2   3
BRANCH   2  23
HETATM   23  C   UNL     1     -11.546  13.061  69.622  1.00  0.00    -0.322 A  
HETATM   24  F   UNL     1     -13.261  10.679  72.595  1.00  0.00    -0.319 F  
HETATM   25  C   UNL     1     -12.129  12.244  70.602  1.00  0.00    -0.330 A  
HETATM   26  F   UNL     1      -8.760  10.843  67.201  1.00  0.00    -0.129 F  
HETATM   27  C   UNL     1     -12.048  10.844  70.526  1.00  0.00    -0.464 A  
HETATM   28  C   UNL     1     -11.377  10.261  69.439  1.00  0.00    -0.279 A  
HETATM   29  F   UNL     1     -10.618  10.742  66.074  1.00  0.00    -0.298 F  
HETATM   30  C   UNL     1     -12.650   9.972  71.602  1.00  0.00    -0.427 C  
HETATM   31  F   UNL     1     -10.013   9.072  67.326  1.00  0.00    -0.204 F  
HETATM   32  C   UNL     1     -10.058  10.433  67.275  1.00  0.00    -0.200 C  
HETATM   33  F   UNL     1     -13.592   9.120  71.117  1.00  0.00    -0.367 F  
HETATM   34  F   UNL     1     -11.719   9.195  72.219  1.00  0.00    -0.418 F  
HETATM   35  C   UNL     1     -10.884  12.452  68.543  1.00  0.00    -0.270 A  
HETATM   36  C   UNL     1     -10.793  11.054  68.439  1.00  0.00    -0.264 A  
ENDBRANCH   2  23
TORSDOF 5
ENDMDL
MODEL      285
REMARK 921   NORMALIZED FREE ENERGY PREDICTED BY IDOCK:   -2.74 KCAL/MOL
REMARK 922        TOTAL FREE ENERGY PREDICTED BY IDOCK:   -6.40 KCAL/MOL
REMARK 923 INTER-LIGAND FREE ENERGY PREDICTED BY IDOCK:   -6.18 KCAL/MOL
REMARK 924 INTRA-LIGAND FREE ENERGY PREDICTED BY IDOCK:   -0.23 KCAL/MOL
REMARK 927      BINDING AFFINITY PREDICTED BY RF-SCORE:    0.00 PKD
ROOT
HETATM    1  C   UNL     1     -12.009   7.838  70.419  1.00  0.00     0.103 C  
HETATM    2  C   UNL     1     -10.857   8.810  70.671  1.00  0.00    -0.232 C  
ENDROOT
BRANCH   2   3
HETATM    3  O   UNL     1      -9.599   8.136  70.647  1.00  0.00    -0.164 OA 
BRANCH   3   4
HETATM    4  C   UNL     1      -9.273   7.549  69.377  1.00  0.00    -0.149 C  
BRANCH   4   5
HETATM    5  C   UNL     1      -9.048   6.006  69.557  1.00  0.00    -0.137 C  
HETATM    6  C   UNL     1      -9.206   5.024  66.728  1.00  0.00    -0.120 C  
HETATM    7  C   UNL     1     -10.479   5.342  67.528  1.00  0.00    -0.235 C  
HETATM    8  N   UNL     1      -9.405   5.383  65.342  1.00  0.00    -0.054 NA 
HETATM    9  H   UNL     1      -7.577   4.644  68.993  1.00  0.00     0.000 HD 
HETATM   10  C   UNL     1     -10.266   5.204  69.038  1.00  0.00    -0.241 C  
HETATM   11  O   UNL     1      -8.842   4.617  63.253  1.00  0.00    -0.132 OA 
HETATM   12  C   UNL     1      -7.989   5.780  67.324  1.00  0.00    -0.102 C  
HETATM   13  C   UNL     1      -8.937   3.508  66.660  1.00  0.00    -0.158 C  
HETATM   14  C   UNL     1      -8.925   4.450  64.457  1.00  0.00    -0.151 C  
HETATM   15  C   UNL     1      -8.510   3.225  65.218  1.00  0.00    -0.100 C  
HETATM   16  N   UNL     1      -7.843   5.604  68.773  1.00  0.00    -0.095 NA 
BRANCH   5  17
HETATM   17  C   UNL     1      -8.848   5.641  71.053  1.00  0.00    -0.144 A  
HETATM   18  C   UNL     1      -8.506   4.937  73.776  1.00  0.00    -0.104 A  
HETATM   19  C   UNL     1      -9.697   4.637  73.121  1.00  0.00    -0.158 A  
HETATM   20  C   UNL     1      -9.865   4.990  71.777  1.00  0.00    -0.234 A  
HETATM   21  C   UNL     1      -7.671   5.965  71.754  1.00  0.00    -0.101 A  
HETATM   22  C   UNL     1      -7.498   5.607  73.096  1.00  0.00    -0.096 A  
ENDBRANCH   5  17
ENDBRANCH   4   5
ENDBRANCH   3   4
ENDBRANCH   2   3
BRANCH   2  23
HETATM   23  C   UNL     1     -10.860   9.880  69.590  1.00  0.00    -0.281 A  
HETATM   24  F   UNL     1      -9.375   8.909  65.808  1.00  0.00    -0.240 F  
HETATM   25  C   UNL     1     -10.378   9.571  68.309  1.00  0.00    -0.244 A  
HETATM   26  F   UNL     1     -10.903  14.136  70.248  1.00  0.00    -0.073 F  
HETATM   27  C   UNL     1     -10.282  10.552  67.310  1.00  0.00    -0.260 A  
HETATM   28  C   UNL     1     -10.687  11.864  67.605  1.00  0.00    -0.253 A  
HETATM   29  F   UNL     1     -12.917  13.700  69.550  1.00  0.00    -0.052 F  
HETATM   30  C   UNL     1      -9.733  10.217  65.943  1.00  0.00    -0.232 C  
HETATM   31  F   UNL     1     -11.433  14.484  68.170  1.00  0.00    -0.269 F  
HETATM   32  C   UNL     1     -11.604  13.613  69.204  1.00  0.00    -0.309 C  
HETATM   33  F   UNL     1     -10.625  10.466  64.947  1.00  0.00    -0.377 F  
HETATM   34  F   UNL     1      -8.619  10.939  65.643  1.00  0.00    -0.169 F  
HETATM   35  C   UNL     1     -11.261  11.199  69.858  1.00  0.00    -0.293 A  
HETATM   36  C   UNL     1     -11.180  12.200  68.876  1.00  0.00    -0.320 A  
ENDBRANCH   2  23
TORSDOF 5
ENDMDL
MODEL      286
REMARK 921   NORMALIZED FREE ENERGY PREDICTED BY IDOCK:   -2.55 KCAL/MOL
REMARK 922        TOTAL FREE ENERGY PREDICTED BY IDOCK:   -6.16 KCAL/MOL
REMARK 923 INTER-LIGAND FREE ENERGY PREDICTED BY IDOCK:   -7.48 KCAL/MOL
REMARK 924 INTRA-LIGAND FREE ENERGY PREDICTED BY IDOCK:    1.32 KCAL/MOL
REMARK 927      BINDING AFFINITY PREDICTED BY RF-SCORE:    0.00 PKD
ROOT
HETATM    1  C   UNL     1     -10.784  16.386  70.880  1.00  0.00     0.438 C  
HETATM    2  C   UNL     1     -10.536  15.732  69.522  1.00  0.00    -0.270 C  
ENDROOT
BRANCH   2   3
HETATM    3  O   UNL     1     -11.763  15.471  68.843  1.00  0.00    -0.349 OA 
BRANCH   3   4
HETATM    4  C   UNL     1     -11.614  14.705  67.638  1.00  0.00    -0.361 C  
BRANCH   4   5
HETATM    5  C   UNL     1     -11.572  13.176  67.993  1.00  0.00    -0.334 C  
HETATM    6  C   UNL     1     -10.337  12.001  65.525  1.00  0.00    -0.263 C  
HETATM    7  C   UNL     1     -11.825  12.384  65.561  1.00  0.00    -0.469 C  
HETATM    8  N   UNL     1      -9.803  12.265  64.208  1.00  0.00    -0.182 NA 
HETATM    9  H   UNL     1     -10.073  11.767  68.318  1.00  0.00     0.000 HD 
HETATM   10  C   UNL     1     -12.400  12.349  66.979  1.00  0.00     0.474 C  
HETATM   11  O   UNL     1      -8.305  11.352  62.729  1.00  0.00    -0.009 OA 
HETATM   12  C   UNL     1      -9.551  12.787  66.607  1.00  0.00    -0.255 C  
HETATM   13  C   UNL     1     -10.133  10.482  65.686  1.00  0.00    -0.333 C  
HETATM   14  C   UNL     1      -8.985  11.270  63.736  1.00  0.00     0.074 C  
HETATM   15  C   UNL     1      -9.055  10.097  64.670  1.00  0.00    -0.268 C  
HETATM   16  N   UNL     1     -10.154  12.711  67.942  1.00  0.00    -0.216 NA 
BRANCH   5  17
HETATM   17  C   UNL     1     -12.161  12.913  69.406  1.00  0.00    -0.254 A  
HETATM   18  C   UNL     1     -13.265  12.464  71.975  1.00  0.00    -0.514 A  
HETATM   19  C   UNL     1     -13.287  13.739  71.419  1.00  0.00    -0.340 A  
HETATM   20  C   UNL     1     -12.736  13.960  70.151  1.00  0.00    -0.182 A  
HETATM   21  C   UNL     1     -12.119  11.643  70.012  1.00  0.00    -0.395 A  
HETATM   22  C   UNL     1     -12.675  11.419  71.276  1.00  0.00    -0.498 A  
ENDBRANCH   5  17
ENDBRANCH   4   5
ENDBRANCH   3   4
ENDBRANCH   2   3
BRANCH   2  23
HETATM   23  C   UNL     1      -9.691  16.663  68.665  1.00  0.00    -0.248 A  
HETATM   24  F   UNL     1     -11.588  19.769  66.615  1.00  0.00    -0.212 F  
HETATM   25  C   UNL     1     -10.306  17.720  67.979  1.00  0.00    -0.395 A  
HETATM   26  F   UNL     1      -5.845  15.735  66.963  1.00  0.00    -0.109 F  
HETATM   27  C   UNL     1      -9.578  18.548  67.110  1.00  0.00    -0.302 A  
HETATM   28  C   UNL     1      -8.204  18.310  66.938  1.00  0.00    -0.260 A  
HETATM   29  F   UNL     1      -5.376  17.113  68.580  1.00  0.00    -0.126 F  
HETATM   30  C   UNL     1     -10.255  19.665  66.352  1.00  0.00    -0.488 C  
HETATM   31  F   UNL     1      -5.493  17.836  66.534  1.00  0.00    -0.147 F  
HETATM   32  C   UNL     1      -6.086  16.994  67.426  1.00  0.00    -0.144 C  
HETATM   33  F   UNL     1      -9.722  20.884  66.632  1.00  0.00    -0.457 F  
HETATM   34  F   UNL     1     -10.155  19.509  65.003  1.00  0.00     0.307 F  
HETATM   35  C   UNL     1      -8.315  16.448  68.477  1.00  0.00    -0.202 A  
HETATM   36  C   UNL     1      -7.561  17.264  67.618  1.00  0.00    -0.190 A  
ENDBRANCH   2  23
TORSDOF 5
ENDMDL
MODEL      287
REMARK 921   NORMALIZED FREE ENERGY PREDICTED BY IDOCK:   -2.32 KCAL/MOL
REMARK 922        TOTAL FREE ENERGY PREDICTED BY IDOCK:   -5.87 KCAL/MOL
REMARK 923 INTER-LIGAND FREE ENERGY PREDICTED BY IDOCK:   -4.69 KCAL/MOL
REMARK 924 INTRA-LIGAND FREE ENERGY PREDICTED BY IDOCK:   -1.17 KCAL/MOL
REMARK 927      BINDING AFFINITY PREDICTED BY RF-SCORE:    0.00 PKD
ROOT
HETATM    1  C   UNL     1      -8.337  10.284  64.930  1.00  0.00    -0.173 C  
HETATM    2  C   UNL     1      -7.844  10.108  66.365  1.00  0.00    -0.114 C  
ENDROOT
BRANCH   2   3
HETATM    3  O   UNL     1      -7.506  11.364  66.953  1.00  0.00    -0.136 OA 
BRANCH   3   4
HETATM    4  C   UNL     1      -6.283  11.348  67.705  1.00  0.00    -0.050 C  
BRANCH   4   5
HETATM    5  C   UNL     1      -6.536  11.969  69.125  1.00  0.00    -0.099 C  
HETATM    6  C   UNL     1      -6.927  14.870  68.470  1.00  0.00    -0.107 C  
HETATM    7  C   UNL     1      -5.520  14.257  68.542  1.00  0.00    -0.098 C  
HETATM    8  N   UNL     1      -6.964  15.871  67.428  1.00  0.00    -0.183 NA 
HETATM    9  H   UNL     1      -8.139  12.900  70.075  1.00  0.00     0.000 HD 
HETATM   10  C   UNL     1      -5.464  13.035  69.462  1.00  0.00    -0.083 C  
HETATM   11  O   UNL     1      -7.923  17.916  67.019  1.00  0.00    -0.205 OA 
HETATM   12  C   UNL     1      -7.985  13.765  68.212  1.00  0.00    -0.146 C  
HETATM   13  C   UNL     1      -7.266  15.677  69.739  1.00  0.00    -0.086 C  
HETATM   14  C   UNL     1      -7.633  17.015  67.785  1.00  0.00    -0.170 C  
HETATM   15  C   UNL     1      -7.955  16.952  69.250  1.00  0.00     0.009 C  
HETATM   16  N   UNL     1      -7.877  12.625  69.128  1.00  0.00     0.267 NA 
BRANCH   5  17
HETATM   17  C   UNL     1      -6.480  10.881  70.230  1.00  0.00    -0.106 A  
HETATM   18  C   UNL     1      -6.360   8.923  72.274  1.00  0.00    -0.012 A  
HETATM   19  C   UNL     1      -5.354   9.878  72.161  1.00  0.00     0.023 A  
HETATM   20  C   UNL     1      -5.413  10.841  71.147  1.00  0.00    -0.051 A  
HETATM   21  C   UNL     1      -7.462   9.878  70.347  1.00  0.00    -0.137 A  
HETATM   22  C   UNL     1      -7.408   8.918  71.364  1.00  0.00    -0.106 A  
ENDBRANCH   5  17
ENDBRANCH   4   5
ENDBRANCH   3   4
ENDBRANCH   2   3
BRANCH   2  23
HETATM   23  C   UNL     1      -8.941   9.459  67.196  1.00  0.00    -0.144 A  
HETATM   24  F   UNL     1     -10.989  11.801  69.985  1.00  0.00    -0.163 F  
HETATM   25  C   UNL     1      -9.650  10.231  68.129  1.00  0.00    -0.151 A  
HETATM   26  F   UNL     1      -9.308   5.256  68.057  1.00  0.00    -0.109 F  
HETATM   27  C   UNL     1     -10.609   9.653  68.975  1.00  0.00    -0.237 A  
HETATM   28  C   UNL     1     -10.862   8.275  68.873  1.00  0.00     0.002 A  
HETATM   29  F   UNL     1     -10.890   5.627  66.611  1.00  0.00    -0.305 F  
HETATM   30  C   UNL     1     -11.345  10.486  69.998  1.00  0.00    -0.318 C  
HETATM   31  F   UNL     1     -11.354   5.541  68.732  1.00  0.00    -0.159 F  
HETATM   32  C   UNL     1     -10.432   5.995  67.838  1.00  0.00    -0.234 C  
HETATM   33  F   UNL     1     -12.693  10.461  69.819  1.00  0.00    -0.286 F  
HETATM   34  F   UNL     1     -11.125  10.055  71.270  1.00  0.00    -0.407 F  
HETATM   35  C   UNL     1      -9.216   8.084  67.112  1.00  0.00    -0.172 A  
HETATM   36  C   UNL     1     -10.174   7.480  67.943  1.00  0.00    -0.245 A  
ENDBRANCH   2  23
TORSDOF 5
ENDMDL
MODEL      288
REMARK 921   NORMALIZED FREE ENERGY PREDICTED BY IDOCK:   -2.22 KCAL/MOL
REMARK 922        TOTAL FREE ENERGY PREDICTED BY IDOCK:   -5.73 KCAL/MOL
REMARK 923 INTER-LIGAND FREE ENERGY PREDICTED BY IDOCK:   -5.19 KCAL/MOL
REMARK 924 INTRA-LIGAND FREE ENERGY PREDICTED BY IDOCK:   -0.54 KCAL/MOL
REMARK 927      BINDING AFFINITY PREDICTED BY RF-SCORE:    0.00 PKD
ROOT
HETATM    1  C   UNL     1     -10.719   7.429  66.790  1.00  0.00    -0.202 C  
HETATM    2  C   UNL     1     -11.089   8.172  68.072  1.00  0.00     0.383 C  
ENDROOT
BRANCH   2   3
HETATM    3  O   UNL     1     -10.658   7.453  69.228  1.00  0.00    -0.218 OA 
BRANCH   3   4
HETATM    4  C   UNL     1      -9.238   7.474  69.435  1.00  0.00    -0.149 C  
BRANCH   4   5
HETATM    5  C   UNL     1      -8.823   6.252  70.328  1.00  0.00    -0.153 C  
HETATM    6  C   UNL     1      -8.634   4.043  68.308  1.00  0.00    -0.095 C  
HETATM    7  C   UNL     1      -9.995   4.501  68.857  1.00  0.00    -0.131 C  
HETATM    8  N   UNL     1      -8.776   3.673  66.918  1.00  0.00    -0.110 NA 
HETATM    9  H   UNL     1      -7.144   5.027  70.484  1.00  0.00     0.000 HD 
HETATM   10  C   UNL     1      -9.880   5.123  70.250  1.00  0.00    -0.295 C  
HETATM   11  O   UNL     1      -7.959   2.111  65.447  1.00  0.00    -0.076 OA 
HETATM   12  C   UNL     1      -7.578   5.167  68.475  1.00  0.00    -0.079 C  
HETATM   13  C   UNL     1      -8.161   2.734  68.970  1.00  0.00    -0.074 C  
HETATM   14  C   UNL     1      -8.110   2.520  66.585  1.00  0.00    -0.082 C  
HETATM   15  C   UNL     1      -7.593   1.876  67.838  1.00  0.00    -0.054 C  
HETATM   16  N   UNL     1      -7.519   5.718  69.834  1.00  0.00    -0.077 NA 
BRANCH   5  17
HETATM   17  C   UNL     1      -8.688   6.668  71.818  1.00  0.00    -0.129 A  
HETATM   18  C   UNL     1      -8.419   7.461  74.524  1.00  0.00    -0.234 A  
HETATM   19  C   UNL     1      -7.359   7.629  73.638  1.00  0.00    -0.130 A  
HETATM   20  C   UNL     1      -7.493   7.232  72.303  1.00  0.00    -0.083 A  
HETATM   21  C   UNL     1      -9.728   6.475  72.748  1.00  0.00    -0.166 A  
HETATM   22  C   UNL     1      -9.598   6.877  74.082  1.00  0.00    -0.308 A  
ENDBRANCH   5  17
ENDBRANCH   4   5
ENDBRANCH   3   4
ENDBRANCH   2   3
BRANCH   2  23
HETATM   23  C   UNL     1     -10.420   9.539  68.070  1.00  0.00    -0.279 A  
HETATM   24  F   UNL     1      -6.402   9.799  66.959  1.00  0.00    -0.061 F  
HETATM   25  C   UNL     1      -9.075   9.650  67.687  1.00  0.00    -0.141 A  
HETATM   26  F   UNL     1     -11.678  12.972  70.346  1.00  0.00    -0.351 F  
HETATM   27  C   UNL     1      -8.397  10.877  67.754  1.00  0.00    -0.117 A  
HETATM   28  C   UNL     1      -9.090  12.012  68.205  1.00  0.00    -0.190 A  
HETATM   29  F   UNL     1     -12.255  13.464  68.307  1.00  0.00    -0.372 F  
HETATM   30  C   UNL     1      -6.940  10.981  67.370  1.00  0.00    -0.086 C  
HETATM   31  F   UNL     1     -10.417  14.270  69.143  1.00  0.00    -0.231 F  
HETATM   32  C   UNL     1     -11.186  13.146  69.087  1.00  0.00    -0.247 C  
HETATM   33  F   UNL     1      -6.730  11.861  66.354  1.00  0.00    -0.055 F  
HETATM   34  F   UNL     1      -6.162  11.404  68.403  1.00  0.00    -0.046 F  
HETATM   35  C   UNL     1     -11.091  10.690  68.515  1.00  0.00    -0.318 A  
HETATM   36  C   UNL     1     -10.439  11.932  68.587  1.00  0.00    -0.231 A  
ENDBRANCH   2  23
TORSDOF 5
ENDMDL
MODEL      289
REMARK 921   NORMALIZED FREE ENERGY PREDICTED BY IDOCK:   -2.19 KCAL/MOL
REMARK 922        TOTAL FREE ENERGY PREDICTED BY IDOCK:   -5.70 KCAL/MOL
REMARK 923 INTER-LIGAND FREE ENERGY PREDICTED BY IDOCK:   -4.81 KCAL/MOL
REMARK 924 INTRA-LIGAND FREE ENERGY PREDICTED BY IDOCK:   -0.88 KCAL/MOL
REMARK 927      BINDING AFFINITY PREDICTED BY RF-SCORE:    0.00 PKD
ROOT
HETATM    1  C   UNL     1     -11.454   6.851  69.203  1.00  0.00    -0.025 C  
HETATM    2  C   UNL     1     -10.114   7.567  69.041  1.00  0.00    -0.192 C  
ENDROOT
BRANCH   2   3
HETATM    3  O   UNL     1     -10.263   8.980  69.180  1.00  0.00    -0.194 OA 
BRANCH   3   4
HETATM    4  C   UNL     1      -9.173   9.740  68.637  1.00  0.00    -0.137 C  
BRANCH   4   5
HETATM    5  C   UNL     1      -9.713  10.705  67.524  1.00  0.00    -0.166 C  
HETATM    6  C   UNL     1     -11.184  12.757  69.143  1.00  0.00    -0.237 C  
HETATM    7  C   UNL     1     -11.815  11.390  68.835  1.00  0.00    -0.413 C  
HETATM    8  N   UNL     1     -11.580  13.182  70.467  1.00  0.00     0.053 NA 
HETATM    9  H   UNL     1      -9.377  12.689  66.986  1.00  0.00     0.000 HD 
HETATM   10  C   UNL     1     -11.261  10.770  67.550  1.00  0.00    -0.346 C  
HETATM   11  O   UNL     1     -12.135  15.115  71.574  1.00  0.00    -0.295 OA 
HETATM   12  C   UNL     1      -9.639  12.676  69.029  1.00  0.00     0.389 C  
HETATM   13  C   UNL     1     -11.750  13.867  68.237  1.00  0.00    -0.396 C  
HETATM   14  C   UNL     1     -11.926  14.508  70.539  1.00  0.00    -0.318 C  
HETATM   15  C   UNL     1     -11.978  15.074  69.149  1.00  0.00    -0.308 C  
HETATM   16  N   UNL     1      -9.175  12.075  67.775  1.00  0.00    -0.183 NA 
BRANCH   5  17
HETATM   17  C   UNL     1      -9.287  10.224  66.110  1.00  0.00    -0.211 A  
HETATM   18  C   UNL     1      -8.485   9.382  63.527  1.00  0.00    -0.202 A  
HETATM   19  C   UNL     1      -8.682  10.734  63.792  1.00  0.00    -0.084 A  
HETATM   20  C   UNL     1      -9.083  11.147  65.067  1.00  0.00    -0.138 A  
HETATM   21  C   UNL     1      -9.118   8.861  65.801  1.00  0.00    -0.276 A  
HETATM   22  C   UNL     1      -8.711   8.446  64.528  1.00  0.00     0.067 A  
ENDBRANCH   5  17
ENDBRANCH   4   5
ENDBRANCH   3   4
ENDBRANCH   2   3
BRANCH   2  23
HETATM   23  C   UNL     1      -9.149   7.070  70.107  1.00  0.00    -0.149 A  
HETATM   24  F   UNL     1      -7.140   3.464  69.460  1.00  0.00    -0.040 F  
HETATM   25  C   UNL     1      -8.454   5.868  69.903  1.00  0.00    -0.129 A  
HETATM   26  F   UNL     1      -9.219   8.138  74.278  1.00  0.00    -0.208 F  
HETATM   27  C   UNL     1      -7.621   5.330  70.897  1.00  0.00    -0.088 A  
HETATM   28  C   UNL     1      -7.480   6.021  72.112  1.00  0.00    -0.095 A  
HETATM   29  F   UNL     1      -7.498   9.216  73.497  1.00  0.00     0.143 F  
HETATM   30  C   UNL     1      -6.901   4.020  70.682  1.00  0.00    -0.033 C  
HETATM   31  F   UNL     1      -7.218   7.335  74.550  1.00  0.00    -0.103 F  
HETATM   32  C   UNL     1      -8.021   7.969  73.650  1.00  0.00    -0.197 C  
HETATM   33  F   UNL     1      -5.550   4.144  70.779  1.00  0.00    -0.010 F  
HETATM   34  F   UNL     1      -7.260   3.077  71.595  1.00  0.00    -0.035 F  
HETATM   35  C   UNL     1      -8.988   7.742  71.330  1.00  0.00    -0.147 A  
HETATM   36  C   UNL     1      -8.157   7.229  72.340  1.00  0.00    -0.111 A  
ENDBRANCH   2  23
TORSDOF 5
ENDMDL
MODEL      290
REMARK 921   NORMALIZED FREE ENERGY PREDICTED BY IDOCK:   -2.16 KCAL/MOL
REMARK 922        TOTAL FREE ENERGY PREDICTED BY IDOCK:   -5.66 KCAL/MOL
REMARK 923 INTER-LIGAND FREE ENERGY PREDICTED BY IDOCK:   -5.41 KCAL/MOL
REMARK 924 INTRA-LIGAND FREE ENERGY PREDICTED BY IDOCK:   -0.25 KCAL/MOL
REMARK 927      BINDING AFFINITY PREDICTED BY RF-SCORE:    0.00 PKD
ROOT
HETATM    1  C   UNL     1      -7.595   9.898  64.910  1.00  0.00    -0.135 C  
HETATM    2  C   UNL     1      -7.690  10.753  66.173  1.00  0.00    -0.149 C  
ENDROOT
BRANCH   2   3
HETATM    3  O   UNL     1      -6.925  11.951  66.044  1.00  0.00     0.493 OA 
BRANCH   3   4
HETATM    4  C   UNL     1      -5.760  11.994  66.881  1.00  0.00    -0.068 C  
BRANCH   4   5
HETATM    5  C   UNL     1      -6.169  12.466  68.321  1.00  0.00    -0.056 C  
HETATM    6  C   UNL     1      -6.537  15.416  67.925  1.00  0.00    -0.153 C  
HETATM    7  C   UNL     1      -5.135  14.807  68.082  1.00  0.00    -0.117 C  
HETATM    8  N   UNL     1      -6.482  16.518  66.991  1.00  0.00    -0.183 NA 
HETATM    9  H   UNL     1      -7.877  13.286  69.187  1.00  0.00     0.000 HD 
HETATM   10  C   UNL     1      -5.155  13.498  68.875  1.00  0.00    -0.067 C  
HETATM   11  O   UNL     1      -7.426  18.588  66.692  1.00  0.00    -0.214 OA 
HETATM   12  C   UNL     1      -7.545  14.337  67.447  1.00  0.00    -0.163 C  
HETATM   13  C   UNL     1      -7.019  16.087  69.226  1.00  0.00    -0.205 C  
HETATM   14  C   UNL     1      -7.202  17.615  67.390  1.00  0.00    -0.181 C  
HETATM   15  C   UNL     1      -7.674  17.402  68.799  1.00  0.00    -0.258 C  
HETATM   16  N   UNL     1      -7.514  13.110  68.250  1.00  0.00    -0.118 NA 
BRANCH   5  17
HETATM   17  C   UNL     1      -6.210  11.270  69.311  1.00  0.00    -0.073 A  
HETATM   18  C   UNL     1      -6.273   9.063  71.085  1.00  0.00    -0.062 A  
HETATM   19  C   UNL     1      -6.613   8.893  69.746  1.00  0.00    -0.041 A  
HETATM   20  C   UNL     1      -6.586   9.986  68.873  1.00  0.00    -0.049 A  
HETATM   21  C   UNL     1      -5.910  11.417  70.679  1.00  0.00    -0.092 A  
HETATM   22  C   UNL     1      -5.931  10.324  71.552  1.00  0.00     0.262 A  
ENDBRANCH   5  17
ENDBRANCH   4   5
ENDBRANCH   3   4
ENDBRANCH   2   3
BRANCH   2  23
HETATM   23  C   UNL     1      -9.145  11.125  66.416  1.00  0.00    -0.198 A  
HETATM   24  F   UNL     1     -10.725  10.617  70.250  1.00  0.00    -0.318 F  
HETATM   25  C   UNL     1      -9.691  10.975  67.700  1.00  0.00    -0.184 A  
HETATM   26  F   UNL     1     -12.237  11.334  63.426  1.00  0.00    -0.406 F  
HETATM   27  C   UNL     1     -11.050  11.224  67.947  1.00  0.00    -0.325 A  
HETATM   28  C   UNL     1     -11.869  11.641  66.885  1.00  0.00     0.005 A  
HETATM   29  F   UNL     1     -11.826  13.419  63.891  1.00  0.00    -0.416 F  
HETATM   30  C   UNL     1     -11.637  11.030  69.326  1.00  0.00    -0.314 C  
HETATM   31  F   UNL     1     -13.531  12.418  64.794  1.00  0.00    -0.293 F  
HETATM   32  C   UNL     1     -12.226  12.241  64.442  1.00  0.00    -0.402 C  
HETATM   33  F   UNL     1     -12.186  12.169  69.825  1.00  0.00    -0.328 F  
HETATM   34  F   UNL     1     -12.627  10.096  69.339  1.00  0.00    -0.016 F  
HETATM   35  C   UNL     1      -9.985  11.546  65.372  1.00  0.00    -0.288 A  
HETATM   36  C   UNL     1     -11.348  11.807  65.592  1.00  0.00    -0.293 A  
ENDBRANCH   2  23
TORSDOF 5
ENDMDL
MODEL      291
REMARK 921   NORMALIZED FREE ENERGY PREDICTED BY IDOCK:   -2.15 KCAL/MOL
REMARK 922        TOTAL FREE ENERGY PREDICTED BY IDOCK:   -5.64 KCAL/MOL
REMARK 923 INTER-LIGAND FREE ENERGY PREDICTED BY IDOCK:   -4.58 KCAL/MOL
REMARK 924 INTRA-LIGAND FREE ENERGY PREDICTED BY IDOCK:   -1.07 KCAL/MOL
REMARK 927      BINDING AFFINITY PREDICTED BY RF-SCORE:    0.00 PKD
ROOT
HETATM    1  C   UNL     1     -12.225   6.560  69.850  1.00  0.00     0.419 C  
HETATM    2  C   UNL     1     -10.931   7.044  69.198  1.00  0.00    -0.158 C  
ENDROOT
BRANCH   2   3
HETATM    3  O   UNL     1     -10.888   8.469  69.133  1.00  0.00    -0.159 OA 
BRANCH   3   4
HETATM    4  C   UNL     1      -9.574   9.006  68.924  1.00  0.00    -0.156 C  
BRANCH   4   5
HETATM    5  C   UNL     1      -9.575   9.905  67.637  1.00  0.00    -0.148 C  
HETATM    6  C   UNL     1      -7.772   8.362  65.803  1.00  0.00    -0.094 C  
HETATM    7  C   UNL     1      -7.196   9.251  66.916  1.00  0.00    -0.086 C  
HETATM    8  N   UNL     1      -6.940   7.190  65.644  1.00  0.00    -0.059 NA 
HETATM    9  H   UNL     1     -10.249   9.693  65.677  1.00  0.00     0.000 HD 
HETATM   10  C   UNL     1      -8.144  10.390  67.298  1.00  0.00    -0.114 C  
HETATM   11  O   UNL     1      -6.166   5.827  63.967  1.00  0.00    -0.024 OA 
HETATM   12  C   UNL     1      -9.233   7.960  66.134  1.00  0.00    -0.152 C  
HETATM   13  C   UNL     1      -7.683   9.042  64.423  1.00  0.00    -0.118 C  
HETATM   14  C   UNL     1      -6.701   6.858  64.334  1.00  0.00    -0.046 C  
HETATM   15  C   UNL     1      -7.225   7.953  63.451  1.00  0.00    -0.091 C  
HETATM   16  N   UNL     1     -10.087   9.098  66.490  1.00  0.00    -0.289 NA 
BRANCH   5  17
HETATM   17  C   UNL     1     -10.464  11.163  67.833  1.00  0.00    -0.220 A  
HETATM   18  C   UNL     1     -12.109  13.445  68.156  1.00  0.00    -0.267 A  
HETATM   19  C   UNL     1     -11.819  12.968  66.882  1.00  0.00    -0.442 A  
HETATM   20  C   UNL     1     -11.002  11.843  66.724  1.00  0.00    -0.337 A  
HETATM   21  C   UNL     1     -10.744  11.693  69.107  1.00  0.00    -0.188 A  
HETATM   22  C   UNL     1     -11.566  12.814  69.267  1.00  0.00    -0.372 A  
ENDBRANCH   5  17
ENDBRANCH   4   5
ENDBRANCH   3   4
ENDBRANCH   2   3
BRANCH   2  23
HETATM   23  C   UNL     1      -9.745   6.555  70.015  1.00  0.00    -0.178 A  
HETATM   24  F   UNL     1      -9.704   7.301  74.125  1.00  0.00    -0.284 F  
HETATM   25  C   UNL     1      -9.718   6.784  71.399  1.00  0.00    -0.177 A  
HETATM   26  F   UNL     1      -5.800   5.728  68.499  1.00  0.00    -0.015 F  
HETATM   27  C   UNL     1      -8.604   6.427  72.175  1.00  0.00    -0.125 A  
HETATM   28  C   UNL     1      -7.504   5.822  71.546  1.00  0.00    -0.093 A  
HETATM   29  F   UNL     1      -6.631   3.754  68.883  1.00  0.00    -0.036 F  
HETATM   30  C   UNL     1      -8.571   6.705  73.659  1.00  0.00    -0.123 C  
HETATM   31  F   UNL     1      -5.286   4.668  70.325  1.00  0.00    -0.003 F  
HETATM   32  C   UNL     1      -6.320   4.937  69.479  1.00  0.00    -0.031 C  
HETATM   33  F   UNL     1      -8.412   5.574  74.399  1.00  0.00    -0.109 F  
HETATM   34  F   UNL     1      -7.547   7.531  74.008  1.00  0.00    -0.119 F  
HETATM   35  C   UNL     1      -8.633   5.946  69.411  1.00  0.00    -0.113 A  
HETATM   36  C   UNL     1      -7.507   5.574  70.164  1.00  0.00    -0.070 A  
ENDBRANCH   2  23
TORSDOF 5
ENDMDL
MODEL      292
REMARK 921   NORMALIZED FREE ENERGY PREDICTED BY IDOCK:   -2.14 KCAL/MOL
REMARK 922        TOTAL FREE ENERGY PREDICTED BY IDOCK:   -5.62 KCAL/MOL
REMARK 923 INTER-LIGAND FREE ENERGY PREDICTED BY IDOCK:   -6.36 KCAL/MOL
REMARK 924 INTRA-LIGAND FREE ENERGY PREDICTED BY IDOCK:    0.74 KCAL/MOL
REMARK 927      BINDING AFFINITY PREDICTED BY RF-SCORE:    0.00 PKD
ROOT
HETATM    1  C   UNL     1      -8.393  10.310  62.999  1.00  0.00    -0.170 C  
HETATM    2  C   UNL     1      -8.736  10.010  64.457  1.00  0.00    -0.195 C  
ENDROOT
BRANCH   2   3
HETATM    3  O   UNL     1      -7.565   9.678  65.204  1.00  0.00    -0.106 OA 
BRANCH   3   4
HETATM    4  C   UNL     1      -7.729   9.786  66.626  1.00  0.00    -0.102 C  
BRANCH   4   5
HETATM    5  C   UNL     1      -7.979   8.360  67.232  1.00  0.00    -0.105 C  
HETATM    6  C   UNL     1      -9.939   8.953  69.424  1.00  0.00    -0.192 C  
HETATM    7  C   UNL     1      -8.436   9.215  69.613  1.00  0.00    -0.133 C  
HETATM    8  N   UNL     1     -10.696   9.973  70.114  1.00  0.00    -0.288 NA 
HETATM    9  H   UNL     1      -9.605   7.065  67.363  1.00  0.00     0.000 HD 
HETATM   10  C   UNL     1      -7.573   8.313  68.726  1.00  0.00    -0.101 C  
HETATM   11  O   UNL     1     -12.635  10.174  71.325  1.00  0.00    -0.336 OA 
HETATM   12  C   UNL     1     -10.297   8.925  67.915  1.00  0.00    -0.230 C  
HETATM   13  C   UNL     1     -10.386   7.655  70.124  1.00  0.00    -0.217 C  
HETATM   14  C   UNL     1     -11.773   9.485  70.808  1.00  0.00    -0.298 C  
HETATM   15  C   UNL     1     -11.718   7.985  70.801  1.00  0.00    -0.215 C  
HETATM   16  N   UNL     1      -9.433   8.041  67.124  1.00  0.00    -0.153 NA 
BRANCH   5  17
HETATM   17  C   UNL     1      -7.148   7.281  66.486  1.00  0.00    -0.078 A  
HETATM   18  C   UNL     1      -5.597   5.339  65.127  1.00  0.00    -0.014 A  
HETATM   19  C   UNL     1      -5.368   6.694  64.909  1.00  0.00    -0.026 A  
HETATM   20  C   UNL     1      -6.138   7.651  65.578  1.00  0.00    -0.038 A  
HETATM   21  C   UNL     1      -7.382   5.903  66.656  1.00  0.00    -0.079 A  
HETATM   22  C   UNL     1      -6.608   4.944  65.993  1.00  0.00    -0.045 A  
ENDBRANCH   5  17
ENDBRANCH   4   5
ENDBRANCH   3   4
ENDBRANCH   2   3
BRANCH   2  23
HETATM   23  C   UNL     1      -9.384  11.235  65.082  1.00  0.00    -0.211 A  
HETATM   24  F   UNL     1     -12.611  13.014  63.113  1.00  0.00    -0.506 F  
HETATM   25  C   UNL     1     -10.478  11.840  64.444  1.00  0.00    -0.359 A  
HETATM   26  F   UNL     1      -7.519  13.941  67.866  1.00  0.00    -0.098 F  
HETATM   27  C   UNL     1     -11.050  13.022  64.941  1.00  0.00    -0.326 A  
HETATM   28  C   UNL     1     -10.515  13.598  66.105  1.00  0.00    -0.297 A  
HETATM   29  F   UNL     1      -8.915  12.813  69.096  1.00  0.00     0.177 F  
HETATM   30  C   UNL     1     -12.207  13.683  64.229  1.00  0.00    -0.396 C  
HETATM   31  F   UNL     1      -9.451  14.794  68.379  1.00  0.00    -0.187 F  
HETATM   32  C   UNL     1      -8.838  13.633  68.013  1.00  0.00    -0.187 C  
HETATM   33  F   UNL     1     -13.309  13.795  65.018  1.00  0.00    -0.250 F  
HETATM   34  F   UNL     1     -11.907  14.945  63.818  1.00  0.00    -0.210 F  
HETATM   35  C   UNL     1      -8.871  11.830  66.246  1.00  0.00    -0.142 A  
HETATM   36  C   UNL     1      -9.427  13.010  66.768  1.00  0.00    -0.250 A  
ENDBRANCH   2  23
TORSDOF 5
ENDMDL
MODEL      293
REMARK 921   NORMALIZED FREE ENERGY PREDICTED BY IDOCK:   -2.06 KCAL/MOL
REMARK 922        TOTAL FREE ENERGY PREDICTED BY IDOCK:   -5.53 KCAL/MOL
REMARK 923 INTER-LIGAND FREE ENERGY PREDICTED BY IDOCK:   -4.82 KCAL/MOL
REMARK 924 INTRA-LIGAND FREE ENERGY PREDICTED BY IDOCK:   -0.71 KCAL/MOL
REMARK 927      BINDING AFFINITY PREDICTED BY RF-SCORE:    0.00 PKD
ROOT
HETATM    1  C   UNL     1     -11.765  12.035  65.251  1.00  0.00    -0.312 C  
HETATM    2  C   UNL     1     -11.098  13.096  66.125  1.00  0.00    -0.282 C  
ENDROOT
BRANCH   2   3
HETATM    3  O   UNL     1     -11.783  13.245  67.368  1.00  0.00    -0.333 OA 
BRANCH   3   4
HETATM    4  C   UNL     1     -10.922  13.217  68.517  1.00  0.00    -0.263 C  
BRANCH   4   5
HETATM    5  C   UNL     1     -11.595  12.366  69.652  1.00  0.00    -0.260 C  
HETATM    6  C   UNL     1     -10.616   9.603  69.017  1.00  0.00    -0.218 C  
HETATM    7  C   UNL     1     -11.783  10.229  68.236  1.00  0.00     0.169 C  
HETATM    8  N   UNL     1      -9.824   8.785  68.125  1.00  0.00    -0.162 NA 
HETATM    9  H   UNL     1     -10.915  11.254  71.277  1.00  0.00     0.000 HD 
HETATM   10  C   UNL     1     -12.530  11.285  69.054  1.00  0.00     0.177 C  
HETATM   11  O   UNL     1      -8.652   6.813  68.163  1.00  0.00    -0.120 OA 
HETATM   12  C   UNL     1      -9.747  10.709  69.670  1.00  0.00     0.030 C  
HETATM   13  C   UNL     1     -11.110   8.592  70.069  1.00  0.00    -0.152 C  
HETATM   14  C   UNL     1      -9.448   7.583  68.669  1.00  0.00    -0.146 C  
HETATM   15  C   UNL     1     -10.158   7.397  69.978  1.00  0.00    -0.191 C  
HETATM   16  N   UNL     1     -10.524  11.686  70.440  1.00  0.00     1.656 NA 
BRANCH   5  17
HETATM   17  C   UNL     1     -12.450  13.260  70.590  1.00  0.00    -0.373 A  
HETATM   18  C   UNL     1     -14.000  14.865  72.335  1.00  0.00    -0.582 A  
HETATM   19  C   UNL     1     -13.942  13.487  72.520  1.00  0.00    -0.557 A  
HETATM   20  C   UNL     1     -13.180  12.696  71.654  1.00  0.00    -0.394 A  
HETATM   21  C   UNL     1     -12.560  14.652  70.406  1.00  0.00    -0.399 A  
HETATM   22  C   UNL     1     -13.317  15.445  71.275  1.00  0.00    -0.598 A  
ENDBRANCH   5  17
ENDBRANCH   4   5
ENDBRANCH   3   4
ENDBRANCH   2   3
BRANCH   2  23
HETATM   23  C   UNL     1      -9.660  12.683  66.404  1.00  0.00    -0.248 A  
HETATM   24  F   UNL     1      -7.228  15.271  68.604  1.00  0.00    -0.108 F  
HETATM   25  C   UNL     1      -8.831  13.532  67.153  1.00  0.00    -0.231 A  
HETATM   26  F   UNL     1      -7.343   9.877  64.102  1.00  0.00    -0.114 F  
HETATM   27  C   UNL     1      -7.475  13.230  67.359  1.00  0.00    -0.134 A  
HETATM   28  C   UNL     1      -6.951  12.049  66.809  1.00  0.00     0.049 A  
HETATM   29  F   UNL     1      -7.806   8.789  65.928  1.00  0.00    -0.094 F  
HETATM   30  C   UNL     1      -6.582  14.165  68.139  1.00  0.00    -0.124 C  
HETATM   31  F   UNL     1      -5.867   9.743  65.692  1.00  0.00    -0.053 F  
HETATM   32  C   UNL     1      -7.199   9.912  65.457  1.00  0.00    -0.122 C  
HETATM   33  F   UNL     1      -6.029  13.569  69.230  1.00  0.00    -0.075 F  
HETATM   34  F   UNL     1      -5.542  14.628  67.394  1.00  0.00    -0.063 F  
HETATM   35  C   UNL     1      -9.112  11.507  65.868  1.00  0.00    -0.186 A  
HETATM   36  C   UNL     1      -7.760  11.177  66.063  1.00  0.00    -0.001 A  
ENDBRANCH   2  23
TORSDOF 5
ENDMDL
MODEL      294
REMARK 921   NORMALIZED FREE ENERGY PREDICTED BY IDOCK:   -2.04 KCAL/MOL
REMARK 922        TOTAL FREE ENERGY PREDICTED BY IDOCK:   -5.50 KCAL/MOL
REMARK 923 INTER-LIGAND FREE ENERGY PREDICTED BY IDOCK:   -4.65 KCAL/MOL
REMARK 924 INTRA-LIGAND FREE ENERGY PREDICTED BY IDOCK:   -0.85 KCAL/MOL
REMARK 927      BINDING AFFINITY PREDICTED BY RF-SCORE:    0.00 PKD
ROOT
HETATM    1  C   UNL     1     -10.722   5.424  69.658  1.00  0.00    -0.267 C  
HETATM    2  C   UNL     1      -9.320   5.870  69.248  1.00  0.00    -0.128 C  
ENDROOT
BRANCH   2   3
HETATM    3  O   UNL     1      -9.287   7.268  68.960  1.00  0.00    -0.148 OA 
BRANCH   3   4
HETATM    4  C   UNL     1      -8.198   7.665  68.112  1.00  0.00    -0.124 C  
BRANCH   4   5
HETATM    5  C   UNL     1      -8.762   8.148  66.729  1.00  0.00    -0.135 C  
HETATM    6  C   UNL     1     -10.058  10.751  67.465  1.00  0.00    -0.186 C  
HETATM    7  C   UNL     1     -10.759   9.411  67.742  1.00  0.00    -0.290 C  
HETATM    8  N   UNL     1     -10.362  11.682  68.528  1.00  0.00    -0.207 NA 
HETATM    9  H   UNL     1      -8.379   9.742  65.443  1.00  0.00     0.000 HD 
HETATM   10  C   UNL     1     -10.302   8.308  66.784  1.00  0.00    -0.361 C  
HETATM   11  O   UNL     1     -10.778  13.922  68.806  1.00  0.00    -0.255 OA 
HETATM   12  C   UNL     1      -8.526  10.543  67.335  1.00  0.00    -0.122 C  
HETATM   13  C   UNL     1     -10.631  11.450  66.217  1.00  0.00    -0.312 C  
HETATM   14  C   UNL     1     -10.651  12.949  68.086  1.00  0.00    -0.237 C  
HETATM   15  C   UNL     1     -10.760  12.928  66.589  1.00  0.00    -0.280 C  
HETATM   16  N   UNL     1      -8.157   9.473  66.402  1.00  0.00    -0.111 NA 
BRANCH   5  17
HETATM   17  C   UNL     1      -8.435   7.129  65.604  1.00  0.00    -0.141 A  
HETATM   18  C   UNL     1      -7.799   5.287  63.549  1.00  0.00    -0.087 A  
HETATM   19  C   UNL     1      -7.285   6.580  63.512  1.00  0.00    -0.064 A  
HETATM   20  C   UNL     1      -7.605   7.489  64.527  1.00  0.00    -0.110 A  
HETATM   21  C   UNL     1      -8.971   5.827  65.593  1.00  0.00    -0.122 A  
HETATM   22  C   UNL     1      -8.647   4.914  64.583  1.00  0.00    -0.149 A  
ENDBRANCH   5  17
ENDBRANCH   4   5
ENDBRANCH   3   4
ENDBRANCH   2   3
BRANCH   2  23
HETATM   23  C   UNL     1      -8.350   5.582  70.384  1.00  0.00    -0.111 A  
HETATM   24  F   UNL     1      -7.374   8.676  73.016  1.00  0.00    -0.143 F  
HETATM   25  C   UNL     1      -8.019   6.603  71.287  1.00  0.00    -0.107 A  
HETATM   26  F   UNL     1      -5.420   2.426  70.466  1.00  0.00    -0.010 F  
HETATM   27  C   UNL     1      -7.063   6.403  72.295  1.00  0.00    -0.082 A  
HETATM   28  C   UNL     1      -6.437   5.151  72.399  1.00  0.00    -0.043 A  
HETATM   29  F   UNL     1      -6.949   1.748  71.857  1.00  0.00    -0.023 F  
HETATM   30  C   UNL     1      -6.690   7.519  73.243  1.00  0.00    -0.067 C  
HETATM   31  F   UNL     1      -5.142   2.697  72.604  1.00  0.00     0.000 F  
HETATM   32  C   UNL     1      -6.075   2.762  71.613  1.00  0.00    -0.014 C  
HETATM   33  F   UNL     1      -6.922   7.197  74.544  1.00  0.00    -0.094 F  
HETATM   34  F   UNL     1      -5.372   7.845  73.164  1.00  0.00    -0.040 F  
HETATM   35  C   UNL     1      -7.712   4.337  70.512  1.00  0.00    -0.052 A  
HETATM   36  C   UNL     1      -6.755   4.108  71.514  1.00  0.00    -0.030 A  
ENDBRANCH   2  23
TORSDOF 5
ENDMDL
MODEL      295
REMARK 921   NORMALIZED FREE ENERGY PREDICTED BY IDOCK:   -2.01 KCAL/MOL
REMARK 922        TOTAL FREE ENERGY PREDICTED BY IDOCK:   -5.45 KCAL/MOL
REMARK 923 INTER-LIGAND FREE ENERGY PREDICTED BY IDOCK:   -5.85 KCAL/MOL
REMARK 924 INTRA-LIGAND FREE ENERGY PREDICTED BY IDOCK:    0.40 KCAL/MOL
REMARK 927      BINDING AFFINITY PREDICTED BY RF-SCORE:    0.00 PKD
ROOT
HETATM    1  C   UNL     1     -12.092   6.506  70.453  1.00  0.00    -0.172 C  
HETATM    2  C   UNL     1     -10.690   6.830  69.940  1.00  0.00    -0.250 C  
ENDROOT
BRANCH   2   3
HETATM    3  O   UNL     1     -10.517   8.236  69.763  1.00  0.00    -0.214 OA 
BRANCH   3   4
HETATM    4  C   UNL     1      -9.376   8.590  68.966  1.00  0.00    -0.146 C  
BRANCH   4   5
HETATM    5  C   UNL     1      -9.665   9.934  68.209  1.00  0.00    -0.144 C  
HETATM    6  C   UNL     1      -8.009   9.616  65.729  1.00  0.00    -0.109 C  
HETATM    7  C   UNL     1      -7.367  10.032  67.062  1.00  0.00    -0.091 C  
HETATM    8  N   UNL     1      -7.094   8.770  64.997  1.00  0.00    -0.079 NA 
HETATM    9  H   UNL     1     -10.602  10.465  66.426  1.00  0.00     0.000 HD 
HETATM   10  C   UNL     1      -8.359  10.738  67.990  1.00  0.00    -0.120 C  
HETATM   11  O   UNL     1      -6.445   8.383  62.829  1.00  0.00    -0.087 OA 
HETATM   12  C   UNL     1      -9.355   8.886  65.982  1.00  0.00    -0.242 C  
HETATM   13  C   UNL     1      -8.200  10.820  64.785  1.00  0.00     0.047 C  
HETATM   14  C   UNL     1      -7.023   9.064  63.658  1.00  0.00    -0.089 C  
HETATM   15  C   UNL     1      -7.784  10.331  63.397  1.00  0.00    -0.126 C  
HETATM   16  N   UNL     1     -10.258   9.617  66.877  1.00  0.00    -0.230 NA 
BRANCH   5  17
HETATM   17  C   UNL     1     -10.639  10.834  69.018  1.00  0.00    -0.250 A  
HETATM   18  C   UNL     1     -12.402  12.456  70.529  1.00  0.00    -0.346 A  
HETATM   19  C   UNL     1     -12.112  11.161  70.948  1.00  0.00    -0.427 A  
HETATM   20  C   UNL     1     -11.245  10.359  70.197  1.00  0.00    -0.393 A  
HETATM   21  C   UNL     1     -10.982  12.134  68.600  1.00  0.00    -0.284 A  
HETATM   22  C   UNL     1     -11.844  12.939  69.353  1.00  0.00    -0.371 A  
ENDBRANCH   5  17
ENDBRANCH   4   5
ENDBRANCH   3   4
ENDBRANCH   2   3
BRANCH   2  23
HETATM   23  C   UNL     1      -9.661   6.333  70.945  1.00  0.00    -0.197 A  
HETATM   24  F   UNL     1      -9.287   2.218  71.557  1.00  0.00    -0.135 F  
HETATM   25  C   UNL     1      -9.510   4.954  71.155  1.00  0.00    -0.216 A  
HETATM   26  F   UNL     1      -8.044   8.595  74.234  1.00  0.00    -0.288 F  
HETATM   27  C   UNL     1      -8.636   4.458  72.135  1.00  0.00    -0.119 A  
HETATM   28  C   UNL     1      -7.895   5.367  72.907  1.00  0.00    -0.098 A  
HETATM   29  F   UNL     1      -6.404   8.513  72.806  1.00  0.00    -0.079 F  
HETATM   30  C   UNL     1      -8.503   2.973  72.376  1.00  0.00    -0.075 C  
HETATM   31  F   UNL     1      -6.450   7.140  74.491  1.00  0.00    -0.081 F  
HETATM   32  C   UNL     1      -7.236   7.736  73.550  1.00  0.00    -0.108 C  
HETATM   33  F   UNL     1      -7.231   2.526  72.193  1.00  0.00    -0.034 F  
HETATM   34  F   UNL     1      -8.847   2.623  73.645  1.00  0.00    -0.072 F  
HETATM   35  C   UNL     1      -8.907   7.221  71.729  1.00  0.00    -0.124 A  
HETATM   36  C   UNL     1      -8.020   6.752  72.713  1.00  0.00    -0.099 A  
ENDBRANCH   2  23
TORSDOF 5
ENDMDL
MODEL      296
REMARK 921   NORMALIZED FREE ENERGY PREDICTED BY IDOCK:   -1.86 KCAL/MOL
REMARK 922        TOTAL FREE ENERGY PREDICTED BY IDOCK:   -5.27 KCAL/MOL
REMARK 923 INTER-LIGAND FREE ENERGY PREDICTED BY IDOCK:   -5.40 KCAL/MOL
REMARK 924 INTRA-LIGAND FREE ENERGY PREDICTED BY IDOCK:    0.14 KCAL/MOL
REMARK 927      BINDING AFFINITY PREDICTED BY RF-SCORE:    0.00 PKD
ROOT
HETATM    1  C   UNL     1      -5.880  10.274  70.666  1.00  0.00    -0.102 C  
HETATM    2  C   UNL     1      -7.335  10.128  70.226  1.00  0.00    -0.095 C  
ENDROOT
BRANCH   2   3
HETATM    3  O   UNL     1      -7.432   9.936  68.815  1.00  0.00    -0.076 OA 
BRANCH   3   4
HETATM    4  C   UNL     1      -7.189   8.587  68.389  1.00  0.00    -0.085 C  
BRANCH   4   5
HETATM    5  C   UNL     1      -7.808   8.370  66.963  1.00  0.00    -0.096 C  
HETATM    6  C   UNL     1      -9.347  10.913  66.563  1.00  0.00    -0.173 C  
HETATM    7  C   UNL     1      -9.911   9.773  67.426  1.00  0.00    -0.239 C  
HETATM    8  N   UNL     1      -9.733  12.184  67.132  1.00  0.00    -0.197 NA 
HETATM    9  H   UNL     1      -7.593   9.270  65.097  1.00  0.00     0.000 HD 
HETATM   10  C   UNL     1      -9.356   8.406  67.020  1.00  0.00    -0.202 C  
HETATM   11  O   UNL     1     -10.364  14.277  66.433  1.00  0.00    -0.275 OA 
HETATM   12  C   UNL     1      -7.803  10.800  66.460  1.00  0.00    -0.145 C  
HETATM   13  C   UNL     1      -9.995  10.946  65.165  1.00  0.00    -0.341 C  
HETATM   14  C   UNL     1     -10.148  13.102  66.200  1.00  0.00    -0.291 C  
HETATM   15  C   UNL     1     -10.265  12.422  64.867  1.00  0.00    -0.301 C  
HETATM   16  N   UNL     1      -7.338   9.466  66.065  1.00  0.00    -0.091 NA 
BRANCH   5  17
HETATM   17  C   UNL     1      -7.392   6.994  66.376  1.00  0.00    -0.080 A  
HETATM   18  C   UNL     1      -6.667   4.466  65.322  1.00  0.00    -0.049 A  
HETATM   19  C   UNL     1      -7.270   4.555  66.573  1.00  0.00    -0.080 A  
HETATM   20  C   UNL     1      -7.622   5.805  67.094  1.00  0.00    -0.099 A  
HETATM   21  C   UNL     1      -6.746   6.874  65.130  1.00  0.00    -0.050 A  
HETATM   22  C   UNL     1      -6.398   5.624  64.606  1.00  0.00    -0.036 A  
ENDBRANCH   5  17
ENDBRANCH   4   5
ENDBRANCH   3   4
ENDBRANCH   2   3
BRANCH   2  23
HETATM   23  C   UNL     1      -7.952   8.926  70.926  1.00  0.00    -0.173 A  
HETATM   24  F   UNL     1      -5.519   6.573  73.376  1.00  0.00    -0.038 F  
HETATM   25  C   UNL     1      -7.155   8.131  71.764  1.00  0.00    -0.080 A  
HETATM   26  F   UNL     1     -11.487   6.810  69.674  1.00  0.00    -0.324 F  
HETATM   27  C   UNL     1      -7.662   6.964  72.359  1.00  0.00    -0.095 A  
HETATM   28  C   UNL     1      -8.996   6.600  72.112  1.00  0.00    -0.138 A  
HETATM   29  F   UNL     1     -12.143   7.922  71.424  1.00  0.00    -0.284 F  
HETATM   30  C   UNL     1      -6.788   6.097  73.234  1.00  0.00    -0.075 C  
HETATM   31  F   UNL     1     -11.618   5.821  71.605  1.00  0.00    -0.318 F  
HETATM   32  C   UNL     1     -11.249   6.987  71.004  1.00  0.00    -0.274 C  
HETATM   33  F   UNL     1      -7.281   5.965  74.495  1.00  0.00    -0.085 F  
HETATM   34  F   UNL     1      -6.659   4.834  72.745  1.00  0.00    -0.042 F  
HETATM   35  C   UNL     1      -9.283   8.541  70.698  1.00  0.00    -0.189 A  
HETATM   36  C   UNL     1      -9.818   7.381  71.284  1.00  0.00    -0.182 A  
ENDBRANCH   2  23
TORSDOF 5
ENDMDL
MODEL      297
REMARK 921   NORMALIZED FREE ENERGY PREDICTED BY IDOCK:   -1.81 KCAL/MOL
REMARK 922        TOTAL FREE ENERGY PREDICTED BY IDOCK:   -5.20 KCAL/MOL
REMARK 923 INTER-LIGAND FREE ENERGY PREDICTED BY IDOCK:   -4.18 KCAL/MOL
REMARK 924 INTRA-LIGAND FREE ENERGY PREDICTED BY IDOCK:   -1.02 KCAL/MOL
REMARK 927      BINDING AFFINITY PREDICTED BY RF-SCORE:    0.00 PKD
ROOT
HETATM    1  C   UNL     1     -11.256   5.911  70.420  1.00  0.00    -0.307 C  
HETATM    2  C   UNL     1      -9.821   5.914  69.895  1.00  0.00    -0.174 C  
ENDROOT
BRANCH   2   3
HETATM    3  O   UNL     1      -9.463   7.195  69.378  1.00  0.00    -0.154 OA 
BRANCH   3   4
HETATM    4  C   UNL     1      -8.335   7.174  68.491  1.00  0.00    -0.125 C  
BRANCH   4   5
HETATM    5  C   UNL     1      -8.672   7.997  67.198  1.00  0.00    -0.131 C  
HETATM    6  C   UNL     1      -7.692   6.172  65.029  1.00  0.00    -0.099 C  
HETATM    7  C   UNL     1      -6.715   7.052  65.826  1.00  0.00    -0.052 C  
HETATM    8  N   UNL     1      -7.058   4.910  64.717  1.00  0.00    -0.060 NA 
HETATM    9  H   UNL     1      -9.955   7.755  65.574  1.00  0.00     0.000 HD 
HETATM   10  C   UNL     1      -7.388   8.306  66.387  1.00  0.00    -0.080 C  
HETATM   11  O   UNL     1      -6.983   3.384  63.005  1.00  0.00    -0.037 OA 
HETATM   12  C   UNL     1      -8.998   5.949  65.835  1.00  0.00    -0.140 C  
HETATM   13  C   UNL     1      -7.992   6.763  63.638  1.00  0.00    -0.067 C  
HETATM   14  C   UNL     1      -7.282   4.484  63.432  1.00  0.00    -0.049 C  
HETATM   15  C   UNL     1      -7.965   5.581  62.668  1.00  0.00    -0.095 C  
HETATM   16  N   UNL     1      -9.592   7.190  66.343  1.00  0.00    -0.141 NA 
BRANCH   5  17
HETATM   17  C   UNL     1      -9.340   9.353  67.555  1.00  0.00    -0.147 A  
HETATM   18  C   UNL     1     -10.519  11.846  68.200  1.00  0.00    -0.225 A  
HETATM   19  C   UNL     1      -9.194  11.592  68.538  1.00  0.00    -0.167 A  
HETATM   20  C   UNL     1      -8.615  10.357  68.223  1.00  0.00    -0.128 A  
HETATM   21  C   UNL     1     -10.689   9.625  67.261  1.00  0.00    -0.284 A  
HETATM   22  C   UNL     1     -11.268  10.861  67.569  1.00  0.00    -0.364 A  
ENDBRANCH   5  17
ENDBRANCH   4   5
ENDBRANCH   3   4
ENDBRANCH   2   3
BRANCH   2  23
HETATM   23  C   UNL     1      -8.872   5.562  71.031  1.00  0.00    -0.148 A  
HETATM   24  F   UNL     1      -8.777   1.620  72.412  1.00  0.00    -0.057 F  
HETATM   25  C   UNL     1      -8.815   4.241  71.500  1.00  0.00    -0.147 A  
HETATM   26  F   UNL     1      -7.272   8.314  73.932  1.00  0.00    -0.146 F  
HETATM   27  C   UNL     1      -8.017   3.893  72.602  1.00  0.00    -0.082 A  
HETATM   28  C   UNL     1      -7.259   4.892  73.234  1.00  0.00    -0.085 A  
HETATM   29  F   UNL     1      -5.577   7.883  72.639  1.00  0.00    -0.036 F  
HETATM   30  C   UNL     1      -7.986   2.475  73.121  1.00  0.00    -0.051 C  
HETATM   31  F   UNL     1      -5.783   6.854  74.542  1.00  0.00    -0.059 F  
HETATM   32  C   UNL     1      -6.488   7.302  73.465  1.00  0.00    -0.065 C  
HETATM   33  F   UNL     1      -6.737   1.937  73.095  1.00  0.00    -0.015 F  
HETATM   34  F   UNL     1      -8.409   2.387  74.411  1.00  0.00    -0.061 F  
HETATM   35  C   UNL     1      -8.101   6.541  71.679  1.00  0.00    -0.108 A  
HETATM   36  C   UNL     1      -7.291   6.220  72.781  1.00  0.00    -0.092 A  
ENDBRANCH   2  23
TORSDOF 5
ENDMDL
MODEL      298
REMARK 921   NORMALIZED FREE ENERGY PREDICTED BY IDOCK:   -1.78 KCAL/MOL
REMARK 922        TOTAL FREE ENERGY PREDICTED BY IDOCK:   -5.16 KCAL/MOL
REMARK 923 INTER-LIGAND FREE ENERGY PREDICTED BY IDOCK:   -5.05 KCAL/MOL
REMARK 924 INTRA-LIGAND FREE ENERGY PREDICTED BY IDOCK:   -0.12 KCAL/MOL
REMARK 927      BINDING AFFINITY PREDICTED BY RF-SCORE:    0.00 PKD
ROOT
HETATM    1  C   UNL     1     -12.034   7.195  71.431  1.00  0.00    -0.364 C  
HETATM    2  C   UNL     1     -10.521   7.302  71.617  1.00  0.00    -0.198 C  
ENDROOT
BRANCH   2   3
HETATM    3  O   UNL     1      -9.880   6.055  71.351  1.00  0.00    -0.170 OA 
BRANCH   3   4
HETATM    4  C   UNL     1      -9.666   5.792  69.956  1.00  0.00    -0.169 C  
BRANCH   4   5
HETATM    5  C   UNL     1      -8.891   4.437  69.793  1.00  0.00    -0.084 C  
HETATM    6  C   UNL     1      -7.827   4.665  66.998  1.00  0.00    -0.098 C  
HETATM    7  C   UNL     1      -9.289   4.266  67.260  1.00  0.00    -0.186 C  
HETATM    8  N   UNL     1      -7.756   5.476  65.803  1.00  0.00    -0.086 NA 
HETATM    9  H   UNL     1      -6.898   3.886  69.538  1.00  0.00     0.000 HD 
HETATM   10  C   UNL     1      -9.474   3.602  68.626  1.00  0.00    -0.208 C  
HETATM   11  O   UNL     1      -6.364   5.800  64.007  1.00  0.00    -0.028 OA 
HETATM   12  C   UNL     1      -7.249   5.428  68.218  1.00  0.00    -0.071 C  
HETATM   13  C   UNL     1      -6.956   3.445  66.643  1.00  0.00    -0.054 C  
HETATM   14  C   UNL     1      -6.709   5.151  64.978  1.00  0.00    -0.048 C  
HETATM   15  C   UNL     1      -6.063   3.894  65.484  1.00  0.00    -0.024 C  
HETATM   16  N   UNL     1      -7.459   4.737  69.495  1.00  0.00    -0.055 NA 
BRANCH   5  17
HETATM   17  C   UNL     1      -8.990   3.576  71.082  1.00  0.00    -0.158 A  
HETATM   18  C   UNL     1      -9.165   1.971  73.409  1.00  0.00    -0.082 A  
HETATM   19  C   UNL     1      -9.676   1.507  72.200  1.00  0.00    -0.178 A  
HETATM   20  C   UNL     1      -9.593   2.305  71.053  1.00  0.00    -0.201 A  
HETATM   21  C   UNL     1      -8.518   4.033  72.327  1.00  0.00    -0.105 A  
HETATM   22  C   UNL     1      -8.594   3.234  73.474  1.00  0.00    -0.074 A  
ENDBRANCH   5  17
ENDBRANCH   4   5
ENDBRANCH   3   4
ENDBRANCH   2   3
BRANCH   2  23
HETATM   23  C   UNL     1      -9.971   8.349  70.661  1.00  0.00    -0.212 A  
HETATM   24  F   UNL     1      -5.900   8.264  69.728  1.00  0.00    -0.026 F  
HETATM   25  C   UNL     1      -8.609   8.330  70.324  1.00  0.00    -0.127 A  
HETATM   26  F   UNL     1     -11.718  12.201  69.853  1.00  0.00    -0.344 F  
HETATM   27  C   UNL     1      -8.044   9.328  69.515  1.00  0.00    -0.111 A  
HETATM   28  C   UNL     1      -8.868  10.357  69.031  1.00  0.00    -0.176 A  
HETATM   29  F   UNL     1     -12.137  11.055  68.051  1.00  0.00    -0.300 F  
HETATM   30  C   UNL     1      -6.571   9.317  69.184  1.00  0.00    -0.049 C  
HETATM   31  F   UNL     1     -10.460  12.438  68.097  1.00  0.00    -0.194 F  
HETATM   32  C   UNL     1     -11.125  11.509  68.840  1.00  0.00    -0.232 C  
HETATM   33  F   UNL     1      -6.338   9.257  67.845  1.00  0.00    -0.055 F  
HETATM   34  F   UNL     1      -5.932  10.434  69.628  1.00  0.00    -0.040 F  
HETATM   35  C   UNL     1     -10.774   9.388  70.162  1.00  0.00    -0.282 A  
HETATM   36  C   UNL     1     -10.236  10.397  69.346  1.00  0.00    -0.257 A  
ENDBRANCH   2  23
TORSDOF 5
ENDMDL
MODEL      299
REMARK 921   NORMALIZED FREE ENERGY PREDICTED BY IDOCK:   -1.78 KCAL/MOL
REMARK 922        TOTAL FREE ENERGY PREDICTED BY IDOCK:   -5.16 KCAL/MOL
REMARK 923 INTER-LIGAND FREE ENERGY PREDICTED BY IDOCK:   -4.74 KCAL/MOL
REMARK 924 INTRA-LIGAND FREE ENERGY PREDICTED BY IDOCK:   -0.42 KCAL/MOL
REMARK 927      BINDING AFFINITY PREDICTED BY RF-SCORE:    0.00 PKD
ROOT
HETATM    1  C   UNL     1     -11.594  11.221  64.190  1.00  0.00     0.079 C  
HETATM    2  C   UNL     1     -10.902  11.952  65.339  1.00  0.00    -0.294 C  
ENDROOT
BRANCH   2   3
HETATM    3  O   UNL     1     -11.560  11.702  66.581  1.00  0.00    -0.493 OA 
BRANCH   3   4
HETATM    4  C   UNL     1     -10.755  11.001  67.541  1.00  0.00    -0.244 C  
BRANCH   4   5
HETATM    5  C   UNL     1     -11.129  11.482  68.987  1.00  0.00    -0.245 C  
HETATM    6  C   UNL     1     -11.453   8.879  70.441  1.00  0.00    -0.157 C  
HETATM    7  C   UNL     1     -12.567   9.423  69.533  1.00  0.00     1.699 C  
HETATM    8  N   UNL     1     -11.413   7.436  70.343  1.00  0.00    -0.260 NA 
HETATM    9  H   UNL     1     -10.234  11.380  70.865  1.00  0.00     0.000 HD 
HETATM   10  C   UNL     1     -12.521  10.947  69.406  1.00  0.00    -0.037 C  
HETATM   11  O   UNL     1     -11.037   5.617  71.690  1.00  0.00    -0.251 OA 
HETATM   12  C   UNL     1     -10.085   9.496  70.047  1.00  0.00    -0.242 C  
HETATM   13  C   UNL     1     -11.761   9.118  71.931  1.00  0.00    -0.436 C  
HETATM   14  C   UNL     1     -11.255   6.807  71.552  1.00  0.00    -0.260 C  
HETATM   15  C   UNL     1     -11.374   7.824  72.650  1.00  0.00    -0.449 C  
HETATM   16  N   UNL     1     -10.110  10.959  69.945  1.00  0.00     0.191 NA 
BRANCH   5  17
HETATM   17  C   UNL     1     -11.178  13.032  69.067  1.00  0.00    -0.316 A  
HETATM   18  C   UNL     1     -11.287  15.856  69.251  1.00  0.00    -0.355 A  
HETATM   19  C   UNL     1     -12.328  15.083  69.756  1.00  0.00    -0.278 A  
HETATM   20  C   UNL     1     -12.274  13.688  69.659  1.00  0.00    -0.326 A  
HETATM   21  C   UNL     1     -10.160  13.844  68.531  1.00  0.00    -0.234 A  
HETATM   22  C   UNL     1     -10.209  15.238  68.632  1.00  0.00    -0.223 A  
ENDBRANCH   5  17
ENDBRANCH   4   5
ENDBRANCH   3   4
ENDBRANCH   2   3
BRANCH   2  23
HETATM   23  C   UNL     1      -9.463  11.470  65.444  1.00  0.00    -0.220 A  
HETATM   24  F   UNL     1      -8.190   8.403  62.909  1.00  0.00    -0.157 F  
HETATM   25  C   UNL     1      -9.011  10.450  64.592  1.00  0.00    -0.235 A  
HETATM   26  F   UNL     1      -6.910  11.862  68.890  1.00  0.00    -0.076 F  
HETATM   27  C   UNL     1      -7.718   9.918  64.715  1.00  0.00    -0.138 A  
HETATM   28  C   UNL     1      -6.864  10.429  65.705  1.00  0.00    -0.132 A  
HETATM   29  F   UNL     1      -6.115  13.325  67.489  1.00  0.00    -0.139 F  
HETATM   30  C   UNL     1      -7.252   8.798  63.814  1.00  0.00    -0.096 C  
HETATM   31  F   UNL     1      -5.163  11.381  67.689  1.00  0.00    -0.039 F  
HETATM   32  C   UNL     1      -6.377  11.998  67.643  1.00  0.00    -0.099 C  
HETATM   33  F   UNL     1      -6.151   9.136  63.089  1.00  0.00    -0.087 F  
HETATM   34  F   UNL     1      -6.915   7.680  64.512  1.00  0.00    -0.051 F  
HETATM   35  C   UNL     1      -8.587  11.965  66.425  1.00  0.00    -0.077 A  
HETATM   36  C   UNL     1      -7.286  11.454  66.566  1.00  0.00    -0.063 A  
ENDBRANCH   2  23
TORSDOF 5
ENDMDL
MODEL      300
REMARK 921   NORMALIZED FREE ENERGY PREDICTED BY IDOCK:   -1.70 KCAL/MOL
REMARK 922        TOTAL FREE ENERGY PREDICTED BY IDOCK:   -5.06 KCAL/MOL
REMARK 923 INTER-LIGAND FREE ENERGY PREDICTED BY IDOCK:   -4.72 KCAL/MOL
REMARK 924 INTRA-LIGAND FREE ENERGY PREDICTED BY IDOCK:   -0.35 KCAL/MOL
REMARK 927      BINDING AFFINITY PREDICTED BY RF-SCORE:    0.00 PKD
ROOT
HETATM    1  C   UNL     1     -10.580   5.479  69.638  1.00  0.00    -0.375 C  
HETATM    2  C   UNL     1      -9.145   5.853  69.270  1.00  0.00    -0.123 C  
ENDROOT
BRANCH   2   3
HETATM    3  O   UNL     1      -9.067   7.199  68.802  1.00  0.00    -0.135 OA 
BRANCH   3   4
HETATM    4  C   UNL     1      -7.868   7.496  68.071  1.00  0.00    -0.121 C  
BRANCH   4   5
HETATM    5  C   UNL     1      -8.245   8.114  66.678  1.00  0.00    -0.103 C  
HETATM    6  C   UNL     1     -10.267  10.190  67.449  1.00  0.00    -0.218 C  
HETATM    7  C   UNL     1     -10.654   8.706  67.351  1.00  0.00    -0.298 C  
HETATM    8  N   UNL     1     -11.000  10.809  68.531  1.00  0.00    -0.223 NA 
HETATM    9  H   UNL     1      -8.019   9.974  65.768  1.00  0.00     0.000 HD 
HETATM   10  C   UNL     1      -9.754   7.934  66.382  1.00  0.00    -0.235 C  
HETATM   11  O   UNL     1     -12.006  12.812  69.023  1.00  0.00    -0.292 OA 
HETATM   12  C   UNL     1      -8.737  10.337  67.664  1.00  0.00    -0.121 C  
HETATM   13  C   UNL     1     -10.732  10.986  66.214  1.00  0.00    -0.273 C  
HETATM   14  C   UNL     1     -11.499  12.048  68.221  1.00  0.00    -0.303 C  
HETATM   15  C   UNL     1     -11.297  12.302  66.755  1.00  0.00    -0.395 C  
HETATM   16  N   UNL     1      -7.935   9.574  66.702  1.00  0.00    -0.108 NA 
BRANCH   5  17
HETATM   17  C   UNL     1      -7.456   7.428  65.529  1.00  0.00    -0.088 A  
HETATM   18  C   UNL     1      -6.018   6.140  63.457  1.00  0.00    -0.022 A  
HETATM   19  C   UNL     1      -5.791   5.793  64.785  1.00  0.00    -0.024 A  
HETATM   20  C   UNL     1      -6.499   6.434  65.807  1.00  0.00    -0.043 A  
HETATM   21  C   UNL     1      -7.635   7.784  64.179  1.00  0.00    -0.113 A  
HETATM   22  C   UNL     1      -6.933   7.140  63.155  1.00  0.00    -0.058 A  
ENDBRANCH   5  17
ENDBRANCH   4   5
ENDBRANCH   3   4
ENDBRANCH   2   3
BRANCH   2  23
HETATM   23  C   UNL     1      -8.259   5.709  70.498  1.00  0.00    -0.116 A  
HETATM   24  F   UNL     1      -7.091   1.878  71.685  1.00  0.00    -0.028 F  
HETATM   25  C   UNL     1      -7.845   4.433  70.906  1.00  0.00    -0.067 A  
HETATM   26  F   UNL     1      -7.910   8.557  73.710  1.00  0.00    -0.230 F  
HETATM   27  C   UNL     1      -7.100   4.249  72.081  1.00  0.00    -0.059 A  
HETATM   28  C   UNL     1      -6.760   5.372  72.853  1.00  0.00    -0.072 A  
HETATM   29  F   UNL     1      -6.038   8.772  72.623  1.00  0.00    -0.072 F  
HETATM   30  C   UNL     1      -6.684   2.867  72.529  1.00  0.00    -0.022 C  
HETATM   31  F   UNL     1      -6.113   7.569  74.432  1.00  0.00    -0.077 F  
HETATM   32  C   UNL     1      -6.805   7.873  73.298  1.00  0.00    -0.095 C  
HETATM   33  F   UNL     1      -5.334   2.737  72.635  1.00  0.00     0.000 F  
HETATM   34  F   UNL     1      -7.192   2.545  73.750  1.00  0.00    -0.031 F  
HETATM   35  C   UNL     1      -7.904   6.816  71.286  1.00  0.00    -0.101 A  
HETATM   36  C   UNL     1      -7.155   6.662  72.465  1.00  0.00    -0.073 A  
ENDBRANCH   2  23
TORSDOF 5
ENDMDL
MODEL      301
REMARK 921   NORMALIZED FREE ENERGY PREDICTED BY IDOCK:   -1.70 KCAL/MOL
REMARK 922        TOTAL FREE ENERGY PREDICTED BY IDOCK:   -5.06 KCAL/MOL
REMARK 923 INTER-LIGAND FREE ENERGY PREDICTED BY IDOCK:   -6.56 KCAL/MOL
REMARK 924 INTRA-LIGAND FREE ENERGY PREDICTED BY IDOCK:    1.51 KCAL/MOL
REMARK 927      BINDING AFFINITY PREDICTED BY RF-SCORE:    0.00 PKD
ROOT
HETATM    1  C   UNL     1     -12.561  13.696  66.060  1.00  0.00    -0.441 C  
HETATM    2  C   UNL     1     -11.376  13.533  67.010  1.00  0.00    -0.324 C  
ENDROOT
BRANCH   2   3
HETATM    3  O   UNL     1     -10.140  13.529  66.298  1.00  0.00    -0.283 OA 
BRANCH   3   4
HETATM    4  C   UNL     1      -9.239  14.579  66.681  1.00  0.00    -0.266 C  
BRANCH   4   5
HETATM    5  C   UNL     1      -8.114  13.991  67.605  1.00  0.00    -0.174 C  
HETATM    6  C   UNL     1      -6.941  16.475  68.809  1.00  0.00    -0.180 C  
HETATM    7  C   UNL     1      -6.567  16.032  67.385  1.00  0.00    -0.224 C  
HETATM    8  N   UNL     1      -6.988  17.919  68.867  1.00  0.00    -0.257 NA 
HETATM    9  H   UNL     1      -7.763  13.920  69.657  1.00  0.00     0.000 HD 
HETATM   10  C   UNL     1      -6.721  14.522  67.187  1.00  0.00     0.430 C  
HETATM   11  O   UNL     1      -6.470  19.614  70.324  1.00  0.00    -0.243 OA 
HETATM   12  C   UNL     1      -8.303  15.861  69.226  1.00  0.00    -0.238 C  
HETATM   13  C   UNL     1      -5.838  16.122  69.826  1.00  0.00    -0.174 C  
HETATM   14  C   UNL     1      -6.404  18.444  69.992  1.00  0.00     0.016 C  
HETATM   15  C   UNL     1      -5.704  17.344  70.736  1.00  0.00     0.151 C  
HETATM   16  N   UNL     1      -8.382  14.412  69.012  1.00  0.00    -0.075 NA 
BRANCH   5  17
HETATM   17  C   UNL     1      -8.072  12.441  67.519  1.00  0.00    -0.173 A  
HETATM   18  C   UNL     1      -8.032   9.612  67.385  1.00  0.00    -0.106 A  
HETATM   19  C   UNL     1      -8.489  10.251  68.534  1.00  0.00    -0.121 A  
HETATM   20  C   UNL     1      -8.503  11.649  68.599  1.00  0.00    -0.094 A  
HETATM   21  C   UNL     1      -7.581  11.766  66.385  1.00  0.00     0.156 A  
HETATM   22  C   UNL     1      -7.571  10.368  66.316  1.00  0.00    -0.127 A  
ENDBRANCH   5  17
ENDBRANCH   4   5
ENDBRANCH   3   4
ENDBRANCH   2   3
BRANCH   2  23
HETATM   23  C   UNL     1     -11.366  14.687  68.001  1.00  0.00    -0.329 A  
HETATM   24  F   UNL     1     -12.836  14.029  71.856  1.00  0.00    -0.370 F  
HETATM   25  C   UNL     1     -11.843  14.484  69.305  1.00  0.00    -0.361 A  
HETATM   26  F   UNL     1     -11.315  18.876  67.001  1.00  0.00    -0.305 F  
HETATM   27  C   UNL     1     -11.931  15.543  70.222  1.00  0.00    -0.401 A  
HETATM   28  C   UNL     1     -11.525  16.825  69.820  1.00  0.00     0.414 A  
HETATM   29  F   UNL     1      -9.299  18.492  67.723  1.00  0.00    -0.277 F  
HETATM   30  C   UNL     1     -12.475  15.321  71.614  1.00  0.00    -0.363 C  
HETATM   31  F   UNL     1     -10.775  19.389  69.043  1.00  0.00    -0.143 F  
HETATM   32  C   UNL     1     -10.610  18.437  68.082  1.00  0.00    -0.269 C  
HETATM   33  F   UNL     1     -11.578  15.647  72.583  1.00  0.00    -0.483 F  
HETATM   34  F   UNL     1     -13.586  16.068  71.860  1.00  0.00    -0.488 F  
HETATM   35  C   UNL     1     -10.963  15.979  67.625  1.00  0.00    -0.284 A  
HETATM   36  C   UNL     1     -11.036  17.057  68.525  1.00  0.00    -0.156 A  
ENDBRANCH   2  23
TORSDOF 5
ENDMDL
MODEL      302
REMARK 921   NORMALIZED FREE ENERGY PREDICTED BY IDOCK:   -1.47 KCAL/MOL
REMARK 922        TOTAL FREE ENERGY PREDICTED BY IDOCK:   -4.76 KCAL/MOL
REMARK 923 INTER-LIGAND FREE ENERGY PREDICTED BY IDOCK:   -4.73 KCAL/MOL
REMARK 924 INTRA-LIGAND FREE ENERGY PREDICTED BY IDOCK:   -0.03 KCAL/MOL
REMARK 927      BINDING AFFINITY PREDICTED BY RF-SCORE:    0.00 PKD
ROOT
HETATM    1  C   UNL     1     -10.089   7.410  66.011  1.00  0.00     0.495 C  
HETATM    2  C   UNL     1      -9.608   8.009  67.332  1.00  0.00    -0.153 C  
ENDROOT
BRANCH   2   3
HETATM    3  O   UNL     1     -10.266   9.245  67.608  1.00  0.00    -0.200 OA 
BRANCH   3   4
HETATM    4  C   UNL     1      -9.926  10.305  66.702  1.00  0.00    -0.216 C  
BRANCH   4   5
HETATM    5  C   UNL     1      -9.254  11.478  67.498  1.00  0.00    -0.166 C  
HETATM    6  C   UNL     1      -7.452   9.995  69.382  1.00  0.00    -0.113 C  
HETATM    7  C   UNL     1      -8.958  10.125  69.663  1.00  0.00    -0.190 C  
HETATM    8  N   UNL     1      -6.988   8.701  69.831  1.00  0.00    -0.042 NA 
HETATM    9  H   UNL     1      -7.322  12.235  67.681  1.00  0.00     0.000 HD 
HETATM   10  C   UNL     1      -9.565  11.370  69.012  1.00  0.00    -0.004 C  
HETATM   11  O   UNL     1      -5.136   7.768  70.814  1.00  0.00    -0.023 OA 
HETATM   12  C   UNL     1      -7.166  10.189  67.869  1.00  0.00    -0.086 C  
HETATM   13  C   UNL     1      -6.623  10.976  70.233  1.00  0.00    -0.015 C  
HETATM   14  C   UNL     1      -5.787   8.746  70.493  1.00  0.00    -0.028 C  
HETATM   15  C   UNL     1      -5.413  10.181  70.726  1.00  0.00    -0.073 C  
HETATM   16  N   UNL     1      -7.775  11.400  67.309  1.00  0.00    -0.137 NA 
BRANCH   5  17
HETATM   17  C   UNL     1      -9.775  12.857  67.009  1.00  0.00    -0.230 A  
HETATM   18  C   UNL     1     -10.753  15.373  66.151  1.00  0.00    -0.316 A  
HETATM   19  C   UNL     1     -11.621  14.438  66.706  1.00  0.00    -0.399 A  
HETATM   20  C   UNL     1     -11.137  13.194  67.125  1.00  0.00    -0.305 A  
HETATM   21  C   UNL     1      -8.929  13.808  66.408  1.00  0.00    -0.005 A  
HETATM   22  C   UNL     1      -9.411  15.055  65.994  1.00  0.00    -0.304 A  
ENDBRANCH   5  17
ENDBRANCH   4   5
ENDBRANCH   3   4
ENDBRANCH   2   3
BRANCH   2  23
HETATM   23  C   UNL     1      -9.904   7.033  68.461  1.00  0.00    -0.147 A  
HETATM   24  F   UNL     1      -8.689   3.058  68.041  1.00  0.00    -0.096 F  
HETATM   25  C   UNL     1      -9.492   5.697  68.346  1.00  0.00    -0.142 A  
HETATM   26  F   UNL     1     -13.006   7.456  71.418  1.00  0.00    -0.351 F  
HETATM   27  C   UNL     1      -9.821   4.746  69.325  1.00  0.00    -0.269 A  
HETATM   28  C   UNL     1     -10.569   5.152  70.442  1.00  0.00    -0.225 A  
HETATM   29  F   UNL     1     -11.179   7.879  72.521  1.00  0.00    -0.307 F  
HETATM   30  C   UNL     1      -9.401   3.303  69.177  1.00  0.00    -0.163 C  
HETATM   31  F   UNL     1     -12.093   5.910  72.643  1.00  0.00    -0.308 F  
HETATM   32  C   UNL     1     -11.804   6.925  71.779  1.00  0.00    -0.316 C  
HETATM   33  F   UNL     1      -8.620   2.879  70.207  1.00  0.00    -0.074 F  
HETATM   34  F   UNL     1     -10.465   2.456  69.137  1.00  0.00     0.763 F  
HETATM   35  C   UNL     1     -10.648   7.414  69.589  1.00  0.00    -0.243 A  
HETATM   36  C   UNL     1     -10.987   6.484  70.587  1.00  0.00    -0.340 A  
ENDBRANCH   2  23
TORSDOF 5
ENDMDL
MODEL      303
REMARK 921   NORMALIZED FREE ENERGY PREDICTED BY IDOCK:   -1.36 KCAL/MOL
REMARK 922        TOTAL FREE ENERGY PREDICTED BY IDOCK:   -4.62 KCAL/MOL
REMARK 923 INTER-LIGAND FREE ENERGY PREDICTED BY IDOCK:   -4.93 KCAL/MOL
REMARK 924 INTRA-LIGAND FREE ENERGY PREDICTED BY IDOCK:    0.31 KCAL/MOL
REMARK 927      BINDING AFFINITY PREDICTED BY RF-SCORE:    0.00 PKD
ROOT
HETATM    1  C   UNL     1     -11.498   8.478  69.653  1.00  0.00     0.332 C  
HETATM    2  C   UNL     1      -9.989   8.638  69.479  1.00  0.00    -0.196 C  
ENDROOT
BRANCH   2   3
HETATM    3  O   UNL     1      -9.546   9.910  69.951  1.00  0.00    -0.222 OA 
BRANCH   3   4
HETATM    4  C   UNL     1      -8.583  10.549  69.099  1.00  0.00    -0.150 C  
BRANCH   4   5
HETATM    5  C   UNL     1      -9.325  11.248  67.905  1.00  0.00    -0.161 C  
HETATM    6  C   UNL     1      -8.213   9.778  65.539  1.00  0.00    -0.129 C  
HETATM    7  C   UNL     1      -7.411  10.895  66.226  1.00  0.00    -0.127 C  
HETATM    8  N   UNL     1      -7.308   8.746  65.084  1.00  0.00    -0.087 NA 
HETATM    9  H   UNL     1     -10.718  10.659  66.472  1.00  0.00     0.000 HD 
HETATM   10  C   UNL     1      -8.314  11.907  66.934  1.00  0.00    -0.169 C  
HETATM   11  O   UNL     1      -7.069   7.308  63.311  1.00  0.00    -0.059 OA 
HETATM   12  C   UNL     1      -9.270   9.194  66.512  1.00  0.00    -0.175 C  
HETATM   13  C   UNL     1      -8.870  10.265  64.233  1.00  0.00    -0.234 C  
HETATM   14  C   UNL     1      -7.594   8.279  63.826  1.00  0.00    -0.134 C  
HETATM   15  C   UNL     1      -8.661   9.141  63.217  1.00  0.00    -0.182 C  
HETATM   16  N   UNL     1     -10.103  10.217  67.155  1.00  0.00    -0.200 NA 
BRANCH   5  17
HETATM   17  C   UNL     1     -10.282  12.360  68.414  1.00  0.00    -0.227 A  
HETATM   18  C   UNL     1     -12.032  14.402  69.302  1.00  0.00    -0.362 A  
HETATM   19  C   UNL     1     -11.176  14.633  68.230  1.00  0.00    -0.301 A  
HETATM   20  C   UNL     1     -10.309  13.624  67.796  1.00  0.00    -0.241 A  
HETATM   21  C   UNL     1     -11.131  12.170  69.521  1.00  0.00    -0.117 A  
HETATM   22  C   UNL     1     -12.004  13.175  69.952  1.00  0.00    -0.387 A  
ENDBRANCH   5  17
ENDBRANCH   4   5
ENDBRANCH   3   4
ENDBRANCH   2   3
BRANCH   2  23
HETATM   23  C   UNL     1      -9.276   7.549  70.267  1.00  0.00    -0.157 A  
HETATM   24  F   UNL     1      -6.501   8.676  73.179  1.00  0.00    -0.108 F  
HETATM   25  C   UNL     1      -8.350   7.906  71.258  1.00  0.00    -0.120 A  
HETATM   26  F   UNL     1      -8.695   3.476  68.992  1.00  0.00    -0.092 F  
HETATM   27  C   UNL     1      -7.608   6.934  71.947  1.00  0.00    -0.093 A  
HETATM   28  C   UNL     1      -7.810   5.579  71.636  1.00  0.00    -0.112 A  
HETATM   29  F   UNL     1     -10.222   3.323  70.533  1.00  0.00    -0.068 F  
HETATM   30  C   UNL     1      -6.591   7.330  72.991  1.00  0.00    -0.064 C  
HETATM   31  F   UNL     1      -8.147   2.890  71.012  1.00  0.00    -0.051 F  
HETATM   32  C   UNL     1      -8.947   3.738  70.306  1.00  0.00    -0.104 C  
HETATM   33  F   UNL     1      -6.864   6.799  74.214  1.00  0.00    -0.081 F  
HETATM   34  F   UNL     1      -5.335   6.915  72.672  1.00  0.00    -0.035 F  
HETATM   35  C   UNL     1      -9.461   6.187  69.977  1.00  0.00    -0.172 A  
HETATM   36  C   UNL     1      -8.735   5.192  70.654  1.00  0.00    -0.142 A  
ENDBRANCH   2  23
TORSDOF 5
ENDMDL
MODEL      304
REMARK 921   NORMALIZED FREE ENERGY PREDICTED BY IDOCK:   -1.30 KCAL/MOL
REMARK 922        TOTAL FREE ENERGY PREDICTED BY IDOCK:   -4.54 KCAL/MOL
REMARK 923 INTER-LIGAND FREE ENERGY PREDICTED BY IDOCK:   -3.86 KCAL/MOL
REMARK 924 INTRA-LIGAND FREE ENERGY PREDICTED BY IDOCK:   -0.68 KCAL/MOL
REMARK 927      BINDING AFFINITY PREDICTED BY RF-SCORE:    0.00 PKD
ROOT
HETATM    1  C   UNL     1     -11.617  12.545  68.629  1.00  0.00    -0.357 C  
HETATM    2  C   UNL     1     -10.553  13.618  68.850  1.00  0.00    -0.190 C  
ENDROOT
BRANCH   2   3
HETATM    3  O   UNL     1      -9.244  13.104  68.608  1.00  0.00    -0.109 OA 
BRANCH   3   4
HETATM    4  C   UNL     1      -9.227  11.768  68.085  1.00  0.00    -0.186 C  
BRANCH   4   5
HETATM    5  C   UNL     1      -7.888  11.061  68.500  1.00  0.00    -0.129 C  
HETATM    6  C   UNL     1      -8.381   8.235  67.625  1.00  0.00    -0.127 C  
HETATM    7  C   UNL     1      -8.978   8.775  68.935  1.00  0.00    -0.134 C  
HETATM    8  N   UNL     1      -9.313   7.313  67.016  1.00  0.00    -0.142 NA 
HETATM    9  H   UNL     1      -6.316  10.143  67.488  1.00  0.00     0.000 HD 
HETATM   10  C   UNL     1      -8.154   9.925  69.518  1.00  0.00    -0.155 C  
HETATM   11  O   UNL     1      -9.283   5.350  65.827  1.00  0.00    -0.158 OA 
HETATM   12  C   UNL     1      -8.052   9.405  66.660  1.00  0.00    -0.108 C  
HETATM   13  C   UNL     1      -7.140   7.359  67.879  1.00  0.00    -0.085 C  
HETATM   14  C   UNL     1      -8.720   6.180  66.518  1.00  0.00    -0.133 C  
HETATM   15  C   UNL     1      -7.282   6.155  66.946  1.00  0.00    -0.074 C  
HETATM   16  N   UNL     1      -7.259  10.471  67.282  1.00  0.00    -0.088 NA 
BRANCH   5  17
HETATM   17  C   UNL     1      -6.907  12.066  69.163  1.00  0.00    -0.090 A  
HETATM   18  C   UNL     1      -5.142  13.932  70.356  1.00  0.00    -0.098 A  
HETATM   19  C   UNL     1      -5.711  14.203  69.116  1.00  0.00    -0.085 A  
HETATM   20  C   UNL     1      -6.579  13.278  68.526  1.00  0.00    -0.089 A  
HETATM   21  C   UNL     1      -6.285  11.804  70.399  1.00  0.00     0.041 A  
HETATM   22  C   UNL     1      -5.422  12.731  70.993  1.00  0.00    -0.164 A  
ENDBRANCH   5  17
ENDBRANCH   4   5
ENDBRANCH   3   4
ENDBRANCH   2   3
BRANCH   2  23
HETATM   23  C   UNL     1     -10.807  14.779  67.900  1.00  0.00    -0.269 A  
HETATM   24  F   UNL     1     -12.243  13.948  64.066  1.00  0.00    -0.458 F  
HETATM   25  C   UNL     1     -11.302  14.522  66.613  1.00  0.00    -0.359 A  
HETATM   26  F   UNL     1      -8.973  18.669  68.115  1.00  0.00    -0.289 F  
HETATM   27  C   UNL     1     -11.468  15.555  65.677  1.00  0.00     0.041 A  
HETATM   28  C   UNL     1     -11.137  16.869  66.049  1.00  0.00     0.319 A  
HETATM   29  F   UNL     1     -11.013  19.022  68.783  1.00  0.00     0.101 F  
HETATM   30  C   UNL     1     -11.972  15.266  64.282  1.00  0.00    -0.223 C  
HETATM   31  F   UNL     1     -10.445  19.474  66.734  1.00  0.00    -0.443 F  
HETATM   32  C   UNL     1     -10.277  18.564  67.735  1.00  0.00    -0.382 C  
HETATM   33  F   UNL     1     -13.119  15.937  63.992  1.00  0.00     0.123 F  
HETATM   34  F   UNL     1     -11.074  15.622  63.324  1.00  0.00     1.211 F  
HETATM   35  C   UNL     1     -10.487  16.101  68.248  1.00  0.00    -0.276 A  
HETATM   36  C   UNL     1     -10.647  17.155  67.333  1.00  0.00    -0.297 A  
ENDBRANCH   2  23
TORSDOF 5
ENDMDL
MODEL      305
REMARK 921   NORMALIZED FREE ENERGY PREDICTED BY IDOCK:   -1.07 KCAL/MOL
REMARK 922        TOTAL FREE ENERGY PREDICTED BY IDOCK:   -4.24 KCAL/MOL
REMARK 923 INTER-LIGAND FREE ENERGY PREDICTED BY IDOCK:   -3.75 KCAL/MOL
REMARK 924 INTRA-LIGAND FREE ENERGY PREDICTED BY IDOCK:   -0.49 KCAL/MOL
REMARK 927      BINDING AFFINITY PREDICTED BY RF-SCORE:    0.00 PKD
ROOT
HETATM    1  C   UNL     1      -9.802  12.010  66.740  1.00  0.00    -0.218 C  
HETATM    2  C   UNL     1      -9.137  11.820  68.102  1.00  0.00    -0.185 C  
ENDROOT
BRANCH   2   3
HETATM    3  O   UNL     1      -8.201  10.743  68.073  1.00  0.00    -0.110 OA 
BRANCH   3   4
HETATM    4  C   UNL     1      -8.526   9.709  67.132  1.00  0.00    -0.131 C  
BRANCH   4   5
HETATM    5  C   UNL     1      -8.644   8.336  67.885  1.00  0.00    -0.132 C  
HETATM    6  C   UNL     1     -10.561   9.004  70.093  1.00  0.00    -0.224 C  
HETATM    7  C   UNL     1      -9.076   9.391  70.188  1.00  0.00    -0.262 C  
HETATM    8  N   UNL     1     -11.367  10.032  70.713  1.00  0.00    -0.336 NA 
HETATM    9  H   UNL     1     -10.162   6.947  68.213  1.00  0.00     0.000 HD 
HETATM   10  C   UNL     1      -8.181   8.470  69.357  1.00  0.00    -0.114 C  
HETATM   11  O   UNL     1     -13.269  10.212  71.984  1.00  0.00    -0.443 OA 
HETATM   12  C   UNL     1     -10.971   8.799  68.611  1.00  0.00     0.139 C  
HETATM   13  C   UNL     1     -10.882   7.754  70.935  1.00  0.00    -0.246 C  
HETATM   14  C   UNL     1     -12.378   9.539  71.499  1.00  0.00    -0.380 C  
HETATM   15  C   UNL     1     -12.209   8.054  71.636  1.00  0.00    -0.340 C  
HETATM   16  N   UNL     1     -10.073   7.905  67.872  1.00  0.00    -0.182 NA 
BRANCH   5  17
HETATM   17  C   UNL     1      -7.762   7.251  67.211  1.00  0.00    -0.109 A  
HETATM   18  C   UNL     1      -6.118   5.297  65.985  1.00  0.00    -0.030 A  
HETATM   19  C   UNL     1      -5.889   6.649  65.750  1.00  0.00    -0.026 A  
HETATM   20  C   UNL     1      -6.706   7.613  66.353  1.00  0.00    -0.058 A  
HETATM   21  C   UNL     1      -7.992   5.874  67.398  1.00  0.00    -0.102 A  
HETATM   22  C   UNL     1      -7.172   4.910  66.801  1.00  0.00    -0.080 A  
ENDBRANCH   5  17
ENDBRANCH   4   5
ENDBRANCH   3   4
ENDBRANCH   2   3
BRANCH   2  23
HETATM   23  C   UNL     1      -8.404  13.096  68.484  1.00  0.00    -0.063 A  
HETATM   24  F   UNL     1      -8.463  16.312  65.819  1.00  0.00    -0.336 F  
HETATM   25  C   UNL     1      -8.423  14.193  67.609  1.00  0.00    -0.189 A  
HETATM   26  F   UNL     1      -5.147  13.398  71.286  1.00  0.00    -0.107 F  
HETATM   27  C   UNL     1      -7.688  15.357  67.884  1.00  0.00    -0.144 A  
HETATM   28  C   UNL     1      -6.930  15.419  69.064  1.00  0.00    -0.138 A  
HETATM   29  F   UNL     1      -6.829  14.274  72.352  1.00  0.00     0.730 F  
HETATM   30  C   UNL     1      -7.689  16.521  66.921  1.00  0.00    -0.231 C  
HETATM   31  F   UNL     1      -5.377  15.558  71.368  1.00  0.00    -0.149 F  
HETATM   32  C   UNL     1      -6.074  14.395  71.227  1.00  0.00    -0.005 C  
HETATM   33  F   UNL     1      -8.148  17.668  67.489  1.00  0.00    -0.202 F  
HETATM   34  F   UNL     1      -6.444  16.804  66.451  1.00  0.00    -0.235 F  
HETATM   35  C   UNL     1      -7.640  13.185  69.660  1.00  0.00     0.868 A  
HETATM   36  C   UNL     1      -6.899  14.340  69.962  1.00  0.00     0.022 A  
ENDBRANCH   2  23
TORSDOF 5
ENDMDL
MODEL      306
REMARK 921   NORMALIZED FREE ENERGY PREDICTED BY IDOCK:   -0.94 KCAL/MOL
REMARK 922        TOTAL FREE ENERGY PREDICTED BY IDOCK:   -4.07 KCAL/MOL
REMARK 923 INTER-LIGAND FREE ENERGY PREDICTED BY IDOCK:   -2.70 KCAL/MOL
REMARK 924 INTRA-LIGAND FREE ENERGY PREDICTED BY IDOCK:   -1.37 KCAL/MOL
REMARK 927      BINDING AFFINITY PREDICTED BY RF-SCORE:    0.00 PKD
ROOT
HETATM    1  C   UNL     1     -11.993   5.982  69.695  1.00  0.00     1.061 C  
HETATM    2  C   UNL     1     -10.724   6.631  69.146  1.00  0.00    -0.264 C  
ENDROOT
BRANCH   2   3
HETATM    3  O   UNL     1      -9.877   7.083  70.202  1.00  0.00    -0.175 OA 
BRANCH   3   4
HETATM    4  C   UNL     1      -9.653   8.501  70.206  1.00  0.00    -0.167 C  
BRANCH   4   5
HETATM    5  C   UNL     1      -8.119   8.788  70.371  1.00  0.00    -0.116 C  
HETATM    6  C   UNL     1      -7.299   9.407  67.553  1.00  0.00    -0.084 C  
HETATM    7  C   UNL     1      -7.492   7.956  68.021  1.00  0.00    -0.108 C  
HETATM    8  N   UNL     1      -7.728   9.531  66.178  1.00  0.00    -0.100 NA 
HETATM    9  H   UNL     1      -6.883  10.448  70.136  1.00  0.00     0.000 HD 
HETATM   10  C   UNL     1      -7.277   7.798  69.528  1.00  0.00    -0.079 C  
HETATM   11  O   UNL     1      -7.123  10.649  64.267  1.00  0.00     0.052 OA 
HETATM   12  C   UNL     1      -8.090  10.380  68.467  1.00  0.00    -0.116 C  
HETATM   13  C   UNL     1      -5.809   9.795  67.489  1.00  0.00    -0.050 C  
HETATM   14  C   UNL     1      -6.881  10.282  65.403  1.00  0.00    -0.140 C  
HETATM   15  C   UNL     1      -5.639  10.585  66.190  1.00  0.00    -0.083 C  
HETATM   16  N   UNL     1      -7.837  10.175  69.898  1.00  0.00    -0.171 NA 
BRANCH   5  17
HETATM   17  C   UNL     1      -7.677   8.637  71.852  1.00  0.00    -0.111 A  
HETATM   18  C   UNL     1      -6.899   8.330  74.558  1.00  0.00    -0.191 A  
HETATM   19  C   UNL     1      -8.219   8.100  74.180  1.00  0.00    -0.310 A  
HETATM   20  C   UNL     1      -8.602   8.257  72.843  1.00  0.00    -0.276 A  
HETATM   21  C   UNL     1      -6.359   8.900  72.272  1.00  0.00    -0.012 A  
HETATM   22  C   UNL     1      -5.973   8.738  73.608  1.00  0.00    -0.102 A  
ENDBRANCH   5  17
ENDBRANCH   4   5
ENDBRANCH   3   4
ENDBRANCH   2   3
BRANCH   2  23
HETATM   23  C   UNL     1      -9.962   5.613  68.310  1.00  0.00    -0.197 A  
HETATM   24  F   UNL     1     -11.520   4.506  64.595  1.00  0.00    -0.258 F  
HETATM   25  C   UNL     1     -10.462   5.238  67.054  1.00  0.00    -0.290 A  
HETATM   26  F   UNL     1      -7.168   2.698  69.807  1.00  0.00    -0.042 F  
HETATM   27  C   UNL     1      -9.837   4.239  66.290  1.00  0.00    -0.234 A  
HETATM   28  C   UNL     1      -8.686   3.615  66.798  1.00  0.00    -0.124 A  
HETATM   29  F   UNL     1      -5.903   4.167  68.819  1.00  0.00    -0.018 F  
HETATM   30  C   UNL     1     -10.399   3.819  64.952  1.00  0.00    -0.082 C  
HETATM   31  F   UNL     1      -6.433   2.324  67.796  1.00  0.00    -0.027 F  
HETATM   32  C   UNL     1      -6.930   3.299  68.607  1.00  0.00    -0.049 C  
HETATM   33  F   UNL     1      -9.513   3.995  63.935  1.00  0.00    -0.136 F  
HETATM   34  F   UNL     1     -10.747   2.504  64.927  1.00  0.00     0.498 F  
HETATM   35  C   UNL     1      -8.808   4.975  68.794  1.00  0.00    -0.109 A  
HETATM   36  C   UNL     1      -8.160   3.976  68.049  1.00  0.00    -0.088 A  
ENDBRANCH   2  23
TORSDOF 5
ENDMDL
MODEL      307
REMARK 921   NORMALIZED FREE ENERGY PREDICTED BY IDOCK:   -0.90 KCAL/MOL
REMARK 922        TOTAL FREE ENERGY PREDICTED BY IDOCK:   -4.02 KCAL/MOL
REMARK 923 INTER-LIGAND FREE ENERGY PREDICTED BY IDOCK:   -2.88 KCAL/MOL
REMARK 924 INTRA-LIGAND FREE ENERGY PREDICTED BY IDOCK:   -1.14 KCAL/MOL
REMARK 927      BINDING AFFINITY PREDICTED BY RF-SCORE:    0.00 PKD
ROOT
HETATM    1  C   UNL     1      -9.802  12.010  66.740  1.00  0.00    -0.218 C  
HETATM    2  C   UNL     1      -9.141  11.823  68.105  1.00  0.00    -0.185 C  
ENDROOT
BRANCH   2   3
HETATM    3  O   UNL     1      -8.204  10.746  68.081  1.00  0.00    -0.111 OA 
BRANCH   3   4
HETATM    4  C   UNL     1      -8.526   9.710  67.141  1.00  0.00    -0.131 C  
BRANCH   4   5
HETATM    5  C   UNL     1      -8.646   8.339  67.896  1.00  0.00    -0.132 C  
HETATM    6  C   UNL     1      -8.300   6.369  65.661  1.00  0.00    -0.147 C  
HETATM    7  C   UNL     1      -9.645   7.077  65.892  1.00  0.00     0.216 C  
HETATM    8  N   UNL     1      -8.089   6.189  64.242  1.00  0.00    -0.118 NA 
HETATM    9  H   UNL     1      -7.367   6.743  68.290  1.00  0.00     0.000 HD 
HETATM   10  C   UNL     1      -9.832   7.507  67.349  1.00  0.00    -0.221 C  
HETATM   11  O   UNL     1      -7.194   4.639  62.805  1.00  0.00    -0.038 OA 
HETATM   12  C   UNL     1      -7.143   7.188  66.291  1.00  0.00    -0.074 C  
HETATM   13  C   UNL     1      -8.314   4.925  66.197  1.00  0.00    -0.112 C  
HETATM   14  C   UNL     1      -7.595   4.952  63.912  1.00  0.00    -0.066 C  
HETATM   15  C   UNL     1      -7.614   4.078  65.132  1.00  0.00    -0.081 C  
HETATM   16  N   UNL     1      -7.386   7.566  67.687  1.00  0.00    -0.100 NA 
BRANCH   5  17
HETATM   17  C   UNL     1      -8.885   8.556  69.415  1.00  0.00    -0.141 A  
HETATM   18  C   UNL     1      -9.279   8.965  72.190  1.00  0.00    -0.103 A  
HETATM   19  C   UNL     1      -8.036   8.558  71.713  1.00  0.00    -0.191 A  
HETATM   20  C   UNL     1      -7.845   8.352  70.342  1.00  0.00    -0.090 A  
HETATM   21  C   UNL     1     -10.140   8.930  69.932  1.00  0.00    -0.204 A  
HETATM   22  C   UNL     1     -10.331   9.143  71.301  1.00  0.00    -0.405 A  
ENDBRANCH   5  17
ENDBRANCH   4   5
ENDBRANCH   3   4
ENDBRANCH   2   3
BRANCH   2  23
HETATM   23  C   UNL     1      -8.410  13.100  68.486  1.00  0.00    -0.063 A  
HETATM   24  F   UNL     1      -8.462  16.311  65.814  1.00  0.00    -0.336 F  
HETATM   25  C   UNL     1      -8.426  14.195  67.609  1.00  0.00    -0.189 A  
HETATM   26  F   UNL     1      -5.161  13.410  71.296  1.00  0.00    -0.107 F  
HETATM   27  C   UNL     1      -7.693  15.360  67.883  1.00  0.00    -0.144 A  
HETATM   28  C   UNL     1      -6.938  15.425  69.066  1.00  0.00    -0.138 A  
HETATM   29  F   UNL     1      -6.846  14.287  72.356  1.00  0.00     0.730 F  
HETATM   30  C   UNL     1      -7.691  16.522  66.917  1.00  0.00    -0.231 C  
HETATM   31  F   UNL     1      -5.391  15.569  71.374  1.00  0.00    -0.149 F  
HETATM   32  C   UNL     1      -6.088  14.406  71.232  1.00  0.00    -0.005 C  
HETATM   33  F   UNL     1      -8.152  17.670  67.482  1.00  0.00    -0.202 F  
HETATM   34  F   UNL     1      -6.444  16.804  66.451  1.00  0.00    -0.235 F  
HETATM   35  C   UNL     1      -7.649  13.192  69.664  1.00  0.00     0.868 A  
HETATM   36  C   UNL     1      -6.909  14.348  69.965  1.00  0.00    -0.028 A  
ENDBRANCH   2  23
TORSDOF 5
ENDMDL
MODEL      308
REMARK 921   NORMALIZED FREE ENERGY PREDICTED BY IDOCK:   -0.28 KCAL/MOL
REMARK 922        TOTAL FREE ENERGY PREDICTED BY IDOCK:   -3.22 KCAL/MOL
REMARK 923 INTER-LIGAND FREE ENERGY PREDICTED BY IDOCK:   -1.80 KCAL/MOL
REMARK 924 INTRA-LIGAND FREE ENERGY PREDICTED BY IDOCK:   -1.42 KCAL/MOL
REMARK 927      BINDING AFFINITY PREDICTED BY RF-SCORE:    0.00 PKD
ROOT
HETATM    1  C   UNL     1     -11.844   5.704  70.004  1.00  0.00     1.576 C  
HETATM    2  C   UNL     1     -10.720   6.513  69.360  1.00  0.00    -0.277 C  
ENDROOT
BRANCH   2   3
HETATM    3  O   UNL     1      -9.848   7.062  70.348  1.00  0.00    -0.179 OA 
BRANCH   3   4
HETATM    4  C   UNL     1      -9.729   8.492  70.294  1.00  0.00    -0.171 C  
BRANCH   4   5
HETATM    5  C   UNL     1      -8.211   8.889  70.260  1.00  0.00    -0.129 C  
HETATM    6  C   UNL     1      -7.803   9.526  67.358  1.00  0.00    -0.102 C  
HETATM    7  C   UNL     1      -7.830   8.071  67.853  1.00  0.00    -0.126 C  
HETATM    8  N   UNL     1      -8.411   9.599  66.048  1.00  0.00    -0.118 NA 
HETATM    9  H   UNL     1      -7.139  10.629  69.861  1.00  0.00     0.000 HD 
HETATM   10  C   UNL     1      -7.414   7.949  69.321  1.00  0.00    -0.092 C  
HETATM   11  O   UNL     1      -8.136  10.730  64.070  1.00  0.00    -0.002 OA 
HETATM   12  C   UNL     1      -8.539  10.452  68.361  1.00  0.00    -0.128 C  
HETATM   13  C   UNL     1      -6.365  10.017  67.102  1.00  0.00    -0.067 C  
HETATM   14  C   UNL     1      -7.726  10.398  65.167  1.00  0.00    -0.110 C  
HETATM   15  C   UNL     1      -6.419  10.799  65.788  1.00  0.00    -0.074 C  
HETATM   16  N   UNL     1      -8.092  10.286  69.748  1.00  0.00    -0.150 NA 
BRANCH   5  17
HETATM   17  C   UNL     1      -7.575   8.791  71.673  1.00  0.00    -0.109 A  
HETATM   18  C   UNL     1      -6.443   8.581  74.261  1.00  0.00    -0.155 A  
HETATM   19  C   UNL     1      -7.810   8.397  74.080  1.00  0.00    -0.215 A  
HETATM   20  C   UNL     1      -8.368   8.507  72.801  1.00  0.00    -0.140 A  
HETATM   21  C   UNL     1      -6.202   9.010  71.895  1.00  0.00    -0.048 A  
HETATM   22  C   UNL     1      -5.641   8.895  73.172  1.00  0.00    -0.093 A  
ENDBRANCH   5  17
ENDBRANCH   4   5
ENDBRANCH   3   4
ENDBRANCH   2   3
BRANCH   2  23
HETATM   23  C   UNL     1      -9.911   5.607  68.444  1.00  0.00    -0.201 A  
HETATM   24  F   UNL     1      -7.544   2.624  70.160  1.00  0.00    -0.043 F  
HETATM   25  C   UNL     1      -9.120   4.590  68.999  1.00  0.00    -0.172 A  
HETATM   26  F   UNL     1      -8.648   6.545  64.435  1.00  0.00    -0.044 F  
HETATM   27  C   UNL     1      -8.293   3.789  68.196  1.00  0.00    -0.101 A  
HETATM   28  C   UNL     1      -8.270   4.012  66.810  1.00  0.00    -0.100 A  
HETATM   29  F   UNL     1     -10.241   5.091  64.148  1.00  0.00     0.289 F  
HETATM   30  C   UNL     1      -7.421   2.718  68.807  1.00  0.00    -0.048 C  
HETATM   31  F   UNL     1      -8.163   4.459  64.066  1.00  0.00    -0.088 F  
HETATM   32  C   UNL     1      -9.027   5.271  64.737  1.00  0.00    -0.008 C  
HETATM   33  F   UNL     1      -7.698   1.478  68.319  1.00  0.00    -0.048 F  
HETATM   34  F   UNL     1      -6.098   2.930  68.568  1.00  0.00    -0.022 F  
HETATM   35  C   UNL     1      -9.873   5.807  67.054  1.00  0.00    -0.171 A  
HETATM   36  C   UNL     1      -9.058   5.017  66.226  1.00  0.00    -0.129 A  
ENDBRANCH   2  23
TORSDOF 5
ENDMDL
MODEL      309
REMARK 921   NORMALIZED FREE ENERGY PREDICTED BY IDOCK:    0.22 KCAL/MOL
REMARK 922        TOTAL FREE ENERGY PREDICTED BY IDOCK:   -2.57 KCAL/MOL
REMARK 923 INTER-LIGAND FREE ENERGY PREDICTED BY IDOCK:   -4.73 KCAL/MOL
REMARK 924 INTRA-LIGAND FREE ENERGY PREDICTED BY IDOCK:    2.16 KCAL/MOL
REMARK 927      BINDING AFFINITY PREDICTED BY RF-SCORE:    0.00 PKD
ROOT
HETATM    1  C   UNL     1     -11.522  11.488  67.128  1.00  0.00    -0.313 C  
HETATM    2  C   UNL     1     -11.238  10.666  68.384  1.00  0.00    -0.288 C  
ENDROOT
BRANCH   2   3
HETATM    3  O   UNL     1     -12.202   9.626  68.549  1.00  0.00     1.114 OA 
BRANCH   3   4
HETATM    4  C   UNL     1     -13.207   9.910  69.534  1.00  0.00     2.067 C  
BRANCH   4   5
HETATM    5  C   UNL     1     -12.515  10.280  70.894  1.00  0.00    -0.370 C  
HETATM    6  C   UNL     1     -11.546   7.605  71.843  1.00  0.00    -0.280 C  
HETATM    7  C   UNL     1     -13.016   8.020  72.012  1.00  0.00    -0.302 C  
HETATM    8  N   UNL     1     -11.474   6.187  71.568  1.00  0.00    -0.287 NA 
HETATM    9  H   UNL     1     -10.567  10.236  71.630  1.00  0.00     0.000 HD 
HETATM   10  C   UNL     1     -13.187   9.540  72.077  1.00  0.00    -0.539 C  
HETATM   11  O   UNL     1     -10.134   4.390  72.062  1.00  0.00    -0.181 OA 
HETATM   12  C   UNL     1     -10.880   8.422  70.705  1.00  0.00    -0.231 C  
HETATM   13  C   UNL     1     -10.757   7.744  73.160  1.00  0.00    -0.414 C  
HETATM   14  C   UNL     1     -10.478   5.542  72.257  1.00  0.00    -0.217 C  
HETATM   15  C   UNL     1      -9.884   6.491  73.257  1.00  0.00    -0.189 C  
HETATM   16  N   UNL     1     -11.081   9.870  70.829  1.00  0.00    -0.327 NA 
BRANCH   5  17
HETATM   17  C   UNL     1     -12.614  11.804  71.176  1.00  0.00    -0.412 A  
HETATM   18  C   UNL     1     -12.788  14.591  71.648  1.00  0.00    -0.409 A  
HETATM   19  C   UNL     1     -11.926  14.100  70.672  1.00  0.00    -0.385 A  
HETATM   20  C   UNL     1     -11.838  12.722  70.444  1.00  0.00    -0.238 A  
HETATM   21  C   UNL     1     -13.448  12.328  72.182  1.00  0.00    -0.431 A  
HETATM   22  C   UNL     1     -13.541  13.706  72.407  1.00  0.00    -0.703 A  
ENDBRANCH   5  17
ENDBRANCH   4   5
ENDBRANCH   3   4
ENDBRANCH   2   3
BRANCH   2  23
HETATM   23  C   UNL     1      -9.857  10.040  68.272  1.00  0.00    -0.163 A  
HETATM   24  F   UNL     1      -9.364   6.711  65.796  1.00  0.00    -0.137 F  
HETATM   25  C   UNL     1      -9.667   8.930  67.435  1.00  0.00    -0.227 A  
HETATM   26  F   UNL     1      -6.694  10.356  71.177  1.00  0.00     0.043 F  
HETATM   27  C   UNL     1      -8.430   8.270  67.370  1.00  0.00    -0.125 A  
HETATM   28  C   UNL     1      -7.365   8.743  68.154  1.00  0.00    -0.087 A  
HETATM   29  F   UNL     1      -6.032  11.641  69.551  1.00  0.00    -0.058 F  
HETATM   30  C   UNL     1      -8.244   7.056  66.490  1.00  0.00    -0.114 C  
HETATM   31  F   UNL     1      -5.249   9.622  69.730  1.00  0.00    -0.033 F  
HETATM   32  C   UNL     1      -6.387  10.362  69.850  1.00  0.00    -0.095 C  
HETATM   33  F   UNL     1      -7.266   7.230  65.560  1.00  0.00    -0.060 F  
HETATM   34  F   UNL     1      -7.894   5.950  67.203  1.00  0.00    -0.096 F  
HETATM   35  C   UNL     1      -8.775  10.495  69.043  1.00  0.00    -0.160 A  
HETATM   36  C   UNL     1      -7.524   9.856  68.993  1.00  0.00    -0.083 A  
ENDBRANCH   2  23
TORSDOF 5
ENDMDL
MODEL      310
REMARK 921   NORMALIZED FREE ENERGY PREDICTED BY IDOCK:    0.25 KCAL/MOL
REMARK 922        TOTAL FREE ENERGY PREDICTED BY IDOCK:   -2.54 KCAL/MOL
REMARK 923 INTER-LIGAND FREE ENERGY PREDICTED BY IDOCK:   -4.05 KCAL/MOL
REMARK 924 INTRA-LIGAND FREE ENERGY PREDICTED BY IDOCK:    1.51 KCAL/MOL
REMARK 927      BINDING AFFINITY PREDICTED BY RF-SCORE:    0.00 PKD
ROOT
HETATM    1  C   UNL     1      -5.884  10.026  71.084  1.00  0.00    -0.045 C  
HETATM    2  C   UNL     1      -7.266  10.537  70.679  1.00  0.00     0.698 C  
ENDROOT
BRANCH   2   3
HETATM    3  O   UNL     1      -7.206  11.271  69.456  1.00  0.00    -0.105 OA 
BRANCH   3   4
HETATM    4  C   UNL     1      -7.315  10.457  68.278  1.00  0.00    -0.088 C  
BRANCH   4   5
HETATM    5  C   UNL     1      -7.309  11.376  67.006  1.00  0.00    -0.144 C  
HETATM    6  C   UNL     1      -6.783  14.078  68.196  1.00  0.00    -0.125 C  
HETATM    7  C   UNL     1      -8.187  13.453  68.238  1.00  0.00    -0.160 C  
HETATM    8  N   UNL     1      -6.555  14.832  69.409  1.00  0.00    -0.130 NA 
HETATM    9  H   UNL     1      -5.889  12.536  66.017  1.00  0.00     0.000 HD 
HETATM   10  C   UNL     1      -8.414  12.457  67.098  1.00  0.00    -0.185 C  
HETATM   11  O   UNL     1      -5.521  16.768  70.079  1.00  0.00    -0.180 OA 
HETATM   12  C   UNL     1      -5.706  12.975  68.022  1.00  0.00    -0.107 C  
HETATM   13  C   UNL     1      -6.665  15.148  67.094  1.00  0.00     0.148 C  
HETATM   14  C   UNL     1      -5.949  16.045  69.198  1.00  0.00    -0.127 C  
HETATM   15  C   UNL     1      -5.889  16.308  67.721  1.00  0.00    -0.158 C  
HETATM   16  N   UNL     1      -5.983  12.056  66.912  1.00  0.00    -0.217 NA 
BRANCH   5  17
HETATM   17  C   UNL     1      -7.567  10.549  65.717  1.00  0.00    -0.142 A  
HETATM   18  C   UNL     1      -8.072   9.067  63.357  1.00  0.00    -0.167 A  
HETATM   19  C   UNL     1      -9.130   9.606  64.083  1.00  0.00    -0.256 A  
HETATM   20  C   UNL     1      -8.878  10.333  65.252  1.00  0.00    -0.200 A  
HETATM   21  C   UNL     1      -6.521   9.959  64.982  1.00  0.00    -0.106 A  
HETATM   22  C   UNL     1      -6.771   9.236  63.810  1.00  0.00    -0.092 A  
ENDBRANCH   5  17
ENDBRANCH   4   5
ENDBRANCH   3   4
ENDBRANCH   2   3
BRANCH   2  23
HETATM   23  C   UNL     1      -8.203   9.353  70.494  1.00  0.00    -0.221 A  
HETATM   24  F   UNL     1      -8.307   6.402  73.449  1.00  0.00    -0.118 F  
HETATM   25  C   UNL     1      -8.263   8.358  71.481  1.00  0.00    -0.182 A  
HETATM   26  F   UNL     1      -9.748   7.914  66.740  1.00  0.00    -0.212 F  
HETATM   27  C   UNL     1      -9.049   7.207  71.309  1.00  0.00    -0.151 A  
HETATM   28  C   UNL     1      -9.793   7.063  70.126  1.00  0.00    -0.179 A  
HETATM   29  F   UNL     1     -11.462   8.880  67.668  1.00  0.00     0.110 F  
HETATM   30  C   UNL     1      -9.083   6.126  72.363  1.00  0.00    -0.136 C  
HETATM   31  F   UNL     1     -11.239   6.720  67.775  1.00  0.00    -0.312 F  
HETATM   32  C   UNL     1     -10.545   7.891  67.845  1.00  0.00    -0.149 C  
HETATM   33  F   UNL     1     -10.336   5.906  72.845  1.00  0.00    -0.188 F  
HETATM   34  F   UNL     1      -8.645   4.928  71.889  1.00  0.00    -0.118 F  
HETATM   35  C   UNL     1      -8.959   9.185  69.321  1.00  0.00    -0.145 A  
HETATM   36  C   UNL     1      -9.758   8.046  69.125  1.00  0.00    -0.163 A  
ENDBRANCH   2  23
TORSDOF 5
ENDMDL
MODEL      311
REMARK 921   NORMALIZED FREE ENERGY PREDICTED BY IDOCK:    0.33 KCAL/MOL
REMARK 922        TOTAL FREE ENERGY PREDICTED BY IDOCK:   -2.44 KCAL/MOL
REMARK 923 INTER-LIGAND FREE ENERGY PREDICTED BY IDOCK:   -4.48 KCAL/MOL
REMARK 924 INTRA-LIGAND FREE ENERGY PREDICTED BY IDOCK:    2.04 KCAL/MOL
REMARK 927      BINDING AFFINITY PREDICTED BY RF-SCORE:    0.00 PKD
ROOT
HETATM    1  C   UNL     1     -11.708  14.488  66.499  1.00  0.00    -0.380 C  
HETATM    2  C   UNL     1     -10.464  14.503  67.385  1.00  0.00    -0.264 C  
ENDROOT
BRANCH   2   3
HETATM    3  O   UNL     1      -9.309  14.901  66.647  1.00  0.00    -0.237 OA 
BRANCH   3   4
HETATM    4  C   UNL     1      -8.816  16.205  66.989  1.00  0.00    -0.207 C  
BRANCH   4   5
HETATM    5  C   UNL     1      -7.297  16.104  67.375  1.00  0.00    -0.176 C  
HETATM    6  C   UNL     1      -7.171  13.414  68.693  1.00  0.00    -0.107 C  
HETATM    7  C   UNL     1      -7.700  14.642  69.450  1.00  0.00    -0.051 C  
HETATM    8  N   UNL     1      -7.911  12.241  69.101  1.00  0.00     0.213 NA 
HETATM    9  H   UNL     1      -5.697  14.897  66.808  1.00  0.00     0.000 HD 
HETATM   10  C   UNL     1      -7.124  15.952  68.906  1.00  0.00    -0.148 C  
HETATM   11  O   UNL     1      -7.545  10.010  69.500  1.00  0.00    -0.101 OA 
HETATM   12  C   UNL     1      -7.284  13.632  67.161  1.00  0.00     0.211 C  
HETATM   13  C   UNL     1      -5.724  13.070  69.099  1.00  0.00    -0.076 C  
HETATM   14  C   UNL     1      -7.123  11.137  69.309  1.00  0.00    -0.123 C  
HETATM   15  C   UNL     1      -5.681  11.548  69.240  1.00  0.00    -0.052 C  
HETATM   16  N   UNL     1      -6.712  14.904  66.707  1.00  0.00     0.390 NA 
BRANCH   5  17
HETATM   17  C   UNL     1      -6.523  17.378  66.938  1.00  0.00    -0.219 A  
HETATM   18  C   UNL     1      -5.129  19.698  66.103  1.00  0.00    -0.160 A  
HETATM   19  C   UNL     1      -5.333  18.647  65.214  1.00  0.00    -0.218 A  
HETATM   20  C   UNL     1      -6.018  17.500  65.630  1.00  0.00     0.124 A  
HETATM   21  C   UNL     1      -6.268  18.441  67.825  1.00  0.00    -0.185 A  
HETATM   22  C   UNL     1      -5.589  19.592  67.409  1.00  0.00    -0.170 A  
ENDBRANCH   5  17
ENDBRANCH   4   5
ENDBRANCH   3   4
ENDBRANCH   2   3
BRANCH   2  23
HETATM   23  C   UNL     1     -10.675  15.484  68.529  1.00  0.00    -0.259 A  
HETATM   24  F   UNL     1     -12.559  14.132  72.003  1.00  0.00    -0.377 F  
HETATM   25  C   UNL     1     -11.294  15.047  69.709  1.00  0.00    -0.310 A  
HETATM   26  F   UNL     1     -10.847  19.773  68.180  1.00  0.00    -0.498 F  
HETATM   27  C   UNL     1     -11.586  15.939  70.753  1.00  0.00    -0.441 A  
HETATM   28  C   UNL     1     -11.240  17.292  70.607  1.00  0.00     1.253 A  
HETATM   29  F   UNL     1      -8.914  19.407  69.107  1.00  0.00    -0.389 F  
HETATM   30  C   UNL     1     -12.280  15.465  72.008  1.00  0.00    -0.383 C  
HETATM   31  F   UNL     1     -10.614  19.989  70.330  1.00  0.00    -0.127 F  
HETATM   32  C   UNL     1     -10.251  19.213  69.270  1.00  0.00     0.039 C  
HETATM   33  F   UNL     1     -11.543  15.689  73.129  1.00  0.00    -0.512 F  
HETATM   34  F   UNL     1     -13.471  16.093  72.208  1.00  0.00    -0.481 F  
HETATM   35  C   UNL     1     -10.337  16.842  68.409  1.00  0.00    -0.338 A  
HETATM   36  C   UNL     1     -10.613  17.756  69.439  1.00  0.00     0.281 A  
ENDBRANCH   2  23
TORSDOF 5
ENDMDL
MODEL      312
REMARK 921   NORMALIZED FREE ENERGY PREDICTED BY IDOCK:    0.56 KCAL/MOL
REMARK 922        TOTAL FREE ENERGY PREDICTED BY IDOCK:   -2.14 KCAL/MOL
REMARK 923 INTER-LIGAND FREE ENERGY PREDICTED BY IDOCK:   -2.32 KCAL/MOL
REMARK 924 INTRA-LIGAND FREE ENERGY PREDICTED BY IDOCK:    0.18 KCAL/MOL
REMARK 927      BINDING AFFINITY PREDICTED BY RF-SCORE:    0.00 PKD
ROOT
HETATM    1  C   UNL     1      -5.876  10.219  71.238  1.00  0.00     0.052 C  
HETATM    2  C   UNL     1      -7.195  10.870  70.829  1.00  0.00     1.668 C  
ENDROOT
BRANCH   2   3
HETATM    3  O   UNL     1      -7.044  11.635  69.633  1.00  0.00    -0.024 OA 
BRANCH   3   4
HETATM    4  C   UNL     1      -6.723  10.852  68.473  1.00  0.00    -0.057 C  
BRANCH   4   5
HETATM    5  C   UNL     1      -7.059  11.674  67.179  1.00  0.00    -0.143 C  
HETATM    6  C   UNL     1      -6.203   9.788  65.009  1.00  0.00    -0.094 C  
HETATM    7  C   UNL     1      -5.174  10.637  65.772  1.00  0.00    -0.107 C  
HETATM    8  N   UNL     1      -5.627   8.499  64.697  1.00  0.00    -0.047 NA 
HETATM    9  H   UNL     1      -8.389  11.464  65.590  1.00  0.00     0.000 HD 
HETATM   10  C   UNL     1      -5.784  11.923  66.335  1.00  0.00     0.314 C  
HETATM   11  O   UNL     1      -5.653   6.952  63.002  1.00  0.00    -0.034 OA 
HETATM   12  C   UNL     1      -7.498   9.625  65.849  1.00  0.00    -0.099 C  
HETATM   13  C   UNL     1      -6.514  10.375  63.619  1.00  0.00    -0.045 C  
HETATM   14  C   UNL     1      -5.899   8.068  63.423  1.00  0.00    -0.063 C  
HETATM   15  C   UNL     1      -6.557   9.182  62.662  1.00  0.00    -0.093 C  
HETATM   16  N   UNL     1      -8.030  10.894  66.356  1.00  0.00    -0.154 NA 
BRANCH   5  17
HETATM   17  C   UNL     1      -7.664  13.058  67.536  1.00  0.00    -0.168 A  
HETATM   18  C   UNL     1      -8.739  15.603  68.162  1.00  0.00    -0.168 A  
HETATM   19  C   UNL     1      -7.371  15.455  67.954  1.00  0.00    -0.155 A  
HETATM   20  C   UNL     1      -6.842  14.195  67.650  1.00  0.00    -0.196 A  
HETATM   21  C   UNL     1      -9.038  13.234  67.790  1.00  0.00    -0.202 A  
HETATM   22  C   UNL     1      -9.570  14.493  68.088  1.00  0.00    -0.212 A  
ENDBRANCH   5  17
ENDBRANCH   4   5
ENDBRANCH   3   4
ENDBRANCH   2   3
BRANCH   2  23
HETATM   23  C   UNL     1      -8.236   9.787  70.588  1.00  0.00     0.095 A  
HETATM   24  F   UNL     1      -8.811   6.877  73.529  1.00  0.00    -0.134 F  
HETATM   25  C   UNL     1      -8.454   8.808  71.569  1.00  0.00    -0.230 A  
HETATM   26  F   UNL     1      -9.697   8.494  66.749  1.00  0.00    -0.208 F  
HETATM   27  C   UNL     1      -9.341   7.742  71.350  1.00  0.00    -0.165 A  
HETATM   28  C   UNL     1     -10.025   7.668  70.126  1.00  0.00    -0.186 A  
HETATM   29  F   UNL     1     -11.355   9.633  67.576  1.00  0.00    -0.278 F  
HETATM   30  C   UNL     1      -9.546   6.675  72.400  1.00  0.00    -0.147 C  
HETATM   31  F   UNL     1     -11.360   7.462  67.694  1.00  0.00    -0.132 F  
HETATM   32  C   UNL     1     -10.555   8.557  67.805  1.00  0.00    -0.175 C  
HETATM   33  F   UNL     1     -10.841   6.586  72.807  1.00  0.00    -0.219 F  
HETATM   34  F   UNL     1      -9.206   5.437  71.951  1.00  0.00    -0.138 F  
HETATM   35  C   UNL     1      -8.935   9.691  69.373  1.00  0.00    -0.186 A  
HETATM   36  C   UNL     1      -9.832   8.638  69.130  1.00  0.00    -0.185 A  
ENDBRANCH   2  23
TORSDOF 5
ENDMDL
MODEL      313
REMARK 921   NORMALIZED FREE ENERGY PREDICTED BY IDOCK:    1.46 KCAL/MOL
REMARK 922        TOTAL FREE ENERGY PREDICTED BY IDOCK:   -0.97 KCAL/MOL
REMARK 923 INTER-LIGAND FREE ENERGY PREDICTED BY IDOCK:   -0.23 KCAL/MOL
REMARK 924 INTRA-LIGAND FREE ENERGY PREDICTED BY IDOCK:   -0.74 KCAL/MOL
REMARK 927      BINDING AFFINITY PREDICTED BY RF-SCORE:    0.00 PKD
ROOT
HETATM    1  C   UNL     1     -11.791   5.927  70.801  1.00  0.00     0.330 C  
HETATM    2  C   UNL     1     -10.781   6.580  69.860  1.00  0.00    -0.257 C  
ENDROOT
BRANCH   2   3
HETATM    3  O   UNL     1     -10.510   7.927  70.247  1.00  0.00    -0.216 OA 
BRANCH   3   4
HETATM    4  C   UNL     1     -11.633   8.811  70.116  1.00  0.00     0.065 C  
BRANCH   4   5
HETATM    5  C   UNL     1     -11.207  10.078  69.294  1.00  0.00    -0.166 C  
HETATM    6  C   UNL     1     -12.548  12.285  70.819  1.00  0.00    -0.213 C  
HETATM    7  C   UNL     1     -13.338  11.411  69.833  1.00  0.00     1.341 C  
HETATM    8  N   UNL     1     -13.392  12.628  71.942  1.00  0.00    -0.451 NA 
HETATM    9  H   UNL     1     -10.037  11.762  69.660  1.00  0.00     0.000 HD 
HETATM   10  C   UNL     1     -12.447  10.821  68.737  1.00  0.00     0.606 C  
HETATM   11  O   UNL     1     -13.776  14.403  73.345  1.00  0.00    -0.245 OA 
HETATM   12  C   UNL     1     -11.270  11.544  71.295  1.00  0.00     2.418 C  
HETATM   13  C   UNL     1     -12.200  13.659  70.215  1.00  0.00    -0.423 C  
HETATM   14  C   UNL     1     -13.285  13.939  72.332  1.00  0.00    -0.488 C  
HETATM   15  C   UNL     1     -12.455  14.680  71.325  1.00  0.00    -0.408 C  
HETATM   16  N   UNL     1     -10.462  11.006  70.196  1.00  0.00     0.318 NA 
BRANCH   5  17
HETATM   17  C   UNL     1     -10.312   9.688  68.086  1.00  0.00    -0.250 A  
HETATM   18  C   UNL     1      -8.714   8.956  65.865  1.00  0.00    -0.197 A  
HETATM   19  C   UNL     1      -9.731   8.113  66.302  1.00  0.00    -0.223 A  
HETATM   20  C   UNL     1     -10.516   8.474  67.403  1.00  0.00    -0.351 A  
HETATM   21  C   UNL     1      -9.251  10.501  67.645  1.00  0.00    -0.153 A  
HETATM   22  C   UNL     1      -8.469  10.144  66.540  1.00  0.00    -0.128 A  
ENDBRANCH   5  17
ENDBRANCH   4   5
ENDBRANCH   3   4
ENDBRANCH   2   3
BRANCH   2  23
HETATM   23  C   UNL     1      -9.481   5.790  69.893  1.00  0.00    -0.185 A  
HETATM   24  F   UNL     1      -9.109   2.443  67.422  1.00  0.00    -0.142 F  
HETATM   25  C   UNL     1      -9.330   4.671  69.061  1.00  0.00    -0.203 A  
HETATM   26  F   UNL     1      -6.663   5.699  73.148  1.00  0.00    -0.065 F  
HETATM   27  C   UNL     1      -8.183   3.865  69.124  1.00  0.00    -0.072 A  
HETATM   28  C   UNL     1      -7.167   4.199  70.035  1.00  0.00    -0.045 A  
HETATM   29  F   UNL     1      -5.666   6.904  71.636  1.00  0.00    -0.034 F  
HETATM   30  C   UNL     1      -8.043   2.643  68.247  1.00  0.00    -0.057 C  
HETATM   31  F   UNL     1      -5.158   4.803  71.861  1.00  0.00    -0.003 F  
HETATM   32  C   UNL     1      -6.205   5.676  71.865  1.00  0.00    -0.039 C  
HETATM   33  F   UNL     1      -6.950   2.703  67.439  1.00  0.00    -0.042 F  
HETATM   34  F   UNL     1      -7.914   1.499  68.971  1.00  0.00    -0.045 F  
HETATM   35  C   UNL     1      -8.449   6.105  70.793  1.00  0.00    -0.131 A  
HETATM   36  C   UNL     1      -7.287   5.318  70.873  1.00  0.00    -0.074 A  
ENDBRANCH   2  23
TORSDOF 5
ENDMDL
MODEL      314
REMARK 921   NORMALIZED FREE ENERGY PREDICTED BY IDOCK:    1.65 KCAL/MOL
REMARK 922        TOTAL FREE ENERGY PREDICTED BY IDOCK:   -0.73 KCAL/MOL
REMARK 923 INTER-LIGAND FREE ENERGY PREDICTED BY IDOCK:   -1.02 KCAL/MOL
REMARK 924 INTRA-LIGAND FREE ENERGY PREDICTED BY IDOCK:    0.29 KCAL/MOL
REMARK 927      BINDING AFFINITY PREDICTED BY RF-SCORE:    0.00 PKD
ROOT
HETATM    1  C   UNL     1      -9.551  12.488  66.135  1.00  0.00    -0.230 C  
HETATM    2  C   UNL     1      -8.950  12.394  67.536  1.00  0.00    -0.183 C  
ENDROOT
BRANCH   2   3
HETATM    3  O   UNL     1      -7.919  11.409  67.591  1.00  0.00    -0.115 OA 
BRANCH   3   4
HETATM    4  C   UNL     1      -8.123  10.298  66.705  1.00  0.00    -0.119 C  
BRANCH   4   5
HETATM    5  C   UNL     1      -8.129   8.964  67.532  1.00  0.00    -0.109 C  
HETATM    6  C   UNL     1      -6.509   9.723  69.940  1.00  0.00    -0.062 C  
HETATM    7  C   UNL     1      -5.829   9.369  68.607  1.00  0.00    -0.040 C  
HETATM    8  N   UNL     1      -5.758  10.766  70.601  1.00  0.00    -0.113 NA 
HETATM    9  H   UNL     1      -8.904   8.358  69.369  1.00  0.00     0.000 HD 
HETATM   10  C   UNL     1      -6.687   8.439  67.746  1.00  0.00    -0.066 C  
HETATM   11  O   UNL     1      -5.145  11.382  72.725  1.00  0.00    -0.331 OA 
HETATM   12  C   UNL     1      -7.975  10.167  69.697  1.00  0.00    -0.173 C  
HETATM   13  C   UNL     1      -6.441   8.556  70.944  1.00  0.00    -0.042 C  
HETATM   14  C   UNL     1      -5.600  10.562  71.949  1.00  0.00     0.318 C  
HETATM   15  C   UNL     1      -6.095   9.188  72.294  1.00  0.00     0.036 C  
HETATM   16  N   UNL     1      -8.741   9.231  68.867  1.00  0.00    -0.130 NA 
BRANCH   5  17
HETATM   17  C   UNL     1      -8.930   7.854  66.799  1.00  0.00    -0.169 A  
HETATM   18  C   UNL     1     -10.356   5.802  65.466  1.00  0.00     0.730 A  
HETATM   19  C   UNL     1      -8.986   5.945  65.265  1.00  0.00     0.031 A  
HETATM   20  C   UNL     1      -8.285   6.963  65.921  1.00  0.00    -0.129 A  
HETATM   21  C   UNL     1     -10.322   7.707  66.952  1.00  0.00    -0.388 A  
HETATM   22  C   UNL     1     -11.024   6.686  66.302  1.00  0.00     0.697 A  
ENDBRANCH   5  17
ENDBRANCH   4   5
ENDBRANCH   3   4
ENDBRANCH   2   3
BRANCH   2  23
HETATM   23  C   UNL     1      -8.359  13.743  67.919  1.00  0.00    -0.172 A  
HETATM   24  F   UNL     1      -8.669  16.906  65.208  1.00  0.00     0.312 F  
HETATM   25  C   UNL     1      -8.464  14.822  67.029  1.00  0.00    -0.250 A  
HETATM   26  F   UNL     1      -5.224  14.402  70.798  1.00  0.00    -0.102 F  
HETATM   27  C   UNL     1      -7.858  16.057  67.306  1.00  0.00    -0.212 A  
HETATM   28  C   UNL     1      -7.141  16.208  68.504  1.00  0.00    -0.139 A  
HETATM   29  F   UNL     1      -7.013  15.117  71.809  1.00  0.00     1.061 F  
HETATM   30  C   UNL     1      -7.950  17.204  66.327  1.00  0.00    -0.304 C  
HETATM   31  F   UNL     1      -5.672  16.529  70.844  1.00  0.00    -0.127 F  
HETATM   32  C   UNL     1      -6.245  15.300  70.701  1.00  0.00     0.104 C  
HETATM   33  F   UNL     1      -8.537  18.306  66.867  1.00  0.00    -0.236 F  
HETATM   34  F   UNL     1      -6.727  17.606  65.885  1.00  0.00    -0.259 F  
HETATM   35  C   UNL     1      -7.639  13.921  69.112  1.00  0.00     0.064 A  
HETATM   36  C   UNL     1      -7.026  15.148  69.417  1.00  0.00    -0.178 A  
ENDBRANCH   2  23
TORSDOF 5
ENDMDL
MODEL      315
REMARK 921   NORMALIZED FREE ENERGY PREDICTED BY IDOCK:    1.94 KCAL/MOL
REMARK 922        TOTAL FREE ENERGY PREDICTED BY IDOCK:   -0.35 KCAL/MOL
REMARK 923 INTER-LIGAND FREE ENERGY PREDICTED BY IDOCK:   -7.21 KCAL/MOL
REMARK 924 INTRA-LIGAND FREE ENERGY PREDICTED BY IDOCK:    6.85 KCAL/MOL
REMARK 927      BINDING AFFINITY PREDICTED BY RF-SCORE:    0.00 PKD
ROOT
HETATM    1  C   UNL     1     -11.273  10.975  70.196  1.00  0.00    -0.264 C  
HETATM    2  C   UNL     1     -10.189  10.839  69.128  1.00  0.00    -0.211 C  
ENDROOT
BRANCH   2   3
HETATM    3  O   UNL     1      -9.085  11.701  69.401  1.00  0.00     0.386 OA 
BRANCH   3   4
HETATM    4  C   UNL     1      -9.136  12.957  68.706  1.00  0.00     0.179 C  
BRANCH   4   5
HETATM    5  C   UNL     1     -10.627  13.301  68.359  1.00  0.00    -0.252 C  
HETATM    6  C   UNL     1     -10.773  12.564  65.455  1.00  0.00    -0.271 C  
HETATM    7  C   UNL     1     -10.146  13.894  65.905  1.00  0.00    -0.331 C  
HETATM    8  N   UNL     1     -10.055  12.056  64.308  1.00  0.00    -0.297 NA 
HETATM    9  H   UNL     1     -12.309  12.212  67.788  1.00  0.00     0.000 HD 
HETATM   10  C   UNL     1     -10.704  14.375  67.246  1.00  0.00    -0.285 C  
HETATM   11  O   UNL     1     -10.482  10.940  62.349  1.00  0.00     0.367 OA 
HETATM   12  C   UNL     1     -10.754  11.537  66.618  1.00  0.00    -0.268 C  
HETATM   13  C   UNL     1     -12.202  12.761  64.912  1.00  0.00    -0.519 C  
HETATM   14  C   UNL     1     -10.870  11.558  63.324  1.00  0.00    -0.264 C  
HETATM   15  C   UNL     1     -12.296  11.883  63.662  1.00  0.00    -0.591 C  
HETATM   16  N   UNL     1     -11.304  12.062  67.872  1.00  0.00    -0.282 NA 
BRANCH   5  17
HETATM   17  C   UNL     1     -11.377  13.856  69.600  1.00  0.00    -0.259 A  
HETATM   18  C   UNL     1     -12.738  14.831  71.885  1.00  0.00    -0.396 A  
HETATM   19  C   UNL     1     -12.832  13.487  71.537  1.00  0.00    -0.440 A  
HETATM   20  C   UNL     1     -12.163  13.009  70.404  1.00  0.00    -0.386 A  
HETATM   21  C   UNL     1     -11.333  15.217  69.957  1.00  0.00    -0.311 A  
HETATM   22  C   UNL     1     -11.997  15.696  71.093  1.00  0.00    -0.457 A  
ENDBRANCH   5  17
ENDBRANCH   4   5
ENDBRANCH   3   4
ENDBRANCH   2   3
BRANCH   2  23
HETATM   23  C   UNL     1      -9.692   9.402  69.098  1.00  0.00    -0.165 A  
HETATM   24  F   UNL     1      -6.330   8.494  66.791  1.00  0.00    -0.051 F  
HETATM   25  C   UNL     1      -8.557   9.078  68.340  1.00  0.00    -0.130 A  
HETATM   26  F   UNL     1     -12.046   5.896  69.948  1.00  0.00    -0.043 F  
HETATM   27  C   UNL     1      -8.118   7.751  68.217  1.00  0.00    -0.124 A  
HETATM   28  C   UNL     1      -8.830   6.735  68.875  1.00  0.00    -0.128 A  
HETATM   29  F   UNL     1     -10.768   6.098  71.697  1.00  0.00    -0.246 F  
HETATM   30  C   UNL     1      -6.912   7.408  67.373  1.00  0.00    -0.079 C  
HETATM   31  F   UNL     1     -10.245   4.692  70.124  1.00  0.00    -0.300 F  
HETATM   32  C   UNL     1     -10.743   5.941  70.346  1.00  0.00    -0.303 C  
HETATM   33  F   UNL     1      -5.931   6.796  68.089  1.00  0.00    -0.025 F  
HETATM   34  F   UNL     1      -7.219   6.560  66.353  1.00  0.00    -0.066 F  
HETATM   35  C   UNL     1     -10.385   8.368  69.749  1.00  0.00    -0.216 A  
HETATM   36  C   UNL     1      -9.965   7.031  69.646  1.00  0.00    -0.177 A  
ENDBRANCH   2  23
TORSDOF 5
ENDMDL
MODEL      316
REMARK 921   NORMALIZED FREE ENERGY PREDICTED BY IDOCK:    1.97 KCAL/MOL
REMARK 922        TOTAL FREE ENERGY PREDICTED BY IDOCK:   -0.32 KCAL/MOL
REMARK 923 INTER-LIGAND FREE ENERGY PREDICTED BY IDOCK:   -7.22 KCAL/MOL
REMARK 924 INTRA-LIGAND FREE ENERGY PREDICTED BY IDOCK:    6.90 KCAL/MOL
REMARK 927      BINDING AFFINITY PREDICTED BY RF-SCORE:    0.00 PKD
ROOT
HETATM    1  C   UNL     1     -11.275  10.975  70.193  1.00  0.00    -0.264 C  
HETATM    2  C   UNL     1     -10.191  10.840  69.125  1.00  0.00    -0.211 C  
ENDROOT
BRANCH   2   3
HETATM    3  O   UNL     1      -9.086  11.701  69.398  1.00  0.00     0.386 OA 
BRANCH   3   4
HETATM    4  C   UNL     1      -9.131  12.952  68.696  1.00  0.00     0.048 C  
BRANCH   4   5
HETATM    5  C   UNL     1     -10.620  13.296  68.337  1.00  0.00    -0.252 C  
HETATM    6  C   UNL     1     -10.746  12.548  65.435  1.00  0.00    -0.280 C  
HETATM    7  C   UNL     1     -10.121  13.879  65.884  1.00  0.00    -0.331 C  
HETATM    8  N   UNL     1     -10.020  12.035  64.295  1.00  0.00    -0.265 NA 
HETATM    9  H   UNL     1     -12.299  12.207  67.759  1.00  0.00     0.000 HD 
HETATM   10  C   UNL     1     -10.688  14.366  67.219  1.00  0.00    -0.285 C  
HETATM   11  O   UNL     1     -10.435  10.911  62.338  1.00  0.00     0.367 OA 
HETATM   12  C   UNL     1     -10.737  11.526  66.602  1.00  0.00    -0.268 C  
HETATM   13  C   UNL     1     -12.171  12.744  64.881  1.00  0.00    -0.519 C  
HETATM   14  C   UNL     1     -10.830  11.534  63.307  1.00  0.00    -0.264 C  
HETATM   15  C   UNL     1     -12.257  11.862  63.634  1.00  0.00    -0.586 C  
HETATM   16  N   UNL     1     -11.294  12.056  67.851  1.00  0.00    -0.282 NA 
BRANCH   5  17
HETATM   17  C   UNL     1     -11.378  13.857  69.571  1.00  0.00    -0.293 A  
HETATM   18  C   UNL     1     -12.754  14.842  71.843  1.00  0.00    -0.395 A  
HETATM   19  C   UNL     1     -12.849  13.498  71.497  1.00  0.00    -0.440 A  
HETATM   20  C   UNL     1     -12.173  13.015  70.371  1.00  0.00    -0.386 A  
HETATM   21  C   UNL     1     -11.333  15.219  69.924  1.00  0.00    -0.308 A  
HETATM   22  C   UNL     1     -12.003  15.703  71.053  1.00  0.00    -0.445 A  
ENDBRANCH   5  17
ENDBRANCH   4   5
ENDBRANCH   3   4
ENDBRANCH   2   3
BRANCH   2  23
HETATM   23  C   UNL     1      -9.695   9.402  69.094  1.00  0.00    -0.165 A  
HETATM   24  F   UNL     1     -10.339   6.991  72.445  1.00  0.00    -0.197 F  
HETATM   25  C   UNL     1      -9.913   8.572  70.204  1.00  0.00    -0.187 A  
HETATM   26  F   UNL     1      -6.530   7.873  66.606  1.00  0.00    -0.049 F  
HETATM   27  C   UNL     1      -9.396   7.267  70.251  1.00  0.00    -0.158 A  
HETATM   28  C   UNL     1      -8.655   6.791  69.158  1.00  0.00    -0.131 A  
HETATM   29  F   UNL     1      -8.336   7.065  65.700  1.00  0.00    -0.115 F  
HETATM   30  C   UNL     1      -9.609   6.392  71.463  1.00  0.00    -0.158 C  
HETATM   31  F   UNL     1      -7.140   5.831  67.031  1.00  0.00    -0.063 F  
HETATM   32  C   UNL     1      -7.620   7.094  66.857  1.00  0.00    -0.101 C  
HETATM   33  F   UNL     1     -10.262   5.236  71.164  1.00  0.00    -0.241 F  
HETATM   34  F   UNL     1      -8.436   6.022  72.046  1.00  0.00    -0.118 F  
HETATM   35  C   UNL     1      -8.953   8.900  68.013  1.00  0.00    -0.140 A  
HETATM   36  C   UNL     1      -8.428   7.597  68.031  1.00  0.00    -0.123 A  
ENDBRANCH   2  23
TORSDOF 5
ENDMDL
MODEL      317
REMARK 921   NORMALIZED FREE ENERGY PREDICTED BY IDOCK:    2.39 KCAL/MOL
REMARK 922        TOTAL FREE ENERGY PREDICTED BY IDOCK:    0.22 KCAL/MOL
REMARK 923 INTER-LIGAND FREE ENERGY PREDICTED BY IDOCK:    0.55 KCAL/MOL
REMARK 924 INTRA-LIGAND FREE ENERGY PREDICTED BY IDOCK:   -0.33 KCAL/MOL
REMARK 927      BINDING AFFINITY PREDICTED BY RF-SCORE:    0.00 PKD
ROOT
HETATM    1  C   UNL     1      -5.890  10.244  71.254  1.00  0.00     0.052 C  
HETATM    2  C   UNL     1      -7.189  10.989  70.953  1.00  0.00     2.287 C  
ENDROOT
BRANCH   2   3
HETATM    3  O   UNL     1      -7.061  11.799  69.785  1.00  0.00     0.065 OA 
BRANCH   3   4
HETATM    4  C   UNL     1      -6.885  11.053  68.572  1.00  0.00    -0.064 C  
BRANCH   4   5
HETATM    5  C   UNL     1      -6.967  12.027  67.343  1.00  0.00    -0.139 C  
HETATM    6  C   UNL     1      -6.225  10.218  65.069  1.00  0.00    -0.125 C  
HETATM    7  C   UNL     1      -5.149  10.817  65.989  1.00  0.00    -0.102 C  
HETATM    8  N   UNL     1      -5.833   8.883  64.675  1.00  0.00    -0.063 NA 
HETATM    9  H   UNL     1      -8.163  12.178  65.644  1.00  0.00     0.000 HD 
HETATM   10  C   UNL     1      -5.598  12.133  66.628  1.00  0.00     0.261 C  
HETATM   11  O   UNL     1      -5.947   7.513  62.837  1.00  0.00    -0.049 OA 
HETATM   12  C   UNL     1      -7.600  10.201  65.786  1.00  0.00    -0.134 C  
HETATM   13  C   UNL     1      -6.310  10.966  63.724  1.00  0.00     0.459 C  
HETATM   14  C   UNL     1      -6.051   8.615  63.347  1.00  0.00    -0.081 C  
HETATM   15  C   UNL     1      -6.452   9.883  62.653  1.00  0.00    -0.114 C  
HETATM   16  N   UNL     1      -7.970  11.493  66.375  1.00  0.00    -0.101 NA 
BRANCH   5  17
HETATM   17  C   UNL     1      -7.377  13.457  67.789  1.00  0.00    -0.158 A  
HETATM   18  C   UNL     1      -8.096  16.082  68.573  1.00  0.00    -0.169 A  
HETATM   19  C   UNL     1      -6.783  15.796  68.211  1.00  0.00    -0.123 A  
HETATM   20  C   UNL     1      -6.429  14.497  67.829  1.00  0.00    -0.181 A  
HETATM   21  C   UNL     1      -8.688  13.769  68.198  1.00  0.00    -0.183 A  
HETATM   22  C   UNL     1      -9.045  15.068  68.575  1.00  0.00    -0.188 A  
ENDBRANCH   5  17
ENDBRANCH   4   5
ENDBRANCH   3   4
ENDBRANCH   2   3
BRANCH   2  23
HETATM   23  C   UNL     1      -8.305   9.980  70.729  1.00  0.00     0.766 A  
HETATM   24  F   UNL     1     -10.673  10.342  67.306  1.00  0.00    -0.264 F  
HETATM   25  C   UNL     1      -9.103  10.076  69.579  1.00  0.00    -0.236 A  
HETATM   26  F   UNL     1     -10.247   7.639  73.778  1.00  0.00    -0.373 F  
HETATM   27  C   UNL     1     -10.197   9.219  69.378  1.00  0.00    -0.214 A  
HETATM   28  C   UNL     1     -10.485   8.245  70.347  1.00  0.00    -0.223 A  
HETATM   29  F   UNL     1      -8.995   6.196  72.738  1.00  0.00    -0.128 F  
HETATM   30  C   UNL     1     -11.070   9.350  68.152  1.00  0.00     0.059 C  
HETATM   31  F   UNL     1     -11.113   6.336  72.271  1.00  0.00    -0.252 F  
HETATM   32  C   UNL     1     -10.011   7.084  72.557  1.00  0.00    -0.170 C  
HETATM   33  F   UNL     1     -11.097   8.212  67.406  1.00  0.00    -0.262 F  
HETATM   34  F   UNL     1     -12.365   9.627  68.466  1.00  0.00     0.977 F  
HETATM   35  C   UNL     1      -8.613   8.995  71.682  1.00  0.00    -0.048 A  
HETATM   36  C   UNL     1      -9.698   8.121  71.503  1.00  0.00    -0.230 A  
ENDBRANCH   2  23
TORSDOF 5
ENDMDL
MODEL      318
REMARK 921   NORMALIZED FREE ENERGY PREDICTED BY IDOCK:    3.05 KCAL/MOL
REMARK 922        TOTAL FREE ENERGY PREDICTED BY IDOCK:    1.08 KCAL/MOL
REMARK 923 INTER-LIGAND FREE ENERGY PREDICTED BY IDOCK:   -1.71 KCAL/MOL
REMARK 924 INTRA-LIGAND FREE ENERGY PREDICTED BY IDOCK:    2.80 KCAL/MOL
REMARK 927      BINDING AFFINITY PREDICTED BY RF-SCORE:    0.00 PKD
ROOT
HETATM    1  C   UNL     1     -10.456   9.371  65.229  1.00  0.00     1.183 C  
HETATM    2  C   UNL     1      -9.516   9.316  66.432  1.00  0.00    -0.218 C  
ENDROOT
BRANCH   2   3
HETATM    3  O   UNL     1      -8.748  10.513  66.542  1.00  0.00    -0.134 OA 
BRANCH   3   4
HETATM    4  C   UNL     1      -7.354  10.344  66.244  1.00  0.00    -0.128 C  
BRANCH   4   5
HETATM    5  C   UNL     1      -6.913   8.885  66.618  1.00  0.00    -0.080 C  
HETATM    6  C   UNL     1      -6.126   9.194  69.496  1.00  0.00    -0.036 C  
HETATM    7  C   UNL     1      -5.179   9.625  68.364  1.00  0.00    -0.033 C  
HETATM    8  N   UNL     1      -5.988  10.103  70.612  1.00  0.00    -0.094 NA 
HETATM    9  H   UNL     1      -7.613   7.406  67.909  1.00  0.00     0.000 HD 
HETATM   10  C   UNL     1      -5.432   8.851  67.069  1.00  0.00    -0.041 C  
HETATM   11  O   UNL     1      -6.003  10.048  72.906  1.00  0.00    -0.052 OA 
HETATM   12  C   UNL     1      -7.592   9.160  68.989  1.00  0.00    -0.074 C  
HETATM   13  C   UNL     1      -5.716   7.837  70.100  1.00  0.00    -0.023 C  
HETATM   14  C   UNL     1      -5.952   9.476  71.832  1.00  0.00     0.075 C  
HETATM   15  C   UNL     1      -5.865   7.994  71.615  1.00  0.00    -0.035 C  
HETATM   16  N   UNL     1      -7.764   8.402  67.746  1.00  0.00    -0.102 NA 
BRANCH   5  17
HETATM   17  C   UNL     1      -7.057   7.928  65.404  1.00  0.00    -0.060 A  
HETATM   18  C   UNL     1      -7.281   6.196  63.173  1.00  0.00    -0.056 A  
HETATM   19  C   UNL     1      -6.678   7.443  63.033  1.00  0.00    -0.058 A  
HETATM   20  C   UNL     1      -6.573   8.298  64.135  1.00  0.00    -0.067 A  
HETATM   21  C   UNL     1      -7.696   6.677  65.505  1.00  0.00    -0.097 A  
HETATM   22  C   UNL     1      -7.796   5.818  64.406  1.00  0.00    -0.110 A  
ENDBRANCH   5  17
ENDBRANCH   4   5
ENDBRANCH   3   4
ENDBRANCH   2   3
BRANCH   2  23
HETATM   23  C   UNL     1     -10.337   9.143  67.701  1.00  0.00    -0.314 A  
HETATM   24  F   UNL     1     -11.942  12.541  69.525  1.00  0.00    -0.327 F  
HETATM   25  C   UNL     1     -10.896  10.270  68.322  1.00  0.00    -0.300 A  
HETATM   26  F   UNL     1     -10.098   5.822  70.433  1.00  0.00    -0.210 F  
HETATM   27  C   UNL     1     -11.586  10.164  69.540  1.00  0.00    -0.181 A  
HETATM   28  C   UNL     1     -11.721   8.900  70.137  1.00  0.00     0.120 A  
HETATM   29  F   UNL     1     -11.986   5.506  69.399  1.00  0.00     0.788 F  
HETATM   30  C   UNL     1     -12.157  11.387  70.217  1.00  0.00    -0.374 C  
HETATM   31  F   UNL     1     -11.965   6.419  71.372  1.00  0.00    -0.355 F  
HETATM   32  C   UNL     1     -11.309   6.393  70.178  1.00  0.00    -0.420 C  
HETATM   33  F   UNL     1     -13.503  11.304  70.396  1.00  0.00     0.079 F  
HETATM   34  F   UNL     1     -11.625  11.591  71.453  1.00  0.00     0.135 F  
HETATM   35  C   UNL     1     -10.489   7.889  68.317  1.00  0.00    -0.212 A  
HETATM   36  C   UNL     1     -11.179   7.754  69.534  1.00  0.00     0.097 A  
ENDBRANCH   2  23
TORSDOF 5
ENDMDL
MODEL      319
REMARK 921   NORMALIZED FREE ENERGY PREDICTED BY IDOCK:    3.12 KCAL/MOL
REMARK 922        TOTAL FREE ENERGY PREDICTED BY IDOCK:    1.17 KCAL/MOL
REMARK 923 INTER-LIGAND FREE ENERGY PREDICTED BY IDOCK:    1.83 KCAL/MOL
REMARK 924 INTRA-LIGAND FREE ENERGY PREDICTED BY IDOCK:   -0.66 KCAL/MOL
REMARK 927      BINDING AFFINITY PREDICTED BY RF-SCORE:    0.00 PKD
ROOT
HETATM    1  C   UNL     1      -5.890  10.244  71.254  1.00  0.00     0.052 C  
HETATM    2  C   UNL     1      -7.191  10.987  70.957  1.00  0.00     2.683 C  
ENDROOT
BRANCH   2   3
HETATM    3  O   UNL     1      -7.064  11.808  69.796  1.00  0.00     0.065 OA 
BRANCH   3   4
HETATM    4  C   UNL     1      -6.882  11.072  68.576  1.00  0.00    -0.064 C  
BRANCH   4   5
HETATM    5  C   UNL     1      -6.965  12.056  67.356  1.00  0.00    -0.139 C  
HETATM    6  C   UNL     1      -6.343  10.240  65.053  1.00  0.00    -0.123 C  
HETATM    7  C   UNL     1      -5.224  10.797  65.946  1.00  0.00    -0.115 C  
HETATM    8  N   UNL     1      -6.006   8.895  64.641  1.00  0.00    -0.064 NA 
HETATM    9  H   UNL     1      -8.200  12.257  65.690  1.00  0.00     0.000 HD 
HETATM   10  C   UNL     1      -5.612  12.123  66.605  1.00  0.00     0.261 C  
HETATM   11  O   UNL     1      -6.213   7.542  62.799  1.00  0.00    -0.057 OA 
HETATM   12  C   UNL     1      -7.699  10.262  65.806  1.00  0.00    -0.143 C  
HETATM   13  C   UNL     1      -6.439  10.999  63.715  1.00  0.00     0.751 C  
HETATM   14  C   UNL     1      -6.267   8.643  63.318  1.00  0.00    -0.086 C  
HETATM   15  C   UNL     1      -6.646   9.928  62.642  1.00  0.00    -0.114 C  
HETATM   16  N   UNL     1      -8.010  11.562  66.412  1.00  0.00    -0.101 NA 
BRANCH   5  17
HETATM   17  C   UNL     1      -7.316  13.496  67.821  1.00  0.00    -0.166 A  
HETATM   18  C   UNL     1      -7.928  16.138  68.639  1.00  0.00    -0.201 A  
HETATM   19  C   UNL     1      -6.635  15.812  68.240  1.00  0.00    -0.124 A  
HETATM   20  C   UNL     1      -6.334  14.505  67.841  1.00  0.00    -0.173 A  
HETATM   21  C   UNL     1      -8.604  13.848  68.267  1.00  0.00    -0.177 A  
HETATM   22  C   UNL     1      -8.909  15.156  68.661  1.00  0.00    -0.186 A  
ENDBRANCH   5  17
ENDBRANCH   4   5
ENDBRANCH   3   4
ENDBRANCH   2   3
BRANCH   2  23
HETATM   23  C   UNL     1      -8.303   9.976  70.722  1.00  0.00     0.766 A  
HETATM   24  F   UNL     1      -7.381   6.411  68.747  1.00  0.00    -0.076 F  
HETATM   25  C   UNL     1      -8.012   8.767  70.073  1.00  0.00    -0.108 A  
HETATM   26  F   UNL     1     -12.519  10.843  70.576  1.00  0.00    -0.344 F  
HETATM   27  C   UNL     1      -9.024   7.846  69.759  1.00  0.00    -0.146 A  
HETATM   28  C   UNL     1     -10.349   8.146  70.114  1.00  0.00    -0.215 A  
HETATM   29  F   UNL     1     -12.265   9.830  72.484  1.00  0.00    -0.257 F  
HETATM   30  C   UNL     1      -8.706   6.561  69.032  1.00  0.00    -0.128 C  
HETATM   31  F   UNL     1     -12.992   8.730  70.757  1.00  0.00    -0.123 F  
HETATM   32  C   UNL     1     -12.094   9.679  71.143  1.00  0.00    -0.362 C  
HETATM   33  F   UNL     1      -9.063   5.457  69.742  1.00  0.00    -0.121 F  
HETATM   34  F   UNL     1      -9.354   6.468  67.839  1.00  0.00    -0.118 F  
HETATM   35  C   UNL     1      -9.636  10.250  71.068  1.00  0.00     1.658 A  
HETATM   36  C   UNL     1     -10.668   9.344  70.771  1.00  0.00    -0.373 A  
ENDBRANCH   2  23
TORSDOF 5
ENDMDL
MODEL      320
REMARK 921   NORMALIZED FREE ENERGY PREDICTED BY IDOCK:    4.00 KCAL/MOL
REMARK 922        TOTAL FREE ENERGY PREDICTED BY IDOCK:    2.30 KCAL/MOL
REMARK 923 INTER-LIGAND FREE ENERGY PREDICTED BY IDOCK:   -1.53 KCAL/MOL
REMARK 924 INTRA-LIGAND FREE ENERGY PREDICTED BY IDOCK:    3.83 KCAL/MOL
REMARK 927      BINDING AFFINITY PREDICTED BY RF-SCORE:    0.00 PKD
ROOT
HETATM    1  C   UNL     1     -11.715  12.097  68.262  1.00  0.00    -0.401 C  
HETATM    2  C   UNL     1     -11.311  13.145  67.227  1.00  0.00    -0.306 C  
ENDROOT
BRANCH   2   3
HETATM    3  O   UNL     1     -11.344  14.459  67.784  1.00  0.00    -0.283 OA 
BRANCH   3   4
HETATM    4  C   UNL     1     -10.052  15.074  67.909  1.00  0.00    -0.226 C  
BRANCH   4   5
HETATM    5  C   UNL     1      -9.962  15.823  69.285  1.00  0.00    -0.262 C  
HETATM    6  C   UNL     1      -7.683  17.715  68.812  1.00  0.00    -0.246 C  
HETATM    7  C   UNL     1      -7.429  16.235  69.139  1.00  0.00    -0.218 C  
HETATM    8  N   UNL     1      -6.683  18.180  67.876  1.00  0.00    -0.200 NA 
HETATM    9  H   UNL     1     -10.263  17.779  69.935  1.00  0.00     0.000 HD 
HETATM   10  C   UNL     1      -8.574  15.612  69.940  1.00  0.00     0.238 C  
HETATM   11  O   UNL     1      -5.460  20.073  67.444  1.00  0.00    -0.171 OA 
HETATM   12  C   UNL     1      -9.110  17.903  68.233  1.00  0.00    -0.278 C  
HETATM   13  C   UNL     1      -7.458  18.619  70.039  1.00  0.00     0.950 C  
HETATM   14  C   UNL     1      -6.186  19.423  68.175  1.00  0.00    -0.218 C  
HETATM   15  C   UNL     1      -6.699  19.843  69.521  1.00  0.00    -0.347 C  
HETATM   16  N   UNL     1     -10.159  17.284  69.050  1.00  0.00    -0.317 NA 
BRANCH   5  17
HETATM   17  C   UNL     1     -11.035  15.301  70.278  1.00  0.00    -0.313 A  
HETATM   18  C   UNL     1     -13.020  14.380  72.077  1.00  0.00    -0.432 A  
HETATM   19  C   UNL     1     -12.874  15.743  71.836  1.00  0.00    -0.514 A  
HETATM   20  C   UNL     1     -11.889  16.196  70.951  1.00  0.00    -0.318 A  
HETATM   21  C   UNL     1     -11.182  13.932  70.573  1.00  0.00     0.314 A  
HETATM   22  C   UNL     1     -12.170  13.477  71.453  1.00  0.00    -0.128 A  
ENDBRANCH   5  17
ENDBRANCH   4   5
ENDBRANCH   3   4
ENDBRANCH   2   3
BRANCH   2  23
HETATM   23  C   UNL     1      -9.899  12.853  66.744  1.00  0.00    -0.241 A  
HETATM   24  F   UNL     1      -9.239   9.429  64.444  1.00  0.00    -0.269 F  
HETATM   25  C   UNL     1      -9.658  11.716  65.959  1.00  0.00    -0.249 A  
HETATM   26  F   UNL     1      -6.262  14.301  68.540  1.00  0.00    -0.075 F  
HETATM   27  C   UNL     1      -8.357  11.364  65.566  1.00  0.00     0.234 A  
HETATM   28  C   UNL     1      -7.284  12.177  65.963  1.00  0.00     1.315 A  
HETATM   29  F   UNL     1      -6.438  15.471  66.715  1.00  0.00    -0.010 F  
HETATM   30  C   UNL     1      -8.104  10.119  64.747  1.00  0.00    -0.153 C  
HETATM   31  F   UNL     1      -5.128  13.737  66.774  1.00  0.00     0.676 F  
HETATM   32  C   UNL     1      -6.344  14.197  67.184  1.00  0.00     0.722 C  
HETATM   33  F   UNL     1      -7.503  10.391  63.557  1.00  0.00    -0.148 F  
HETATM   34  F   UNL     1      -7.292   9.235  65.388  1.00  0.00    -0.086 F  
HETATM   35  C   UNL     1      -8.808  13.652  67.125  1.00  0.00    -0.237 A  
HETATM   36  C   UNL     1      -7.496  13.326  66.742  1.00  0.00     0.669 A  
ENDBRANCH   2  23
TORSDOF 5
ENDMDL
MODEL      321
REMARK 921   NORMALIZED FREE ENERGY PREDICTED BY IDOCK:    4.06 KCAL/MOL
REMARK 922        TOTAL FREE ENERGY PREDICTED BY IDOCK:    2.39 KCAL/MOL
REMARK 923 INTER-LIGAND FREE ENERGY PREDICTED BY IDOCK:   -2.69 KCAL/MOL
REMARK 924 INTRA-LIGAND FREE ENERGY PREDICTED BY IDOCK:    5.08 KCAL/MOL
REMARK 927      BINDING AFFINITY PREDICTED BY RF-SCORE:    0.00 PKD
ROOT
HETATM    1  C   UNL     1      -8.625   9.729  64.926  1.00  0.00    -0.183 C  
HETATM    2  C   UNL     1      -8.184   8.927  66.149  1.00  0.00    -0.116 C  
ENDROOT
BRANCH   2   3
HETATM    3  O   UNL     1      -7.079   9.550  66.804  1.00  0.00    -0.084 OA 
BRANCH   3   4
HETATM    4  C   UNL     1      -5.909   8.724  66.891  1.00  0.00    -0.052 C  
BRANCH   4   5
HETATM    5  C   UNL     1      -6.328   7.213  66.808  1.00  0.00    -0.050 C  
HETATM    6  C   UNL     1      -6.477   6.452  69.706  1.00  0.00    -0.047 C  
HETATM    7  C   UNL     1      -5.126   6.537  68.977  1.00  0.00    -0.012 C  
HETATM    8  N   UNL     1      -6.315   6.894  71.073  1.00  0.00    -0.040 NA 
HETATM    9  H   UNL     1      -8.001   6.103  67.365  1.00  0.00     0.000 HD 
HETATM   10  C   UNL     1      -5.263   6.305  67.470  1.00  0.00    -0.005 C  
HETATM   11  O   UNL     1      -7.103   6.380  73.166  1.00  0.00    -0.081 OA 
HETATM   12  C   UNL     1      -7.542   7.308  68.971  1.00  0.00    -0.099 C  
HETATM   13  C   UNL     1      -6.950   4.994  69.865  1.00  0.00    -0.053 C  
HETATM   14  C   UNL     1      -6.969   6.107  71.987  1.00  0.00    -0.078 C  
HETATM   15  C   UNL     1      -7.498   4.888  71.289  1.00  0.00    -0.077 C  
HETATM   16  N   UNL     1      -7.622   7.035  67.532  1.00  0.00    -0.107 NA 
BRANCH   5  17
HETATM   17  C   UNL     1      -6.484   6.756  65.333  1.00  0.00    -0.046 A  
HETATM   18  C   UNL     1      -6.813   5.925  62.645  1.00  0.00    -0.040 A  
HETATM   19  C   UNL     1      -7.736   5.541  63.613  1.00  0.00    -0.089 A  
HETATM   20  C   UNL     1      -7.569   5.948  64.941  1.00  0.00    -0.090 A  
HETATM   21  C   UNL     1      -5.547   7.096  64.338  1.00  0.00    -0.033 A  
HETATM   22  C   UNL     1      -5.716   6.694  63.009  1.00  0.00    -0.034 A  
ENDBRANCH   5  17
ENDBRANCH   4   5
ENDBRANCH   3   4
ENDBRANCH   2   3
BRANCH   2  23
HETATM   23  C   UNL     1      -9.343   8.830  67.130  1.00  0.00    -0.188 A  
HETATM   24  F   UNL     1     -11.033  12.364  68.584  1.00  0.00    -0.223 F  
HETATM   25  C   UNL     1      -9.934  10.005  67.620  1.00  0.00    -0.214 A  
HETATM   26  F   UNL     1     -10.234   5.467  69.667  1.00  0.00    -0.245 F  
HETATM   27  C   UNL     1     -10.946   9.961  68.591  1.00  0.00    -0.222 A  
HETATM   28  C   UNL     1     -11.376   8.713  69.069  1.00  0.00     0.508 A  
HETATM   29  F   UNL     1     -11.776   5.381  68.135  1.00  0.00     0.889 F  
HETATM   30  C   UNL     1     -11.555  11.232  69.136  1.00  0.00    -0.319 C  
HETATM   31  F   UNL     1     -12.217   6.259  70.074  1.00  0.00    -0.380 F  
HETATM   32  C   UNL     1     -11.257   6.175  69.110  1.00  0.00    -0.339 C  
HETATM   33  F   UNL     1     -12.897  11.299  68.928  1.00  0.00     0.034 F  
HETATM   34  F   UNL     1     -11.374  11.357  70.479  1.00  0.00    -0.329 F  
HETATM   35  C   UNL     1      -9.793   7.594  67.622  1.00  0.00    -0.207 A  
HETATM   36  C   UNL     1     -10.809   7.521  68.590  1.00  0.00    -0.044 A  
ENDBRANCH   2  23
TORSDOF 5
ENDMDL
MODEL      322
REMARK 921   NORMALIZED FREE ENERGY PREDICTED BY IDOCK:    4.55 KCAL/MOL
REMARK 922        TOTAL FREE ENERGY PREDICTED BY IDOCK:    3.02 KCAL/MOL
REMARK 923 INTER-LIGAND FREE ENERGY PREDICTED BY IDOCK:    2.12 KCAL/MOL
REMARK 924 INTRA-LIGAND FREE ENERGY PREDICTED BY IDOCK:    0.90 KCAL/MOL
REMARK 927      BINDING AFFINITY PREDICTED BY RF-SCORE:    0.00 PKD
ROOT
HETATM    1  C   UNL     1     -10.739  17.308  70.571  1.00  0.00     0.958 C  
HETATM    2  C   UNL     1     -10.831  16.095  69.647  1.00  0.00    -0.338 C  
ENDROOT
BRANCH   2   3
HETATM    3  O   UNL     1     -12.190  15.769  69.357  1.00  0.00    -0.313 OA 
BRANCH   3   4
HETATM    4  C   UNL     1     -12.407  14.383  69.051  1.00  0.00    -0.095 C  
BRANCH   4   5
HETATM    5  C   UNL     1     -11.724  13.493  70.148  1.00  0.00    -0.210 C  
HETATM    6  C   UNL     1     -10.392  11.379  68.489  1.00  0.00    -0.205 C  
HETATM    7  C   UNL     1     -11.897  11.315  68.796  1.00  0.00    -0.396 C  
HETATM    8  N   UNL     1     -10.150  10.875  67.156  1.00  0.00    -0.192 NA 
HETATM    9  H   UNL     1      -9.762  13.033  70.678  1.00  0.00     0.000 HD 
HETATM   10  C   UNL     1     -12.257  12.040  70.094  1.00  0.00    -0.309 C  
HETATM   11  O   UNL     1      -8.578   9.642  66.027  1.00  0.00    -0.128 OA 
HETATM   12  C   UNL     1      -9.874  12.834  68.631  1.00  0.00    -0.063 C  
HETATM   13  C   UNL     1      -9.585  10.414  69.378  1.00  0.00    -0.213 C  
HETATM   14  C   UNL     1      -9.058  10.048  67.070  1.00  0.00    -0.142 C  
HETATM   15  C   UNL     1      -8.557   9.757  68.454  1.00  0.00    -0.119 C  
HETATM   16  N   UNL     1     -10.252  13.470  69.898  1.00  0.00     1.041 NA 
BRANCH   5  17
HETATM   17  C   UNL     1     -12.006  14.045  71.572  1.00  0.00    -0.038 A  
HETATM   18  C   UNL     1     -12.547  15.018  74.177  1.00  0.00    -0.491 A  
HETATM   19  C   UNL     1     -13.550  14.394  73.441  1.00  0.00     0.641 A  
HETATM   20  C   UNL     1     -13.282  13.919  72.153  1.00  0.00    -0.536 A  
HETATM   21  C   UNL     1     -11.023  14.715  72.326  1.00  0.00     1.302 A  
HETATM   22  C   UNL     1     -11.288  15.185  73.617  1.00  0.00     0.609 A  
ENDBRANCH   5  17
ENDBRANCH   4   5
ENDBRANCH   3   4
ENDBRANCH   2   3
BRANCH   2  23
HETATM   23  C   UNL     1     -10.113  16.405  68.342  1.00  0.00    -0.245 A  
HETATM   24  F   UNL     1      -6.723  18.844  68.453  1.00  0.00    -0.231 F  
HETATM   25  C   UNL     1      -8.965  17.211  68.359  1.00  0.00    -0.259 A  
HETATM   26  F   UNL     1     -11.851  16.257  64.404  1.00  0.00    -0.380 F  
HETATM   27  C   UNL     1      -8.324  17.592  67.169  1.00  0.00    -0.232 A  
HETATM   28  C   UNL     1      -8.844  17.144  65.944  1.00  0.00    -0.008 A  
HETATM   29  F   UNL     1     -10.567  14.501  64.469  1.00  0.00    -0.416 F  
HETATM   30  C   UNL     1      -7.107  18.486  67.195  1.00  0.00    -0.204 C  
HETATM   31  F   UNL     1      -9.877  16.318  63.496  1.00  0.00     4.285 F  
HETATM   32  C   UNL     1     -10.560  15.857  64.582  1.00  0.00     0.081 C  
HETATM   33  F   UNL     1      -6.018  17.903  66.624  1.00  0.00    -0.147 F  
HETATM   34  F   UNL     1      -7.307  19.651  66.522  1.00  0.00    -0.217 F  
HETATM   35  C   UNL     1     -10.611  15.969  67.103  1.00  0.00    -0.305 A  
HETATM   36  C   UNL     1      -9.987  16.330  65.897  1.00  0.00    -0.366 A  
ENDBRANCH   2  23
TORSDOF 5
ENDMDL
MODEL      323
REMARK 921   NORMALIZED FREE ENERGY PREDICTED BY IDOCK:    7.44 KCAL/MOL
REMARK 922        TOTAL FREE ENERGY PREDICTED BY IDOCK:    6.75 KCAL/MOL
REMARK 923 INTER-LIGAND FREE ENERGY PREDICTED BY IDOCK:    2.89 KCAL/MOL
REMARK 924 INTRA-LIGAND FREE ENERGY PREDICTED BY IDOCK:    3.85 KCAL/MOL
REMARK 927      BINDING AFFINITY PREDICTED BY RF-SCORE:    0.00 PKD
ROOT
HETATM    1  C   UNL     1     -10.207  12.605  68.659  1.00  0.00    -0.165 C  
HETATM    2  C   UNL     1     -10.262  11.663  67.457  1.00  0.00    -0.195 C  
ENDROOT
BRANCH   2   3
HETATM    3  O   UNL     1     -10.045  12.370  66.237  1.00  0.00    -0.231 OA 
BRANCH   3   4
HETATM    4  C   UNL     1      -9.024  13.375  66.316  1.00  0.00     0.132 C  
BRANCH   4   5
HETATM    5  C   UNL     1      -9.662  14.732  66.779  1.00  0.00    -0.254 C  
HETATM    6  C   UNL     1      -7.895  15.493  69.080  1.00  0.00    -0.215 C  
HETATM    7  C   UNL     1      -9.008  14.445  69.248  1.00  0.00     0.193 C  
HETATM    8  N   UNL     1      -6.759  15.124  69.895  1.00  0.00    -0.179 NA 
HETATM    9  H   UNL     1      -9.049  16.723  66.826  1.00  0.00     0.000 HD 
HETATM   10  C   UNL     1     -10.148  14.643  68.247  1.00  0.00    -0.228 C  
HETATM   11  O   UNL     1      -5.147  16.130  71.180  1.00  0.00    -0.190 OA 
HETATM   12  C   UNL     1      -7.488  15.615  67.588  1.00  0.00    -0.164 C  
HETATM   13  C   UNL     1      -8.307  16.862  69.657  1.00  0.00     0.732 C  
HETATM   14  C   UNL     1      -6.199  16.179  70.569  1.00  0.00     0.303 C  
HETATM   15  C   UNL     1      -7.079  17.384  70.406  1.00  0.00     1.954 C  
HETATM   16  N   UNL     1      -8.628  15.805  66.684  1.00  0.00    -0.262 NA 
BRANCH   5  17
HETATM   17  C   UNL     1     -10.887  15.104  65.900  1.00  0.00    -0.342 A  
HETATM   18  C   UNL     1     -13.096  15.779  64.261  1.00  0.00     1.657 A  
HETATM   19  C   UNL     1     -11.819  16.222  63.930  1.00  0.00     0.844 A  
HETATM   20  C   UNL     1     -10.730  15.892  64.744  1.00  0.00    -0.255 A  
HETATM   21  C   UNL     1     -12.196  14.704  66.229  1.00  0.00    -0.162 A  
HETATM   22  C   UNL     1     -13.285  15.029  65.413  1.00  0.00     0.983 A  
ENDBRANCH   5  17
ENDBRANCH   4   5
ENDBRANCH   3   4
ENDBRANCH   2   3
BRANCH   2  23
HETATM   23  C   UNL     1      -9.184  10.599  67.605  1.00  0.00    -0.153 A  
HETATM   24  F   UNL     1      -9.107   7.436  64.877  1.00  0.00     0.160 F  
HETATM   25  C   UNL     1      -9.133   9.536  66.691  1.00  0.00    -0.179 A  
HETATM   26  F   UNL     1      -7.054   9.645  71.224  1.00  0.00    -0.070 F  
HETATM   27  C   UNL     1      -8.210   8.489  66.843  1.00  0.00    -0.106 A  
HETATM   28  C   UNL     1      -7.319   8.520  67.928  1.00  0.00    -0.093 A  
HETATM   29  F   UNL     1      -5.580  10.696  70.019  1.00  0.00    -0.043 F  
HETATM   30  C   UNL     1      -8.182   7.332  65.872  1.00  0.00    -0.132 C  
HETATM   31  F   UNL     1      -5.574   8.524  70.094  1.00  0.00    -0.023 F  
HETATM   32  C   UNL     1      -6.397   9.609  70.031  1.00  0.00    -0.059 C  
HETATM   33  F   UNL     1      -6.979   7.200  65.251  1.00  0.00    -0.051 F  
HETATM   34  F   UNL     1      -8.425   6.140  66.482  1.00  0.00    -0.110 F  
HETATM   35  C   UNL     1      -8.280  10.608  68.680  1.00  0.00    -0.135 A  
HETATM   36  C   UNL     1      -7.343   9.576  68.853  1.00  0.00    -0.073 A  
ENDBRANCH   2  23
TORSDOF 5
ENDMDL
MODEL      324
REMARK 921   NORMALIZED FREE ENERGY PREDICTED BY IDOCK:    7.49 KCAL/MOL
REMARK 922        TOTAL FREE ENERGY PREDICTED BY IDOCK:    6.81 KCAL/MOL
REMARK 923 INTER-LIGAND FREE ENERGY PREDICTED BY IDOCK:    2.63 KCAL/MOL
REMARK 924 INTRA-LIGAND FREE ENERGY PREDICTED BY IDOCK:    4.18 KCAL/MOL
REMARK 927      BINDING AFFINITY PREDICTED BY RF-SCORE:    0.00 PKD
ROOT
HETATM    1  C   UNL     1     -10.207  12.605  68.659  1.00  0.00    -0.165 C  
HETATM    2  C   UNL     1     -10.262  11.663  67.457  1.00  0.00    -0.195 C  
ENDROOT
BRANCH   2   3
HETATM    3  O   UNL     1     -10.045  12.370  66.237  1.00  0.00    -0.231 OA 
BRANCH   3   4
HETATM    4  C   UNL     1      -9.024  13.375  66.316  1.00  0.00     0.132 C  
BRANCH   4   5
HETATM    5  C   UNL     1      -9.662  14.732  66.779  1.00  0.00    -0.254 C  
HETATM    6  C   UNL     1      -7.895  15.493  69.080  1.00  0.00    -0.215 C  
HETATM    7  C   UNL     1      -9.008  14.445  69.248  1.00  0.00     0.193 C  
HETATM    8  N   UNL     1      -6.759  15.124  69.895  1.00  0.00    -0.179 NA 
HETATM    9  H   UNL     1      -9.049  16.723  66.826  1.00  0.00     0.000 HD 
HETATM   10  C   UNL     1     -10.148  14.643  68.247  1.00  0.00    -0.228 C  
HETATM   11  O   UNL     1      -5.147  16.130  71.180  1.00  0.00    -0.190 OA 
HETATM   12  C   UNL     1      -7.488  15.615  67.588  1.00  0.00    -0.164 C  
HETATM   13  C   UNL     1      -8.307  16.862  69.657  1.00  0.00     0.732 C  
HETATM   14  C   UNL     1      -6.199  16.179  70.569  1.00  0.00     0.303 C  
HETATM   15  C   UNL     1      -7.079  17.384  70.406  1.00  0.00     1.954 C  
HETATM   16  N   UNL     1      -8.628  15.805  66.684  1.00  0.00    -0.262 NA 
BRANCH   5  17
HETATM   17  C   UNL     1     -10.887  15.104  65.900  1.00  0.00    -0.342 A  
HETATM   18  C   UNL     1     -13.096  15.779  64.261  1.00  0.00     1.657 A  
HETATM   19  C   UNL     1     -11.819  16.222  63.930  1.00  0.00     0.844 A  
HETATM   20  C   UNL     1     -10.730  15.892  64.744  1.00  0.00    -0.255 A  
HETATM   21  C   UNL     1     -12.196  14.704  66.229  1.00  0.00    -0.162 A  
HETATM   22  C   UNL     1     -13.285  15.029  65.413  1.00  0.00     0.983 A  
ENDBRANCH   5  17
ENDBRANCH   4   5
ENDBRANCH   3   4
ENDBRANCH   2   3
BRANCH   2  23
HETATM   23  C   UNL     1      -9.184  10.599  67.605  1.00  0.00    -0.153 A  
HETATM   24  F   UNL     1      -8.559   8.892  71.366  1.00  0.00    -0.195 F  
HETATM   25  C   UNL     1      -8.968  10.004  68.857  1.00  0.00    -0.152 A  
HETATM   26  F   UNL     1      -5.775  10.080  65.025  1.00  0.00    -0.066 F  
HETATM   27  C   UNL     1      -7.927   9.083  69.055  1.00  0.00    -0.102 A  
HETATM   28  C   UNL     1      -7.097   8.751  67.972  1.00  0.00    -0.079 A  
HETATM   29  F   UNL     1      -7.075   8.415  64.505  1.00  0.00    -0.072 F  
HETATM   30  C   UNL     1      -7.681   8.470  70.414  1.00  0.00    -0.080 C  
HETATM   31  F   UNL     1      -5.404   8.109  65.860  1.00  0.00    -0.027 F  
HETATM   32  C   UNL     1      -6.399   8.983  65.540  1.00  0.00    -0.067 C  
HETATM   33  F   UNL     1      -7.769   7.113  70.398  1.00  0.00    -0.087 F  
HETATM   34  F   UNL     1      -6.442   8.762  70.896  1.00  0.00    -0.036 F  
HETATM   35  C   UNL     1      -8.342  10.248  66.537  1.00  0.00    -0.126 A  
HETATM   36  C   UNL     1      -7.296   9.325  66.706  1.00  0.00    -0.086 A  
ENDBRANCH   2  23
TORSDOF 5
ENDMDL
MODEL      325
REMARK 921   NORMALIZED FREE ENERGY PREDICTED BY IDOCK:    8.68 KCAL/MOL
REMARK 922        TOTAL FREE ENERGY PREDICTED BY IDOCK:    8.36 KCAL/MOL
REMARK 923 INTER-LIGAND FREE ENERGY PREDICTED BY IDOCK:    9.52 KCAL/MOL
REMARK 924 INTRA-LIGAND FREE ENERGY PREDICTED BY IDOCK:   -1.16 KCAL/MOL
REMARK 927      BINDING AFFINITY PREDICTED BY RF-SCORE:    0.00 PKD
ROOT
HETATM    1  C   UNL     1     -11.936  14.294  70.657  1.00  0.00    -0.392 C  
HETATM    2  C   UNL     1     -11.092  15.175  69.738  1.00  0.00    -0.278 C  
ENDROOT
BRANCH   2   3
HETATM    3  O   UNL     1     -10.116  15.907  70.479  1.00  0.00     0.084 OA 
BRANCH   3   4
HETATM    4  C   UNL     1     -10.185  17.329  70.293  1.00  0.00     1.006 C  
BRANCH   4   5
HETATM    5  C   UNL     1      -8.978  17.800  69.407  1.00  0.00     0.453 C  
HETATM    6  C   UNL     1     -10.376  19.183  67.143  1.00  0.00    -0.420 C  
HETATM    7  C   UNL     1     -10.269  17.651  67.190  1.00  0.00    -0.342 C  
HETATM    8  N   UNL     1     -11.648  19.560  66.568  1.00  0.00     0.711 NA 
HETATM    9  H   UNL     1      -8.178  19.638  68.842  1.00  0.00     0.000 HD 
HETATM   10  C   UNL     1      -9.054  17.177  67.991  1.00  0.00    -0.240 C  
HETATM   11  O   UNL     1     -12.518  21.175  65.189  1.00  0.00     4.590 OA 
HETATM   12  C   UNL     1     -10.215  19.780  68.566  1.00  0.00    -0.433 C  
HETATM   13  C   UNL     1      -9.357  19.798  66.164  1.00  0.00    -0.439 C  
HETATM   14  C   UNL     1     -11.562  20.593  65.669  1.00  0.00     2.609 C  
HETATM   15  C   UNL     1     -10.114  20.888  65.404  1.00  0.00     1.349 C  
HETATM   16  N   UNL     1      -9.031  19.286  69.277  1.00  0.00    -0.130 NA 
BRANCH   5  17
HETATM   17  C   UNL     1      -7.623  17.375  70.035  1.00  0.00     1.537 A  
HETATM   18  C   UNL     1      -5.143  16.575  71.146  1.00  0.00    -0.125 A  
HETATM   19  C   UNL     1      -5.880  15.686  70.369  1.00  0.00    -0.090 A  
HETATM   20  C   UNL     1      -7.108  16.082  69.826  1.00  0.00     0.005 A  
HETATM   21  C   UNL     1      -6.873  18.238  70.857  1.00  0.00     2.409 A  
HETATM   22  C   UNL     1      -5.643  17.846  71.396  1.00  0.00     0.351 A  
ENDBRANCH   5  17
ENDBRANCH   4   5
ENDBRANCH   3   4
ENDBRANCH   2   3
BRANCH   2  23
HETATM   23  C   UNL     1     -10.378  14.298  68.721  1.00  0.00    -0.239 A  
HETATM   24  F   UNL     1     -12.603  12.637  65.599  1.00  0.00    -0.503 F  
HETATM   25  C   UNL     1     -11.104  13.741  67.657  1.00  0.00    -0.292 A  
HETATM   26  F   UNL     1      -6.688  12.173  69.363  1.00  0.00    -0.099 F  
HETATM   27  C   UNL     1     -10.503  12.857  66.748  1.00  0.00    -0.262 A  
HETATM   28  C   UNL     1      -9.145  12.537  66.909  1.00  0.00    -0.213 A  
HETATM   29  F   UNL     1      -6.117  13.817  68.058  1.00  0.00    -0.088 F  
HETATM   30  C   UNL     1     -11.300  12.238  65.624  1.00  0.00    -0.350 C  
HETATM   31  F   UNL     1      -6.471  11.840  67.227  1.00  0.00    -0.078 F  
HETATM   32  C   UNL     1      -6.935  12.733  68.146  1.00  0.00    -0.096 C  
HETATM   33  F   UNL     1     -10.794  12.539  64.397  1.00  0.00    -0.298 F  
HETATM   34  F   UNL     1     -11.330  10.880  65.698  1.00  0.00    -0.112 F  
HETATM   35  C   UNL     1      -9.021  13.963  68.858  1.00  0.00     0.101 A  
HETATM   36  C   UNL     1      -8.392  13.085  67.959  1.00  0.00    -0.169 A  
ENDBRANCH   2  23
TORSDOF 5
ENDMDL
MODEL      326
REMARK 921   NORMALIZED FREE ENERGY PREDICTED BY IDOCK:   13.00 KCAL/MOL
REMARK 922        TOTAL FREE ENERGY PREDICTED BY IDOCK:   13.94 KCAL/MOL
REMARK 923 INTER-LIGAND FREE ENERGY PREDICTED BY IDOCK:    6.11 KCAL/MOL
REMARK 924 INTRA-LIGAND FREE ENERGY PREDICTED BY IDOCK:    7.83 KCAL/MOL
REMARK 927      BINDING AFFINITY PREDICTED BY RF-SCORE:    0.00 PKD
ROOT
HETATM    1  C   UNL     1     -11.372  13.615  68.953  1.00  0.00    -0.332 C  
HETATM    2  C   UNL     1     -10.283  14.684  69.010  1.00  0.00    -0.220 C  
ENDROOT
BRANCH   2   3
HETATM    3  O   UNL     1      -8.997  14.100  69.215  1.00  0.00     0.144 OA 
BRANCH   3   4
HETATM    4  C   UNL     1      -9.029  12.840  69.903  1.00  0.00     3.040 C  
BRANCH   4   5
HETATM    5  C   UNL     1      -9.861  11.808  69.063  1.00  0.00     0.100 C  
HETATM    6  C   UNL     1      -8.006  11.231  66.778  1.00  0.00    -0.159 C  
HETATM    7  C   UNL     1      -8.857  12.511  66.803  1.00  0.00    -0.177 C  
HETATM    8  N   UNL     1      -6.725  11.516  66.169  1.00  0.00     0.129 NA 
HETATM    9  H   UNL     1      -9.656   9.799  68.552  1.00  0.00     0.000 HD 
HETATM   10  C   UNL     1     -10.131  12.345  67.635  1.00  0.00    -0.199 C  
HETATM   11  O   UNL     1      -5.197  10.504  64.789  1.00  0.00    -0.118 OA 
HETATM   12  C   UNL     1      -7.822  10.675  68.214  1.00  0.00    -0.113 C  
HETATM   13  C   UNL     1      -8.605  10.164  65.842  1.00  0.00    -0.156 C  
HETATM   14  C   UNL     1      -6.306  10.550  65.290  1.00  0.00    -0.080 C  
HETATM   15  C   UNL     1      -7.422   9.570  65.075  1.00  0.00    -0.110 C  
HETATM   16  N   UNL     1      -9.081  10.539  68.955  1.00  0.00    -0.169 NA 
BRANCH   5  17
HETATM   17  C   UNL     1     -11.236  11.525  69.726  1.00  0.00    -0.237 A  
HETATM   18  C   UNL     1     -13.748  10.973  70.913  1.00  0.00     1.035 A  
HETATM   19  C   UNL     1     -13.518  10.647  69.580  1.00  0.00     1.954 A  
HETATM   20  C   UNL     1     -12.278  10.925  68.994  1.00  0.00    -0.112 A  
HETATM   21  C   UNL     1     -11.512  11.878  71.061  1.00  0.00     1.310 A  
HETATM   22  C   UNL     1     -12.749  11.595  71.650  1.00  0.00    -0.375 A  
ENDBRANCH   5  17
ENDBRANCH   4   5
ENDBRANCH   3   4
ENDBRANCH   2   3
BRANCH   2  23
HETATM   23  C   UNL     1     -10.267  15.454  67.698  1.00  0.00    -0.246 A  
HETATM   24  F   UNL     1      -7.336  18.376  67.128  1.00  0.00    -0.198 F  
HETATM   25  C   UNL     1      -9.283  16.430  67.481  1.00  0.00    -0.199 A  
HETATM   26  F   UNL     1     -13.620  16.012  65.054  1.00  0.00     1.668 F  
HETATM   27  C   UNL     1      -9.285  17.222  66.322  1.00  0.00    -0.243 A  
HETATM   28  C   UNL     1     -10.290  17.020  65.363  1.00  0.00    -0.084 A  
HETATM   29  F   UNL     1     -12.367  14.577  64.004  1.00  0.00    -0.503 F  
HETATM   30  C   UNL     1      -8.240  18.292  66.111  1.00  0.00    -0.139 C  
HETATM   31  F   UNL     1     -12.296  16.681  63.465  1.00  0.00     0.957 F  
HETATM   32  C   UNL     1     -12.376  15.832  64.529  1.00  0.00     0.244 C  
HETATM   33  F   UNL     1      -7.512  18.095  64.979  1.00  0.00     0.277 F  
HETATM   34  F   UNL     1      -8.786  19.533  65.998  1.00  0.00    -0.345 F  
HETATM   35  C   UNL     1     -11.260  15.270  66.722  1.00  0.00    -0.241 A  
HETATM   36  C   UNL     1     -11.283  16.045  65.550  1.00  0.00     0.008 A  
ENDBRANCH   2  23
TORSDOF 5
ENDMDL
MODEL      327
REMARK 921   NORMALIZED FREE ENERGY PREDICTED BY IDOCK:   13.20 KCAL/MOL
REMARK 922        TOTAL FREE ENERGY PREDICTED BY IDOCK:   14.20 KCAL/MOL
REMARK 923 INTER-LIGAND FREE ENERGY PREDICTED BY IDOCK:   -4.30 KCAL/MOL
REMARK 924 INTRA-LIGAND FREE ENERGY PREDICTED BY IDOCK:   18.50 KCAL/MOL
REMARK 927      BINDING AFFINITY PREDICTED BY RF-SCORE:    0.00 PKD
ROOT
HETATM    1  C   UNL     1     -10.246  12.640  68.683  1.00  0.00    -0.165 C  
HETATM    2  C   UNL     1     -10.308  12.003  67.296  1.00  0.00    -0.212 C  
ENDROOT
BRANCH   2   3
HETATM    3  O   UNL     1     -10.137  12.982  66.271  1.00  0.00    -0.270 OA 
BRANCH   3   4
HETATM    4  C   UNL     1      -9.224  14.035  66.613  1.00  0.00    -0.244 C  
BRANCH   4   5
HETATM    5  C   UNL     1      -9.981  15.137  67.434  1.00  0.00    -0.226 C  
HETATM    6  C   UNL     1     -11.858  13.491  69.096  1.00  0.00    -0.340 C  
HETATM    7  C   UNL     1     -12.168  13.800  67.623  1.00  0.00    -0.229 C  
HETATM    8  N   UNL     1     -12.325  12.161  69.418  1.00  0.00    -0.043 NA 
HETATM    9  H   UNL     1     -10.108  15.668  69.445  1.00  0.00     0.000 HD 
HETATM   10  C   UNL     1     -11.503  15.094  67.148  1.00  0.00    -0.254 C  
HETATM   11  O   UNL     1     -13.289  11.039  71.172  1.00  0.00    -0.178 OA 
HETATM   12  C   UNL     1     -10.336  13.623  69.368  1.00  0.00     0.295 C  
HETATM   13  C   UNL     1     -12.671  14.386  70.052  1.00  0.00    -0.185 C  
HETATM   14  C   UNL     1     -12.960  12.079  70.632  1.00  0.00     0.186 C  
HETATM   15  C   UNL     1     -13.155  13.465  71.174  1.00  0.00    -0.254 C  
HETATM   16  N   UNL     1      -9.763  14.885  68.890  1.00  0.00    -0.219 NA 
BRANCH   5  17
HETATM   17  C   UNL     1      -9.474  16.558  67.065  1.00  0.00    -0.249 A  
HETATM   18  C   UNL     1      -8.508  19.136  66.401  1.00  0.00    -0.325 A  
HETATM   19  C   UNL     1      -7.924  18.418  67.441  1.00  0.00    -0.241 A  
HETATM   20  C   UNL     1      -8.407  17.146  67.770  1.00  0.00    -0.204 A  
HETATM   21  C   UNL     1     -10.068  17.325  66.045  1.00  0.00    -0.275 A  
HETATM   22  C   UNL     1      -9.583  18.594  65.710  1.00  0.00     0.297 A  
ENDBRANCH   5  17
ENDBRANCH   4   5
ENDBRANCH   3   4
ENDBRANCH   2   3
BRANCH   2  23
HETATM   23  C   UNL     1      -9.202  10.966  67.171  1.00  0.00    -0.159 A  
HETATM   24  F   UNL     1      -9.198   8.436  63.847  1.00  0.00     0.281 F  
HETATM   25  C   UNL     1      -9.175  10.115  66.056  1.00  0.00    -0.198 A  
HETATM   26  F   UNL     1      -6.872   9.353  70.413  1.00  0.00    -0.049 F  
HETATM   27  C   UNL     1      -8.224   9.089  65.945  1.00  0.00    -0.118 A  
HETATM   28  C   UNL     1      -7.280   8.923  66.972  1.00  0.00    -0.079 A  
HETATM   29  F   UNL     1      -5.483  10.675  69.386  1.00  0.00    -0.038 F  
HETATM   30  C   UNL     1      -8.222   8.158  64.755  1.00  0.00    -0.133 C  
HETATM   31  F   UNL     1      -5.428   8.535  69.010  1.00  0.00    -0.033 F  
HETATM   32  C   UNL     1      -6.275   9.583  69.210  1.00  0.00    -0.040 C  
HETATM   33  F   UNL     1      -7.049   8.194  64.067  1.00  0.00    -0.077 F  
HETATM   34  F   UNL     1      -8.409   6.859  65.115  1.00  0.00    -0.132 F  
HETATM   35  C   UNL     1      -8.245  10.781  68.183  1.00  0.00    -0.119 A  
HETATM   36  C   UNL     1      -7.279   9.765  68.095  1.00  0.00    -0.079 A  
ENDBRANCH   2  23
TORSDOF 5
ENDMDL
MODEL      328
REMARK 921   NORMALIZED FREE ENERGY PREDICTED BY IDOCK:   17.86 KCAL/MOL
REMARK 922        TOTAL FREE ENERGY PREDICTED BY IDOCK:   20.22 KCAL/MOL
REMARK 923 INTER-LIGAND FREE ENERGY PREDICTED BY IDOCK:    9.92 KCAL/MOL
REMARK 924 INTRA-LIGAND FREE ENERGY PREDICTED BY IDOCK:   10.31 KCAL/MOL
REMARK 927      BINDING AFFINITY PREDICTED BY RF-SCORE:    0.00 PKD
ROOT
HETATM    1  C   UNL     1     -11.397  13.652  68.954  1.00  0.00    -0.332 C  
HETATM    2  C   UNL     1     -10.292  14.703  69.041  1.00  0.00    -0.235 C  
ENDROOT
BRANCH   2   3
HETATM    3  O   UNL     1      -9.001  14.095  69.072  1.00  0.00    -0.046 OA 
BRANCH   3   4
HETATM    4  C   UNL     1      -9.000  12.750  69.575  1.00  0.00     1.667 C  
BRANCH   4   5
HETATM    5  C   UNL     1      -9.939  11.859  68.686  1.00  0.00    -0.154 C  
HETATM    6  C   UNL     1      -8.332  11.583  66.170  1.00  0.00    -0.018 C  
HETATM    7  C   UNL     1      -9.138  12.859  66.458  1.00  0.00    -0.138 C  
HETATM    8  N   UNL     1      -7.108  11.932  65.482  1.00  0.00     1.436 NA 
HETATM    9  H   UNL     1      -9.843   9.939  67.884  1.00  0.00     0.000 HD 
HETATM   10  C   UNL     1     -10.330  12.597  67.382  1.00  0.00    -0.224 C  
HETATM   11  O   UNL     1      -5.751  11.100  63.829  1.00  0.00     0.162 OA 
HETATM   12  C   UNL     1      -8.026  10.826  67.489  1.00  0.00    -0.110 C  
HETATM   13  C   UNL     1      -9.050  10.668  65.159  1.00  0.00    -0.227 C  
HETATM   14  C   UNL     1      -6.804  11.093  64.439  1.00  0.00     1.128 C  
HETATM   15  C   UNL     1      -7.964  10.170  64.203  1.00  0.00    -0.154 C  
HETATM   16  N   UNL     1      -9.211  10.607  68.326  1.00  0.00    -0.147 NA 
BRANCH   5  17
HETATM   17  C   UNL     1     -11.251  11.507  69.438  1.00  0.00    -0.324 A  
HETATM   18  C   UNL     1     -13.652  10.831  70.781  1.00  0.00     0.545 A  
HETATM   19  C   UNL     1     -13.565  10.704  69.398  1.00  0.00     2.870 A  
HETATM   20  C   UNL     1     -12.380  11.043  68.736  1.00  0.00     0.172 A  
HETATM   21  C   UNL     1     -11.383  11.661  70.832  1.00  0.00     1.145 A  
HETATM   22  C   UNL     1     -12.565  11.317  71.496  1.00  0.00    -0.418 A  
ENDBRANCH   5  17
ENDBRANCH   4   5
ENDBRANCH   3   4
ENDBRANCH   2   3
BRANCH   2  23
HETATM   23  C   UNL     1     -10.373  15.617  67.827  1.00  0.00    -0.266 A  
HETATM   24  F   UNL     1     -10.983  13.899  64.068  1.00  0.00    -0.327 F  
HETATM   25  C   UNL     1     -10.591  15.061  66.557  1.00  0.00    -0.305 A  
HETATM   26  F   UNL     1      -8.706  19.576  67.527  1.00  0.00    -0.308 F  
HETATM   27  C   UNL     1     -10.586  15.859  65.402  1.00  0.00    -0.439 A  
HETATM   28  C   UNL     1     -10.366  17.240  65.531  1.00  0.00    -0.108 A  
HETATM   29  F   UNL     1     -10.846  19.928  67.694  1.00  0.00    -0.513 F  
HETATM   30  C   UNL     1     -10.790  15.248  64.036  1.00  0.00     1.028 C  
HETATM   31  F   UNL     1      -9.885  19.971  65.745  1.00  0.00    -0.477 F  
HETATM   32  C   UNL     1      -9.903  19.307  66.935  1.00  0.00    -0.342 C  
HETATM   33  F   UNL     1     -11.869  15.765  63.389  1.00  0.00     0.341 F  
HETATM   34  F   UNL     1      -9.724  15.450  63.214  1.00  0.00     5.691 F  
HETATM   35  C   UNL     1     -10.159  17.001  67.929  1.00  0.00    -0.306 A  
HETATM   36  C   UNL     1     -10.154  17.824  66.790  1.00  0.00    -0.349 A  
ENDBRANCH   2  23
TORSDOF 5
ENDMDL
MODEL      329
REMARK 921   NORMALIZED FREE ENERGY PREDICTED BY IDOCK:   26.89 KCAL/MOL
REMARK 922        TOTAL FREE ENERGY PREDICTED BY IDOCK:   31.88 KCAL/MOL
REMARK 923 INTER-LIGAND FREE ENERGY PREDICTED BY IDOCK:   18.06 KCAL/MOL
REMARK 924 INTRA-LIGAND FREE ENERGY PREDICTED BY IDOCK:   13.83 KCAL/MOL
REMARK 927      BINDING AFFINITY PREDICTED BY RF-SCORE:    0.00 PKD
ROOT
HETATM    1  C   UNL     1     -10.538  18.753  68.128  1.00  0.00    -0.292 C  
HETATM    2  C   UNL     1     -10.947  17.355  68.587  1.00  0.00    -0.019 C  
ENDROOT
BRANCH   2   3
HETATM    3  O   UNL     1     -12.082  16.884  67.860  1.00  0.00     0.859 OA 
BRANCH   3   4
HETATM    4  C   UNL     1     -12.899  15.954  68.587  1.00  0.00     1.719 C  
BRANCH   4   5
HETATM    5  C   UNL     1     -12.063  15.333  69.762  1.00  0.00    -0.328 C  
HETATM    6  C   UNL     1     -11.784  12.480  68.881  1.00  0.00    -0.322 C  
HETATM    7  C   UNL     1     -13.082  12.985  69.531  1.00  0.00     1.513 C  
HETATM    8  N   UNL     1     -12.102  11.500  67.867  1.00  0.00    -0.605 NA 
HETATM    9  H   UNL     1     -10.159  14.511  69.959  1.00  0.00     0.000 HD 
HETATM   10  C   UNL     1     -12.843  14.185  70.450  1.00  0.00    -0.256 C  
HETATM   11  O   UNL     1     -11.259   9.539  67.024  1.00  0.00     0.111 OA 
HETATM   12  C   UNL     1     -10.987  13.664  68.273  1.00  0.00    -0.254 C  
HETATM   13  C   UNL     1     -10.918  11.682  69.876  1.00  0.00     0.104 C  
HETATM   14  C   UNL     1     -11.276  10.404  67.881  1.00  0.00    -0.263 C  
HETATM   15  C   UNL     1     -10.402  10.469  69.099  1.00  0.00    -0.240 C  
HETATM   16  N   UNL     1     -10.793  14.780  69.206  1.00  0.00    -0.258 NA 
BRANCH   5  17
HETATM   17  C   UNL     1     -11.742  16.398  70.845  1.00  0.00    -0.120 A  
HETATM   18  C   UNL     1     -11.126  18.315  72.838  1.00  0.00     2.645 A  
HETATM   19  C   UNL     1     -11.061  16.956  73.131  1.00  0.00     2.044 A  
HETATM   20  C   UNL     1     -11.370  16.011  72.147  1.00  0.00    -0.153 A  
HETATM   21  C   UNL     1     -11.837  17.780  70.591  1.00  0.00     5.155 A  
HETATM   22  C   UNL     1     -11.522  18.726  71.572  1.00  0.00     6.128 A  
ENDBRANCH   5  17
ENDBRANCH   4   5
ENDBRANCH   3   4
ENDBRANCH   2   3
BRANCH   2  23
HETATM   23  C   UNL     1      -9.789  16.395  68.362  1.00  0.00    -0.233 A  
HETATM   24  F   UNL     1      -6.314  16.885  70.630  1.00  0.00     0.126 F  
HETATM   25  C   UNL     1      -8.618  16.534  69.123  1.00  0.00    -0.147 A  
HETATM   26  F   UNL     1      -9.058  14.111  64.785  1.00  0.00     0.718 F  
HETATM   27  C   UNL     1      -7.495  15.725  68.886  1.00  0.00    -0.173 A  
HETATM   28  C   UNL     1      -7.558  14.755  67.873  1.00  0.00    -0.149 A  
HETATM   29  F   UNL     1      -9.758  12.626  66.212  1.00  0.00    -0.238 F  
HETATM   30  C   UNL     1      -6.228  15.903  69.689  1.00  0.00    -0.177 C  
HETATM   31  F   UNL     1      -7.629  12.858  65.840  1.00  0.00     1.261 F  
HETATM   32  C   UNL     1      -8.788  13.557  66.001  1.00  0.00     0.574 C  
HETATM   33  F   UNL     1      -5.872  14.773  70.359  1.00  0.00    -0.119 F  
HETATM   34  F   UNL     1      -5.163  16.230  68.908  1.00  0.00    -0.102 F  
HETATM   35  C   UNL     1      -9.827  15.415  67.357  1.00  0.00    -0.216 A  
HETATM   36  C   UNL     1      -8.719  14.589  67.102  1.00  0.00    -0.237 A  
ENDBRANCH   2  23
TORSDOF 5
ENDMDL
MODEL      330
REMARK 921   NORMALIZED FREE ENERGY PREDICTED BY IDOCK:   41.24 KCAL/MOL
REMARK 922        TOTAL FREE ENERGY PREDICTED BY IDOCK:   50.43 KCAL/MOL
REMARK 923 INTER-LIGAND FREE ENERGY PREDICTED BY IDOCK:   17.70 KCAL/MOL
REMARK 924 INTRA-LIGAND FREE ENERGY PREDICTED BY IDOCK:   32.74 KCAL/MOL
REMARK 927      BINDING AFFINITY PREDICTED BY RF-SCORE:    0.00 PKD
ROOT
HETATM    1  C   UNL     1     -10.570  18.878  68.045  1.00  0.00    -0.376 C  
HETATM    2  C   UNL     1     -10.976  17.410  68.154  1.00  0.00    -0.160 C  
ENDROOT
BRANCH   2   3
HETATM    3  O   UNL     1     -11.951  17.069  67.168  1.00  0.00     1.332 OA 
BRANCH   3   4
HETATM    4  C   UNL     1     -12.439  15.723  67.268  1.00  0.00     1.738 C  
BRANCH   4   5
HETATM    5  C   UNL     1     -11.468  14.881  68.169  1.00  0.00    -0.330 C  
HETATM    6  C   UNL     1     -10.346  12.916  66.199  1.00  0.00    -0.276 C  
HETATM    7  C   UNL     1     -11.742  12.715  66.812  1.00  0.00    -0.460 C  
HETATM    8  N   UNL     1     -10.351  12.455  64.829  1.00  0.00    -0.291 NA 
HETATM    9  H   UNL     1      -9.407  14.587  68.261  1.00  0.00     0.000 HD 
HETATM   10  C   UNL     1     -11.878  13.387  68.180  1.00  0.00    -0.396 C  
HETATM   11  O   UNL     1      -8.956  11.382  63.356  1.00  0.00    -0.098 OA 
HETATM   12  C   UNL     1      -9.932  14.409  66.277  1.00  0.00    -0.306 C  
HETATM   13  C   UNL     1      -9.292  12.013  66.867  1.00  0.00    -0.200 C  
HETATM   14  C   UNL     1      -9.237  11.729  64.489  1.00  0.00     0.240 C  
HETATM   15  C   UNL     1      -8.432  11.463  65.728  1.00  0.00     0.051 C  
HETATM   16  N   UNL     1     -10.086  14.991  67.615  1.00  0.00    -0.230 NA 
BRANCH   5  17
HETATM   17  C   UNL     1     -11.487  15.385  69.637  1.00  0.00    -0.331 A  
HETATM   18  C   UNL     1     -11.484  16.284  72.323  1.00  0.00    -0.182 A  
HETATM   19  C   UNL     1     -10.951  15.039  72.003  1.00  0.00     0.322 A  
HETATM   20  C   UNL     1     -10.958  14.595  70.676  1.00  0.00     0.072 A  
HETATM   21  C   UNL     1     -12.055  16.621  69.999  1.00  0.00     1.187 A  
HETATM   22  C   UNL     1     -12.043  17.070  71.324  1.00  0.00     2.131 A  
ENDBRANCH   5  17
ENDBRANCH   4   5
ENDBRANCH   3   4
ENDBRANCH   2   3
BRANCH   2  23
HETATM   23  C   UNL     1      -9.749  16.534  67.951  1.00  0.00    -0.236 A  
HETATM   24  F   UNL     1      -9.124  13.329  70.557  1.00  0.00     3.508 F  
HETATM   25  C   UNL     1      -9.528  15.445  68.807  1.00  0.00    -0.211 A  
HETATM   26  F   UNL     1      -6.121  17.695  65.942  1.00  0.00    -0.214 F  
HETATM   27  C   UNL     1      -8.364  14.666  68.709  1.00  0.00    -0.163 A  
HETATM   28  C   UNL     1      -7.413  14.985  67.726  1.00  0.00    -0.175 A  
HETATM   29  F   UNL     1      -7.080  16.341  64.535  1.00  0.00     5.784 F  
HETATM   30  C   UNL     1      -8.120  13.514  69.655  1.00  0.00     1.182 C  
HETATM   31  F   UNL     1      -5.485  15.620  65.824  1.00  0.00     2.799 F  
HETATM   32  C   UNL     1      -6.587  16.422  65.800  1.00  0.00     2.373 C  
HETATM   33  F   UNL     1      -7.977  12.326  69.006  1.00  0.00    -0.064 F  
HETATM   34  F   UNL     1      -6.987  13.680  70.390  1.00  0.00     0.167 F  
HETATM   35  C   UNL     1      -8.783  16.831  66.975  1.00  0.00    -0.226 A  
HETATM   36  C   UNL     1      -7.612  16.065  66.851  1.00  0.00    -0.268 A  
ENDBRANCH   2  23
TORSDOF 5
ENDMDL
MODEL      331
REMARK 921   NORMALIZED FREE ENERGY PREDICTED BY IDOCK:   45.56 KCAL/MOL
REMARK 922        TOTAL FREE ENERGY PREDICTED BY IDOCK:   56.01 KCAL/MOL
REMARK 923 INTER-LIGAND FREE ENERGY PREDICTED BY IDOCK:   44.98 KCAL/MOL
REMARK 924 INTRA-LIGAND FREE ENERGY PREDICTED BY IDOCK:   11.03 KCAL/MOL
REMARK 927      BINDING AFFINITY PREDICTED BY RF-SCORE:    0.00 PKD
ROOT
HETATM    1  C   UNL     1     -10.736  11.826  72.478  1.00  0.00    12.554 C  
HETATM    2  C   UNL     1     -11.030  12.462  71.120  1.00  0.00     3.995 C  
ENDROOT
BRANCH   2   3
HETATM    3  O   UNL     1     -11.916  13.574  71.252  1.00  0.00    -0.121 OA 
BRANCH   3   4
HETATM    4  C   UNL     1     -12.849  13.710  70.170  1.00  0.00     0.086 C  
BRANCH   4   5
HETATM    5  C   UNL     1     -12.583  12.588  69.106  1.00  0.00     0.662 C  
HETATM    6  C   UNL     1     -11.783  14.192  66.701  1.00  0.00    -0.403 C  
HETATM    7  C   UNL     1     -13.261  14.035  67.093  1.00  0.00     2.670 C  
HETATM    8  N   UNL     1     -11.567  15.514  66.158  1.00  0.00     0.092 NA 
HETATM    9  H   UNL     1     -10.916  11.889  68.069  1.00  0.00     0.000 HD 
HETATM   10  C   UNL     1     -13.519  12.750  67.883  1.00  0.00     6.451 C  
HETATM   11  O   UNL     1     -10.329  16.534  64.516  1.00  0.00    -0.077 OA 
HETATM   12  C   UNL     1     -10.869  13.944  67.930  1.00  0.00    -0.244 C  
HETATM   13  C   UNL     1     -11.400  13.268  65.529  1.00  0.00    -0.315 C  
HETATM   14  C   UNL     1     -10.771  15.527  65.040  1.00  0.00    -0.441 C  
HETATM   15  C   UNL     1     -10.527  14.114  64.600  1.00  0.00    -0.366 C  
HETATM   16  N   UNL     1     -11.168  12.696  68.640  1.00  0.00    -0.263 NA 
BRANCH   5  17
HETATM   17  C   UNL     1     -12.832  11.177  69.705  1.00  0.00     0.153 A  
HETATM   18  C   UNL     1     -13.290   8.588  70.758  1.00  0.00     0.437 A  
HETATM   19  C   UNL     1     -13.908   8.980  69.575  1.00  0.00     4.799 A  
HETATM   20  C   UNL     1     -13.684  10.262  69.059  1.00  0.00     5.287 A  
HETATM   21  C   UNL     1     -12.252  10.765  70.920  1.00  0.00    -0.487 A  
HETATM   22  C   UNL     1     -12.470   9.481  71.434  1.00  0.00    -0.450 A  
ENDBRANCH   5  17
ENDBRANCH   4   5
ENDBRANCH   3   4
ENDBRANCH   2   3
BRANCH   2  23
HETATM   23  C   UNL     1      -9.728  12.945  70.501  1.00  0.00     5.507 A  
HETATM   24  F   UNL     1      -9.445  16.936  69.295  1.00  0.00    -0.250 F  
HETATM   25  C   UNL     1      -9.607  14.285  70.101  1.00  0.00     1.422 A  
HETATM   26  F   UNL     1      -6.781  10.475  68.562  1.00  0.00    -0.054 F  
HETATM   27  C   UNL     1      -8.455  14.750  69.447  1.00  0.00     0.016 A  
HETATM   28  C   UNL     1      -7.405  13.851  69.200  1.00  0.00    -0.004 A  
HETATM   29  F   UNL     1      -5.850  11.000  70.457  1.00  0.00    -0.096 F  
HETATM   30  C   UNL     1      -8.347  16.186  68.993  1.00  0.00    -0.247 C  
HETATM   31  F   UNL     1      -5.326  12.087  68.649  1.00  0.00    -0.050 F  
HETATM   32  C   UNL     1      -6.375  11.532  69.320  1.00  0.00    -0.091 C  
HETATM   33  F   UNL     1      -7.288  16.832  69.551  1.00  0.00    -0.230 F  
HETATM   34  F   UNL     1      -8.186  16.292  67.646  1.00  0.00    -0.147 F  
HETATM   35  C   UNL     1      -8.661  12.068  70.244  1.00  0.00     4.407 A  
HETATM   36  C   UNL     1      -7.495  12.507  69.595  1.00  0.00     0.778 A  
ENDBRANCH   2  23
TORSDOF 5
ENDMDL
