MODEL        1
REMARK 921   NORMALIZED FREE ENERGY PREDICTED BY IDOCK:   -8.69 KCAL/MOL
REMARK 922        TOTAL FREE ENERGY PREDICTED BY IDOCK:  -11.30 KCAL/MOL
REMARK 923 INTER-LIGAND FREE ENERGY PREDICTED BY IDOCK:  -10.72 KCAL/MOL
REMARK 924 INTRA-LIGAND FREE ENERGY PREDICTED BY IDOCK:   -0.58 KCAL/MOL
REMARK 927      BINDING AFFINITY PREDICTED BY RF-SCORE:    0.00 PKD
ROOT
HETATM    1  C   UNL     1      -9.645  12.817  67.354  1.00  0.00    -0.199 C  
HETATM    2  C   UNL     1      -9.019  14.066  67.940  1.00  0.00    -0.188 C  
HETATM    3  C   UNL     1      -9.910  15.334  67.787  1.00  0.00    -0.220 C  
HETATM    4  C   UNL     1     -10.375  15.503  66.361  1.00  0.00    -0.303 C  
HETATM    5  C   UNL     1     -10.459  16.896  65.795  1.00  0.00    -0.268 C  
HETATM    6  C   UNL     1     -10.649  14.432  65.585  1.00  0.00    -0.329 C  
HETATM    7  C   UNL     1     -10.292  18.066  66.699  1.00  0.00    -0.375 A  
HETATM    8  O   UNL     1     -10.668  17.087  64.594  1.00  0.00    -0.712 OA 
HETATM    9  O   UNL     1     -10.953  14.561  64.227  1.00  0.00    -0.612 OA 
HETATM   10  C   UNL     1     -10.340  12.975  65.984  1.00  0.00    -0.285 C  
HETATM   11  C   UNL     1     -11.541  11.894  66.162  1.00  0.00    -0.229 C  
HETATM   12  H   UNL     1     -11.145  13.808  63.682  1.00  0.00     0.000 HD 
HETATM   13  O   UNL     1      -9.429  12.604  64.939  1.00  0.00    -0.462 OA 
HETATM   14  C   UNL     1     -10.601  19.367  66.252  1.00  0.00    -0.475 A  
HETATM   15  O   UNL     1     -12.648  11.983  65.635  1.00  0.00    -0.252 OA 
HETATM   16  H   UNL     1      -9.857  12.701  64.097  1.00  0.00     0.000 HD 
HETATM   17  C   UNL     1     -10.520  20.461  67.117  1.00  0.00    -0.192 A  
HETATM   18  O   UNL     1     -10.977  19.659  64.970  1.00  0.00    -0.320 OA 
HETATM   19  C   UNL     1     -11.188  10.626  66.971  1.00  0.00    -0.117 C  
HETATM   20  C   UNL     1      -7.680  16.609  68.049  1.00  0.00    -0.168 C  
HETATM   21  C   UNL     1      -9.875  10.391  66.742  1.00  0.00    -0.195 C  
HETATM   22  C   UNL     1     -10.124  20.270  68.434  1.00  0.00    -0.341 A  
HETATM   23  H   UNL     1     -11.185  20.535  64.668  1.00  0.00     0.000 HD 
HETATM   24  C   UNL     1      -8.870  11.425  67.415  1.00  0.00    -0.150 C  
HETATM   25  O   UNL     1      -9.303  16.405  69.830  1.00  0.00     0.052 OA 
HETATM   26  C   UNL     1      -9.181  16.561  68.408  1.00  0.00    -0.222 C  
HETATM   27  O   UNL     1      -9.468   9.923  65.487  1.00  0.00    -0.210 OA 
HETATM   28  C   UNL     1      -9.756  18.998  68.869  1.00  0.00    -0.442 A  
HETATM   29  H   UNL     1      -8.857  17.154  70.208  1.00  0.00     0.000 HD 
HETATM   30  H   UNL     1      -8.546   9.758  65.326  1.00  0.00     0.000 HD 
HETATM   31  C   UNL     1      -9.805  17.883  68.004  1.00  0.00    -0.320 A  
ENDROOT
BRANCH  19  32
HETATM   32  C   UNL     1     -11.415  10.413  68.464  1.00  0.00    -0.162 C  
HETATM   33  H   UNL     1     -12.544  12.147  68.813  1.00  0.00     0.000 HD 
HETATM   34  O   UNL     1     -10.965   9.406  69.016  1.00  0.00    -0.176 OA 
HETATM   35  N   UNL     1     -12.144  11.301  69.217  1.00  0.00    -0.332 N  
BRANCH  35  36
HETATM   36  C   UNL     1     -12.312  10.968  70.613  1.00  0.00    -0.386 C  
BRANCH  36  37
HETATM   37  N   UNL     1     -12.392  12.167  71.431  1.00  0.00    -0.099 NA 
HETATM   38  C   UNL     1     -12.313  13.381  70.593  1.00  0.00    -0.348 C  
HETATM   39  C   UNL     1     -12.773  14.467  71.546  1.00  0.00    -0.417 C  
HETATM   40  C   UNL     1     -13.872  13.793  72.350  1.00  0.00    -0.681 C  
HETATM   41  C   UNL     1     -13.658  12.293  72.155  1.00  0.00    -0.247 C  
ENDBRANCH  36  37
ENDBRANCH  35  36
ENDBRANCH  19  32
BRANCH  24  42
HETATM   42  N   UNL     1      -7.519  11.220  66.850  1.00  0.00    -0.139 NA 
HETATM   43  C   UNL     1      -7.008   9.892  67.214  1.00  0.00    -0.084 C  
HETATM   44  C   UNL     1      -6.515  12.229  67.107  1.00  0.00    -0.117 C  
ENDBRANCH  24  42
TORSDOF 4
ENDMDL
MODEL        2
REMARK 921   NORMALIZED FREE ENERGY PREDICTED BY IDOCK:   -8.12 KCAL/MOL
REMARK 922        TOTAL FREE ENERGY PREDICTED BY IDOCK:  -10.60 KCAL/MOL
REMARK 923 INTER-LIGAND FREE ENERGY PREDICTED BY IDOCK:  -10.41 KCAL/MOL
REMARK 924 INTRA-LIGAND FREE ENERGY PREDICTED BY IDOCK:   -0.19 KCAL/MOL
REMARK 927      BINDING AFFINITY PREDICTED BY RF-SCORE:    0.00 PKD
ROOT
HETATM    1  C   UNL     1      -9.487  13.479  67.255  1.00  0.00    -0.230 C  
HETATM    2  C   UNL     1      -8.238  14.112  67.834  1.00  0.00    -0.155 C  
HETATM    3  C   UNL     1      -8.384  15.640  68.097  1.00  0.00    -0.146 C  
HETATM    4  C   UNL     1      -8.912  16.353  66.876  1.00  0.00    -0.240 C  
HETATM    5  C   UNL     1      -8.371  17.721  66.554  1.00  0.00    -0.265 C  
HETATM    6  C   UNL     1      -9.802  15.759  66.051  1.00  0.00    -0.337 C  
HETATM    7  C   UNL     1      -7.503  18.417  67.543  1.00  0.00    -0.221 A  
HETATM    8  O   UNL     1      -8.637  18.280  65.486  1.00  0.00    -0.078 OA 
HETATM    9  O   UNL     1     -10.203  16.347  64.849  1.00  0.00    -0.509 OA 
HETATM   10  C   UNL     1     -10.209  14.275  66.146  1.00  0.00    -0.307 C  
HETATM   11  C   UNL     1     -11.747  13.859  66.469  1.00  0.00    -0.393 C  
HETATM   12  H   UNL     1     -10.828  15.929  64.269  1.00  0.00     0.000 HD 
HETATM   13  O   UNL     1      -9.780  13.802  64.861  1.00  0.00    -0.589 OA 
HETATM   14  C   UNL     1      -7.182  19.780  67.380  1.00  0.00    -0.226 A  
HETATM   15  O   UNL     1     -12.725  14.573  66.261  1.00  0.00    -0.192 OA 
HETATM   16  H   UNL     1     -10.224  14.291  64.179  1.00  0.00     0.000 HD 
HETATM   17  C   UNL     1      -6.431  20.460  68.342  1.00  0.00    -0.340 A  
HETATM   18  O   UNL     1      -7.552  20.521  66.292  1.00  0.00    -0.472 OA 
HETATM   19  C   UNL     1     -11.959  12.413  66.972  1.00  0.00    -0.257 C  
HETATM   20  C   UNL     1      -5.805  15.640  67.958  1.00  0.00    -0.151 C  
HETATM   21  C   UNL     1     -10.995  11.668  66.384  1.00  0.00    -0.295 C  
HETATM   22  C   UNL     1      -5.989  19.788  69.473  1.00  0.00    -0.325 A  
HETATM   23  H   UNL     1      -7.335  21.440  66.181  1.00  0.00     0.000 HD 
HETATM   24  C   UNL     1      -9.517  11.922  66.918  1.00  0.00    -0.199 C  
HETATM   25  O   UNL     1      -7.017  15.765  70.047  1.00  0.00    -0.076 OA 
HETATM   26  C   UNL     1      -7.052  16.198  68.679  1.00  0.00    -0.147 C  
HETATM   27  O   UNL     1     -11.075  11.395  65.013  1.00  0.00    -0.241 OA 
HETATM   28  C   UNL     1      -6.248  18.425  69.614  1.00  0.00    -0.235 A  
HETATM   29  H   UNL     1      -6.204  16.106  70.401  1.00  0.00     0.000 HD 
HETATM   30  H   UNL     1     -10.397  10.873  64.600  1.00  0.00     0.000 HD 
HETATM   31  C   UNL     1      -6.982  17.713  68.640  1.00  0.00    -0.237 A  
ENDROOT
BRANCH  19  32
HETATM   32  C   UNL     1     -12.031  11.962  68.427  1.00  0.00    -0.182 C  
HETATM   33  H   UNL     1     -12.038  13.872  69.298  1.00  0.00     0.000 HD 
HETATM   34  O   UNL     1     -12.085  10.760  68.695  1.00  0.00    -0.480 OA 
HETATM   35  N   UNL     1     -12.073  12.865  69.461  1.00  0.00    -0.258 N  
BRANCH  35  36
HETATM   36  C   UNL     1     -12.172  12.311  70.791  1.00  0.00    -0.260 C  
BRANCH  36  37
HETATM   37  N   UNL     1     -12.306  13.360  71.788  1.00  0.00    -0.006 NA 
HETATM   38  C   UNL     1     -11.870  14.662  71.241  1.00  0.00    -0.319 C  
HETATM   39  C   UNL     1     -12.417  15.643  72.260  1.00  0.00    -0.512 C  
HETATM   40  C   UNL     1     -13.757  15.043  72.649  1.00  0.00    -0.558 C  
HETATM   41  C   UNL     1     -13.688  13.579  72.219  1.00  0.00    -0.602 C  
ENDBRANCH  36  37
ENDBRANCH  35  36
ENDBRANCH  19  32
BRANCH  24  42
HETATM   42  N   UNL     1      -8.556  11.268  66.002  1.00  0.00    -0.162 NA 
HETATM   43  C   UNL     1      -8.958   9.880  65.745  1.00  0.00    -0.156 C  
HETATM   44  C   UNL     1      -7.151  11.327  66.339  1.00  0.00    -0.053 C  
ENDBRANCH  24  42
TORSDOF 4
ENDMDL
MODEL        3
REMARK 921   NORMALIZED FREE ENERGY PREDICTED BY IDOCK:   -8.10 KCAL/MOL
REMARK 922        TOTAL FREE ENERGY PREDICTED BY IDOCK:  -10.57 KCAL/MOL
REMARK 923 INTER-LIGAND FREE ENERGY PREDICTED BY IDOCK:   -9.93 KCAL/MOL
REMARK 924 INTRA-LIGAND FREE ENERGY PREDICTED BY IDOCK:   -0.64 KCAL/MOL
REMARK 927      BINDING AFFINITY PREDICTED BY RF-SCORE:    0.00 PKD
ROOT
HETATM    1  C   UNL     1      -9.330   8.323  68.933  1.00  0.00    -0.147 C  
HETATM    2  C   UNL     1      -9.532   9.823  68.875  1.00  0.00    -0.161 C  
HETATM    3  C   UNL     1     -10.522  10.271  67.760  1.00  0.00    -0.269 C  
HETATM    4  C   UNL     1     -10.155   9.658  66.430  1.00  0.00    -0.317 C  
HETATM    5  C   UNL     1     -10.323  10.490  65.186  1.00  0.00    -0.240 C  
HETATM    6  C   UNL     1      -9.627   8.417  66.355  1.00  0.00    -0.237 C  
HETATM    7  C   UNL     1     -11.035  11.796  65.268  1.00  0.00    -0.350 A  
HETATM    8  O   UNL     1      -9.886  10.109  64.097  1.00  0.00    -0.305 OA 
HETATM    9  O   UNL     1      -9.160   7.883  65.151  1.00  0.00    -0.376 OA 
HETATM   10  C   UNL     1      -9.172   7.598  67.579  1.00  0.00    -0.132 C  
HETATM   11  C   UNL     1      -9.889   6.184  67.941  1.00  0.00    -0.123 C  
HETATM   12  H   UNL     1      -8.789   7.010  65.099  1.00  0.00     0.000 HD 
HETATM   13  O   UNL     1      -7.777   7.436  67.283  1.00  0.00    -0.111 OA 
HETATM   14  C   UNL     1     -11.417  12.478  64.095  1.00  0.00    -0.385 A  
HETATM   15  O   UNL     1     -10.493   5.478  67.137  1.00  0.00    -0.227 OA 
HETATM   16  H   UNL     1      -7.680   6.990  66.450  1.00  0.00     0.000 HD 
HETATM   17  C   UNL     1     -12.151  13.665  64.163  1.00  0.00    -0.484 A  
HETATM   18  O   UNL     1     -11.097  12.057  62.834  1.00  0.00    -0.635 OA 
HETATM   19  C   UNL     1      -9.679   5.676  69.386  1.00  0.00    -0.208 C  
HETATM   20  C   UNL     1      -9.297  12.536  67.951  1.00  0.00    -0.200 C  
HETATM   21  C   UNL     1      -8.457   6.117  69.762  1.00  0.00    -0.128 C  
HETATM   22  C   UNL     1     -12.506  14.186  65.400  1.00  0.00    -0.488 A  
HETATM   23  H   UNL     1     -11.355  12.516  62.044  1.00  0.00     0.000 HD 
HETATM   24  C   UNL     1      -8.345   7.685  70.012  1.00  0.00    -0.134 C  
HETATM   25  O   UNL     1     -11.481  12.130  68.905  1.00  0.00    -0.249 OA 
HETATM   26  C   UNL     1     -10.654  11.822  67.773  1.00  0.00    -0.200 C  
HETATM   27  O   UNL     1      -7.312   5.539  69.200  1.00  0.00    -0.073 OA 
HETATM   28  C   UNL     1     -12.079  13.553  66.566  1.00  0.00    -0.460 A  
HETATM   29  H   UNL     1     -11.561  13.077  68.912  1.00  0.00     0.000 HD 
HETATM   30  H   UNL     1      -6.454   5.848  69.464  1.00  0.00     0.000 HD 
HETATM   31  C   UNL     1     -11.314  12.367  66.520  1.00  0.00    -0.392 A  
ENDROOT
BRANCH  19  32
HETATM   32  C   UNL     1     -10.611   5.909  70.570  1.00  0.00    -0.275 C  
HETATM   33  H   UNL     1     -12.051   7.053  69.559  1.00  0.00     0.000 HD 
HETATM   34  O   UNL     1     -10.341   5.417  71.669  1.00  0.00    -0.205 OA 
HETATM   35  N   UNL     1     -11.774   6.628  70.444  1.00  0.00    -0.398 N  
BRANCH  35  36
HETATM   36  C   UNL     1     -12.584   6.750  71.634  1.00  0.00    -0.333 C  
BRANCH  36  37
HETATM   37  N   UNL     1     -12.629   8.126  72.099  1.00  0.00    -0.323 NA 
HETATM   38  C   UNL     1     -12.025   9.036  71.104  1.00  0.00    -0.298 C  
HETATM   39  C   UNL     1     -12.489  10.398  71.584  1.00  0.00    -0.471 C  
HETATM   40  C   UNL     1     -13.902  10.140  72.076  1.00  0.00    -0.063 C  
HETATM   41  C   UNL     1     -13.990   8.630  72.291  1.00  0.00    -0.409 C  
ENDBRANCH  36  37
ENDBRANCH  35  36
ENDBRANCH  19  32
BRANCH  24  42
HETATM   42  N   UNL     1      -6.917   8.052  70.128  1.00  0.00    -0.048 NA 
HETATM   43  C   UNL     1      -6.460   7.899  71.515  1.00  0.00    -0.039 C  
HETATM   44  C   UNL     1      -6.502   9.335  69.604  1.00  0.00    -0.040 C  
ENDBRANCH  24  42
TORSDOF 4
ENDMDL
MODEL        4
REMARK 921   NORMALIZED FREE ENERGY PREDICTED BY IDOCK:   -8.06 KCAL/MOL
REMARK 922        TOTAL FREE ENERGY PREDICTED BY IDOCK:  -10.53 KCAL/MOL
REMARK 923 INTER-LIGAND FREE ENERGY PREDICTED BY IDOCK:  -10.70 KCAL/MOL
REMARK 924 INTRA-LIGAND FREE ENERGY PREDICTED BY IDOCK:    0.17 KCAL/MOL
REMARK 927      BINDING AFFINITY PREDICTED BY RF-SCORE:    0.00 PKD
ROOT
HETATM    1  C   UNL     1      -9.307  12.570  66.881  1.00  0.00    -0.219 C  
HETATM    2  C   UNL     1      -8.634  13.809  67.439  1.00  0.00    -0.208 C  
HETATM    3  C   UNL     1      -9.569  15.053  67.483  1.00  0.00    -0.203 C  
HETATM    4  C   UNL     1     -10.237  15.278  66.148  1.00  0.00    -0.320 C  
HETATM    5  C   UNL     1     -10.436  16.693  65.675  1.00  0.00    -0.297 C  
HETATM    6  C   UNL     1     -10.594  14.238  65.362  1.00  0.00    -0.354 C  
HETATM    7  C   UNL     1     -10.170  17.822  66.609  1.00  0.00    -0.361 A  
HETATM    8  O   UNL     1     -10.820  16.937  64.528  1.00  0.00    -0.849 OA 
HETATM    9  O   UNL     1     -11.092  14.425  64.070  1.00  0.00    -0.534 OA 
HETATM   10  C   UNL     1     -10.195  12.774  65.634  1.00  0.00    -0.279 C  
HETATM   11  C   UNL     1     -11.331  11.648  65.923  1.00  0.00    -0.199 C  
HETATM   12  H   UNL     1     -11.342  13.694  63.517  1.00  0.00     0.000 HD 
HETATM   13  O   UNL     1      -9.435  12.485  64.452  1.00  0.00    -0.452 OA 
HETATM   14  C   UNL     1     -10.572  19.133  66.280  1.00  0.00    -0.434 A  
HETATM   15  O   UNL     1     -12.504  11.727  65.563  1.00  0.00    -0.077 OA 
HETATM   16  H   UNL     1      -9.981  12.610  63.686  1.00  0.00     0.000 HD 
HETATM   17  C   UNL     1     -10.394  20.185  67.182  1.00  0.00    -0.501 A  
HETATM   18  O   UNL     1     -11.135  19.476  65.082  1.00  0.00    -0.345 OA 
HETATM   19  C   UNL     1     -10.834  10.353  66.604  1.00  0.00    -0.140 C  
HETATM   20  C   UNL     1      -7.357  16.384  67.493  1.00  0.00    -0.170 C  
HETATM   21  C   UNL     1      -9.563  10.171  66.179  1.00  0.00    -0.203 C  
HETATM   22  C   UNL     1      -9.810  19.941  68.418  1.00  0.00    -0.489 A  
HETATM   23  H   UNL     1     -11.406  20.359  64.861  1.00  0.00     0.000 HD 
HETATM   24  C   UNL     1      -8.497  11.203  66.757  1.00  0.00    -0.153 C  
HETATM   25  O   UNL     1      -8.702  16.040  69.473  1.00  0.00    -0.216 OA 
HETATM   26  C   UNL     1      -8.789  16.271  68.059  1.00  0.00    -0.182 C  
HETATM   27  O   UNL     1      -9.328   9.780  64.855  1.00  0.00    -0.241 OA 
HETATM   28  C   UNL     1      -9.352  18.662  68.727  1.00  0.00    -0.334 A  
HETATM   29  H   UNL     1      -8.225  16.783  69.824  1.00  0.00     0.000 HD 
HETATM   30  H   UNL     1      -8.435   9.653  64.556  1.00  0.00     0.000 HD 
HETATM   31  C   UNL     1      -9.497  17.590  67.819  1.00  0.00    -0.269 A  
ENDROOT
BRANCH  19  32
HETATM   32  C   UNL     1     -10.839  10.059  68.100  1.00  0.00    -0.255 C  
HETATM   33  H   UNL     1     -12.065  11.659  68.683  1.00  0.00     0.000 HD 
HETATM   34  O   UNL     1     -10.231   9.078  68.535  1.00  0.00    -0.189 OA 
HETATM   35  N   UNL     1     -11.539  10.840  68.987  1.00  0.00    -0.297 N  
BRANCH  35  36
HETATM   36  C   UNL     1     -11.488  10.437  70.373  1.00  0.00    -0.337 C  
BRANCH  36  37
HETATM   37  N   UNL     1     -12.687   9.709  70.752  1.00  0.00    -0.186 NA 
HETATM   38  C   UNL     1     -12.365   8.307  71.091  1.00  0.00    -0.206 C  
HETATM   39  C   UNL     1     -13.628   7.842  71.790  1.00  0.00    -0.390 C  
HETATM   40  C   UNL     1     -14.065   9.060  72.585  1.00  0.00    -0.335 C  
HETATM   41  C   UNL     1     -13.339  10.243  71.948  1.00  0.00    -0.383 C  
ENDBRANCH  36  37
ENDBRANCH  35  36
ENDBRANCH  19  32
BRANCH  24  42
HETATM   42  N   UNL     1      -7.236  11.069  65.995  1.00  0.00    -0.069 NA 
HETATM   43  C   UNL     1      -6.904   9.652  65.801  1.00  0.00    -0.093 C  
HETATM   44  C   UNL     1      -6.078  11.794  66.468  1.00  0.00     0.067 C  
ENDBRANCH  24  42
TORSDOF 4
ENDMDL
MODEL        5
REMARK 921   NORMALIZED FREE ENERGY PREDICTED BY IDOCK:   -8.02 KCAL/MOL
REMARK 922        TOTAL FREE ENERGY PREDICTED BY IDOCK:  -10.47 KCAL/MOL
REMARK 923 INTER-LIGAND FREE ENERGY PREDICTED BY IDOCK:  -10.84 KCAL/MOL
REMARK 924 INTRA-LIGAND FREE ENERGY PREDICTED BY IDOCK:    0.37 KCAL/MOL
REMARK 927      BINDING AFFINITY PREDICTED BY RF-SCORE:    0.00 PKD
ROOT
HETATM    1  C   UNL     1      -9.104  12.702  67.136  1.00  0.00    -0.210 C  
HETATM    2  C   UNL     1      -8.383  13.979  67.516  1.00  0.00    -0.200 C  
HETATM    3  C   UNL     1      -9.306  15.233  67.520  1.00  0.00    -0.204 C  
HETATM    4  C   UNL     1     -10.083  15.339  66.231  1.00  0.00    -0.297 C  
HETATM    5  C   UNL     1     -10.316  16.706  65.645  1.00  0.00    -0.290 C  
HETATM    6  C   UNL     1     -10.509  14.235  65.579  1.00  0.00    -0.346 C  
HETATM    7  C   UNL     1      -9.968  17.915  66.442  1.00  0.00    -0.358 A  
HETATM    8  O   UNL     1     -10.794  16.846  64.516  1.00  0.00    -0.849 OA 
HETATM    9  O   UNL     1     -11.114  14.305  64.322  1.00  0.00    -0.599 OA 
HETATM   10  C   UNL     1     -10.094  12.798  65.954  1.00  0.00    -0.276 C  
HETATM   11  C   UNL     1     -11.206  11.717  66.442  1.00  0.00    -0.323 C  
HETATM   12  H   UNL     1     -11.413  13.529  63.864  1.00  0.00     0.000 HD 
HETATM   13  O   UNL     1      -9.438  12.390  64.745  1.00  0.00    -0.454 OA 
HETATM   14  C   UNL     1     -10.391  19.193  66.026  1.00  0.00    -0.463 A  
HETATM   15  O   UNL     1     -12.405  11.776  66.177  1.00  0.00    -0.100 OA 
HETATM   16  H   UNL     1     -10.046  12.449  64.019  1.00  0.00     0.000 HD 
HETATM   17  C   UNL     1     -10.134  20.323  66.806  1.00  0.00    -0.556 A  
HETATM   18  O   UNL     1     -11.052  19.429  64.852  1.00  0.00    -0.253 OA 
HETATM   19  C   UNL     1     -10.658  10.486  67.199  1.00  0.00    -0.319 C  
HETATM   20  C   UNL     1      -7.095  16.533  67.219  1.00  0.00    -0.205 C  
HETATM   21  C   UNL     1      -9.428  10.251  66.688  1.00  0.00    -0.166 C  
HETATM   22  C   UNL     1      -9.447  20.190  68.005  1.00  0.00    -0.389 A  
HETATM   23  H   UNL     1     -11.337  20.291  64.572  1.00  0.00     0.000 HD 
HETATM   24  C   UNL     1      -8.313  11.319  67.074  1.00  0.00    -0.153 C  
HETATM   25  O   UNL     1      -8.269  16.392  69.328  1.00  0.00    -0.222 OA 
HETATM   26  C   UNL     1      -8.474  16.490  67.911  1.00  0.00    -0.181 C  
HETATM   27  O   UNL     1      -9.308   9.734  65.392  1.00  0.00    -0.212 OA 
HETATM   28  C   UNL     1      -8.970  18.940  68.395  1.00  0.00    -0.377 A  
HETATM   29  H   UNL     1      -7.762  17.159  69.566  1.00  0.00     0.000 HD 
HETATM   30  H   UNL     1      -8.444   9.569  65.032  1.00  0.00     0.000 HD 
HETATM   31  C   UNL     1      -9.196  17.790  67.608  1.00  0.00    -0.249 A  
ENDROOT
BRANCH  19  32
HETATM   32  C   UNL     1     -10.538  10.334  68.712  1.00  0.00    -0.209 C  
HETATM   33  H   UNL     1      -9.499   8.511  68.716  1.00  0.00     0.000 HD 
HETATM   34  O   UNL     1     -10.994  11.208  69.454  1.00  0.00    -0.238 OA 
HETATM   35  N   UNL     1      -9.899   9.260  69.281  1.00  0.00    -0.167 N  
BRANCH  35  36
HETATM   36  C   UNL     1      -9.826   9.250  70.723  1.00  0.00    -0.283 C  
BRANCH  36  37
HETATM   37  N   UNL     1     -10.193   7.949  71.258  1.00  0.00    -0.187 NA 
HETATM   38  C   UNL     1     -10.452   8.032  72.710  1.00  0.00    -0.345 C  
HETATM   39  C   UNL     1     -11.153   6.718  72.992  1.00  0.00    -0.252 C  
HETATM   40  C   UNL     1     -12.019   6.504  71.763  1.00  0.00    -0.394 C  
HETATM   41  C   UNL     1     -11.429   7.413  70.686  1.00  0.00    -0.282 C  
ENDBRANCH  36  37
ENDBRANCH  35  36
ENDBRANCH  19  32
BRANCH  24  42
HETATM   42  N   UNL     1      -7.122  11.100  66.225  1.00  0.00    -0.094 NA 
HETATM   43  C   UNL     1      -6.899   9.663  66.018  1.00  0.00    -0.088 C  
HETATM   44  C   UNL     1      -5.887  11.747  66.609  1.00  0.00    -0.049 C  
ENDBRANCH  24  42
TORSDOF 4
ENDMDL
MODEL        6
REMARK 921   NORMALIZED FREE ENERGY PREDICTED BY IDOCK:   -8.01 KCAL/MOL
REMARK 922        TOTAL FREE ENERGY PREDICTED BY IDOCK:  -10.46 KCAL/MOL
REMARK 923 INTER-LIGAND FREE ENERGY PREDICTED BY IDOCK:  -10.12 KCAL/MOL
REMARK 924 INTRA-LIGAND FREE ENERGY PREDICTED BY IDOCK:   -0.34 KCAL/MOL
REMARK 927      BINDING AFFINITY PREDICTED BY RF-SCORE:    0.00 PKD
ROOT
HETATM    1  C   UNL     1      -9.249  13.500  67.720  1.00  0.00    -0.213 C  
HETATM    2  C   UNL     1      -8.017  14.193  68.267  1.00  0.00    -0.140 C  
HETATM    3  C   UNL     1      -8.202  15.728  68.450  1.00  0.00    -0.151 C  
HETATM    4  C   UNL     1      -8.744  16.364  67.193  1.00  0.00    -0.207 C  
HETATM    5  C   UNL     1      -8.236  17.726  66.802  1.00  0.00    -0.250 C  
HETATM    6  C   UNL     1      -9.616  15.706  66.399  1.00  0.00    -0.290 C  
HETATM    7  C   UNL     1      -7.388  18.494  67.755  1.00  0.00    -0.238 A  
HETATM    8  O   UNL     1      -8.512  18.222  65.706  1.00  0.00    -0.473 OA 
HETATM    9  O   UNL     1     -10.028  16.221  65.167  1.00  0.00    -0.471 OA 
HETATM   10  C   UNL     1      -9.987  14.219  66.569  1.00  0.00    -0.281 C  
HETATM   11  C   UNL     1     -11.515  13.782  66.911  1.00  0.00    -0.347 C  
HETATM   12  H   UNL     1     -10.641  15.758  64.608  1.00  0.00     0.000 HD 
HETATM   13  O   UNL     1      -9.542  13.691  65.311  1.00  0.00    -0.534 OA 
HETATM   14  C   UNL     1      -7.100  19.854  67.522  1.00  0.00    -0.253 A  
HETATM   15  O   UNL     1     -12.510  14.460  66.664  1.00  0.00    -0.351 OA 
HETATM   16  H   UNL     1      -9.996  14.133  64.604  1.00  0.00     0.000 HD 
HETATM   17  C   UNL     1      -6.369  20.602  68.449  1.00  0.00    -0.341 A  
HETATM   18  O   UNL     1      -7.485  20.529  66.396  1.00  0.00    -0.434 OA 
HETATM   19  C   UNL     1     -11.693  12.359  67.488  1.00  0.00    -0.425 C  
HETATM   20  C   UNL     1      -5.624  15.785  68.316  1.00  0.00    -0.116 C  
HETATM   21  C   UNL     1     -10.709  11.609  66.941  1.00  0.00    -0.257 C  
HETATM   22  C   UNL     1      -5.914  19.999  69.614  1.00  0.00    -0.370 A  
HETATM   23  H   UNL     1      -7.291  21.445  66.239  1.00  0.00     0.000 HD 
HETATM   24  C   UNL     1      -9.239  11.927  67.463  1.00  0.00    -0.177 C  
HETATM   25  O   UNL     1      -6.844  15.988  70.393  1.00  0.00     0.313 OA 
HETATM   26  C   UNL     1      -6.885  16.348  69.005  1.00  0.00    -0.198 C  
HETATM   27  O   UNL     1     -10.778  11.264  65.585  1.00  0.00    -0.261 OA 
HETATM   28  C   UNL     1      -6.139  18.640  69.825  1.00  0.00    -0.248 A  
HETATM   29  H   UNL     1      -6.041  16.366  70.731  1.00  0.00     0.000 HD 
HETATM   30  H   UNL     1     -10.087  10.738  65.201  1.00  0.00     0.000 HD 
HETATM   31  C   UNL     1      -6.853  17.860  68.888  1.00  0.00    -0.250 A  
ENDROOT
BRANCH  19  32
HETATM   32  C   UNL     1     -11.758  11.983  68.964  1.00  0.00    -0.325 C  
HETATM   33  H   UNL     1     -11.769   9.901  68.710  1.00  0.00     0.000 HD 
HETATM   34  O   UNL     1     -11.762  12.869  69.823  1.00  0.00    -0.307 OA 
HETATM   35  N   UNL     1     -11.777  10.673  69.376  1.00  0.00    -0.281 N  
BRANCH  35  36
HETATM   36  C   UNL     1     -11.807  10.451  70.803  1.00  0.00    -0.368 C  
BRANCH  36  37
HETATM   37  N   UNL     1     -11.393   9.098  71.131  1.00  0.00    -0.294 NA 
HETATM   38  C   UNL     1     -12.552   8.279  71.542  1.00  0.00    -0.309 C  
HETATM   39  C   UNL     1     -11.995   6.870  71.480  1.00  0.00    -0.386 C  
HETATM   40  C   UNL     1     -11.084   6.899  70.265  1.00  0.00    -0.342 C  
HETATM   41  C   UNL     1     -10.808   8.378  69.999  1.00  0.00    -0.225 C  
ENDBRANCH  36  37
ENDBRANCH  35  36
ENDBRANCH  19  32
BRANCH  24  42
HETATM   42  N   UNL     1      -8.260  11.251  66.584  1.00  0.00    -0.161 NA 
HETATM   43  C   UNL     1      -8.307   9.798  66.789  1.00  0.00    -0.124 C  
HETATM   44  C   UNL     1      -6.891  11.716  66.611  1.00  0.00    -0.032 C  
ENDBRANCH  24  42
TORSDOF 4
ENDMDL
MODEL        7
REMARK 921   NORMALIZED FREE ENERGY PREDICTED BY IDOCK:   -7.85 KCAL/MOL
REMARK 922        TOTAL FREE ENERGY PREDICTED BY IDOCK:  -10.27 KCAL/MOL
REMARK 923 INTER-LIGAND FREE ENERGY PREDICTED BY IDOCK:   -9.49 KCAL/MOL
REMARK 924 INTRA-LIGAND FREE ENERGY PREDICTED BY IDOCK:   -0.78 KCAL/MOL
REMARK 927      BINDING AFFINITY PREDICTED BY RF-SCORE:    0.00 PKD
ROOT
HETATM    1  C   UNL     1      -9.939  12.803  67.983  1.00  0.00    -0.225 C  
HETATM    2  C   UNL     1      -9.500  11.437  68.470  1.00  0.00    -0.183 C  
HETATM    3  C   UNL     1     -10.681  10.540  68.944  1.00  0.00    -0.253 C  
HETATM    4  C   UNL     1     -11.563  11.276  69.923  1.00  0.00    -0.413 C  
HETATM    5  C   UNL     1     -12.147  10.507  71.079  1.00  0.00    -0.387 C  
HETATM    6  C   UNL     1     -11.776  12.604  69.808  1.00  0.00    -0.284 C  
HETATM    7  C   UNL     1     -12.021   9.024  71.112  1.00  0.00    -0.356 A  
HETATM    8  O   UNL     1     -12.734  11.083  71.999  1.00  0.00    -0.305 OA 
HETATM    9  O   UNL     1     -12.480  13.327  70.775  1.00  0.00    -0.353 OA 
HETATM   10  C   UNL     1     -11.016  13.519  68.827  1.00  0.00    -0.261 C  
HETATM   11  C   UNL     1     -11.810  14.304  67.645  1.00  0.00    -0.385 C  
HETATM   12  H   UNL     1     -12.630  14.261  70.695  1.00  0.00     0.000 HD 
HETATM   13  O   UNL     1     -10.383  14.421  69.745  1.00  0.00    -0.438 OA 
HETATM   14  C   UNL     1     -12.757   8.264  72.043  1.00  0.00    -0.342 A  
HETATM   15  O   UNL     1     -13.007  14.579  67.668  1.00  0.00     0.973 OA 
HETATM   16  H   UNL     1     -11.045  14.862  70.264  1.00  0.00     0.000 HD 
HETATM   17  C   UNL     1     -12.702   6.868  72.032  1.00  0.00    -0.230 A  
HETATM   18  O   UNL     1     -13.546   8.813  73.016  1.00  0.00    -0.882 OA 
HETATM   19  C   UNL     1     -10.937  14.820  66.479  1.00  0.00    -0.325 C  
HETATM   20  C   UNL     1      -8.856   9.309  70.294  1.00  0.00    -0.254 C  
HETATM   21  C   UNL     1      -9.730  15.113  67.017  1.00  0.00    -0.231 C  
HETATM   22  C   UNL     1     -11.910   6.217  71.096  1.00  0.00    -0.234 A  
HETATM   23  H   UNL     1     -14.042   8.300  73.644  1.00  0.00     0.000 HD 
HETATM   24  C   UNL     1      -8.861  13.856  67.465  1.00  0.00    -0.196 C  
HETATM   25  O   UNL     1      -9.795   8.440  68.242  1.00  0.00    -0.159 OA 
HETATM   26  C   UNL     1     -10.130   9.168  69.433  1.00  0.00    -0.197 C  
HETATM   27  O   UNL     1      -9.599  16.232  67.848  1.00  0.00    -0.224 OA 
HETATM   28  C   UNL     1     -11.130   6.960  70.212  1.00  0.00    -0.342 A  
HETATM   29  H   UNL     1      -9.459   7.603  68.541  1.00  0.00     0.000 HD 
HETATM   30  H   UNL     1      -8.752  16.437  68.226  1.00  0.00     0.000 HD 
HETATM   31  C   UNL     1     -11.150   8.372  70.224  1.00  0.00    -0.216 A  
ENDROOT
BRANCH  19  32
HETATM   32  C   UNL     1     -10.664  14.097  65.164  1.00  0.00    -0.388 C  
HETATM   33  H   UNL     1     -12.078  12.564  65.404  1.00  0.00     0.000 HD 
HETATM   34  O   UNL     1      -9.819  14.541  64.383  1.00  0.00     0.183 OA 
HETATM   35  N   UNL     1     -11.364  12.972  64.801  1.00  0.00    -0.306 N  
BRANCH  35  36
HETATM   36  C   UNL     1     -11.032  12.399  63.517  1.00  0.00    -0.450 C  
BRANCH  36  37
HETATM   37  N   UNL     1     -10.556  11.034  63.659  1.00  0.00    -0.334 NA 
HETATM   38  C   UNL     1      -9.251  10.860  62.989  1.00  0.00    -0.319 C  
HETATM   39  C   UNL     1      -8.770   9.535  63.549  1.00  0.00    -0.235 C  
HETATM   40  C   UNL     1      -9.232   9.571  64.995  1.00  0.00    -0.297 C  
HETATM   41  C   UNL     1     -10.318  10.643  65.050  1.00  0.00    -0.271 C  
ENDBRANCH  36  37
ENDBRANCH  35  36
ENDBRANCH  19  32
BRANCH  24  42
HETATM   42  N   UNL     1      -7.723  14.327  68.284  1.00  0.00    -0.125 NA 
HETATM   43  C   UNL     1      -6.781  15.094  67.459  1.00  0.00    -0.160 C  
HETATM   44  C   UNL     1      -7.011  13.352  69.080  1.00  0.00    -0.084 C  
ENDBRANCH  24  42
TORSDOF 4
ENDMDL
MODEL        8
REMARK 921   NORMALIZED FREE ENERGY PREDICTED BY IDOCK:   -7.82 KCAL/MOL
REMARK 922        TOTAL FREE ENERGY PREDICTED BY IDOCK:  -10.22 KCAL/MOL
REMARK 923 INTER-LIGAND FREE ENERGY PREDICTED BY IDOCK:   -9.93 KCAL/MOL
REMARK 924 INTRA-LIGAND FREE ENERGY PREDICTED BY IDOCK:   -0.29 KCAL/MOL
REMARK 927      BINDING AFFINITY PREDICTED BY RF-SCORE:    0.00 PKD
ROOT
HETATM    1  C   UNL     1      -8.642  11.720  67.273  1.00  0.00    -0.162 C  
HETATM    2  C   UNL     1      -7.613  12.750  67.691  1.00  0.00    -0.152 C  
HETATM    3  C   UNL     1      -8.223  14.156  67.966  1.00  0.00    -0.152 C  
HETATM    4  C   UNL     1      -9.096  14.604  66.819  1.00  0.00    -0.287 C  
HETATM    5  C   UNL     1      -9.077  16.059  66.430  1.00  0.00    -0.319 C  
HETATM    6  C   UNL     1      -9.829  13.717  66.112  1.00  0.00    -0.293 C  
HETATM    7  C   UNL     1      -8.379  17.042  67.302  1.00  0.00    -0.204 A  
HETATM    8  O   UNL     1      -9.634  16.453  65.402  1.00  0.00    -0.455 OA 
HETATM    9  O   UNL     1     -10.539  14.089  64.968  1.00  0.00    -0.360 OA 
HETATM   10  C   UNL     1      -9.710  12.187  66.260  1.00  0.00    -0.238 C  
HETATM   11  C   UNL     1     -10.976  11.305  66.773  1.00  0.00    -0.281 C  
HETATM   12  H   UNL     1     -11.055  13.465  64.471  1.00  0.00     0.000 HD 
HETATM   13  O   UNL     1      -9.302  11.825  64.933  1.00  0.00    -0.417 OA 
HETATM   14  C   UNL     1      -8.546  18.427  67.097  1.00  0.00    -0.262 A  
HETATM   15  O   UNL     1     -12.152  11.650  66.686  1.00  0.00    -0.441 OA 
HETATM   16  H   UNL     1      -9.958  12.112  64.310  1.00  0.00     0.000 HD 
HETATM   17  C   UNL     1      -7.955  19.356  67.956  1.00  0.00    -0.340 A  
HETATM   18  O   UNL     1      -9.263  18.959  66.061  1.00  0.00    -0.468 OA 
HETATM   19  C   UNL     1     -10.640   9.892  67.302  1.00  0.00    -0.316 C  
HETATM   20  C   UNL     1      -5.824  14.994  67.509  1.00  0.00     0.042 C  
HETATM   21  C   UNL     1      -9.559   9.479  66.600  1.00  0.00    -0.188 C  
HETATM   22  C   UNL     1      -7.187  18.914  69.025  1.00  0.00    -0.328 A  
HETATM   23  H   UNL     1      -9.376  19.892  65.923  1.00  0.00     0.000 HD 
HETATM   24  C   UNL     1      -8.196  10.225  66.946  1.00  0.00    -0.123 C  
HETATM   25  O   UNL     1      -6.757  14.806  69.731  1.00  0.00    -0.155 OA 
HETATM   26  C   UNL     1      -7.091  15.144  68.377  1.00  0.00    -0.107 C  
HETATM   27  O   UNL     1      -9.704   9.137  65.250  1.00  0.00    -0.462 OA 
HETATM   28  C   UNL     1      -6.963  17.549  69.200  1.00  0.00    -0.211 A  
HETATM   29  H   UNL     1      -6.066  15.408  69.981  1.00  0.00     0.000 HD 
HETATM   30  H   UNL     1      -8.945   8.847  64.757  1.00  0.00     0.000 HD 
HETATM   31  C   UNL     1      -7.530  16.595  68.327  1.00  0.00    -0.182 A  
ENDROOT
BRANCH  19  32
HETATM   32  C   UNL     1     -10.389   9.507  68.756  1.00  0.00    -0.208 C  
HETATM   33  H   UNL     1     -11.554  11.013  69.637  1.00  0.00     0.000 HD 
HETATM   34  O   UNL     1      -9.685   8.529  69.018  1.00  0.00    -0.165 OA 
HETATM   35  N   UNL     1     -10.958  10.200  69.795  1.00  0.00    -0.261 N  
BRANCH  35  36
HETATM   36  C   UNL     1     -10.667   9.715  71.124  1.00  0.00    -0.294 C  
BRANCH  36  37
HETATM   37  N   UNL     1     -11.854   9.158  71.751  1.00  0.00    -0.363 NA 
HETATM   38  C   UNL     1     -13.078   9.764  71.187  1.00  0.00    -0.346 C  
HETATM   39  C   UNL     1     -14.163   8.824  71.677  1.00  0.00    -0.414 C  
HETATM   40  C   UNL     1     -13.512   7.454  71.593  1.00  0.00    -0.437 C  
HETATM   41  C   UNL     1     -12.010   7.720  71.526  1.00  0.00    -0.300 C  
ENDBRANCH  36  37
ENDBRANCH  35  36
ENDBRANCH  19  32
BRANCH  24  42
HETATM   42  N   UNL     1      -7.187   9.883  65.919  1.00  0.00    -0.103 NA 
HETATM   43  C   UNL     1      -6.741   8.493  66.084  1.00  0.00    -0.068 C  
HETATM   44  C   UNL     1      -6.047  10.760  65.770  1.00  0.00    -0.116 C  
ENDBRANCH  24  42
TORSDOF 4
ENDMDL
MODEL        9
REMARK 921   NORMALIZED FREE ENERGY PREDICTED BY IDOCK:   -7.53 KCAL/MOL
REMARK 922        TOTAL FREE ENERGY PREDICTED BY IDOCK:   -9.86 KCAL/MOL
REMARK 923 INTER-LIGAND FREE ENERGY PREDICTED BY IDOCK:   -8.95 KCAL/MOL
REMARK 924 INTRA-LIGAND FREE ENERGY PREDICTED BY IDOCK:   -0.91 KCAL/MOL
REMARK 927      BINDING AFFINITY PREDICTED BY RF-SCORE:    0.00 PKD
ROOT
HETATM    1  C   UNL     1      -9.984   7.916  69.779  1.00  0.00    -0.186 C  
HETATM    2  C   UNL     1     -10.353   9.191  69.048  1.00  0.00    -0.229 C  
HETATM    3  C   UNL     1     -10.666  10.381  70.001  1.00  0.00    -0.321 C  
HETATM    4  C   UNL     1     -11.664   9.981  71.061  1.00  0.00    -0.479 C  
HETATM    5  C   UNL     1     -12.701  10.987  71.485  1.00  0.00    -0.415 C  
HETATM    6  C   UNL     1     -11.673   8.732  71.575  1.00  0.00    -0.309 C  
HETATM    7  C   UNL     1     -12.590  12.396  71.017  1.00  0.00    -0.349 A  
HETATM    8  O   UNL     1     -13.641  10.668  72.218  1.00  0.00    -0.253 OA 
HETATM    9  O   UNL     1     -12.667   8.303  72.457  1.00  0.00    -0.542 OA 
HETATM   10  C   UNL     1     -10.834   7.564  71.019  1.00  0.00    -0.235 C  
HETATM   11  C   UNL     1      -9.696   6.854  71.937  1.00  0.00    -0.161 C  
HETATM   12  H   UNL     1     -12.674   7.425  72.819  1.00  0.00     0.000 HD 
HETATM   13  O   UNL     1     -11.874   6.649  70.643  1.00  0.00    -0.382 OA 
HETATM   14  C   UNL     1     -13.397  13.404  71.583  1.00  0.00    -0.338 A  
HETATM   15  O   UNL     1      -9.679   6.865  73.166  1.00  0.00    -0.157 OA 
HETATM   16  H   UNL     1     -12.396   6.433  71.406  1.00  0.00     0.000 HD 
HETATM   17  C   UNL     1     -13.247  14.740  71.203  1.00  0.00    -0.452 A  
HETATM   18  O   UNL     1     -14.374  13.163  72.508  1.00  0.00    -0.613 OA 
HETATM   19  C   UNL     1      -8.639   6.025  71.173  1.00  0.00    -0.129 C  
HETATM   20  C   UNL     1     -11.985  11.305  67.982  1.00  0.00    -0.132 C  
HETATM   21  C   UNL     1      -9.270   5.526  70.085  1.00  0.00    -0.141 C  
HETATM   22  C   UNL     1     -12.296  15.084  70.252  1.00  0.00    -0.392 A  
HETATM   23  H   UNL     1     -14.918  13.842  72.890  1.00  0.00     0.000 HD 
HETATM   24  C   UNL     1      -9.637   6.592  68.961  1.00  0.00    -0.132 C  
HETATM   25  O   UNL     1      -9.806  12.130  68.627  1.00  0.00    -0.320 OA 
HETATM   26  C   UNL     1     -11.043  11.636  69.160  1.00  0.00    -0.245 C  
HETATM   27  O   UNL     1     -10.218   4.507  70.246  1.00  0.00    -0.219 OA 
HETATM   28  C   UNL     1     -11.537  14.087  69.641  1.00  0.00    -0.348 A  
HETATM   29  H   UNL     1     -10.036  12.896  68.114  1.00  0.00     0.000 HD 
HETATM   30  H   UNL     1     -10.661   4.157  69.482  1.00  0.00     0.000 HD 
HETATM   31  C   UNL     1     -11.691  12.728  69.990  1.00  0.00    -0.282 A  
ENDROOT
BRANCH  19  32
HETATM   32  C   UNL     1      -7.275   6.515  70.698  1.00  0.00    -0.074 C  
HETATM   33  H   UNL     1      -7.372   8.434  71.542  1.00  0.00     0.000 HD 
HETATM   34  O   UNL     1      -6.544   5.762  70.050  1.00  0.00    -0.040 OA 
HETATM   35  N   UNL     1      -6.813   7.772  71.004  1.00  0.00    -0.045 N  
BRANCH  35  36
HETATM   36  C   UNL     1      -5.493   8.103  70.521  1.00  0.00    -0.022 C  
BRANCH  36  37
HETATM   37  N   UNL     1      -5.506   9.347  69.769  1.00  0.00    -0.033 NA 
HETATM   38  C   UNL     1      -6.493   9.286  68.671  1.00  0.00    -0.053 C  
HETATM   39  C   UNL     1      -6.618  10.741  68.264  1.00  0.00    -0.058 C  
HETATM   40  C   UNL     1      -6.532  11.489  69.583  1.00  0.00    -0.129 C  
HETATM   41  C   UNL     1      -5.906  10.505  70.570  1.00  0.00    -0.107 C  
ENDBRANCH  36  37
ENDBRANCH  35  36
ENDBRANCH  19  32
BRANCH  24  42
HETATM   42  N   UNL     1     -10.562   5.968  67.991  1.00  0.00    -0.238 NA 
HETATM   43  C   UNL     1      -9.880   4.903  67.244  1.00  0.00    -0.184 C  
HETATM   44  C   UNL     1     -11.278   6.836  67.082  1.00  0.00    -0.206 C  
ENDBRANCH  24  42
TORSDOF 4
ENDMDL
MODEL       10
REMARK 921   NORMALIZED FREE ENERGY PREDICTED BY IDOCK:   -7.47 KCAL/MOL
REMARK 922        TOTAL FREE ENERGY PREDICTED BY IDOCK:   -9.80 KCAL/MOL
REMARK 923 INTER-LIGAND FREE ENERGY PREDICTED BY IDOCK:   -9.58 KCAL/MOL
REMARK 924 INTRA-LIGAND FREE ENERGY PREDICTED BY IDOCK:   -0.22 KCAL/MOL
REMARK 927      BINDING AFFINITY PREDICTED BY RF-SCORE:    0.00 PKD
ROOT
HETATM    1  C   UNL     1     -10.213  11.735  67.409  1.00  0.00    -0.220 C  
HETATM    2  C   UNL     1     -10.665  10.307  67.638  1.00  0.00    -0.339 C  
HETATM    3  C   UNL     1      -9.861   9.576  68.754  1.00  0.00    -0.177 C  
HETATM    4  C   UNL     1      -8.375   9.710  68.529  1.00  0.00    -0.117 C  
HETATM    5  C   UNL     1      -7.492   8.533  68.848  1.00  0.00    -0.091 C  
HETATM    6  C   UNL     1      -7.848  10.833  67.994  1.00  0.00    -0.106 C  
HETATM    7  C   UNL     1      -8.065   7.361  69.566  1.00  0.00    -0.129 A  
HETATM    8  O   UNL     1      -6.300   8.521  68.531  1.00  0.00    -0.052 OA 
HETATM    9  O   UNL     1      -6.496  10.929  67.657  1.00  0.00    -0.055 OA 
HETATM   10  C   UNL     1      -8.688  11.978  67.392  1.00  0.00    -0.170 C  
HETATM   11  C   UNL     1      -8.643  13.467  68.043  1.00  0.00    -0.177 C  
HETATM   12  H   UNL     1      -6.126  11.718  67.281  1.00  0.00     0.000 HD 
HETATM   13  O   UNL     1      -8.216  11.966  66.037  1.00  0.00    -0.378 OA 
HETATM   14  C   UNL     1      -7.222   6.359  70.088  1.00  0.00    -0.084 A  
HETATM   15  O   UNL     1      -7.718  13.907  68.722  1.00  0.00    -0.134 OA 
HETATM   16  H   UNL     1      -7.278  12.115  66.027  1.00  0.00     0.000 HD 
HETATM   17  C   UNL     1      -7.744   5.295  70.827  1.00  0.00    -0.088 A  
HETATM   18  O   UNL     1      -5.867   6.336  69.904  1.00  0.00    -0.017 OA 
HETATM   19  C   UNL     1      -9.815  14.400  67.665  1.00  0.00    -0.224 C  
HETATM   20  C   UNL     1     -10.652   7.433  67.550  1.00  0.00    -0.340 C  
HETATM   21  C   UNL     1     -10.189  14.042  66.414  1.00  0.00    -0.291 C  
HETATM   22  C   UNL     1      -9.113   5.217  71.049  1.00  0.00    -0.178 A  
HETATM   23  H   UNL     1      -5.298   5.661  70.256  1.00  0.00     0.000 HD 
HETATM   24  C   UNL     1     -10.921  12.634  66.299  1.00  0.00    -0.283 C  
HETATM   25  O   UNL     1     -11.639   8.234  69.606  1.00  0.00    -0.357 OA 
HETATM   26  C   UNL     1     -10.390   8.119  68.907  1.00  0.00    -0.211 C  
HETATM   27  O   UNL     1      -9.356  14.351  65.332  1.00  0.00    -0.469 OA 
HETATM   28  C   UNL     1      -9.961   6.168  70.484  1.00  0.00    -0.223 A  
HETATM   29  H   UNL     1     -11.961   7.345  69.700  1.00  0.00     0.000 HD 
HETATM   30  H   UNL     1      -9.618  14.099  64.454  1.00  0.00     0.000 HD 
HETATM   31  C   UNL     1      -9.456   7.236  69.711  1.00  0.00    -0.149 A  
ENDROOT
BRANCH  19  32
HETATM   32  C   UNL     1     -11.099  14.607  68.461  1.00  0.00    -0.260 C  
HETATM   33  H   UNL     1     -10.695  13.223  69.985  1.00  0.00     0.000 HD 
HETATM   34  O   UNL     1     -11.929  15.437  68.082  1.00  0.00    -0.253 OA 
HETATM   35  N   UNL     1     -11.348  13.917  69.621  1.00  0.00    -0.233 N  
BRANCH  35  36
HETATM   36  C   UNL     1     -12.586  14.227  70.297  1.00  0.00    -0.319 C  
BRANCH  36  37
HETATM   37  N   UNL     1     -12.343  14.667  71.661  1.00  0.00    -0.338 NA 
HETATM   38  C   UNL     1     -11.786  16.035  71.680  1.00  0.00    -0.506 C  
HETATM   39  C   UNL     1     -11.950  16.435  73.134  1.00  0.00    -0.536 C  
HETATM   40  C   UNL     1     -13.282  15.818  73.524  1.00  0.00    -0.595 C  
HETATM   41  C   UNL     1     -13.559  14.747  72.472  1.00  0.00    -0.468 C  
ENDBRANCH  36  37
ENDBRANCH  35  36
ENDBRANCH  19  32
BRANCH  24  42
HETATM   42  N   UNL     1     -11.005  12.251  64.873  1.00  0.00    -0.293 NA 
HETATM   43  C   UNL     1     -12.340  12.553  64.340  1.00  0.00    -0.455 C  
HETATM   44  C   UNL     1     -10.612  10.908  64.506  1.00  0.00    -0.265 C  
ENDBRANCH  24  42
TORSDOF 4
ENDMDL
MODEL       11
REMARK 921   NORMALIZED FREE ENERGY PREDICTED BY IDOCK:   -7.47 KCAL/MOL
REMARK 922        TOTAL FREE ENERGY PREDICTED BY IDOCK:   -9.79 KCAL/MOL
REMARK 923 INTER-LIGAND FREE ENERGY PREDICTED BY IDOCK:   -8.93 KCAL/MOL
REMARK 924 INTRA-LIGAND FREE ENERGY PREDICTED BY IDOCK:   -0.86 KCAL/MOL
REMARK 927      BINDING AFFINITY PREDICTED BY RF-SCORE:    0.00 PKD
ROOT
HETATM    1  C   UNL     1      -9.802  13.547  67.858  1.00  0.00    -0.235 C  
HETATM    2  C   UNL     1     -10.483  12.193  67.823  1.00  0.00    -0.222 C  
HETATM    3  C   UNL     1      -9.917  11.190  68.871  1.00  0.00    -0.188 C  
HETATM    4  C   UNL     1      -8.412  11.112  68.790  1.00  0.00    -0.134 C  
HETATM    5  C   UNL     1      -7.752   9.773  68.991  1.00  0.00    -0.085 C  
HETATM    6  C   UNL     1      -7.672  12.199  68.483  1.00  0.00    -0.119 C  
HETATM    7  C   UNL     1      -8.563   8.620  69.467  1.00  0.00    -0.131 A  
HETATM    8  O   UNL     1      -6.547   9.614  68.773  1.00  0.00    -0.047 OA 
HETATM    9  O   UNL     1      -6.293  12.121  68.275  1.00  0.00    -0.050 OA 
HETATM   10  C   UNL     1      -8.265  13.539  68.002  1.00  0.00    -0.163 C  
HETATM   11  C   UNL     1      -8.068  14.893  68.881  1.00  0.00    -0.165 C  
HETATM   12  H   UNL     1      -5.772  12.885  68.059  1.00  0.00     0.000 HD 
HETATM   13  O   UNL     1      -7.661  13.643  66.705  1.00  0.00    -0.299 OA 
HETATM   14  C   UNL     1      -7.937   7.430  69.891  1.00  0.00    -0.121 A  
HETATM   15  O   UNL     1      -7.164  15.076  69.693  1.00  0.00    -0.184 OA 
HETATM   16  H   UNL     1      -6.716  13.639  66.794  1.00  0.00     0.000 HD 
HETATM   17  C   UNL     1      -8.686   6.371  70.410  1.00  0.00    -0.147 A  
HETATM   18  O   UNL     1      -6.589   7.214  69.816  1.00  0.00    -0.042 OA 
HETATM   19  C   UNL     1      -9.043  16.048  68.560  1.00  0.00    -0.203 C  
HETATM   20  C   UNL     1     -10.887   9.397  67.285  1.00  0.00    -0.165 C  
HETATM   21  C   UNL     1      -9.333  15.937  67.244  1.00  0.00    -0.211 C  
HETATM   22  C   UNL     1     -10.066   6.485  70.506  1.00  0.00    -0.213 A  
HETATM   23  H   UNL     1      -6.166   6.413  70.102  1.00  0.00     0.000 HD 
HETATM   24  C   UNL     1     -10.250  14.697  66.849  1.00  0.00    -0.262 C  
HETATM   25  O   UNL     1     -11.953  10.046  69.356  1.00  0.00    -0.479 OA 
HETATM   26  C   UNL     1     -10.669   9.832  68.750  1.00  0.00    -0.215 C  
HETATM   27  O   UNL     1      -8.356  16.258  66.293  1.00  0.00    -0.303 OA 
HETATM   28  C   UNL     1     -10.701   7.632  70.031  1.00  0.00    -0.245 A  
HETATM   29  H   UNL     1     -12.411   9.217  69.283  1.00  0.00     0.000 HD 
HETATM   30  H   UNL     1      -8.559  16.180  65.369  1.00  0.00     0.000 HD 
HETATM   31  C   UNL     1      -9.965   8.703  69.478  1.00  0.00    -0.196 A  
ENDROOT
BRANCH  19  32
HETATM   32  C   UNL     1     -10.358  16.345  69.273  1.00  0.00    -0.292 C  
HETATM   33  H   UNL     1     -10.166  14.915  70.797  1.00  0.00     0.000 HD 
HETATM   34  O   UNL     1     -11.094  17.242  68.855  1.00  0.00    -0.101 OA 
HETATM   35  N   UNL     1     -10.738  15.662  70.402  1.00  0.00    -0.330 N  
BRANCH  35  36
HETATM   36  C   UNL     1     -11.991  16.060  71.000  1.00  0.00    -0.366 C  
BRANCH  36  37
HETATM   37  N   UNL     1     -12.927  14.949  71.045  1.00  0.00    -0.352 NA 
HETATM   38  C   UNL     1     -12.215  13.658  70.935  1.00  0.00    -0.328 C  
HETATM   39  C   UNL     1     -13.276  12.663  71.363  1.00  0.00    -0.217 C  
HETATM   40  C   UNL     1     -14.013  13.385  72.478  1.00  0.00    -0.519 C  
HETATM   41  C   UNL     1     -13.666  14.862  72.305  1.00  0.00    -0.458 C  
ENDBRANCH  36  37
ENDBRANCH  35  36
ENDBRANCH  19  32
BRANCH  24  42
HETATM   42  N   UNL     1     -10.241  14.541  65.379  1.00  0.00    -0.366 NA 
HETATM   43  C   UNL     1     -11.122  15.535  64.753  1.00  0.00    -0.407 C  
HETATM   44  C   UNL     1     -10.503  13.227  64.835  1.00  0.00    -0.371 C  
ENDBRANCH  24  42
TORSDOF 4
ENDMDL
MODEL       12
REMARK 921   NORMALIZED FREE ENERGY PREDICTED BY IDOCK:   -7.29 KCAL/MOL
REMARK 922        TOTAL FREE ENERGY PREDICTED BY IDOCK:   -9.57 KCAL/MOL
REMARK 923 INTER-LIGAND FREE ENERGY PREDICTED BY IDOCK:   -9.00 KCAL/MOL
REMARK 924 INTRA-LIGAND FREE ENERGY PREDICTED BY IDOCK:   -0.57 KCAL/MOL
REMARK 927      BINDING AFFINITY PREDICTED BY RF-SCORE:    0.00 PKD
ROOT
HETATM    1  C   UNL     1      -9.256   8.095  68.554  1.00  0.00    -0.136 C  
HETATM    2  C   UNL     1      -9.468   9.591  68.671  1.00  0.00    -0.143 C  
HETATM    3  C   UNL     1     -10.464  10.158  67.618  1.00  0.00    -0.293 C  
HETATM    4  C   UNL     1     -10.098   9.706  66.225  1.00  0.00    -0.322 C  
HETATM    5  C   UNL     1     -10.277  10.676  65.087  1.00  0.00    -0.299 C  
HETATM    6  C   UNL     1      -9.563   8.486  66.005  1.00  0.00    -0.165 C  
HETATM    7  C   UNL     1     -10.996  11.958  65.322  1.00  0.00    -0.354 A  
HETATM    8  O   UNL     1      -9.841  10.427  63.960  1.00  0.00    -0.313 OA 
HETATM    9  O   UNL     1      -9.096   8.099  64.747  1.00  0.00    -0.332 OA 
HETATM   10  C   UNL     1      -9.097   7.533  67.125  1.00  0.00    -0.127 C  
HETATM   11  C   UNL     1      -9.804   6.082  67.322  1.00  0.00    -0.136 C  
HETATM   12  H   UNL     1      -8.719   7.240  64.592  1.00  0.00     0.000 HD 
HETATM   13  O   UNL     1      -7.703   7.416  66.808  1.00  0.00    -0.104 OA 
HETATM   14  C   UNL     1     -11.387  12.768  64.237  1.00  0.00    -0.367 A  
HETATM   15  O   UNL     1     -10.406   5.470  66.443  1.00  0.00    -0.220 OA 
HETATM   16  H   UNL     1      -7.605   7.071  65.929  1.00  0.00     0.000 HD 
HETATM   17  C   UNL     1     -12.129  13.934  64.444  1.00  0.00    -0.477 A  
HETATM   18  O   UNL     1     -11.068  12.499  62.935  1.00  0.00    -0.624 OA 
HETATM   19  C   UNL     1      -9.586   5.412  68.698  1.00  0.00    -0.173 C  
HETATM   20  C   UNL     1      -9.254  12.394  68.068  1.00  0.00    -0.203 C  
HETATM   21  C   UNL     1      -8.365   5.814  69.120  1.00  0.00    -0.105 C  
HETATM   22  C   UNL     1     -12.483  14.306  65.733  1.00  0.00    -0.421 A  
HETATM   23  H   UNL     1     -11.332  13.045  62.204  1.00  0.00     0.000 HD 
HETATM   24  C   UNL     1      -8.263   7.344  69.550  1.00  0.00    -0.131 C  
HETATM   25  O   UNL     1     -11.432  11.864  68.974  1.00  0.00    -0.247 OA 
HETATM   26  C   UNL     1     -10.607  11.696  67.811  1.00  0.00    -0.194 C  
HETATM   27  O   UNL     1      -7.219   5.313  68.491  1.00  0.00    -0.061 OA 
HETATM   28  C   UNL     1     -12.048  13.545  66.818  1.00  0.00    -0.425 A  
HETATM   29  H   UNL     1     -11.519  12.803  69.091  1.00  0.00     0.000 HD 
HETATM   30  H   UNL     1      -6.362   5.596  68.787  1.00  0.00     0.000 HD 
HETATM   31  C   UNL     1     -11.275  12.378  66.632  1.00  0.00    -0.366 A  
ENDROOT
BRANCH  19  32
HETATM   32  C   UNL     1     -10.515   5.499  69.904  1.00  0.00    -0.316 C  
HETATM   33  H   UNL     1      -9.219   4.625  71.304  1.00  0.00     0.000 HD 
HETATM   34  O   UNL     1     -11.630   6.012  69.783  1.00  0.00    -0.325 OA 
HETATM   35  N   UNL     1     -10.132   5.052  71.144  1.00  0.00    -0.215 N  
BRANCH  35  36
HETATM   36  C   UNL     1     -11.092   5.220  72.210  1.00  0.00    -0.153 C  
BRANCH  36  37
HETATM   37  N   UNL     1     -10.590   6.125  73.230  1.00  0.00    -0.244 NA 
HETATM   38  C   UNL     1      -9.343   5.603  73.828  1.00  0.00    -0.137 C  
HETATM   39  C   UNL     1      -8.802   6.813  74.563  1.00  0.00    -0.212 C  
HETATM   40  C   UNL     1      -9.141   7.972  73.642  1.00  0.00    -0.299 C  
HETATM   41  C   UNL     1     -10.231   7.446  72.711  1.00  0.00    -0.238 C  
ENDBRANCH  36  37
ENDBRANCH  35  36
ENDBRANCH  19  32
BRANCH  24  42
HETATM   42  N   UNL     1      -6.837   7.705  69.704  1.00  0.00    -0.043 NA 
HETATM   43  C   UNL     1      -6.320   7.212  70.987  1.00  0.00    -0.036 C  
HETATM   44  C   UNL     1      -6.463   9.089  69.513  1.00  0.00    -0.043 C  
ENDBRANCH  24  42
TORSDOF 4
ENDMDL
MODEL       13
REMARK 921   NORMALIZED FREE ENERGY PREDICTED BY IDOCK:   -7.22 KCAL/MOL
REMARK 922        TOTAL FREE ENERGY PREDICTED BY IDOCK:   -9.49 KCAL/MOL
REMARK 923 INTER-LIGAND FREE ENERGY PREDICTED BY IDOCK:   -9.14 KCAL/MOL
REMARK 924 INTRA-LIGAND FREE ENERGY PREDICTED BY IDOCK:   -0.35 KCAL/MOL
REMARK 927      BINDING AFFINITY PREDICTED BY RF-SCORE:    0.00 PKD
ROOT
HETATM    1  C   UNL     1      -9.198  12.458  67.851  1.00  0.00    -0.192 C  
HETATM    2  C   UNL     1      -8.050  13.316  68.343  1.00  0.00    -0.134 C  
HETATM    3  C   UNL     1      -8.394  14.833  68.402  1.00  0.00    -0.154 C  
HETATM    4  C   UNL     1      -8.988  15.308  67.098  1.00  0.00    -0.227 C  
HETATM    5  C   UNL     1      -8.620  16.680  66.601  1.00  0.00    -0.258 C  
HETATM    6  C   UNL     1      -9.780  14.502  66.358  1.00  0.00    -0.296 C  
HETATM    7  C   UNL     1      -7.866  17.605  67.490  1.00  0.00    -0.211 A  
HETATM    8  O   UNL     1      -8.936  17.057  65.469  1.00  0.00    -0.344 OA 
HETATM    9  O   UNL     1     -10.232  14.872  65.089  1.00  0.00    -0.383 OA 
HETATM   10  C   UNL     1      -9.996  13.003  66.646  1.00  0.00    -0.250 C  
HETATM   11  C   UNL     1     -11.474  12.438  67.021  1.00  0.00    -0.358 C  
HETATM   12  H   UNL     1     -10.789  14.305  64.569  1.00  0.00     0.000 HD 
HETATM   13  O   UNL     1      -9.488  12.426  65.435  1.00  0.00    -0.440 OA 
HETATM   14  C   UNL     1      -7.718  18.965  67.150  1.00  0.00    -0.235 A  
HETATM   15  O   UNL     1     -12.531  12.986  66.720  1.00  0.00    -0.324 OA 
HETATM   16  H   UNL     1      -9.978  12.761  64.694  1.00  0.00     0.000 HD 
HETATM   17  C   UNL     1      -7.077  19.856  68.014  1.00  0.00    -0.319 A  
HETATM   18  O   UNL     1      -8.161  19.505  65.973  1.00  0.00    -0.336 OA 
HETATM   19  C   UNL     1     -11.508  11.054  67.709  1.00  0.00    -0.339 C  
HETATM   20  C   UNL     1      -5.835  15.148  68.266  1.00  0.00    -0.123 C  
HETATM   21  C   UNL     1     -10.447  10.369  67.224  1.00  0.00    -0.252 C  
HETATM   22  C   UNL     1      -6.573  19.398  69.224  1.00  0.00    -0.361 A  
HETATM   23  H   UNL     1      -8.061  20.422  65.744  1.00  0.00     0.000 HD 
HETATM   24  C   UNL     1      -9.022  10.879  67.721  1.00  0.00    -0.139 C  
HETATM   25  O   UNL     1      -7.088  15.386  70.320  1.00  0.00     0.021 OA 
HETATM   26  C   UNL     1      -7.154  15.629  68.907  1.00  0.00    -0.138 C  
HETATM   27  O   UNL     1     -10.467   9.913  65.900  1.00  0.00    -0.158 OA 
HETATM   28  C   UNL     1      -6.658  18.044  69.542  1.00  0.00    -0.140 A  
HETATM   29  H   UNL     1      -6.332  15.872  70.627  1.00  0.00     0.000 HD 
HETATM   30  H   UNL     1      -9.722   9.433  65.560  1.00  0.00     0.000 HD 
HETATM   31  C   UNL     1      -7.278  17.122  68.670  1.00  0.00    -0.229 A  
ENDROOT
BRANCH  19  32
HETATM   32  C   UNL     1     -11.547  10.791  69.211  1.00  0.00    -0.305 C  
HETATM   33  H   UNL     1     -11.114   8.740  69.135  1.00  0.00     0.000 HD 
HETATM   34  O   UNL     1     -11.767  11.721  69.990  1.00  0.00    -0.320 OA 
HETATM   35  N   UNL     1     -11.307   9.544  69.732  1.00  0.00    -0.146 N  
BRANCH  35  36
HETATM   36  C   UNL     1     -11.343   9.434  71.172  1.00  0.00    -0.351 C  
BRANCH  36  37
HETATM   37  N   UNL     1     -10.567   8.294  71.630  1.00  0.00    -0.227 NA 
HETATM   38  C   UNL     1      -9.158   8.676  71.859  1.00  0.00    -0.256 C  
HETATM   39  C   UNL     1      -8.627   7.501  72.657  1.00  0.00    -0.154 C  
HETATM   40  C   UNL     1      -9.791   7.125  73.556  1.00  0.00    -0.322 C  
HETATM   41  C   UNL     1     -11.023   7.759  72.914  1.00  0.00    -0.407 C  
ENDBRANCH  36  37
ENDBRANCH  35  36
ENDBRANCH  19  32
BRANCH  24  42
HETATM   42  N   UNL     1      -7.971  10.241  66.899  1.00  0.00    -0.111 NA 
HETATM   43  C   UNL     1      -7.623   8.923  67.446  1.00  0.00    -0.089 C  
HETATM   44  C   UNL     1      -6.771  11.001  66.624  1.00  0.00    -0.134 C  
ENDBRANCH  24  42
TORSDOF 4
ENDMDL
MODEL       14
REMARK 921   NORMALIZED FREE ENERGY PREDICTED BY IDOCK:   -7.20 KCAL/MOL
REMARK 922        TOTAL FREE ENERGY PREDICTED BY IDOCK:   -9.46 KCAL/MOL
REMARK 923 INTER-LIGAND FREE ENERGY PREDICTED BY IDOCK:   -9.58 KCAL/MOL
REMARK 924 INTRA-LIGAND FREE ENERGY PREDICTED BY IDOCK:    0.12 KCAL/MOL
REMARK 927      BINDING AFFINITY PREDICTED BY RF-SCORE:    0.00 PKD
ROOT
HETATM    1  C   UNL     1      -8.806  12.461  67.146  1.00  0.00    -0.197 C  
HETATM    2  C   UNL     1      -8.092  13.751  67.498  1.00  0.00    -0.192 C  
HETATM    3  C   UNL     1      -9.039  14.985  67.557  1.00  0.00    -0.189 C  
HETATM    4  C   UNL     1      -9.882  15.083  66.308  1.00  0.00    -0.307 C  
HETATM    5  C   UNL     1     -10.171  16.448  65.743  1.00  0.00    -0.348 C  
HETATM    6  C   UNL     1     -10.318  13.974  65.672  1.00  0.00    -0.329 C  
HETATM    7  C   UNL     1      -9.808  17.659  66.530  1.00  0.00    -0.323 A  
HETATM    8  O   UNL     1     -10.708  16.585  64.641  1.00  0.00    -0.713 OA 
HETATM    9  O   UNL     1     -10.986  14.039  64.447  1.00  0.00    -0.536 OA 
HETATM   10  C   UNL     1      -9.856  12.544  66.016  1.00  0.00    -0.257 C  
HETATM   11  C   UNL     1     -10.920  11.438  66.552  1.00  0.00    -0.272 C  
HETATM   12  H   UNL     1     -11.292  13.259  63.999  1.00  0.00     0.000 HD 
HETATM   13  O   UNL     1      -9.253  12.156  64.773  1.00  0.00    -0.389 OA 
HETATM   14  C   UNL     1     -10.276  18.931  66.144  1.00  0.00    -0.433 A  
HETATM   15  O   UNL     1     -12.131  11.474  66.347  1.00  0.00    -0.223 OA 
HETATM   16  H   UNL     1      -9.898  12.207  64.078  1.00  0.00     0.000 HD 
HETATM   17  C   UNL     1     -10.003  20.062  66.918  1.00  0.00    -0.584 A  
HETATM   18  O   UNL     1     -11.000  19.160  65.006  1.00  0.00    -0.404 OA 
HETATM   19  C   UNL     1     -10.311  10.214  67.272  1.00  0.00    -0.291 C  
HETATM   20  C   UNL     1      -6.872  16.332  67.154  1.00  0.00    -0.243 C  
HETATM   21  C   UNL     1      -9.103  10.006  66.698  1.00  0.00    -0.147 C  
HETATM   22  C   UNL     1      -9.255  19.936  68.081  1.00  0.00    -0.374 A  
HETATM   23  H   UNL     1     -11.317  20.017  64.746  1.00  0.00     0.000 HD 
HETATM   24  C   UNL     1      -7.992  11.095  67.036  1.00  0.00    -0.145 C  
HETATM   25  O   UNL     1      -7.936  16.155  69.318  1.00  0.00    -0.235 OA 
HETATM   26  C   UNL     1      -8.214  16.257  67.914  1.00  0.00    -0.150 C  
HETATM   27  O   UNL     1      -9.037   9.499  65.395  1.00  0.00    -0.190 OA 
HETATM   28  C   UNL     1      -8.734  18.694  68.438  1.00  0.00    -0.361 A  
HETATM   29  H   UNL     1      -7.433  16.931  69.535  1.00  0.00     0.000 HD 
HETATM   30  H   UNL     1      -8.190   9.354  64.992  1.00  0.00     0.000 HD 
HETATM   31  C   UNL     1      -8.976  17.543  67.655  1.00  0.00    -0.231 A  
ENDROOT
BRANCH  19  32
HETATM   32  C   UNL     1     -10.112  10.056  68.776  1.00  0.00    -0.185 C  
HETATM   33  H   UNL     1      -9.212   8.161  68.730  1.00  0.00     0.000 HD 
HETATM   34  O   UNL     1     -10.456  10.962  69.539  1.00  0.00    -0.215 OA 
HETATM   35  N   UNL     1      -9.522   8.938  69.313  1.00  0.00    -0.159 N  
BRANCH  35  36
HETATM   36  C   UNL     1      -9.364   8.926  70.749  1.00  0.00    -0.230 C  
BRANCH  36  37
HETATM   37  N   UNL     1      -7.988   9.202  71.127  1.00  0.00    -0.295 NA 
HETATM   38  C   UNL     1      -7.591   8.390  72.296  1.00  0.00    -0.103 C  
HETATM   39  C   UNL     1      -6.082   8.537  72.298  1.00  0.00    -0.070 C  
HETATM   40  C   UNL     1      -5.721   8.534  70.823  1.00  0.00    -0.032 C  
HETATM   41  C   UNL     1      -7.018   8.859  70.086  1.00  0.00    -0.043 C  
ENDBRANCH  36  37
ENDBRANCH  35  36
ENDBRANCH  19  32
BRANCH  24  42
HETATM   42  N   UNL     1      -6.841  10.905  66.127  1.00  0.00    -0.125 NA 
HETATM   43  C   UNL     1      -6.550   9.474  65.963  1.00  0.00    -0.077 C  
HETATM   44  C   UNL     1      -5.623  11.632  66.412  1.00  0.00     0.013 C  
ENDBRANCH  24  42
TORSDOF 4
ENDMDL
MODEL       15
REMARK 921   NORMALIZED FREE ENERGY PREDICTED BY IDOCK:   -7.19 KCAL/MOL
REMARK 922        TOTAL FREE ENERGY PREDICTED BY IDOCK:   -9.45 KCAL/MOL
REMARK 923 INTER-LIGAND FREE ENERGY PREDICTED BY IDOCK:   -9.14 KCAL/MOL
REMARK 924 INTRA-LIGAND FREE ENERGY PREDICTED BY IDOCK:   -0.32 KCAL/MOL
REMARK 927      BINDING AFFINITY PREDICTED BY RF-SCORE:    0.00 PKD
ROOT
HETATM    1  C   UNL     1     -10.001  12.038  67.809  1.00  0.00    -0.199 C  
HETATM    2  C   UNL     1     -10.456  10.614  68.060  1.00  0.00    -0.228 C  
HETATM    3  C   UNL     1      -9.779   9.958  69.300  1.00  0.00    -0.218 C  
HETATM    4  C   UNL     1      -8.278  10.113  69.245  1.00  0.00    -0.156 C  
HETATM    5  C   UNL     1      -7.422   8.973  69.729  1.00  0.00    -0.062 C  
HETATM    6  C   UNL     1      -7.710  11.219  68.717  1.00  0.00    -0.138 C  
HETATM    7  C   UNL     1      -8.058   7.827  70.435  1.00  0.00    -0.115 A  
HETATM    8  O   UNL     1      -6.200   8.971  69.555  1.00  0.00    -0.039 OA 
HETATM    9  O   UNL     1      -6.328  11.326  68.537  1.00  0.00    -0.046 OA 
HETATM   10  C   UNL     1      -8.489  12.313  67.960  1.00  0.00    -0.171 C  
HETATM   11  C   UNL     1      -8.545  13.834  68.531  1.00  0.00    -0.122 C  
HETATM   12  H   UNL     1      -5.928  12.103  68.166  1.00  0.00     0.000 HD 
HETATM   13  O   UNL     1      -7.859  12.241  66.673  1.00  0.00    -0.378 OA 
HETATM   14  C   UNL     1      -7.268   6.872  71.105  1.00  0.00    -0.076 A  
HETATM   15  O   UNL     1      -7.714  14.328  69.290  1.00  0.00    -0.072 OA 
HETATM   16  H   UNL     1      -6.929  12.410  66.765  1.00  0.00     0.000 HD 
HETATM   17  C   UNL     1      -7.858   5.836  71.834  1.00  0.00    -0.106 A  
HETATM   18  O   UNL     1      -5.900   6.869  71.085  1.00  0.00    -0.034 OA 
HETATM   19  C   UNL     1      -9.678  14.721  67.968  1.00  0.00    -0.213 C  
HETATM   20  C   UNL     1     -10.388   7.740  68.127  1.00  0.00    -0.248 C  
HETATM   21  C   UNL     1      -9.895  14.291  66.703  1.00  0.00    -0.281 C  
HETATM   22  C   UNL     1      -9.241   5.740  71.897  1.00  0.00    -0.155 A  
HETATM   23  H   UNL     1      -5.367   6.225  71.537  1.00  0.00     0.000 HD 
HETATM   24  C   UNL     1     -10.587  12.863  66.577  1.00  0.00    -0.259 C  
HETATM   25  O   UNL     1     -11.624   8.624  70.007  1.00  0.00    -0.463 OA 
HETATM   26  C   UNL     1     -10.300   8.501  69.467  1.00  0.00    -0.218 C  
HETATM   27  O   UNL     1      -8.944  14.562  65.711  1.00  0.00    -0.410 OA 
HETATM   28  C   UNL     1     -10.032   6.642  71.186  1.00  0.00    -0.198 A  
HETATM   29  H   UNL     1     -11.942   7.734  70.109  1.00  0.00     0.000 HD 
HETATM   30  H   UNL     1      -9.096  14.260  64.823  1.00  0.00     0.000 HD 
HETATM   31  C   UNL     1      -9.454   7.680  70.422  1.00  0.00    -0.164 A  
ENDROOT
BRANCH  19  32
HETATM   32  C   UNL     1     -11.051  14.940  68.595  1.00  0.00    -0.263 C  
HETATM   33  H   UNL     1     -10.845  13.575  70.175  1.00  0.00     0.000 HD 
HETATM   34  O   UNL     1     -11.824  15.767  68.105  1.00  0.00    -0.263 OA 
HETATM   35  N   UNL     1     -11.445  14.265  69.724  1.00  0.00    -0.266 N  
BRANCH  35  36
HETATM   36  C   UNL     1     -12.757  14.587  70.236  1.00  0.00    -0.272 C  
BRANCH  36  37
HETATM   37  N   UNL     1     -12.669  15.488  71.373  1.00  0.00    -0.420 NA 
HETATM   38  C   UNL     1     -13.849  15.341  72.251  1.00  0.00    -0.530 C  
HETATM   39  C   UNL     1     -13.407  16.056  73.513  1.00  0.00    -0.493 C  
HETATM   40  C   UNL     1     -11.936  15.696  73.630  1.00  0.00    -0.509 C  
HETATM   41  C   UNL     1     -11.521  15.220  72.240  1.00  0.00    -0.385 C  
ENDBRANCH  36  37
ENDBRANCH  35  36
ENDBRANCH  19  32
BRANCH  24  42
HETATM   42  N   UNL     1     -10.494  12.406  65.174  1.00  0.00    -0.284 NA 
HETATM   43  C   UNL     1     -11.708  12.777  64.434  1.00  0.00    -0.368 C  
HETATM   44  C   UNL     1     -10.165  11.019  64.932  1.00  0.00    -0.311 C  
ENDBRANCH  24  42
TORSDOF 4
ENDMDL
MODEL       16
REMARK 921   NORMALIZED FREE ENERGY PREDICTED BY IDOCK:   -7.10 KCAL/MOL
REMARK 922        TOTAL FREE ENERGY PREDICTED BY IDOCK:   -9.34 KCAL/MOL
REMARK 923 INTER-LIGAND FREE ENERGY PREDICTED BY IDOCK:   -8.84 KCAL/MOL
REMARK 924 INTRA-LIGAND FREE ENERGY PREDICTED BY IDOCK:   -0.50 KCAL/MOL
REMARK 927      BINDING AFFINITY PREDICTED BY RF-SCORE:    0.00 PKD
ROOT
HETATM    1  C   UNL     1      -9.279  12.037  67.894  1.00  0.00    -0.190 C  
HETATM    2  C   UNL     1     -10.203  13.224  68.082  1.00  0.00    -0.243 C  
HETATM    3  C   UNL     1      -9.552  14.582  67.689  1.00  0.00    -0.214 C  
HETATM    4  C   UNL     1      -8.207  14.752  68.353  1.00  0.00    -0.154 C  
HETATM    5  C   UNL     1      -7.815  16.123  68.838  1.00  0.00    -0.213 C  
HETATM    6  C   UNL     1      -7.396  13.694  68.568  1.00  0.00    -0.114 C  
HETATM    7  C   UNL     1      -8.652  17.298  68.469  1.00  0.00    -0.270 A  
HETATM    8  O   UNL     1      -6.810  16.293  69.534  1.00  0.00    -0.210 OA 
HETATM    9  O   UNL     1      -6.209  13.808  69.296  1.00  0.00    -0.093 OA 
HETATM   10  C   UNL     1      -7.816  12.227  68.352  1.00  0.00    -0.151 C  
HETATM   11  C   UNL     1      -7.063  11.305  67.245  1.00  0.00    -0.114 C  
HETATM   12  H   UNL     1      -5.638  13.064  69.447  1.00  0.00     0.000 HD 
HETATM   13  O   UNL     1      -7.660  11.710  69.681  1.00  0.00    -0.330 OA 
HETATM   14  C   UNL     1      -8.187  18.609  68.700  1.00  0.00    -0.318 A  
HETATM   15  O   UNL     1      -5.927  11.506  66.821  1.00  0.00    -0.120 OA 
HETATM   16  H   UNL     1      -6.761  11.826  69.963  1.00  0.00     0.000 HD 
HETATM   17  C   UNL     1      -8.932  19.717  68.289  1.00  0.00    -0.378 A  
HETATM   18  O   UNL     1      -7.014  18.896  69.343  1.00  0.00    -0.267 OA 
HETATM   19  C   UNL     1      -7.822  10.034  66.801  1.00  0.00    -0.110 C  
HETATM   20  C   UNL     1     -11.340  15.589  69.256  1.00  0.00    -0.330 C  
HETATM   21  C   UNL     1      -8.542   9.635  67.874  1.00  0.00    -0.122 C  
HETATM   22  C   UNL     1     -10.149  19.529  67.648  1.00  0.00    -0.526 A  
HETATM   23  H   UNL     1      -6.701  19.779  69.499  1.00  0.00     0.000 HD 
HETATM   24  C   UNL     1      -9.777  10.566  68.252  1.00  0.00    -0.154 C  
HETATM   25  O   UNL     1     -11.511  15.648  66.845  1.00  0.00    -0.115 OA 
HETATM   26  C   UNL     1     -10.570  15.736  67.925  1.00  0.00    -0.282 C  
HETATM   27  O   UNL     1      -7.883   9.075  68.976  1.00  0.00    -0.088 OA 
HETATM   28  C   UNL     1     -10.647  18.239  67.470  1.00  0.00    -0.432 A  
HETATM   29  H   UNL     1     -12.132  16.352  66.990  1.00  0.00     0.000 HD 
HETATM   30  H   UNL     1      -8.388   8.795  69.730  1.00  0.00     0.000 HD 
HETATM   31  C   UNL     1      -9.922  17.107  67.903  1.00  0.00    -0.292 A  
ENDROOT
BRANCH  19  32
HETATM   32  C   UNL     1      -8.740   9.906  65.589  1.00  0.00    -0.151 C  
HETATM   33  H   UNL     1      -8.480  11.853  64.849  1.00  0.00     0.000 HD 
HETATM   34  O   UNL     1      -9.307   8.836  65.360  1.00  0.00    -0.159 OA 
HETATM   35  N   UNL     1      -8.928  10.947  64.713  1.00  0.00    -0.174 N  
BRANCH  35  36
HETATM   36  C   UNL     1      -9.797  10.687  63.589  1.00  0.00    -0.333 C  
BRANCH  36  37
HETATM   37  N   UNL     1     -10.590  11.859  63.257  1.00  0.00    -0.399 NA 
HETATM   38  C   UNL     1     -12.034  11.562  63.357  1.00  0.00    -0.038 C  
HETATM   39  C   UNL     1     -12.653  12.946  63.343  1.00  0.00    -0.268 C  
HETATM   40  C   UNL     1     -11.676  13.782  64.151  1.00  0.00    -0.397 C  
HETATM   41  C   UNL     1     -10.375  12.984  64.169  1.00  0.00    -0.321 C  
ENDBRANCH  36  37
ENDBRANCH  35  36
ENDBRANCH  19  32
BRANCH  24  42
HETATM   42  N   UNL     1     -10.280  10.179  69.587  1.00  0.00    -0.231 NA 
HETATM   43  C   UNL     1     -10.530   8.733  69.640  1.00  0.00    -0.220 C  
HETATM   44  C   UNL     1     -11.413  10.902  70.121  1.00  0.00    -0.319 C  
ENDBRANCH  24  42
TORSDOF 4
ENDMDL
MODEL       17
REMARK 921   NORMALIZED FREE ENERGY PREDICTED BY IDOCK:   -7.08 KCAL/MOL
REMARK 922        TOTAL FREE ENERGY PREDICTED BY IDOCK:   -9.31 KCAL/MOL
REMARK 923 INTER-LIGAND FREE ENERGY PREDICTED BY IDOCK:   -8.90 KCAL/MOL
REMARK 924 INTRA-LIGAND FREE ENERGY PREDICTED BY IDOCK:   -0.41 KCAL/MOL
REMARK 927      BINDING AFFINITY PREDICTED BY RF-SCORE:    0.00 PKD
ROOT
HETATM    1  C   UNL     1     -10.069  14.356  67.850  1.00  0.00    -0.228 C  
HETATM    2  C   UNL     1      -9.397  13.006  68.009  1.00  0.00    -0.213 C  
HETATM    3  C   UNL     1      -8.827  12.439  66.676  1.00  0.00    -0.156 C  
HETATM    4  C   UNL     1      -9.868  12.472  65.582  1.00  0.00    -0.227 C  
HETATM    5  C   UNL     1      -9.915  11.329  64.604  1.00  0.00    -0.281 C  
HETATM    6  C   UNL     1     -10.779  13.467  65.515  1.00  0.00    -0.294 C  
HETATM    7  C   UNL     1      -8.822  10.318  64.603  1.00  0.00    -0.220 A  
HETATM    8  O   UNL     1     -10.842  11.214  63.797  1.00  0.00    -0.376 OA 
HETATM    9  O   UNL     1     -11.828  13.448  64.594  1.00  0.00    -0.360 OA 
HETATM   10  C   UNL     1     -10.980  14.529  66.615  1.00  0.00    -0.321 C  
HETATM   11  C   UNL     1     -10.718  16.102  66.302  1.00  0.00    -0.213 C  
HETATM   12  H   UNL     1     -12.469  14.147  64.547  1.00  0.00     0.000 HD 
HETATM   13  O   UNL     1     -12.342  14.270  66.985  1.00  0.00    -0.579 OA 
HETATM   14  C   UNL     1      -8.711   9.383  63.554  1.00  0.00    -0.204 A  
HETATM   15  O   UNL     1     -10.759  16.611  65.185  1.00  0.00    -0.621 OA 
HETATM   16  H   UNL     1     -12.902  14.376  66.225  1.00  0.00     0.000 HD 
HETATM   17  C   UNL     1      -7.645   8.481  63.507  1.00  0.00    -0.127 A  
HETATM   18  O   UNL     1      -9.618   9.273  62.537  1.00  0.00    -0.511 OA 
HETATM   19  C   UNL     1     -10.516  17.007  67.539  1.00  0.00    -0.334 C  
HETATM   20  C   UNL     1      -9.012  10.160  67.875  1.00  0.00    -0.128 C  
HETATM   21  C   UNL     1     -11.261  16.461  68.527  1.00  0.00    -0.334 C  
HETATM   22  C   UNL     1      -6.683   8.498  64.507  1.00  0.00    -0.066 A  
HETATM   23  H   UNL     1      -9.544   8.643  61.830  1.00  0.00     0.000 HD 
HETATM   24  C   UNL     1     -10.715  15.085  69.112  1.00  0.00    -0.249 C  
HETATM   25  O   UNL     1      -6.919  11.334  67.584  1.00  0.00    -0.078 OA 
HETATM   26  C   UNL     1      -8.170  11.053  66.939  1.00  0.00    -0.140 C  
HETATM   27  O   UNL     1     -12.657  16.549  68.466  1.00  0.00     0.462 OA 
HETATM   28  C   UNL     1      -6.817   9.376  65.582  1.00  0.00    -0.078 A  
HETATM   29  H   UNL     1      -6.518  10.488  67.744  1.00  0.00     0.000 HD 
HETATM   30  H   UNL     1     -13.181  16.166  69.159  1.00  0.00     0.000 HD 
HETATM   31  C   UNL     1      -7.901  10.278  65.663  1.00  0.00    -0.151 A  
ENDROOT
BRANCH  19  32
HETATM   32  C   UNL     1      -9.181  17.398  68.165  1.00  0.00    -0.270 C  
HETATM   33  H   UNL     1      -7.956  16.833  66.558  1.00  0.00     0.000 HD 
HETATM   34  O   UNL     1      -9.155  17.902  69.290  1.00  0.00     0.021 OA 
HETATM   35  N   UNL     1      -7.994  17.238  67.493  1.00  0.00    -0.180 N  
BRANCH  35  36
HETATM   36  C   UNL     1      -6.804  17.677  68.183  1.00  0.00    -0.207 C  
BRANCH  36  37
HETATM   37  N   UNL     1      -6.178  18.793  67.494  1.00  0.00    -0.183 NA 
HETATM   38  C   UNL     1      -6.662  18.886  66.101  1.00  0.00    -0.227 C  
HETATM   39  C   UNL     1      -6.202  20.271  65.688  1.00  0.00    -0.250 C  
HETATM   40  C   UNL     1      -6.398  21.101  66.945  1.00  0.00    -0.397 C  
HETATM   41  C   UNL     1      -6.494  20.093  68.088  1.00  0.00    -0.274 C  
ENDBRANCH  36  37
ENDBRANCH  35  36
ENDBRANCH  19  32
BRANCH  24  42
HETATM   42  N   UNL     1     -11.762  14.473  69.958  1.00  0.00    -0.286 NA 
HETATM   43  C   UNL     1     -11.577  14.862  71.362  1.00  0.00    -0.307 C  
HETATM   44  C   UNL     1     -11.967  13.045  69.858  1.00  0.00    -0.311 C  
ENDBRANCH  24  42
TORSDOF 4
ENDMDL
MODEL       18
REMARK 921   NORMALIZED FREE ENERGY PREDICTED BY IDOCK:   -7.02 KCAL/MOL
REMARK 922        TOTAL FREE ENERGY PREDICTED BY IDOCK:   -9.24 KCAL/MOL
REMARK 923 INTER-LIGAND FREE ENERGY PREDICTED BY IDOCK:   -8.35 KCAL/MOL
REMARK 924 INTRA-LIGAND FREE ENERGY PREDICTED BY IDOCK:   -0.89 KCAL/MOL
REMARK 927      BINDING AFFINITY PREDICTED BY RF-SCORE:    0.00 PKD
ROOT
HETATM    1  C   UNL     1     -10.076  14.240  67.876  1.00  0.00    -0.233 C  
HETATM    2  C   UNL     1      -9.431  12.875  68.011  1.00  0.00    -0.213 C  
HETATM    3  C   UNL     1      -8.845  12.335  66.673  1.00  0.00    -0.167 C  
HETATM    4  C   UNL     1      -9.864  12.415  65.562  1.00  0.00    -0.215 C  
HETATM    5  C   UNL     1      -9.912  11.299  64.552  1.00  0.00    -0.284 C  
HETATM    6  C   UNL     1     -10.756  13.427  65.505  1.00  0.00    -0.294 C  
HETATM    7  C   UNL     1      -8.837  10.270  64.544  1.00  0.00    -0.223 A  
HETATM    8  O   UNL     1     -10.825  11.223  63.725  1.00  0.00    -0.381 OA 
HETATM    9  O   UNL     1     -11.789  13.451  64.564  1.00  0.00    -0.365 OA 
HETATM   10  C   UNL     1     -10.960  14.462  66.630  1.00  0.00    -0.318 C  
HETATM   11  C   UNL     1     -10.665  16.039  66.365  1.00  0.00    -0.232 C  
HETATM   12  H   UNL     1     -12.416  14.163  64.524  1.00  0.00     0.000 HD 
HETATM   13  O   UNL     1     -12.333  14.218  66.967  1.00  0.00    -0.579 OA 
HETATM   14  C   UNL     1      -8.722   9.362  63.472  1.00  0.00    -0.204 A  
HETATM   15  O   UNL     1     -10.676  16.578  65.261  1.00  0.00    -0.531 OA 
HETATM   16  H   UNL     1     -12.877  14.355  66.200  1.00  0.00     0.000 HD 
HETATM   17  C   UNL     1      -7.671   8.443  63.420  1.00  0.00    -0.141 A  
HETATM   18  O   UNL     1      -9.612   9.296  62.436  1.00  0.00    -0.546 OA 
HETATM   19  C   UNL     1     -10.471  16.907  67.629  1.00  0.00    -0.332 C  
HETATM   20  C   UNL     1      -9.092  10.027  67.807  1.00  0.00    -0.137 C  
HETATM   21  C   UNL     1     -11.245  16.348  68.588  1.00  0.00    -0.332 C  
HETATM   22  C   UNL     1      -6.728   8.416  64.439  1.00  0.00    -0.066 A  
HETATM   23  H   UNL     1      -9.534   8.684  61.713  1.00  0.00     0.000 HD 
HETATM   24  C   UNL     1     -10.734  14.947  69.145  1.00  0.00    -0.252 C  
HETATM   25  O   UNL     1      -6.974  11.172  67.586  1.00  0.00    -0.078 OA 
HETATM   26  C   UNL     1      -8.217  10.930  66.911  1.00  0.00    -0.135 C  
HETATM   27  O   UNL     1     -12.638  16.462  68.503  1.00  0.00     0.322 OA 
HETATM   28  C   UNL     1      -6.868   9.267  65.534  1.00  0.00    -0.074 A  
HETATM   29  H   UNL     1      -6.591  10.315  67.731  1.00  0.00     0.000 HD 
HETATM   30  H   UNL     1     -13.181  16.069  69.176  1.00  0.00     0.000 HD 
HETATM   31  C   UNL     1      -7.937  10.185  65.619  1.00  0.00    -0.147 A  
ENDROOT
BRANCH  19  32
HETATM   32  C   UNL     1      -9.142  17.257  68.290  1.00  0.00    -0.262 C  
HETATM   33  H   UNL     1      -7.895  16.266  66.925  1.00  0.00     0.000 HD 
HETATM   34  O   UNL     1      -9.128  17.958  69.305  1.00  0.00     0.021 OA 
HETATM   35  N   UNL     1      -7.943  16.842  67.765  1.00  0.00    -0.175 N  
BRANCH  35  36
HETATM   36  C   UNL     1      -6.755  17.267  68.469  1.00  0.00    -0.185 C  
BRANCH  36  37
HETATM   37  N   UNL     1      -6.024  16.128  68.998  1.00  0.00    -0.123 NA 
HETATM   38  C   UNL     1      -6.945  15.163  69.635  1.00  0.00    -0.192 C  
HETATM   39  C   UNL     1      -6.075  13.929  69.780  1.00  0.00    -0.129 C  
HETATM   40  C   UNL     1      -5.239  13.931  68.511  1.00  0.00    -0.093 C  
HETATM   41  C   UNL     1      -5.326  15.356  67.969  1.00  0.00    -0.129 C  
ENDBRANCH  36  37
ENDBRANCH  35  36
ENDBRANCH  19  32
BRANCH  24  42
HETATM   42  N   UNL     1     -11.807  14.331  69.955  1.00  0.00    -0.303 NA 
HETATM   43  C   UNL     1     -11.816  14.898  71.310  1.00  0.00    -0.339 C  
HETATM   44  C   UNL     1     -11.867  12.887  70.017  1.00  0.00    -0.286 C  
ENDBRANCH  24  42
TORSDOF 4
ENDMDL
MODEL       19
REMARK 921   NORMALIZED FREE ENERGY PREDICTED BY IDOCK:   -6.98 KCAL/MOL
REMARK 922        TOTAL FREE ENERGY PREDICTED BY IDOCK:   -9.19 KCAL/MOL
REMARK 923 INTER-LIGAND FREE ENERGY PREDICTED BY IDOCK:   -8.65 KCAL/MOL
REMARK 924 INTRA-LIGAND FREE ENERGY PREDICTED BY IDOCK:   -0.53 KCAL/MOL
REMARK 927      BINDING AFFINITY PREDICTED BY RF-SCORE:    0.00 PKD
ROOT
HETATM    1  C   UNL     1      -9.992   7.823  69.773  1.00  0.00    -0.189 C  
HETATM    2  C   UNL     1     -10.352   9.115  69.067  1.00  0.00    -0.229 C  
HETATM    3  C   UNL     1     -10.660  10.288  70.043  1.00  0.00    -0.321 C  
HETATM    4  C   UNL     1     -11.664   9.873  71.092  1.00  0.00    -0.478 C  
HETATM    5  C   UNL     1     -12.696  10.876  71.533  1.00  0.00    -0.428 C  
HETATM    6  C   UNL     1     -11.682   8.614  71.580  1.00  0.00    -0.313 C  
HETATM    7  C   UNL     1     -12.575  12.294  71.095  1.00  0.00    -0.353 A  
HETATM    8  O   UNL     1     -13.640  10.548  72.257  1.00  0.00    -0.278 OA 
HETATM    9  O   UNL     1     -12.682   8.173  72.451  1.00  0.00    -0.506 OA 
HETATM   10  C   UNL     1     -10.849   7.452  71.003  1.00  0.00    -0.239 C  
HETATM   11  C   UNL     1      -9.718   6.716  71.910  1.00  0.00    -0.153 C  
HETATM   12  H   UNL     1     -12.695   7.287  72.794  1.00  0.00     0.000 HD 
HETATM   13  O   UNL     1     -11.893   6.552  70.605  1.00  0.00    -0.384 OA 
HETATM   14  C   UNL     1     -13.377  13.295  71.678  1.00  0.00    -0.322 A  
HETATM   15  O   UNL     1      -9.705   6.701  73.138  1.00  0.00    -0.152 OA 
HETATM   16  H   UNL     1     -12.419   6.323  71.361  1.00  0.00     0.000 HD 
HETATM   17  C   UNL     1     -13.217  14.638  71.327  1.00  0.00    -0.432 A  
HETATM   18  O   UNL     1     -14.359  13.041  72.596  1.00  0.00    -0.657 OA 
HETATM   19  C   UNL     1      -8.664   5.896  71.132  1.00  0.00    -0.132 C  
HETATM   20  C   UNL     1     -11.966  11.262  68.040  1.00  0.00    -0.132 C  
HETATM   21  C   UNL     1      -9.295   5.423  70.033  1.00  0.00    -0.148 C  
HETATM   22  C   UNL     1     -12.261  14.994  70.386  1.00  0.00    -0.393 A  
HETATM   23  H   UNL     1     -14.899  13.716  72.990  1.00  0.00     0.000 HD 
HETATM   24  C   UNL     1      -9.651   6.514  68.929  1.00  0.00    -0.127 C  
HETATM   25  O   UNL     1      -9.784  12.060  68.708  1.00  0.00    -0.374 OA 
HETATM   26  C   UNL     1     -11.027  11.563  69.227  1.00  0.00    -0.208 C  
HETATM   27  O   UNL     1     -10.249   4.407  70.169  1.00  0.00    -0.180 OA 
HETATM   28  C   UNL     1     -11.506  14.006  69.757  1.00  0.00    -0.293 A  
HETATM   29  H   UNL     1     -10.008  12.837  68.210  1.00  0.00     0.000 HD 
HETATM   30  H   UNL     1     -10.692   4.076  69.397  1.00  0.00     0.000 HD 
HETATM   31  C   UNL     1     -11.670  12.641  70.078  1.00  0.00    -0.289 A  
ENDROOT
BRANCH  19  32
HETATM   32  C   UNL     1      -7.295   6.387  70.672  1.00  0.00    -0.079 C  
HETATM   33  H   UNL     1      -7.008   4.983  69.139  1.00  0.00     0.000 HD 
HETATM   34  O   UNL     1      -6.779   7.365  71.218  1.00  0.00    -0.049 OA 
HETATM   35  N   UNL     1      -6.626   5.791  69.631  1.00  0.00    -0.048 N  
BRANCH  35  36
HETATM   36  C   UNL     1      -5.353   6.371  69.273  1.00  0.00    -0.013 C  
BRANCH  36  37
HETATM   37  N   UNL     1      -5.349   6.811  67.888  1.00  0.00    -0.011 NA 
HETATM   38  C   UNL     1      -6.057   5.841  67.027  1.00  0.00    -0.025 C  
HETATM   39  C   UNL     1      -6.261   6.629  65.747  1.00  0.00    -0.038 C  
HETATM   40  C   UNL     1      -6.556   8.036  66.239  1.00  0.00    -0.047 C  
HETATM   41  C   UNL     1      -6.050   8.079  67.679  1.00  0.00    -0.051 C  
ENDBRANCH  36  37
ENDBRANCH  35  36
ENDBRANCH  19  32
BRANCH  24  42
HETATM   42  N   UNL     1     -10.577   5.917  67.944  1.00  0.00    -0.242 NA 
HETATM   43  C   UNL     1      -9.905   4.848  67.193  1.00  0.00    -0.190 C  
HETATM   44  C   UNL     1     -11.269   6.806  67.037  1.00  0.00    -0.152 C  
ENDBRANCH  24  42
TORSDOF 4
ENDMDL
MODEL       20
REMARK 921   NORMALIZED FREE ENERGY PREDICTED BY IDOCK:   -6.79 KCAL/MOL
REMARK 922        TOTAL FREE ENERGY PREDICTED BY IDOCK:   -8.95 KCAL/MOL
REMARK 923 INTER-LIGAND FREE ENERGY PREDICTED BY IDOCK:   -8.27 KCAL/MOL
REMARK 924 INTRA-LIGAND FREE ENERGY PREDICTED BY IDOCK:   -0.68 KCAL/MOL
REMARK 927      BINDING AFFINITY PREDICTED BY RF-SCORE:    0.00 PKD
ROOT
HETATM    1  C   UNL     1     -10.097  12.134  67.749  1.00  0.00    -0.203 C  
HETATM    2  C   UNL     1     -10.551  10.746  68.153  1.00  0.00    -0.238 C  
HETATM    3  C   UNL     1      -9.697  10.125  69.296  1.00  0.00    -0.238 C  
HETATM    4  C   UNL     1      -8.223  10.210  68.982  1.00  0.00    -0.132 C  
HETATM    5  C   UNL     1      -7.338   9.059  69.380  1.00  0.00    -0.075 C  
HETATM    6  C   UNL     1      -7.714  11.262  68.304  1.00  0.00    -0.122 C  
HETATM    7  C   UNL     1      -7.883   7.979  70.247  1.00  0.00    -0.088 A  
HETATM    8  O   UNL     1      -6.164   8.995  69.004  1.00  0.00    -0.043 OA 
HETATM    9  O   UNL     1      -6.381  11.299  67.889  1.00  0.00    -0.053 OA 
HETATM   10  C   UNL     1      -8.572  12.349  67.627  1.00  0.00    -0.172 C  
HETATM   11  C   UNL     1      -8.477  13.898  68.112  1.00  0.00    -0.171 C  
HETATM   12  H   UNL     1      -6.023  12.038  67.412  1.00  0.00     0.000 HD 
HETATM   13  O   UNL     1      -8.173  12.186  66.259  1.00  0.00    -0.388 OA 
HETATM   14  C   UNL     1      -7.025   7.025  70.828  1.00  0.00    -0.065 A  
HETATM   15  O   UNL     1      -7.513  14.393  68.692  1.00  0.00    -0.113 OA 
HETATM   16  H   UNL     1      -7.236  12.318  66.184  1.00  0.00     0.000 HD 
HETATM   17  C   UNL     1      -7.518   6.054  71.703  1.00  0.00    -0.094 A  
HETATM   18  O   UNL     1      -5.682   6.961  70.578  1.00  0.00    -0.023 OA 
HETATM   19  C   UNL     1      -9.658  14.805  67.698  1.00  0.00    -0.208 C  
HETATM   20  C   UNL     1     -10.574   7.879  68.371  1.00  0.00    -0.154 C  
HETATM   21  C   UNL     1     -10.101  14.322  66.514  1.00  0.00    -0.278 C  
HETATM   22  C   UNL     1      -8.874   6.022  72.002  1.00  0.00    -0.137 A  
HETATM   23  H   UNL     1      -5.102   6.318  70.971  1.00  0.00     0.000 HD 
HETATM   24  C   UNL     1     -10.854  12.922  66.587  1.00  0.00    -0.267 C  
HETATM   25  O   UNL     1     -11.441   8.909  70.379  1.00  0.00    -0.359 OA 
HETATM   26  C   UNL     1     -10.233   8.701  69.632  1.00  0.00    -0.208 C  
HETATM   27  O   UNL     1      -9.324  14.501  65.363  1.00  0.00    -0.460 OA 
HETATM   28  C   UNL     1      -9.741   6.921  71.384  1.00  0.00    -0.177 A  
HETATM   29  H   UNL     1     -11.767   8.041  70.583  1.00  0.00     0.000 HD 
HETATM   30  H   UNL     1      -9.635  14.162  64.532  1.00  0.00     0.000 HD 
HETATM   31  C   UNL     1      -9.266   7.893  70.476  1.00  0.00    -0.158 A  
ENDROOT
BRANCH  19  32
HETATM   32  C   UNL     1     -10.896  15.116  68.533  1.00  0.00    -0.247 C  
HETATM   33  H   UNL     1     -10.203  14.318  70.346  1.00  0.00     0.000 HD 
HETATM   34  O   UNL     1     -11.852  15.699  68.018  1.00  0.00    -0.244 OA 
HETATM   35  N   UNL     1     -10.966  14.795  69.866  1.00  0.00    -0.232 N  
BRANCH  35  36
HETATM   36  C   UNL     1     -12.181  15.172  70.551  1.00  0.00    -0.341 C  
BRANCH  36  37
HETATM   37  N   UNL     1     -12.993  14.006  70.857  1.00  0.00    -0.308 NA 
HETATM   38  C   UNL     1     -12.221  12.762  70.659  1.00  0.00    -0.288 C  
HETATM   39  C   UNL     1     -13.082  11.729  71.361  1.00  0.00    -0.322 C  
HETATM   40  C   UNL     1     -13.616  12.473  72.572  1.00  0.00    -0.181 C  
HETATM   41  C   UNL     1     -13.434  13.955  72.252  1.00  0.00    -0.526 C  
ENDBRANCH  36  37
ENDBRANCH  35  36
ENDBRANCH  19  32
BRANCH  24  42
HETATM   42  N   UNL     1     -11.017  12.391  65.217  1.00  0.00    -0.290 NA 
HETATM   43  C   UNL     1     -12.354  12.713  64.700  1.00  0.00    -0.476 C  
HETATM   44  C   UNL     1     -10.715  10.995  64.989  1.00  0.00    -0.194 C  
ENDBRANCH  24  42
TORSDOF 4
ENDMDL
MODEL       21
REMARK 921   NORMALIZED FREE ENERGY PREDICTED BY IDOCK:   -6.78 KCAL/MOL
REMARK 922        TOTAL FREE ENERGY PREDICTED BY IDOCK:   -8.94 KCAL/MOL
REMARK 923 INTER-LIGAND FREE ENERGY PREDICTED BY IDOCK:   -8.61 KCAL/MOL
REMARK 924 INTRA-LIGAND FREE ENERGY PREDICTED BY IDOCK:   -0.33 KCAL/MOL
REMARK 927      BINDING AFFINITY PREDICTED BY RF-SCORE:    0.00 PKD
ROOT
HETATM    1  C   UNL     1      -9.455   8.298  68.751  1.00  0.00    -0.148 C  
HETATM    2  C   UNL     1      -9.684   9.794  68.837  1.00  0.00    -0.172 C  
HETATM    3  C   UNL     1     -10.659  10.333  67.750  1.00  0.00    -0.296 C  
HETATM    4  C   UNL     1     -10.252   9.862  66.374  1.00  0.00    -0.292 C  
HETATM    5  C   UNL     1     -10.411  10.811  65.216  1.00  0.00    -0.258 C  
HETATM    6  C   UNL     1      -9.700   8.644  66.189  1.00  0.00    -0.222 C  
HETATM    7  C   UNL     1     -11.149  12.089  65.411  1.00  0.00    -0.369 A  
HETATM    8  O   UNL     1      -9.944  10.548  64.104  1.00  0.00    -0.322 OA 
HETATM    9  O   UNL     1      -9.197   8.241  64.949  1.00  0.00    -0.335 OA 
HETATM   10  C   UNL     1      -9.254   7.714  67.335  1.00  0.00    -0.132 C  
HETATM   11  C   UNL     1      -9.952   6.260  67.539  1.00  0.00    -0.134 C  
HETATM   12  H   UNL     1      -8.809   7.384  64.818  1.00  0.00     0.000 HD 
HETATM   13  O   UNL     1      -7.851   7.607  67.056  1.00  0.00    -0.108 OA 
HETATM   14  C   UNL     1     -11.520  12.878  64.303  1.00  0.00    -0.377 A  
HETATM   15  O   UNL     1     -10.525   5.628  66.655  1.00  0.00    -0.238 OA 
HETATM   16  H   UNL     1      -7.727   7.248  66.186  1.00  0.00     0.000 HD 
HETATM   17  C   UNL     1     -12.278  14.040  64.472  1.00  0.00    -0.463 A  
HETATM   18  O   UNL     1     -11.165  12.591  63.014  1.00  0.00    -0.715 OA 
HETATM   19  C   UNL     1      -9.762   5.614  68.930  1.00  0.00    -0.181 C  
HETATM   20  C   UNL     1      -9.482  12.589  68.193  1.00  0.00    -0.214 C  
HETATM   21  C   UNL     1      -8.557   6.036  69.377  1.00  0.00    -0.122 C  
HETATM   22  C   UNL     1     -12.668  14.429  65.746  1.00  0.00    -0.267 A  
HETATM   23  H   UNL     1     -11.415  13.122  62.268  1.00  0.00     0.000 HD 
HETATM   24  C   UNL     1      -8.480   7.573  69.784  1.00  0.00    -0.135 C  
HETATM   25  O   UNL     1     -11.677  12.052  69.052  1.00  0.00    -0.282 OA 
HETATM   26  C   UNL     1     -10.821  11.873  67.914  1.00  0.00    -0.213 C  
HETATM   27  O   UNL     1      -7.390   5.536  68.786  1.00  0.00    -0.072 OA 
HETATM   28  C   UNL     1     -12.254  13.691  66.853  1.00  0.00    -0.398 A  
HETATM   29  H   UNL     1     -11.776  12.992  69.152  1.00  0.00     0.000 HD 
HETATM   30  H   UNL     1      -6.543   5.833  69.099  1.00  0.00     0.000 HD 
HETATM   31  C   UNL     1     -11.465  12.529  66.707  1.00  0.00    -0.422 A  
ENDROOT
BRANCH  19  32
HETATM   32  C   UNL     1     -10.723   5.712  70.111  1.00  0.00    -0.305 C  
HETATM   33  H   UNL     1      -9.485   4.800  71.539  1.00  0.00     0.000 HD 
HETATM   34  O   UNL     1     -11.823   6.249  69.964  1.00  0.00    -0.351 OA 
HETATM   35  N   UNL     1     -10.384   5.248  71.358  1.00  0.00    -0.221 N  
BRANCH  35  36
HETATM   36  C   UNL     1     -11.370   5.428  72.398  1.00  0.00    -0.179 C  
BRANCH  36  37
HETATM   37  N   UNL     1     -11.048   4.630  73.570  1.00  0.00    -0.322 NA 
HETATM   38  C   UNL     1     -11.603   3.266  73.444  1.00  0.00     0.070 C  
HETATM   39  C   UNL     1     -10.871   2.515  74.540  1.00  0.00    -0.037 C  
HETATM   40  C   UNL     1      -9.473   3.106  74.505  1.00  0.00    -0.121 C  
HETATM   41  C   UNL     1      -9.610   4.433  73.762  1.00  0.00    -0.122 C  
ENDBRANCH  36  37
ENDBRANCH  35  36
ENDBRANCH  19  32
BRANCH  24  42
HETATM   42  N   UNL     1      -7.062   7.951  69.968  1.00  0.00    -0.050 NA 
HETATM   43  C   UNL     1      -6.681   7.836  71.382  1.00  0.00    -0.045 C  
HETATM   44  C   UNL     1      -6.624   9.223  69.434  1.00  0.00    -0.044 C  
ENDBRANCH  24  42
TORSDOF 4
ENDMDL
MODEL       22
REMARK 921   NORMALIZED FREE ENERGY PREDICTED BY IDOCK:   -6.74 KCAL/MOL
REMARK 922        TOTAL FREE ENERGY PREDICTED BY IDOCK:   -8.89 KCAL/MOL
REMARK 923 INTER-LIGAND FREE ENERGY PREDICTED BY IDOCK:   -8.51 KCAL/MOL
REMARK 924 INTRA-LIGAND FREE ENERGY PREDICTED BY IDOCK:   -0.38 KCAL/MOL
REMARK 927      BINDING AFFINITY PREDICTED BY RF-SCORE:    0.00 PKD
ROOT
HETATM    1  C   UNL     1      -9.757  14.216  67.380  1.00  0.00    -0.232 C  
HETATM    2  C   UNL     1     -10.291  12.975  66.694  1.00  0.00    -0.263 C  
HETATM    3  C   UNL     1      -9.599  11.662  67.164  1.00  0.00    -0.185 C  
HETATM    4  C   UNL     1      -8.096  11.788  67.102  1.00  0.00    -0.169 C  
HETATM    5  C   UNL     1      -7.294  10.589  66.671  1.00  0.00    -0.120 C  
HETATM    6  C   UNL     1      -7.483  12.963  67.364  1.00  0.00    -0.132 C  
HETATM    7  C   UNL     1      -7.967   9.270  66.524  1.00  0.00    -0.104 A  
HETATM    8  O   UNL     1      -6.085  10.678  66.439  1.00  0.00    -0.078 OA 
HETATM    9  O   UNL     1      -6.108  13.135  67.185  1.00  0.00    -0.448 OA 
HETATM   10  C   UNL     1      -8.225  14.301  67.551  1.00  0.00    -0.189 C  
HETATM   11  C   UNL     1      -8.152  15.095  68.968  1.00  0.00    -0.191 C  
HETATM   12  H   UNL     1      -5.676  13.961  67.369  1.00  0.00     0.000 HD 
HETATM   13  O   UNL     1      -7.665  15.065  66.474  1.00  0.00    -0.211 OA 
HETATM   14  C   UNL     1      -7.209   8.093  66.359  1.00  0.00    -0.079 A  
HETATM   15  O   UNL     1      -7.255  14.968  69.798  1.00  0.00    -0.186 OA 
HETATM   16  H   UNL     1      -6.723  15.117  66.578  1.00  0.00     0.000 HD 
HETATM   17  C   UNL     1      -7.830   6.843  66.297  1.00  0.00    -0.101 A  
HETATM   18  O   UNL     1      -5.848   8.079  66.232  1.00  0.00    -0.039 OA 
HETATM   19  C   UNL     1      -9.251  16.157  69.198  1.00  0.00    -0.246 C  
HETATM   20  C   UNL     1     -10.409  10.735  64.894  1.00  0.00    -0.369 C  
HETATM   21  C   UNL     1      -9.558  16.649  67.976  1.00  0.00    -0.225 C  
HETATM   22  C   UNL     1      -9.212   6.754  66.393  1.00  0.00    -0.185 A  
HETATM   23  H   UNL     1      -5.337   7.286  66.121  1.00  0.00     0.000 HD 
HETATM   24  C   UNL     1     -10.347  15.652  67.018  1.00  0.00    -0.289 C  
HETATM   25  O   UNL     1     -11.491  10.220  66.994  1.00  0.00    -0.195 OA 
HETATM   26  C   UNL     1     -10.206  10.450  66.397  1.00  0.00    -0.230 C  
HETATM   27  O   UNL     1      -8.641  17.478  67.317  1.00  0.00    -0.219 OA 
HETATM   28  C   UNL     1      -9.975   7.917  66.493  1.00  0.00    -0.267 A  
HETATM   29  H   UNL     1     -11.860   9.480  66.526  1.00  0.00     0.000 HD 
HETATM   30  H   UNL     1      -8.856  17.823  66.459  1.00  0.00     0.000 HD 
HETATM   31  C   UNL     1      -9.369   9.192  66.531  1.00  0.00    -0.244 A  
ENDROOT
BRANCH  19  32
HETATM   32  C   UNL     1     -10.574  15.946  69.927  1.00  0.00    -0.326 C  
HETATM   33  H   UNL     1     -10.349  13.894  70.302  1.00  0.00     0.000 HD 
HETATM   34  O   UNL     1     -11.332  16.901  70.113  1.00  0.00     0.086 OA 
HETATM   35  N   UNL     1     -10.938  14.717  70.421  1.00  0.00    -0.125 N  
BRANCH  35  36
HETATM   36  C   UNL     1     -12.202  14.656  71.118  1.00  0.00    -0.340 C  
BRANCH  36  37
HETATM   37  N   UNL     1     -12.858  13.378  70.904  1.00  0.00    -0.250 NA 
HETATM   38  C   UNL     1     -11.956  12.434  70.212  1.00  0.00    -0.289 C  
HETATM   39  C   UNL     1     -12.658  11.105  70.411  1.00  0.00    -0.328 C  
HETATM   40  C   UNL     1     -13.222  11.207  71.818  1.00  0.00    -0.486 C  
HETATM   41  C   UNL     1     -13.228  12.699  72.147  1.00  0.00    -0.421 C  
ENDBRANCH  36  37
ENDBRANCH  35  36
ENDBRANCH  19  32
BRANCH  24  42
HETATM   42  N   UNL     1     -10.354  16.207  65.647  1.00  0.00    -0.395 NA 
HETATM   43  C   UNL     1     -10.772  17.615  65.667  1.00  0.00    -0.084 C  
HETATM   44  C   UNL     1     -11.080  15.485  64.626  1.00  0.00    -0.359 C  
ENDBRANCH  24  42
TORSDOF 4
ENDMDL
MODEL       23
REMARK 921   NORMALIZED FREE ENERGY PREDICTED BY IDOCK:   -6.67 KCAL/MOL
REMARK 922        TOTAL FREE ENERGY PREDICTED BY IDOCK:   -8.81 KCAL/MOL
REMARK 923 INTER-LIGAND FREE ENERGY PREDICTED BY IDOCK:   -8.88 KCAL/MOL
REMARK 924 INTRA-LIGAND FREE ENERGY PREDICTED BY IDOCK:    0.07 KCAL/MOL
REMARK 927      BINDING AFFINITY PREDICTED BY RF-SCORE:    0.00 PKD
ROOT
HETATM    1  C   UNL     1      -9.893  12.354  67.969  1.00  0.00    -0.205 C  
HETATM    2  C   UNL     1      -9.600  11.035  68.656  1.00  0.00    -0.198 C  
HETATM    3  C   UNL     1     -10.881  10.286  69.126  1.00  0.00    -0.270 C  
HETATM    4  C   UNL     1     -11.781  11.197  69.925  1.00  0.00    -0.433 C  
HETATM    5  C   UNL     1     -12.515  10.622  71.107  1.00  0.00    -0.418 C  
HETATM    6  C   UNL     1     -11.883  12.511  69.631  1.00  0.00    -0.314 C  
HETATM    7  C   UNL     1     -12.506   9.150  71.332  1.00  0.00    -0.396 A  
HETATM    8  O   UNL     1     -13.129  11.347  71.894  1.00  0.00    -0.492 OA 
HETATM    9  O   UNL     1     -12.606  13.395  70.435  1.00  0.00    -0.259 OA 
HETATM   10  C   UNL     1     -10.977  13.241  68.619  1.00  0.00    -0.264 C  
HETATM   11  C   UNL     1     -11.610  13.920  67.283  1.00  0.00    -0.365 C  
HETATM   12  H   UNL     1     -12.677  14.320  70.229  1.00  0.00     0.000 HD 
HETATM   13  O   UNL     1     -10.354  14.210  69.474  1.00  0.00    -0.429 OA 
HETATM   14  C   UNL     1     -13.370   8.564  72.278  1.00  0.00    -0.323 A  
HETATM   15  O   UNL     1     -12.780  14.273  67.164  1.00  0.00     0.043 OA 
HETATM   16  H   UNL     1     -11.021  14.755  69.874  1.00  0.00     0.000 HD 
HETATM   17  C   UNL     1     -13.422   7.178  72.441  1.00  0.00     0.300 A  
HETATM   18  O   UNL     1     -14.192   9.283  73.102  1.00  0.00    -1.041 OA 
HETATM   19  C   UNL     1     -10.608  14.225  66.147  1.00  0.00    -0.293 C  
HETATM   20  C   UNL     1      -9.272   9.120  70.775  1.00  0.00    -0.321 C  
HETATM   21  C   UNL     1      -9.430  14.504  66.752  1.00  0.00    -0.269 C  
HETATM   22  C   UNL     1     -12.608   6.362  71.667  1.00  0.00    -0.084 A  
HETATM   23  H   UNL     1     -14.775   8.888  73.739  1.00  0.00     0.000 HD 
HETATM   24  C   UNL     1      -8.699  13.261  67.426  1.00  0.00    -0.206 C  
HETATM   25  O   UNL     1     -10.103   8.060  68.767  1.00  0.00    -0.185 OA 
HETATM   26  C   UNL     1     -10.478   8.954  69.825  1.00  0.00    -0.212 C  
HETATM   27  O   UNL     1      -9.283  15.709  67.450  1.00  0.00    -0.195 OA 
HETATM   28  C   UNL     1     -11.704   6.934  70.773  1.00  0.00    -0.417 A  
HETATM   29  H   UNL     1      -9.857   7.248  69.194  1.00  0.00     0.000 HD 
HETATM   30  H   UNL     1      -8.456  15.904  67.876  1.00  0.00     0.000 HD 
HETATM   31  C   UNL     1     -11.617   8.335  70.612  1.00  0.00    -0.199 A  
ENDROOT
BRANCH  19  32
HETATM   32  C   UNL     1     -10.285  13.323  64.960  1.00  0.00    -0.297 C  
HETATM   33  H   UNL     1     -10.477  11.487  65.958  1.00  0.00     0.000 HD 
HETATM   34  O   UNL     1     -10.049  13.822  63.857  1.00  0.00     0.226 OA 
HETATM   35  N   UNL     1     -10.284  11.955  65.072  1.00  0.00    -0.269 N  
BRANCH  35  36
HETATM   36  C   UNL     1      -9.993  11.214  63.867  1.00  0.00    -0.329 C  
BRANCH  36  37
HETATM   37  N   UNL     1      -9.095  10.103  64.137  1.00  0.00    -0.229 NA 
HETATM   38  C   UNL     1      -7.801  10.295  63.452  1.00  0.00    -0.136 C  
HETATM   39  C   UNL     1      -6.915   9.270  64.133  1.00  0.00    -0.095 C  
HETATM   40  C   UNL     1      -7.374   9.309  65.580  1.00  0.00    -0.093 C  
HETATM   41  C   UNL     1      -8.752   9.965  65.554  1.00  0.00    -0.151 C  
ENDBRANCH  36  37
ENDBRANCH  35  36
ENDBRANCH  19  32
BRANCH  24  42
HETATM   42  N   UNL     1      -7.599  13.756  68.282  1.00  0.00    -0.118 NA 
HETATM   43  C   UNL     1      -6.505  14.282  67.455  1.00  0.00    -0.041 C  
HETATM   44  C   UNL     1      -7.076  12.868  69.297  1.00  0.00     0.104 C  
ENDBRANCH  24  42
TORSDOF 4
ENDMDL
MODEL       24
REMARK 921   NORMALIZED FREE ENERGY PREDICTED BY IDOCK:   -6.63 KCAL/MOL
REMARK 922        TOTAL FREE ENERGY PREDICTED BY IDOCK:   -8.76 KCAL/MOL
REMARK 923 INTER-LIGAND FREE ENERGY PREDICTED BY IDOCK:   -8.35 KCAL/MOL
REMARK 924 INTRA-LIGAND FREE ENERGY PREDICTED BY IDOCK:   -0.41 KCAL/MOL
REMARK 927      BINDING AFFINITY PREDICTED BY RF-SCORE:    0.00 PKD
ROOT
HETATM    1  C   UNL     1      -9.982  10.935  68.888  1.00  0.00    -0.208 C  
HETATM    2  C   UNL     1      -9.624  10.268  70.201  1.00  0.00     0.108 C  
HETATM    3  C   UNL     1      -8.926   8.888  70.022  1.00  0.00    -0.172 C  
HETATM    4  C   UNL     1      -9.711   8.000  69.087  1.00  0.00    -0.163 C  
HETATM    5  C   UNL     1      -9.785   6.527  69.391  1.00  0.00    -0.146 C  
HETATM    6  C   UNL     1     -10.385   8.515  68.036  1.00  0.00    -0.217 C  
HETATM    7  C   UNL     1      -8.925   5.955  70.464  1.00  0.00    -0.151 A  
HETATM    8  O   UNL     1     -10.543   5.781  68.765  1.00  0.00    -0.231 OA 
HETATM    9  O   UNL     1     -11.221   7.731  67.237  1.00  0.00    -0.457 OA 
HETATM   10  C   UNL     1     -10.588  10.025  67.797  1.00  0.00    -0.261 C  
HETATM   11  C   UNL     1      -9.975  10.742  66.473  1.00  0.00    -0.213 C  
HETATM   12  H   UNL     1     -11.695   8.094  66.498  1.00  0.00     0.000 HD 
HETATM   13  O   UNL     1     -12.019  10.108  67.844  1.00  0.00    -0.373 OA 
HETATM   14  C   UNL     1      -8.795   4.560  70.610  1.00  0.00    -0.100 A  
HETATM   15  O   UNL     1      -9.702  10.162  65.425  1.00  0.00    -0.247 OA 
HETATM   16  H   UNL     1     -12.392   9.548  67.174  1.00  0.00     0.000 HD 
HETATM   17  C   UNL     1      -7.932   4.015  71.564  1.00  0.00    -0.076 A  
HETATM   18  O   UNL     1      -9.493   3.650  69.864  1.00  0.00    -0.172 OA 
HETATM   19  C   UNL     1      -9.847  12.281  66.543  1.00  0.00    -0.240 C  
HETATM   20  C   UNL     1      -9.770   8.449  72.423  1.00  0.00    -0.376 C  
HETATM   21  C   UNL     1     -10.859  12.705  67.334  1.00  0.00    -0.243 C  
HETATM   22  C   UNL     1      -7.196   4.857  72.386  1.00  0.00    -0.082 A  
HETATM   23  H   UNL     1      -9.405   2.709  69.962  1.00  0.00     0.000 HD 
HETATM   24  C   UNL     1     -10.709  12.355  68.880  1.00  0.00    -0.164 C  
HETATM   25  O   UNL     1      -7.475   9.012  71.910  1.00  0.00    -0.325 OA 
HETATM   26  C   UNL     1      -8.608   8.280  71.420  1.00  0.00    -0.149 C  
HETATM   27  O   UNL     1     -12.174  12.655  66.856  1.00  0.00    -0.489 OA 
HETATM   28  C   UNL     1      -7.364   6.238  72.294  1.00  0.00    -0.092 A  
HETATM   29  H   UNL     1      -7.282   8.641  72.763  1.00  0.00     0.000 HD 
HETATM   30  H   UNL     1     -12.885  12.953  67.411  1.00  0.00     0.000 HD 
HETATM   31  C   UNL     1      -8.251   6.807  71.354  1.00  0.00    -0.111 A  
ENDROOT
BRANCH  19  32
HETATM   32  C   UNL     1      -8.608  13.067  66.960  1.00  0.00    -0.162 C  
HETATM   33  H   UNL     1      -9.495  14.968  66.991  1.00  0.00     0.000 HD 
HETATM   34  O   UNL     1      -7.548  12.473  67.172  1.00  0.00    -0.148 OA 
HETATM   35  N   UNL     1      -8.645  14.427  67.145  1.00  0.00    -0.213 N  
BRANCH  35  36
HETATM   36  C   UNL     1      -7.412  15.048  67.572  1.00  0.00    -0.201 C  
BRANCH  36  37
HETATM   37  N   UNL     1      -7.562  16.489  67.683  1.00  0.00    -0.142 NA 
HETATM   38  C   UNL     1      -7.941  17.079  66.382  1.00  0.00    -0.307 C  
HETATM   39  C   UNL     1      -8.397  18.471  66.776  1.00  0.00    -0.279 C  
HETATM   40  C   UNL     1      -9.112  18.251  68.098  1.00  0.00    -0.310 C  
HETATM   41  C   UNL     1      -8.627  16.893  68.602  1.00  0.00    -0.267 C  
ENDBRANCH  36  37
ENDBRANCH  35  36
ENDBRANCH  19  32
BRANCH  24  42
HETATM   42  N   UNL     1     -11.996  12.614  69.558  1.00  0.00    -0.297 NA 
HETATM   43  C   UNL     1     -12.084  14.022  69.969  1.00  0.00    -0.348 C  
HETATM   44  C   UNL     1     -12.371  11.750  70.656  1.00  0.00    -0.328 C  
ENDBRANCH  24  42
TORSDOF 4
ENDMDL
MODEL       25
REMARK 921   NORMALIZED FREE ENERGY PREDICTED BY IDOCK:   -6.60 KCAL/MOL
REMARK 922        TOTAL FREE ENERGY PREDICTED BY IDOCK:   -8.71 KCAL/MOL
REMARK 923 INTER-LIGAND FREE ENERGY PREDICTED BY IDOCK:   -8.03 KCAL/MOL
REMARK 924 INTRA-LIGAND FREE ENERGY PREDICTED BY IDOCK:   -0.69 KCAL/MOL
REMARK 927      BINDING AFFINITY PREDICTED BY RF-SCORE:    0.00 PKD
ROOT
HETATM    1  C   UNL     1      -9.066   7.766  69.608  1.00  0.00    -0.146 C  
HETATM    2  C   UNL     1      -9.079   9.160  69.013  1.00  0.00    -0.143 C  
HETATM    3  C   UNL     1      -9.645   9.207  67.563  1.00  0.00    -0.186 C  
HETATM    4  C   UNL     1      -8.972   8.181  66.684  1.00  0.00    -0.181 C  
HETATM    5  C   UNL     1      -8.679   8.546  65.252  1.00  0.00    -0.140 C  
HETATM    6  C   UNL     1      -8.583   6.986  67.178  1.00  0.00    -0.121 C  
HETATM    7  C   UNL     1      -9.239   9.804  64.686  1.00  0.00    -0.312 A  
HETATM    8  O   UNL     1      -7.985   7.819  64.536  1.00  0.00    -0.135 OA 
HETATM    9  O   UNL     1      -7.843   6.077  66.418  1.00  0.00    -0.101 OA 
HETATM   10  C   UNL     1      -8.596   6.626  68.677  1.00  0.00    -0.125 C  
HETATM   11  C   UNL     1      -9.536   5.420  69.229  1.00  0.00    -0.133 C  
HETATM   12  H   UNL     1      -7.569   5.236  66.765  1.00  0.00     0.000 HD 
HETATM   13  O   UNL     1      -7.202   6.371  68.899  1.00  0.00    -0.079 OA 
HETATM   14  C   UNL     1      -9.185  10.051  63.300  1.00  0.00    -0.284 A  
HETATM   15  O   UNL     1      -9.949   4.485  68.547  1.00  0.00    -0.126 OA 
HETATM   16  H   UNL     1      -6.913   5.670  68.327  1.00  0.00     0.000 HD 
HETATM   17  C   UNL     1      -9.775  11.193  62.752  1.00  0.00    -0.298 A  
HETATM   18  O   UNL     1      -8.556   9.229  62.406  1.00  0.00    -0.187 OA 
HETATM   19  C   UNL     1      -9.814   5.428  70.749  1.00  0.00    -0.252 C  
HETATM   20  C   UNL     1      -8.294  11.402  67.392  1.00  0.00    -0.144 C  
HETATM   21  C   UNL     1      -8.716   5.967  71.327  1.00  0.00    -0.136 C  
HETATM   22  C   UNL     1     -10.418  12.102  63.581  1.00  0.00    -0.495 A  
HETATM   23  H   UNL     1      -8.520   9.396  61.471  1.00  0.00     0.000 HD 
HETATM   24  C   UNL     1      -8.514   7.528  71.084  1.00  0.00    -0.117 C  
HETATM   25  O   UNL     1     -10.692  11.346  67.694  1.00  0.00    -0.195 OA 
HETATM   26  C   UNL     1      -9.608  10.673  67.038  1.00  0.00    -0.169 C  
HETATM   27  O   UNL     1      -7.526   5.230  71.366  1.00  0.00    -0.089 OA 
HETATM   28  C   UNL     1     -10.422  11.899  64.960  1.00  0.00    -0.333 A  
HETATM   29  H   UNL     1     -10.670  12.240  67.373  1.00  0.00     0.000 HD 
HETATM   30  H   UNL     1      -6.755   5.609  71.771  1.00  0.00     0.000 HD 
HETATM   31  C   UNL     1      -9.809  10.765  65.537  1.00  0.00    -0.309 A  
ENDROOT
BRANCH  19  32
HETATM   32  C   UNL     1     -11.022   6.049  71.444  1.00  0.00    -0.276 C  
HETATM   33  H   UNL     1     -11.863   6.963  69.753  1.00  0.00     0.000 HD 
HETATM   34  O   UNL     1     -11.196   5.866  72.651  1.00  0.00    -0.264 OA 
HETATM   35  N   UNL     1     -11.953   6.785  70.753  1.00  0.00    -0.389 N  
BRANCH  35  36
HETATM   36  C   UNL     1     -13.066   7.292  71.522  1.00  0.00    -0.384 C  
BRANCH  36  37
HETATM   37  N   UNL     1     -13.316   8.691  71.221  1.00  0.00    -0.207 NA 
HETATM   38  C   UNL     1     -13.649   9.441  72.451  1.00  0.00    -0.429 C  
HETATM   39  C   UNL     1     -13.509  10.883  72.002  1.00  0.00    -0.287 C  
HETATM   40  C   UNL     1     -12.317  10.849  71.061  1.00  0.00    -0.498 C  
HETATM   41  C   UNL     1     -12.152   9.383  70.665  1.00  0.00    -0.130 C  
ENDBRANCH  36  37
ENDBRANCH  35  36
ENDBRANCH  19  32
BRANCH  24  42
HETATM   42  N   UNL     1      -7.152   7.909  71.516  1.00  0.00    -0.062 NA 
HETATM   43  C   UNL     1      -7.093   8.025  72.979  1.00  0.00    -0.099 C  
HETATM   44  C   UNL     1      -6.544   9.066  70.898  1.00  0.00    -0.068 C  
ENDBRANCH  24  42
TORSDOF 4
ENDMDL
MODEL       26
REMARK 921   NORMALIZED FREE ENERGY PREDICTED BY IDOCK:   -6.54 KCAL/MOL
REMARK 922        TOTAL FREE ENERGY PREDICTED BY IDOCK:   -8.65 KCAL/MOL
REMARK 923 INTER-LIGAND FREE ENERGY PREDICTED BY IDOCK:   -8.21 KCAL/MOL
REMARK 924 INTRA-LIGAND FREE ENERGY PREDICTED BY IDOCK:   -0.44 KCAL/MOL
REMARK 927      BINDING AFFINITY PREDICTED BY RF-SCORE:    0.00 PKD
ROOT
HETATM    1  C   UNL     1      -9.869  12.547  67.789  1.00  0.00    -0.204 C  
HETATM    2  C   UNL     1      -9.122  11.486  68.572  1.00  0.00    -0.157 C  
HETATM    3  C   UNL     1      -8.177  10.619  67.689  1.00  0.00    -0.107 C  
HETATM    4  C   UNL     1      -8.904  10.080  66.481  1.00  0.00    -0.154 C  
HETATM    5  C   UNL     1      -8.582   8.685  66.014  1.00  0.00    -0.155 C  
HETATM    6  C   UNL     1      -9.867  10.801  65.867  1.00  0.00    -0.239 C  
HETATM    7  C   UNL     1      -7.424   7.962  66.608  1.00  0.00    -0.089 A  
HETATM    8  O   UNL     1      -9.257   8.130  65.143  1.00  0.00     0.159 OA 
HETATM    9  O   UNL     1     -10.642  10.270  64.833  1.00  0.00    -0.111 OA 
HETATM   10  C   UNL     1     -10.451  12.114  66.426  1.00  0.00    -0.230 C  
HETATM   11  C   UNL     1     -10.285  13.507  65.604  1.00  0.00    -0.296 C  
HETATM   12  H   UNL     1     -11.319  10.777  64.401  1.00  0.00     0.000 HD 
HETATM   13  O   UNL     1     -11.827  11.743  66.589  1.00  0.00    -0.569 OA 
HETATM   14  C   UNL     1      -6.954   6.765  66.030  1.00  0.00    -0.065 A  
HETATM   15  O   UNL     1     -10.094  13.588  64.393  1.00  0.00    -0.339 OA 
HETATM   16  H   UNL     1     -12.184  11.476  65.750  1.00  0.00     0.000 HD 
HETATM   17  C   UNL     1      -5.823   6.120  66.536  1.00  0.00    -0.020 A  
HETATM   18  O   UNL     1      -7.558   6.146  64.971  1.00  0.00    -0.081 OA 
HETATM   19  C   UNL     1     -10.498  14.799  66.425  1.00  0.00    -0.294 C  
HETATM   20  C   UNL     1      -8.419   8.892  69.593  1.00  0.00    -0.129 C  
HETATM   21  C   UNL     1     -11.408  14.491  67.378  1.00  0.00    -0.356 C  
HETATM   22  C   UNL     1      -5.152   6.659  67.625  1.00  0.00    -0.004 A  
HETATM   23  H   UNL     1      -7.241   5.340  64.581  1.00  0.00     0.000 HD 
HETATM   24  C   UNL     1     -10.886  13.525  68.531  1.00  0.00    -0.264 C  
HETATM   25  O   UNL     1      -6.455  10.272  69.303  1.00  0.00    -0.044 OA 
HETATM   26  C   UNL     1      -7.465   9.556  68.577  1.00  0.00    -0.080 C  
HETATM   27  O   UNL     1     -12.745  14.286  67.014  1.00  0.00    -0.483 OA 
HETATM   28  C   UNL     1      -5.645   7.807  68.244  1.00  0.00    -0.032 A  
HETATM   29  H   UNL     1      -6.021   9.623  69.844  1.00  0.00     0.000 HD 
HETATM   30  H   UNL     1     -13.383  14.069  67.682  1.00  0.00     0.000 HD 
HETATM   31  C   UNL     1      -6.803   8.459  67.765  1.00  0.00    -0.067 A  
ENDROOT
BRANCH  19  32
HETATM   32  C   UNL     1      -9.414  15.626  67.109  1.00  0.00    -0.217 C  
HETATM   33  H   UNL     1     -10.674  16.725  68.377  1.00  0.00     0.000 HD 
HETATM   34  O   UNL     1      -8.230  15.452  66.810  1.00  0.00    -0.232 OA 
HETATM   35  N   UNL     1      -9.714  16.544  68.085  1.00  0.00    -0.230 N  
BRANCH  35  36
HETATM   36  C   UNL     1      -8.593  17.238  68.676  1.00  0.00    -0.265 C  
BRANCH  36  37
HETATM   37  N   UNL     1      -8.714  18.675  68.496  1.00  0.00    -0.330 NA 
HETATM   38  C   UNL     1      -7.968  19.119  67.300  1.00  0.00    -0.255 C  
HETATM   39  C   UNL     1      -8.504  20.520  67.082  1.00  0.00    -0.357 C  
HETATM   40  C   UNL     1      -9.975  20.399  67.439  1.00  0.00    -0.556 C  
HETATM   41  C   UNL     1     -10.089  19.119  68.266  1.00  0.00    -0.416 C  
ENDBRANCH  36  37
ENDBRANCH  35  36
ENDBRANCH  19  32
BRANCH  24  42
HETATM   42  N   UNL     1     -12.044  13.051  69.320  1.00  0.00    -0.249 NA 
HETATM   43  C   UNL     1     -12.408  14.041  70.342  1.00  0.00    -0.359 C  
HETATM   44  C   UNL     1     -11.969  11.731  69.908  1.00  0.00    -0.332 C  
ENDBRANCH  24  42
TORSDOF 4
ENDMDL
MODEL       27
REMARK 921   NORMALIZED FREE ENERGY PREDICTED BY IDOCK:   -6.52 KCAL/MOL
REMARK 922        TOTAL FREE ENERGY PREDICTED BY IDOCK:   -8.62 KCAL/MOL
REMARK 923 INTER-LIGAND FREE ENERGY PREDICTED BY IDOCK:   -8.24 KCAL/MOL
REMARK 924 INTRA-LIGAND FREE ENERGY PREDICTED BY IDOCK:   -0.38 KCAL/MOL
REMARK 927      BINDING AFFINITY PREDICTED BY RF-SCORE:    0.00 PKD
ROOT
HETATM    1  C   UNL     1      -9.344   9.960  68.176  1.00  0.00    -0.138 C  
HETATM    2  C   UNL     1     -10.187   8.770  68.589  1.00  0.00    -0.214 C  
HETATM    3  C   UNL     1      -9.965   8.340  70.069  1.00  0.00    -0.188 C  
HETATM    4  C   UNL     1      -8.496   8.174  70.373  1.00  0.00    -0.129 C  
HETATM    5  C   UNL     1      -8.075   7.053  71.285  1.00  0.00    -0.108 C  
HETATM    6  C   UNL     1      -7.570   8.968  69.794  1.00  0.00    -0.075 C  
HETATM    7  C   UNL     1      -9.111   6.280  72.024  1.00  0.00    -0.142 A  
HETATM    8  O   UNL     1      -6.885   6.764  71.437  1.00  0.00    -0.060 OA 
HETATM    9  O   UNL     1      -6.200   8.749  69.958  1.00  0.00    -0.036 OA 
HETATM   10  C   UNL     1      -7.874   9.959  68.652  1.00  0.00    -0.086 C  
HETATM   11  C   UNL     1      -7.656  11.556  68.864  1.00  0.00    -0.102 C  
HETATM   12  H   UNL     1      -5.549   9.307  69.551  1.00  0.00     0.000 HD 
HETATM   13  O   UNL     1      -7.036   9.432  67.615  1.00  0.00    -0.079 OA 
HETATM   14  C   UNL     1      -8.743   5.395  73.058  1.00  0.00    -0.121 A  
HETATM   15  O   UNL     1      -6.900  12.057  69.693  1.00  0.00    -0.049 OA 
HETATM   16  H   UNL     1      -6.132   9.431  67.907  1.00  0.00     0.000 HD 
HETATM   17  C   UNL     1      -9.713   4.724  73.806  1.00  0.00    -0.151 A  
HETATM   18  O   UNL     1      -7.446   5.116  73.392  1.00  0.00    -0.092 OA 
HETATM   19  C   UNL     1      -8.388  12.473  67.857  1.00  0.00    -0.167 C  
HETATM   20  C   UNL     1     -10.868   6.059  69.262  1.00  0.00    -0.428 C  
HETATM   21  C   UNL     1      -8.445  11.780  66.696  1.00  0.00    -0.153 C  
HETATM   22  C   UNL     1     -11.058   4.923  73.528  1.00  0.00    -0.405 A  
HETATM   23  H   UNL     1      -7.198   4.520  74.088  1.00  0.00     0.000 HD 
HETATM   24  C   UNL     1      -9.437  10.535  66.693  1.00  0.00    -0.168 C  
HETATM   25  O   UNL     1     -12.193   7.629  70.536  1.00  0.00    -0.507 OA 
HETATM   26  C   UNL     1     -10.863   7.109  70.393  1.00  0.00    -0.246 C  
HETATM   27  O   UNL     1      -7.276  11.589  65.949  1.00  0.00    -0.350 OA 
HETATM   28  C   UNL     1     -11.431   5.747  72.467  1.00  0.00    -0.349 A  
HETATM   29  H   UNL     1     -12.741   6.877  70.733  1.00  0.00     0.000 HD 
HETATM   30  H   UNL     1      -7.316  11.103  65.134  1.00  0.00     0.000 HD 
HETATM   31  C   UNL     1     -10.466   6.414  71.681  1.00  0.00    -0.251 A  
ENDROOT
BRANCH  19  32
HETATM   32  C   UNL     1      -9.757  13.116  68.049  1.00  0.00    -0.224 C  
HETATM   33  H   UNL     1     -10.193  12.264  69.917  1.00  0.00     0.000 HD 
HETATM   34  O   UNL     1     -10.198  13.888  67.194  1.00  0.00    -0.254 OA 
HETATM   35  N   UNL     1     -10.510  12.888  69.175  1.00  0.00     0.025 N  
BRANCH  35  36
HETATM   36  C   UNL     1     -11.775  13.582  69.250  1.00  0.00    -0.330 C  
BRANCH  36  37
HETATM   37  N   UNL     1     -12.068  13.991  70.613  1.00  0.00    -0.346 NA 
HETATM   38  C   UNL     1     -12.865  15.236  70.627  1.00  0.00    -0.409 C  
HETATM   39  C   UNL     1     -13.365  15.287  72.058  1.00  0.00    -0.522 C  
HETATM   40  C   UNL     1     -13.651  13.832  72.387  1.00  0.00    -0.690 C  
HETATM   41  C   UNL     1     -12.878  13.020  71.350  1.00  0.00    -0.292 C  
ENDBRANCH  36  37
ENDBRANCH  35  36
ENDBRANCH  19  32
BRANCH  24  42
HETATM   42  N   UNL     1      -9.181   9.720  65.486  1.00  0.00    -0.197 NA 
HETATM   43  C   UNL     1      -9.937  10.246  64.342  1.00  0.00    -0.261 C  
HETATM   44  C   UNL     1      -9.357   8.288  65.585  1.00  0.00     0.052 C  
ENDBRANCH  24  42
TORSDOF 4
ENDMDL
MODEL       28
REMARK 921   NORMALIZED FREE ENERGY PREDICTED BY IDOCK:   -6.51 KCAL/MOL
REMARK 922        TOTAL FREE ENERGY PREDICTED BY IDOCK:   -8.60 KCAL/MOL
REMARK 923 INTER-LIGAND FREE ENERGY PREDICTED BY IDOCK:   -8.06 KCAL/MOL
REMARK 924 INTRA-LIGAND FREE ENERGY PREDICTED BY IDOCK:   -0.54 KCAL/MOL
REMARK 927      BINDING AFFINITY PREDICTED BY RF-SCORE:    0.00 PKD
ROOT
HETATM    1  C   UNL     1      -9.009   9.727  68.027  1.00  0.00    -0.118 C  
HETATM    2  C   UNL     1      -9.926   8.577  68.392  1.00  0.00    -0.208 C  
HETATM    3  C   UNL     1      -9.862   8.190  69.899  1.00  0.00    -0.186 C  
HETATM    4  C   UNL     1      -8.435   7.992  70.349  1.00  0.00    -0.130 C  
HETATM    5  C   UNL     1      -8.141   6.891  71.333  1.00  0.00    -0.109 C  
HETATM    6  C   UNL     1      -7.433   8.739  69.839  1.00  0.00    -0.053 C  
HETATM    7  C   UNL     1      -9.267   6.174  71.991  1.00  0.00    -0.148 A  
HETATM    8  O   UNL     1      -6.981   6.572  71.608  1.00  0.00    -0.069 OA 
HETATM    9  O   UNL     1      -6.093   8.485  70.143  1.00  0.00    -0.033 OA 
HETATM   10  C   UNL     1      -7.594   9.700  68.644  1.00  0.00    -0.080 C  
HETATM   11  C   UNL     1      -7.345  11.296  68.826  1.00  0.00    -0.109 C  
HETATM   12  H   UNL     1      -5.387   9.011  69.784  1.00  0.00     0.000 HD 
HETATM   13  O   UNL     1      -6.676   9.113  67.710  1.00  0.00    -0.063 OA 
HETATM   14  C   UNL     1      -9.029   5.314  73.082  1.00  0.00    -0.118 A  
HETATM   15  O   UNL     1      -6.656  11.801  69.709  1.00  0.00    -0.120 OA 
HETATM   16  H   UNL     1      -5.806   9.096  68.088  1.00  0.00     0.000 HD 
HETATM   17  C   UNL     1     -10.088   4.696  73.753  1.00  0.00    -0.211 A  
HETATM   18  O   UNL     1      -7.781   5.008  73.549  1.00  0.00    -0.094 OA 
HETATM   19  C   UNL     1      -7.946  12.199  67.725  1.00  0.00    -0.151 C  
HETATM   20  C   UNL     1     -10.756   5.911  69.078  1.00  0.00    -0.379 C  
HETATM   21  C   UNL     1      -7.914  11.470  66.586  1.00  0.00    -0.127 C  
HETATM   22  C   UNL     1     -11.393   4.926  73.339  1.00  0.00    -0.379 A  
HETATM   23  H   UNL     1      -7.620   4.429  74.284  1.00  0.00     0.000 HD 
HETATM   24  C   UNL     1      -8.941  10.255  66.524  1.00  0.00    -0.144 C  
HETATM   25  O   UNL     1     -12.147   7.561  70.168  1.00  0.00    -0.481 OA 
HETATM   26  C   UNL     1     -10.826   6.998  70.172  1.00  0.00    -0.256 C  
HETATM   27  O   UNL     1      -6.685  11.220  65.963  1.00  0.00    -0.349 OA 
HETATM   28  C   UNL     1     -11.635   5.724  72.222  1.00  0.00    -0.300 A  
HETATM   29  H   UNL     1     -12.735   6.833  70.335  1.00  0.00     0.000 HD 
HETATM   30  H   UNL     1      -6.662  10.708  65.163  1.00  0.00     0.000 HD 
HETATM   31  C   UNL     1     -10.578   6.336  71.514  1.00  0.00    -0.282 A  
ENDROOT
BRANCH  19  32
HETATM   32  C   UNL     1      -9.306  12.888  67.764  1.00  0.00    -0.203 C  
HETATM   33  H   UNL     1      -9.200  13.796  65.875  1.00  0.00     0.000 HD 
HETATM   34  O   UNL     1     -10.041  12.742  68.744  1.00  0.00    -0.167 OA 
HETATM   35  N   UNL     1      -9.761  13.646  66.713  1.00  0.00    -0.267 N  
BRANCH  35  36
HETATM   36  C   UNL     1     -11.079  14.219  66.861  1.00  0.00    -0.312 C  
BRANCH  36  37
HETATM   37  N   UNL     1     -11.944  13.838  65.757  1.00  0.00    -0.376 NA 
HETATM   38  C   UNL     1     -11.377  14.287  64.468  1.00  0.00    -0.334 C  
HETATM   39  C   UNL     1     -12.194  13.501  63.461  1.00  0.00    -0.410 C  
HETATM   40  C   UNL     1     -12.384  12.151  64.132  1.00  0.00    -0.508 C  
HETATM   41  C   UNL     1     -12.099  12.389  65.613  1.00  0.00    -0.329 C  
ENDBRANCH  36  37
ENDBRANCH  35  36
ENDBRANCH  19  32
BRANCH  24  42
HETATM   42  N   UNL     1      -8.596   9.392  65.374  1.00  0.00    -0.146 NA 
HETATM   43  C   UNL     1      -9.298   9.845  64.166  1.00  0.00    -0.237 C  
HETATM   44  C   UNL     1      -8.743   7.962  65.530  1.00  0.00    -0.081 C  
ENDBRANCH  24  42
TORSDOF 4
ENDMDL
MODEL       29
REMARK 921   NORMALIZED FREE ENERGY PREDICTED BY IDOCK:   -6.48 KCAL/MOL
REMARK 922        TOTAL FREE ENERGY PREDICTED BY IDOCK:   -8.58 KCAL/MOL
REMARK 923 INTER-LIGAND FREE ENERGY PREDICTED BY IDOCK:   -8.15 KCAL/MOL
REMARK 924 INTRA-LIGAND FREE ENERGY PREDICTED BY IDOCK:   -0.43 KCAL/MOL
REMARK 927      BINDING AFFINITY PREDICTED BY RF-SCORE:    0.00 PKD
ROOT
HETATM    1  C   UNL     1      -9.942   9.420  68.660  1.00  0.00    -0.187 C  
HETATM    2  C   UNL     1     -10.882  10.542  68.267  1.00  0.00    -0.293 C  
HETATM    3  C   UNL     1     -10.191  11.665  67.439  1.00  0.00    -0.226 C  
HETATM    4  C   UNL     1      -8.929  12.142  68.116  1.00  0.00    -0.195 C  
HETATM    5  C   UNL     1      -8.595  13.609  68.058  1.00  0.00    -0.175 C  
HETATM    6  C   UNL     1      -8.147  11.291  68.814  1.00  0.00    -0.130 C  
HETATM    7  C   UNL     1      -9.385  14.507  67.171  1.00  0.00    -0.225 A  
HETATM    8  O   UNL     1      -7.675  14.084  68.729  1.00  0.00    -0.135 OA 
HETATM    9  O   UNL     1      -7.049  11.734  69.556  1.00  0.00    -0.311 OA 
HETATM   10  C   UNL     1      -8.540   9.839  69.154  1.00  0.00    -0.153 C  
HETATM   11  C   UNL     1      -7.667   8.591  68.584  1.00  0.00    -0.103 C  
HETATM   12  H   UNL     1      -6.499  11.135  70.047  1.00  0.00     0.000 HD 
HETATM   13  O   UNL     1      -8.534   9.893  70.587  1.00  0.00    -0.372 OA 
HETATM   14  C   UNL     1      -8.950  15.822  66.912  1.00  0.00    -0.240 A  
HETATM   15  O   UNL     1      -6.491   8.660  68.236  1.00  0.00    -0.057 OA 
HETATM   16  H   UNL     1      -7.672  10.151  70.891  1.00  0.00     0.000 HD 
HETATM   17  C   UNL     1      -9.644  16.645  66.022  1.00  0.00    -0.298 A  
HETATM   18  O   UNL     1      -7.857  16.390  67.506  1.00  0.00    -0.137 OA 
HETATM   19  C   UNL     1      -8.371   7.216  68.603  1.00  0.00    -0.125 C  
HETATM   20  C   UNL     1     -12.144  13.125  68.287  1.00  0.00    -0.217 C  
HETATM   21  C   UNL     1      -9.207   7.238  69.667  1.00  0.00    -0.143 C  
HETATM   22  C   UNL     1     -10.782  16.167  65.386  1.00  0.00    -0.374 A  
HETATM   23  H   UNL     1      -7.564  17.277  67.331  1.00  0.00     0.000 HD 
HETATM   24  C   UNL     1     -10.477   8.186  69.516  1.00  0.00    -0.227 C  
HETATM   25  O   UNL     1     -12.043  12.225  66.046  1.00  0.00    -0.623 OA 
HETATM   26  C   UNL     1     -11.230  12.772  67.094  1.00  0.00    -0.292 C  
HETATM   27  O   UNL     1      -8.675   7.186  70.961  1.00  0.00    -0.138 OA 
HETATM   28  C   UNL     1     -11.256  14.890  65.682  1.00  0.00    -0.347 A  
HETATM   29  H   UNL     1     -12.678  12.901  65.836  1.00  0.00     0.000 HD 
HETATM   30  H   UNL     1      -9.262   7.202  71.708  1.00  0.00     0.000 HD 
HETATM   31  C   UNL     1     -10.584  14.052  66.599  1.00  0.00    -0.274 A  
ENDROOT
BRANCH  19  32
HETATM   32  C   UNL     1      -9.147   6.581  67.453  1.00  0.00    -0.112 C  
HETATM   33  H   UNL     1      -9.747   4.843  68.462  1.00  0.00     0.000 HD 
HETATM   34  O   UNL     1      -9.239   7.174  66.375  1.00  0.00    -0.165 OA 
HETATM   35  N   UNL     1      -9.784   5.373  67.592  1.00  0.00    -0.128 N  
BRANCH  35  36
HETATM   36  C   UNL     1     -10.510   4.897  66.438  1.00  0.00    -0.280 C  
BRANCH  36  37
HETATM   37  N   UNL     1     -10.000   3.611  65.992  1.00  0.00    -0.007 NA 
HETATM   38  C   UNL     1      -9.130   3.773  64.809  1.00  0.00    -0.139 C  
HETATM   39  C   UNL     1      -8.430   2.430  64.732  1.00  0.00    -0.091 C  
HETATM   40  C   UNL     1      -8.196   2.067  66.188  1.00  0.00    -0.089 C  
HETATM   41  C   UNL     1      -9.159   2.943  66.986  1.00  0.00    -0.164 C  
ENDBRANCH  36  37
ENDBRANCH  35  36
ENDBRANCH  19  32
BRANCH  24  42
HETATM   42  N   UNL     1     -11.126   8.333  70.837  1.00  0.00    -0.256 NA 
HETATM   43  C   UNL     1     -12.042   7.211  71.084  1.00  0.00    -0.358 C  
HETATM   44  C   UNL     1     -11.781   9.587  71.136  1.00  0.00    -0.363 C  
ENDBRANCH  24  42
TORSDOF 4
ENDMDL
MODEL       30
REMARK 921   NORMALIZED FREE ENERGY PREDICTED BY IDOCK:   -6.37 KCAL/MOL
REMARK 922        TOTAL FREE ENERGY PREDICTED BY IDOCK:   -8.44 KCAL/MOL
REMARK 923 INTER-LIGAND FREE ENERGY PREDICTED BY IDOCK:   -7.59 KCAL/MOL
REMARK 924 INTRA-LIGAND FREE ENERGY PREDICTED BY IDOCK:   -0.85 KCAL/MOL
REMARK 927      BINDING AFFINITY PREDICTED BY RF-SCORE:    0.00 PKD
ROOT
HETATM    1  C   UNL     1      -8.752  11.200  67.947  1.00  0.00    -0.136 C  
HETATM    2  C   UNL     1      -9.793  12.293  67.805  1.00  0.00    -0.201 C  
HETATM    3  C   UNL     1      -9.196  13.662  67.366  1.00  0.00    -0.222 C  
HETATM    4  C   UNL     1      -8.027  14.050  68.239  1.00  0.00    -0.146 C  
HETATM    5  C   UNL     1      -7.857  15.501  68.605  1.00  0.00    -0.143 C  
HETATM    6  C   UNL     1      -7.187  13.117  68.735  1.00  0.00    -0.085 C  
HETATM    7  C   UNL     1      -8.702  16.529  67.939  1.00  0.00    -0.188 A  
HETATM    8  O   UNL     1      -7.027  15.856  69.446  1.00  0.00    -0.191 OA 
HETATM    9  O   UNL     1      -6.180  13.439  69.649  1.00  0.00    -0.116 OA 
HETATM   10  C   UNL     1      -7.430  11.598  68.639  1.00  0.00    -0.117 C  
HETATM   11  C   UNL     1      -6.397  10.646  67.819  1.00  0.00    -0.059 C  
HETATM   12  H   UNL     1      -5.589  12.783  69.998  1.00  0.00     0.000 HD 
HETATM   13  O   UNL     1      -7.494  11.252  70.030  1.00  0.00    -0.355 OA 
HETATM   14  C   UNL     1      -8.406  17.900  68.079  1.00  0.00    -0.258 A  
HETATM   15  O   UNL     1      -5.222  10.921  67.590  1.00  0.00    -0.040 OA 
HETATM   16  H   UNL     1      -6.681  11.496  70.455  1.00  0.00     0.000 HD 
HETATM   17  C   UNL     1      -9.147  18.868  67.396  1.00  0.00    -0.303 A  
HETATM   18  O   UNL     1      -7.411  18.383  68.884  1.00  0.00    -0.289 OA 
HETATM   19  C   UNL     1      -6.944   9.259  67.412  1.00  0.00    -0.078 C  
HETATM   20  C   UNL     1     -11.337  14.636  68.431  1.00  0.00    -0.312 C  
HETATM   21  C   UNL     1      -7.823   8.905  68.377  1.00  0.00    -0.104 C  
HETATM   22  C   UNL     1     -10.194  18.479  66.572  1.00  0.00    -0.440 A  
HETATM   23  H   UNL     1      -7.211  19.307  68.979  1.00  0.00     0.000 HD 
HETATM   24  C   UNL     1      -9.183   9.732  68.395  1.00  0.00    -0.130 C  
HETATM   25  O   UNL     1     -11.035  14.407  66.043  1.00  0.00    -0.305 OA 
HETATM   26  C   UNL     1     -10.336  14.717  67.258  1.00  0.00    -0.256 C  
HETATM   27  O   UNL     1      -7.348   8.547  69.644  1.00  0.00    -0.058 OA 
HETATM   28  C   UNL     1     -10.535  17.131  66.475  1.00  0.00    -0.255 A  
HETATM   29  H   UNL     1     -11.731  15.051  65.978  1.00  0.00     0.000 HD 
HETATM   30  H   UNL     1      -7.966   8.299  70.322  1.00  0.00     0.000 HD 
HETATM   31  C   UNL     1      -9.816  16.139  67.177  1.00  0.00    -0.241 A  
ENDROOT
BRANCH  19  32
HETATM   32  C   UNL     1      -7.591   8.897  66.078  1.00  0.00    -0.094 C  
HETATM   33  H   UNL     1      -7.378  10.772  65.161  1.00  0.00     0.000 HD 
HETATM   34  O   UNL     1      -7.999   7.749  65.886  1.00  0.00    -0.096 OA 
HETATM   35  N   UNL     1      -7.703   9.811  65.060  1.00  0.00    -0.120 N  
BRANCH  35  36
HETATM   36  C   UNL     1      -8.307   9.335  63.837  1.00  0.00    -0.179 C  
BRANCH  36  37
HETATM   37  N   UNL     1      -9.516  10.078  63.525  1.00  0.00    -0.262 NA 
HETATM   38  C   UNL     1     -10.267  10.400  64.757  1.00  0.00    -0.249 C  
HETATM   39  C   UNL     1     -11.247  11.452  64.276  1.00  0.00    -0.306 C  
HETATM   40  C   UNL     1     -10.441  12.260  63.275  1.00  0.00    -0.296 C  
HETATM   41  C   UNL     1      -9.256  11.374  62.896  1.00  0.00    -0.281 C  
ENDBRANCH  36  37
ENDBRANCH  35  36
ENDBRANCH  19  32
BRANCH  24  42
HETATM   42  N   UNL     1      -9.904   9.444  69.654  1.00  0.00    -0.182 NA 
HETATM   43  C   UNL     1     -10.546   8.125  69.585  1.00  0.00    -0.223 C  
HETATM   44  C   UNL     1     -10.842  10.432  70.140  1.00  0.00    -0.271 C  
ENDBRANCH  24  42
TORSDOF 4
ENDMDL
MODEL       31
REMARK 921   NORMALIZED FREE ENERGY PREDICTED BY IDOCK:   -6.28 KCAL/MOL
REMARK 922        TOTAL FREE ENERGY PREDICTED BY IDOCK:   -8.33 KCAL/MOL
REMARK 923 INTER-LIGAND FREE ENERGY PREDICTED BY IDOCK:   -7.92 KCAL/MOL
REMARK 924 INTRA-LIGAND FREE ENERGY PREDICTED BY IDOCK:   -0.41 KCAL/MOL
REMARK 927      BINDING AFFINITY PREDICTED BY RF-SCORE:    0.00 PKD
ROOT
HETATM    1  C   UNL     1      -8.851  12.624  67.034  1.00  0.00    -0.212 C  
HETATM    2  C   UNL     1      -7.725  11.876  66.350  1.00  0.00     0.198 C  
HETATM    3  C   UNL     1      -8.216  10.693  65.465  1.00  0.00    -0.141 C  
HETATM    4  C   UNL     1      -9.159   9.797  66.231  1.00  0.00    -0.192 C  
HETATM    5  C   UNL     1      -9.083   8.311  65.998  1.00  0.00    -0.176 C  
HETATM    6  C   UNL     1     -10.009  10.302  67.151  1.00  0.00    -0.197 C  
HETATM    7  C   UNL     1      -8.247   7.785  64.884  1.00  0.00    -0.111 A  
HETATM    8  O   UNL     1      -9.705   7.519  66.711  1.00  0.00    -0.190 OA 
HETATM    9  O   UNL     1     -10.795   9.479  67.962  1.00  0.00    -0.378 OA 
HETATM   10  C   UNL     1      -9.975  11.761  67.649  1.00  0.00    -0.194 C  
HETATM   11  C   UNL     1     -11.243  12.748  67.401  1.00  0.00    -0.294 C  
HETATM   12  H   UNL     1     -11.392   9.834  68.610  1.00  0.00     0.000 HD 
HETATM   13  O   UNL     1      -9.713  11.557  69.044  1.00  0.00    -0.394 OA 
HETATM   14  C   UNL     1      -8.343   6.435  64.492  1.00  0.00     0.019 A  
HETATM   15  O   UNL     1     -12.397  12.373  67.213  1.00  0.00    -0.366 OA 
HETATM   16  H   UNL     1     -10.404  11.026  69.422  1.00  0.00     0.000 HD 
HETATM   17  C   UNL     1      -7.619   5.951  63.400  1.00  0.00    -0.081 A  
HETATM   18  O   UNL     1      -9.117   5.510  65.139  1.00  0.00    -0.321 OA 
HETATM   19  C   UNL     1     -10.950  14.260  67.530  1.00  0.00    -0.297 C  
HETATM   20  C   UNL     1      -5.820   9.793  65.803  1.00  0.00    -0.061 C  
HETATM   21  C   UNL     1      -9.966  14.373  68.452  1.00  0.00    -0.241 C  
HETATM   22  C   UNL     1      -6.787   6.808  62.692  1.00  0.00    -0.047 A  
HETATM   23  H   UNL     1      -9.182   4.600  64.875  1.00  0.00     0.000 HD 
HETATM   24  C   UNL     1      -8.533  13.863  67.985  1.00  0.00    -0.173 C  
HETATM   25  O   UNL     1      -6.557  10.854  63.760  1.00  0.00    -0.334 OA 
HETATM   26  C   UNL     1      -6.991   9.984  64.816  1.00  0.00    -0.137 C  
HETATM   27  O   UNL     1     -10.255  14.130  69.801  1.00  0.00    -0.355 OA 
HETATM   28  C   UNL     1      -6.636   8.129  63.109  1.00  0.00    -0.085 A  
HETATM   29  H   UNL     1      -5.809  10.421  63.364  1.00  0.00     0.000 HD 
HETATM   30  H   UNL     1      -9.564  14.209  70.448  1.00  0.00     0.000 HD 
HETATM   31  C   UNL     1      -7.339   8.631  64.227  1.00  0.00    -0.104 A  
ENDROOT
BRANCH  19  32
HETATM   32  C   UNL     1     -10.593  15.212  66.393  1.00  0.00    -0.305 C  
HETATM   33  H   UNL     1     -10.050  16.855  67.580  1.00  0.00     0.000 HD 
HETATM   34  O   UNL     1     -10.676  14.829  65.224  1.00  0.00    -0.335 OA 
HETATM   35  N   UNL     1     -10.143  16.487  66.633  1.00  0.00    -0.283 N  
BRANCH  35  36
HETATM   36  C   UNL     1      -9.810  17.277  65.471  1.00  0.00     0.254 C  
BRANCH  36  37
HETATM   37  N   UNL     1      -9.443  18.633  65.846  1.00  0.00    -0.439 NA 
HETATM   38  C   UNL     1     -10.570  19.317  66.512  1.00  0.00    -0.446 C  
HETATM   39  C   UNL     1      -9.898  20.525  67.135  1.00  0.00    -0.567 C  
HETATM   40  C   UNL     1      -8.553  19.987  67.593  1.00  0.00    -0.385 C  
HETATM   41  C   UNL     1      -8.346  18.691  66.814  1.00  0.00    -0.281 C  
ENDBRANCH  36  37
ENDBRANCH  35  36
ENDBRANCH  19  32
BRANCH  24  42
HETATM   42  N   UNL     1      -7.646  13.777  69.165  1.00  0.00     0.026 NA 
HETATM   43  C   UNL     1      -7.059  15.090  69.462  1.00  0.00    -0.192 C  
HETATM   44  C   UNL     1      -6.619  12.758  69.169  1.00  0.00    -0.101 C  
ENDBRANCH  24  42
TORSDOF 4
ENDMDL
MODEL       32
REMARK 921   NORMALIZED FREE ENERGY PREDICTED BY IDOCK:   -6.26 KCAL/MOL
REMARK 922        TOTAL FREE ENERGY PREDICTED BY IDOCK:   -8.30 KCAL/MOL
REMARK 923 INTER-LIGAND FREE ENERGY PREDICTED BY IDOCK:   -7.99 KCAL/MOL
REMARK 924 INTRA-LIGAND FREE ENERGY PREDICTED BY IDOCK:   -0.31 KCAL/MOL
REMARK 927      BINDING AFFINITY PREDICTED BY RF-SCORE:    0.00 PKD
ROOT
HETATM    1  C   UNL     1      -9.382   9.302  69.271  1.00  0.00    -0.160 C  
HETATM    2  C   UNL     1      -8.220  10.072  68.675  1.00  0.00    -0.111 C  
HETATM    3  C   UNL     1      -8.434  11.614  68.677  1.00  0.00    -0.094 C  
HETATM    4  C   UNL     1      -9.771  11.977  68.077  1.00  0.00    -0.198 C  
HETATM    5  C   UNL     1      -9.862  13.214  67.224  1.00  0.00    -0.232 C  
HETATM    6  C   UNL     1     -10.850  11.182  68.245  1.00  0.00    -0.212 C  
HETATM    7  C   UNL     1      -8.706  14.151  67.166  1.00  0.00    -0.239 A  
HETATM    8  O   UNL     1     -10.879  13.471  66.574  1.00  0.00    -0.281 OA 
HETATM    9  O   UNL     1     -12.060  11.430  67.592  1.00  0.00    -0.630 OA 
HETATM   10  C   UNL     1     -10.796   9.773  68.869  1.00  0.00    -0.192 C  
HETATM   11  C   UNL     1     -11.593   9.450  70.249  1.00  0.00    -0.138 C  
HETATM   12  H   UNL     1     -12.819  10.871  67.710  1.00  0.00     0.000 HD 
HETATM   13  O   UNL     1     -11.271   8.981  67.772  1.00  0.00    -0.460 OA 
HETATM   14  C   UNL     1      -8.845  15.424  66.577  1.00  0.00    -0.312 A  
HETATM   15  O   UNL     1     -12.565  10.078  70.661  1.00  0.00    -0.283 OA 
HETATM   16  H   UNL     1     -12.141   9.270  67.525  1.00  0.00     0.000 HD 
HETATM   17  C   UNL     1      -7.788  16.338  66.586  1.00  0.00    -0.310 A  
HETATM   18  O   UNL     1      -9.985  15.851  65.952  1.00  0.00    -0.302 OA 
HETATM   19  C   UNL     1     -11.131   8.186  71.010  1.00  0.00    -0.281 C  
HETATM   20  C   UNL     1      -6.693  11.590  66.770  1.00  0.00    -0.121 C  
HETATM   21  C   UNL     1     -10.702   7.317  70.065  1.00  0.00    -0.245 C  
HETATM   22  C   UNL     1      -6.582  15.989  67.176  1.00  0.00    -0.177 A  
HETATM   23  H   UNL     1     -10.079  16.709  65.555  1.00  0.00     0.000 HD 
HETATM   24  C   UNL     1      -9.337   7.710  69.347  1.00  0.00    -0.152 C  
HETATM   25  O   UNL     1      -6.166  12.256  69.033  1.00  0.00    -0.069 OA 
HETATM   26  C   UNL     1      -7.198  12.312  68.038  1.00  0.00    -0.102 C  
HETATM   27  O   UNL     1     -11.636   6.693  69.229  1.00  0.00    -0.618 OA 
HETATM   28  C   UNL     1      -6.413  14.711  67.706  1.00  0.00    -0.182 A  
HETATM   29  H   UNL     1      -5.411  12.682  68.643  1.00  0.00     0.000 HD 
HETATM   30  H   UNL     1     -11.335   6.083  68.566  1.00  0.00     0.000 HD 
HETATM   31  C   UNL     1      -7.460  13.763  67.683  1.00  0.00    -0.187 A  
ENDROOT
BRANCH  19  32
HETATM   32  C   UNL     1     -10.112   8.135  72.144  1.00  0.00    -0.253 C  
HETATM   33  H   UNL     1     -10.594   6.219  72.851  1.00  0.00     0.000 HD 
HETATM   34  O   UNL     1      -9.348   9.086  72.324  1.00  0.00    -0.333 OA 
HETATM   35  N   UNL     1      -9.993   7.036  72.958  1.00  0.00    -0.181 N  
BRANCH  35  36
HETATM   36  C   UNL     1      -8.968   7.101  73.974  1.00  0.00    -0.209 C  
BRANCH  36  37
HETATM   37  N   UNL     1      -7.902   6.151  73.706  1.00  0.00    -0.098 NA 
HETATM   38  C   UNL     1      -8.374   5.071  72.814  1.00  0.00    -0.112 C  
HETATM   39  C   UNL     1      -7.076   4.423  72.371  1.00  0.00    -0.062 C  
HETATM   40  C   UNL     1      -6.126   5.598  72.216  1.00  0.00    -0.039 C  
HETATM   41  C   UNL     1      -6.759   6.741  73.007  1.00  0.00    -0.067 C  
ENDBRANCH  36  37
ENDBRANCH  35  36
ENDBRANCH  19  32
BRANCH  24  42
HETATM   42  N   UNL     1      -9.150   6.844  68.163  1.00  0.00    -0.126 NA 
HETATM   43  C   UNL     1      -8.724   5.500  68.575  1.00  0.00    -0.105 C  
HETATM   44  C   UNL     1      -8.307   7.330  67.093  1.00  0.00    -0.118 C  
ENDBRANCH  24  42
TORSDOF 4
ENDMDL
MODEL       33
REMARK 921   NORMALIZED FREE ENERGY PREDICTED BY IDOCK:   -6.21 KCAL/MOL
REMARK 922        TOTAL FREE ENERGY PREDICTED BY IDOCK:   -8.24 KCAL/MOL
REMARK 923 INTER-LIGAND FREE ENERGY PREDICTED BY IDOCK:   -7.93 KCAL/MOL
REMARK 924 INTRA-LIGAND FREE ENERGY PREDICTED BY IDOCK:   -0.31 KCAL/MOL
REMARK 927      BINDING AFFINITY PREDICTED BY RF-SCORE:    0.00 PKD
ROOT
HETATM    1  C   UNL     1      -9.808  11.593  68.466  1.00  0.00    -0.196 C  
HETATM    2  C   UNL     1      -9.181  10.879  69.646  1.00  0.00     0.372 C  
HETATM    3  C   UNL     1      -8.159   9.780  69.232  1.00  0.00    -0.115 C  
HETATM    4  C   UNL     1      -8.752   8.846  68.205  1.00  0.00    -0.134 C  
HETATM    5  C   UNL     1      -8.409   7.382  68.285  1.00  0.00    -0.125 C  
HETATM    6  C   UNL     1      -9.621   9.294  67.273  1.00  0.00    -0.155 C  
HETATM    7  C   UNL     1      -7.345   6.928  69.223  1.00  0.00    -0.092 A  
HETATM    8  O   UNL     1      -8.990   6.549  67.584  1.00  0.00    -0.116 OA 
HETATM    9  O   UNL     1     -10.281   8.426  66.399  1.00  0.00    -0.406 OA 
HETATM   10  C   UNL     1     -10.236  10.708  67.275  1.00  0.00    -0.208 C  
HETATM   11  C   UNL     1      -9.943  11.738  66.052  1.00  0.00    -0.229 C  
HETATM   12  H   UNL     1     -10.892   8.742  65.744  1.00  0.00     0.000 HD 
HETATM   13  O   UNL     1     -11.629  10.389  67.392  1.00  0.00    -0.482 OA 
HETATM   14  C   UNL     1      -6.838   5.615  69.149  1.00  0.00    -0.062 A  
HETATM   15  O   UNL     1      -9.611  11.403  64.917  1.00  0.00    -0.233 OA 
HETATM   16  H   UNL     1     -11.892   9.845  66.660  1.00  0.00     0.000 HD 
HETATM   17  C   UNL     1      -5.788   5.204  69.975  1.00  0.00    -0.017 A  
HETATM   18  O   UNL     1      -7.328   4.659  68.303  1.00  0.00    -0.064 OA 
HETATM   19  C   UNL     1     -10.222  13.229  66.349  1.00  0.00    -0.292 C  
HETATM   20  C   UNL     1      -8.661   8.806  71.570  1.00  0.00    -0.253 C  
HETATM   21  C   UNL     1     -11.244  13.248  67.236  1.00  0.00    -0.292 C  
HETATM   22  C   UNL     1      -5.238   6.096  70.885  1.00  0.00    -0.014 A  
HETATM   23  H   UNL     1      -6.986   3.774  68.253  1.00  0.00     0.000 HD 
HETATM   24  C   UNL     1     -10.882  12.747  68.703  1.00  0.00    -0.253 C  
HETATM   25  O   UNL     1      -6.646  10.040  71.057  1.00  0.00    -0.309 OA 
HETATM   26  C   UNL     1      -7.580   9.099  70.507  1.00  0.00    -0.125 C  
HETATM   27  O   UNL     1     -12.533  12.906  66.810  1.00  0.00    -0.336 OA 
HETATM   28  C   UNL     1      -5.774   7.377  71.010  1.00  0.00    -0.035 A  
HETATM   29  H   UNL     1      -6.293   9.624  71.835  1.00  0.00     0.000 HD 
HETATM   30  H   UNL     1     -13.250  12.919  67.432  1.00  0.00     0.000 HD 
HETATM   31  C   UNL     1      -6.852   7.804  70.204  1.00  0.00    -0.049 A  
ENDROOT
BRANCH  19  32
HETATM   32  C   UNL     1      -9.207  14.260  66.831  1.00  0.00    -0.254 C  
HETATM   33  H   UNL     1     -10.491  15.919  66.835  1.00  0.00     0.000 HD 
HETATM   34  O   UNL     1      -8.052  13.910  67.087  1.00  0.00    -0.162 OA 
HETATM   35  N   UNL     1      -9.550  15.575  67.025  1.00  0.00    -0.220 N  
BRANCH  35  36
HETATM   36  C   UNL     1      -8.505  16.444  67.513  1.00  0.00    -0.169 C  
BRANCH  36  37
HETATM   37  N   UNL     1      -8.835  17.841  67.286  1.00  0.00    -0.235 NA 
HETATM   38  C   UNL     1      -9.874  17.972  66.243  1.00  0.00    -0.307 C  
HETATM   39  C   UNL     1     -10.329  19.408  66.414  1.00  0.00    -0.575 C  
HETATM   40  C   UNL     1     -10.293  19.617  67.918  1.00  0.00    -0.583 C  
HETATM   41  C   UNL     1      -9.400  18.504  68.462  1.00  0.00    -0.338 C  
ENDBRANCH  36  37
ENDBRANCH  35  36
ENDBRANCH  19  32
BRANCH  24  42
HETATM   42  N   UNL     1     -12.134  12.549  69.465  1.00  0.00    -0.235 NA 
HETATM   43  C   UNL     1     -12.488  13.774  70.194  1.00  0.00    -0.267 C  
HETATM   44  C   UNL     1     -12.220  11.403  70.343  1.00  0.00    -0.362 C  
ENDBRANCH  24  42
TORSDOF 4
ENDMDL
MODEL       34
REMARK 921   NORMALIZED FREE ENERGY PREDICTED BY IDOCK:   -6.20 KCAL/MOL
REMARK 922        TOTAL FREE ENERGY PREDICTED BY IDOCK:   -8.22 KCAL/MOL
REMARK 923 INTER-LIGAND FREE ENERGY PREDICTED BY IDOCK:   -7.31 KCAL/MOL
REMARK 924 INTRA-LIGAND FREE ENERGY PREDICTED BY IDOCK:   -0.92 KCAL/MOL
REMARK 927      BINDING AFFINITY PREDICTED BY RF-SCORE:    0.00 PKD
ROOT
HETATM    1  C   UNL     1      -9.805  10.628  68.899  1.00  0.00    -0.210 C  
HETATM    2  C   UNL     1      -9.489  10.012  70.247  1.00  0.00    -0.041 C  
HETATM    3  C   UNL     1      -8.877   8.584  70.146  1.00  0.00    -0.138 C  
HETATM    4  C   UNL     1      -9.713   7.696  69.256  1.00  0.00    -0.164 C  
HETATM    5  C   UNL     1      -9.878   6.249  69.639  1.00  0.00    -0.163 C  
HETATM    6  C   UNL     1     -10.353   8.195  68.177  1.00  0.00    -0.201 C  
HETATM    7  C   UNL     1      -9.056   5.685  70.744  1.00  0.00    -0.164 A  
HETATM    8  O   UNL     1     -10.679   5.519  69.050  1.00  0.00    -0.237 OA 
HETATM    9  O   UNL     1     -11.235   7.421  67.418  1.00  0.00    -0.548 OA 
HETATM   10  C   UNL     1     -10.464   9.699  67.857  1.00  0.00    -0.246 C  
HETATM   11  C   UNL     1      -9.808  10.306  66.499  1.00  0.00    -0.212 C  
HETATM   12  H   UNL     1     -11.686   7.772  66.658  1.00  0.00     0.000 HD 
HETATM   13  O   UNL     1     -11.888   9.872  67.893  1.00  0.00    -0.261 OA 
HETATM   14  C   UNL     1      -9.011   4.294  70.965  1.00  0.00    -0.116 A  
HETATM   15  O   UNL     1      -9.569   9.655  65.484  1.00  0.00    -0.249 OA 
HETATM   16  H   UNL     1     -12.293   9.301  67.252  1.00  0.00     0.000 HD 
HETATM   17  C   UNL     1      -8.183   3.750  71.951  1.00  0.00    -0.075 A  
HETATM   18  O   UNL     1      -9.762   3.390  70.266  1.00  0.00    -0.176 OA 
HETATM   19  C   UNL     1      -9.585  11.835  66.486  1.00  0.00    -0.225 C  
HETATM   20  C   UNL     1      -9.748   8.327  72.563  1.00  0.00    -0.368 C  
HETATM   21  C   UNL     1     -10.571  12.362  67.249  1.00  0.00    -0.223 C  
HETATM   22  C   UNL     1      -7.398   4.589  72.730  1.00  0.00    -0.083 A  
HETATM   23  H   UNL     1      -9.732   2.452  70.415  1.00  0.00     0.000 HD 
HETATM   24  C   UNL     1     -10.443  12.086  68.812  1.00  0.00    -0.183 C  
HETATM   25  O   UNL     1      -7.423   8.721  72.031  1.00  0.00    -0.271 OA 
HETATM   26  C   UNL     1      -8.598   8.034  71.576  1.00  0.00    -0.128 C  
HETATM   27  O   UNL     1     -11.886  12.367  66.769  1.00  0.00    -0.493 OA 
HETATM   28  C   UNL     1      -7.482   5.970  72.563  1.00  0.00    -0.098 A  
HETATM   29  H   UNL     1      -7.253   8.385  72.904  1.00  0.00     0.000 HD 
HETATM   30  H   UNL     1     -12.578  12.736  67.305  1.00  0.00     0.000 HD 
HETATM   31  C   UNL     1      -8.332   6.541  71.590  1.00  0.00    -0.120 A  
ENDROOT
BRANCH  19  32
HETATM   32  C   UNL     1      -8.302  12.565  66.866  1.00  0.00    -0.096 C  
HETATM   33  H   UNL     1      -7.031  10.896  66.856  1.00  0.00     0.000 HD 
HETATM   34  O   UNL     1      -8.318  13.787  67.037  1.00  0.00    -0.176 OA 
HETATM   35  N   UNL     1      -7.105  11.904  66.992  1.00  0.00    -0.138 N  
BRANCH  35  36
HETATM   36  C   UNL     1      -5.957  12.715  67.326  1.00  0.00    -0.072 C  
BRANCH  36  37
HETATM   37  N   UNL     1      -5.335  12.261  68.558  1.00  0.00    -0.053 NA 
HETATM   38  C   UNL     1      -5.742  13.112  69.696  1.00  0.00    -0.105 C  
HETATM   39  C   UNL     1      -5.310  12.286  70.892  1.00  0.00    -0.157 C  
HETATM   40  C   UNL     1      -5.607  10.859  70.466  1.00  0.00    -0.116 C  
HETATM   41  C   UNL     1      -5.731  10.906  68.944  1.00  0.00    -0.040 C  
ENDBRANCH  36  37
ENDBRANCH  35  36
ENDBRANCH  19  32
BRANCH  24  42
HETATM   42  N   UNL     1     -11.714  12.460  69.471  1.00  0.00    -0.315 NA 
HETATM   43  C   UNL     1     -11.739  13.901  69.753  1.00  0.00    -0.309 C  
HETATM   44  C   UNL     1     -12.115  11.714  70.643  1.00  0.00    -0.335 C  
ENDBRANCH  24  42
TORSDOF 4
ENDMDL
MODEL       35
REMARK 921   NORMALIZED FREE ENERGY PREDICTED BY IDOCK:   -6.13 KCAL/MOL
REMARK 922        TOTAL FREE ENERGY PREDICTED BY IDOCK:   -8.14 KCAL/MOL
REMARK 923 INTER-LIGAND FREE ENERGY PREDICTED BY IDOCK:   -7.78 KCAL/MOL
REMARK 924 INTRA-LIGAND FREE ENERGY PREDICTED BY IDOCK:   -0.36 KCAL/MOL
REMARK 927      BINDING AFFINITY PREDICTED BY RF-SCORE:    0.00 PKD
ROOT
HETATM    1  C   UNL     1      -9.129   9.795  68.032  1.00  0.00    -0.127 C  
HETATM    2  C   UNL     1     -10.021   8.628  68.402  1.00  0.00    -0.204 C  
HETATM    3  C   UNL     1      -9.928   8.231  69.905  1.00  0.00    -0.190 C  
HETATM    4  C   UNL     1      -8.491   8.052  70.331  1.00  0.00    -0.130 C  
HETATM    5  C   UNL     1      -8.163   6.948  71.300  1.00  0.00    -0.114 C  
HETATM    6  C   UNL     1      -7.508   8.819  69.810  1.00  0.00    -0.056 C  
HETATM    7  C   UNL     1      -9.267   6.208  71.970  1.00  0.00    -0.148 A  
HETATM    8  O   UNL     1      -6.994   6.646  71.555  1.00  0.00    -0.068 OA 
HETATM    9  O   UNL     1      -6.160   8.584  70.091  1.00  0.00    -0.033 OA 
HETATM   10  C   UNL     1      -7.703   9.785  68.625  1.00  0.00    -0.080 C  
HETATM   11  C   UNL     1      -7.477  11.384  68.817  1.00  0.00    -0.124 C  
HETATM   12  H   UNL     1      -5.468   9.123  69.725  1.00  0.00     0.000 HD 
HETATM   13  O   UNL     1      -6.792   9.221  67.672  1.00  0.00    -0.074 OA 
HETATM   14  C   UNL     1      -8.999   5.344  73.051  1.00  0.00    -0.119 A  
HETATM   15  O   UNL     1      -6.782  11.894  69.692  1.00  0.00    -0.098 OA 
HETATM   16  H   UNL     1      -5.915   9.214  68.037  1.00  0.00     0.000 HD 
HETATM   17  C   UNL     1     -10.036   4.704  73.734  1.00  0.00    -0.211 A  
HETATM   18  O   UNL     1      -7.738   5.054  73.495  1.00  0.00    -0.094 OA 
HETATM   19  C   UNL     1      -8.110  12.285  67.732  1.00  0.00    -0.155 C  
HETATM   20  C   UNL     1     -10.798   5.944  69.080  1.00  0.00    -0.406 C  
HETATM   21  C   UNL     1      -8.084  11.566  66.587  1.00  0.00    -0.139 C  
HETATM   22  C   UNL     1     -11.351   4.916  73.342  1.00  0.00    -0.379 A  
HETATM   23  H   UNL     1      -7.557   4.472  74.224  1.00  0.00     0.000 HD 
HETATM   24  C   UNL     1      -9.092  10.335  66.532  1.00  0.00    -0.148 C  
HETATM   25  O   UNL     1     -12.197   7.563  70.205  1.00  0.00    -0.495 OA 
HETATM   26  C   UNL     1     -10.868   7.022  70.183  1.00  0.00    -0.256 C  
HETATM   27  O   UNL     1      -6.862  11.340  65.942  1.00  0.00    -0.366 OA 
HETATM   28  C   UNL     1     -11.624   5.719  72.236  1.00  0.00    -0.300 A  
HETATM   29  H   UNL     1     -12.771   6.825  70.375  1.00  0.00     0.000 HD 
HETATM   30  H   UNL     1      -6.844  10.835  65.138  1.00  0.00     0.000 HD 
HETATM   31  C   UNL     1     -10.588   6.353  71.516  1.00  0.00    -0.273 A  
ENDROOT
BRANCH  19  32
HETATM   32  C   UNL     1      -9.480  12.953  67.798  1.00  0.00    -0.202 C  
HETATM   33  H   UNL     1      -9.427  13.858  65.906  1.00  0.00     0.000 HD 
HETATM   34  O   UNL     1     -10.191  12.797  68.793  1.00  0.00    -0.187 OA 
HETATM   35  N   UNL     1      -9.969  13.701  66.756  1.00  0.00    -0.263 N  
BRANCH  35  36
HETATM   36  C   UNL     1     -11.292  14.253  66.930  1.00  0.00    -0.343 C  
BRANCH  36  37
HETATM   37  N   UNL     1     -11.263  15.706  66.895  1.00  0.00    -0.183 NA 
HETATM   38  C   UNL     1     -10.800  16.253  68.187  1.00  0.00    -0.342 C  
HETATM   39  C   UNL     1     -10.492  17.697  67.838  1.00  0.00    -0.392 C  
HETATM   40  C   UNL     1      -9.901  17.608  66.442  1.00  0.00    -0.315 C  
HETATM   41  C   UNL     1     -10.330  16.245  65.904  1.00  0.00    -0.365 C  
ENDBRANCH  36  37
ENDBRANCH  35  36
ENDBRANCH  19  32
BRANCH  24  42
HETATM   42  N   UNL     1      -8.753   9.487  65.369  1.00  0.00    -0.153 NA 
HETATM   43  C   UNL     1      -9.497   9.924  64.182  1.00  0.00    -0.189 C  
HETATM   44  C   UNL     1      -8.855   8.052  65.523  1.00  0.00    -0.061 C  
ENDBRANCH  24  42
TORSDOF 4
ENDMDL
MODEL       36
REMARK 921   NORMALIZED FREE ENERGY PREDICTED BY IDOCK:   -6.07 KCAL/MOL
REMARK 922        TOTAL FREE ENERGY PREDICTED BY IDOCK:   -8.07 KCAL/MOL
REMARK 923 INTER-LIGAND FREE ENERGY PREDICTED BY IDOCK:   -7.76 KCAL/MOL
REMARK 924 INTRA-LIGAND FREE ENERGY PREDICTED BY IDOCK:   -0.31 KCAL/MOL
REMARK 927      BINDING AFFINITY PREDICTED BY RF-SCORE:    0.00 PKD
ROOT
HETATM    1  C   UNL     1     -10.001  13.180  68.030  1.00  0.00    -0.233 C  
HETATM    2  C   UNL     1      -9.389  11.814  68.267  1.00  0.00    -0.193 C  
HETATM    3  C   UNL     1      -8.597  11.271  67.042  1.00  0.00    -0.148 C  
HETATM    4  C   UNL     1      -9.424  11.352  65.781  1.00  0.00    -0.256 C  
HETATM    5  C   UNL     1      -9.311  10.236  64.777  1.00  0.00    -0.260 C  
HETATM    6  C   UNL     1     -10.293  12.367  65.581  1.00  0.00    -0.258 C  
HETATM    7  C   UNL     1      -8.251   9.205  64.942  1.00  0.00    -0.154 A  
HETATM    8  O   UNL     1     -10.079  10.162  63.814  1.00  0.00    -0.078 OA 
HETATM    9  O   UNL     1     -11.160  12.392  64.486  1.00  0.00    -0.290 OA 
HETATM   10  C   UNL     1     -10.672  13.403  66.658  1.00  0.00    -0.282 C  
HETATM   11  C   UNL     1     -10.335  14.979  66.443  1.00  0.00    -0.287 C  
HETATM   12  H   UNL     1     -11.771  13.105  64.346  1.00  0.00     0.000 HD 
HETATM   13  O   UNL     1     -12.082  13.162  66.770  1.00  0.00    -0.382 OA 
HETATM   14  C   UNL     1      -7.967   8.296  63.903  1.00  0.00    -0.146 A  
HETATM   15  O   UNL     1     -10.167  15.517  65.352  1.00  0.00    -0.356 OA 
HETATM   16  H   UNL     1     -12.495  13.299  65.926  1.00  0.00     0.000 HD 
HETATM   17  C   UNL     1      -6.924   7.374  64.021  1.00  0.00    -0.058 A  
HETATM   18  O   UNL     1      -8.679   8.230  62.737  1.00  0.00    -0.423 OA 
HETATM   19  C   UNL     1     -10.345  15.847  67.722  1.00  0.00    -0.278 C  
HETATM   20  C   UNL     1      -9.028   8.965  68.121  1.00  0.00    -0.137 C  
HETATM   21  C   UNL     1     -11.264  15.290  68.544  1.00  0.00    -0.303 C  
HETATM   22  C   UNL     1      -6.157   7.346  65.178  1.00  0.00    -0.038 A  
HETATM   23  H   UNL     1      -8.488   7.618  62.036  1.00  0.00     0.000 HD 
HETATM   24  C   UNL     1     -10.852  13.889  69.177  1.00  0.00    -0.189 C  
HETATM   25  O   UNL     1      -6.899  10.105  68.244  1.00  0.00    -0.061 OA 
HETATM   26  C   UNL     1      -8.018   9.865  67.377  1.00  0.00    -0.106 C  
HETATM   27  O   UNL     1     -12.625  15.408  68.236  1.00  0.00    -0.140 OA 
HETATM   28  C   UNL     1      -6.468   8.198  66.236  1.00  0.00    -0.047 A  
HETATM   29  H   UNL     1      -6.546   9.247  68.449  1.00  0.00     0.000 HD 
HETATM   30  H   UNL     1     -13.270  15.016  68.814  1.00  0.00     0.000 HD 
HETATM   31  C   UNL     1      -7.536   9.118  66.148  1.00  0.00    -0.095 A  
ENDROOT
BRANCH  19  32
HETATM   32  C   UNL     1      -9.139  16.195  68.588  1.00  0.00    -0.218 C  
HETATM   33  H   UNL     1      -7.665  15.911  67.121  1.00  0.00     0.000 HD 
HETATM   34  O   UNL     1      -9.304  16.534  69.762  1.00  0.00     0.121 OA 
HETATM   35  N   UNL     1      -7.861  16.178  68.086  1.00  0.00    -0.143 N  
BRANCH  35  36
HETATM   36  C   UNL     1      -6.809  16.557  69.000  1.00  0.00    -0.203 C  
BRANCH  36  37
HETATM   37  N   UNL     1      -6.250  17.851  68.647  1.00  0.00    -0.195 NA 
HETATM   38  C   UNL     1      -6.725  18.283  67.317  1.00  0.00    -0.195 C  
HETATM   39  C   UNL     1      -6.350  19.753  67.297  1.00  0.00    -0.209 C  
HETATM   40  C   UNL     1      -6.610  20.206  68.723  1.00  0.00    -0.339 C  
HETATM   41  C   UNL     1      -6.652  18.926  69.556  1.00  0.00    -0.226 C  
ENDBRANCH  36  37
ENDBRANCH  35  36
ENDBRANCH  19  32
BRANCH  24  42
HETATM   42  N   UNL     1     -12.043  13.276  69.803  1.00  0.00    -0.312 NA 
HETATM   43  C   UNL     1     -12.330  13.917  71.093  1.00  0.00    -0.359 C  
HETATM   44  C   UNL     1     -12.071  11.837  69.944  1.00  0.00    -0.287 C  
ENDBRANCH  24  42
TORSDOF 4
ENDMDL
MODEL       37
REMARK 921   NORMALIZED FREE ENERGY PREDICTED BY IDOCK:   -5.97 KCAL/MOL
REMARK 922        TOTAL FREE ENERGY PREDICTED BY IDOCK:   -7.94 KCAL/MOL
REMARK 923 INTER-LIGAND FREE ENERGY PREDICTED BY IDOCK:   -7.63 KCAL/MOL
REMARK 924 INTRA-LIGAND FREE ENERGY PREDICTED BY IDOCK:   -0.31 KCAL/MOL
REMARK 927      BINDING AFFINITY PREDICTED BY RF-SCORE:    0.00 PKD
ROOT
HETATM    1  C   UNL     1      -9.053   8.133  68.794  1.00  0.00    -0.144 C  
HETATM    2  C   UNL     1      -8.343   7.741  67.514  1.00  0.00    -0.120 C  
HETATM    3  C   UNL     1      -9.077   6.624  66.717  1.00  0.00    -0.154 C  
HETATM    4  C   UNL     1      -9.410   5.451  67.606  1.00  0.00    -0.122 C  
HETATM    5  C   UNL     1      -9.299   4.063  67.033  1.00  0.00    -0.183 C  
HETATM    6  C   UNL     1      -9.738   5.630  68.904  1.00  0.00    -0.138 C  
HETATM    7  C   UNL     1      -9.077   3.888  65.572  1.00  0.00    -0.143 A  
HETATM    8  O   UNL     1      -9.394   3.064  67.752  1.00  0.00    -0.193 OA 
HETATM    9  O   UNL     1      -9.921   4.554  69.776  1.00  0.00    -0.223 OA 
HETATM   10  C   UNL     1      -9.620   6.976  69.646  1.00  0.00    -0.150 C  
HETATM   11  C   UNL     1     -10.941   7.706  70.250  1.00  0.00    -0.252 C  
HETATM   12  H   UNL     1     -10.152   4.680  70.689  1.00  0.00     0.000 HD 
HETATM   13  O   UNL     1      -8.677   6.630  70.671  1.00  0.00    -0.141 OA 
HETATM   14  C   UNL     1      -9.208   2.618  64.974  1.00  0.00    -0.137 A  
HETATM   15  O   UNL     1     -11.988   7.132  70.541  1.00  0.00    -0.290 OA 
HETATM   16  H   UNL     1      -9.026   5.919  71.195  1.00  0.00     0.000 HD 
HETATM   17  C   UNL     1      -9.076   2.459  63.592  1.00  0.00    -0.095 A  
HETATM   18  O   UNL     1      -9.451   1.471  65.677  1.00  0.00    -0.321 OA 
HETATM   19  C   UNL     1     -10.790   9.211  70.569  1.00  0.00    -0.306 C  
HETATM   20  C   UNL     1      -6.749   6.198  65.684  1.00  0.00    -0.048 C  
HETATM   21  C   UNL     1      -9.496   9.389  70.924  1.00  0.00    -0.209 C  
HETATM   22  C   UNL     1      -8.805   3.562  62.795  1.00  0.00    -0.093 A  
HETATM   23  H   UNL     1      -9.540   0.615  65.274  1.00  0.00     0.000 HD 
HETATM   24  C   UNL     1      -8.440   9.259  69.741  1.00  0.00    -0.149 C  
HETATM   25  O   UNL     1      -8.516   7.369  64.522  1.00  0.00    -0.360 OA 
HETATM   26  C   UNL     1      -8.269   6.285  65.430  1.00  0.00    -0.142 C  
HETATM   27  O   UNL     1      -9.047   8.899  72.157  1.00  0.00    -0.375 OA 
HETATM   28  C   UNL     1      -8.611   4.811  63.382  1.00  0.00    -0.131 A  
HETATM   29  H   UNL     1      -8.022   7.162  63.737  1.00  0.00     0.000 HD 
HETATM   30  H   UNL     1      -8.139   9.023  72.406  1.00  0.00     0.000 HD 
HETATM   31  C   UNL     1      -8.714   4.989  64.779  1.00  0.00    -0.149 A  
ENDROOT
BRANCH  19  32
HETATM   32  C   UNL     1     -11.152  10.371  69.647  1.00  0.00    -0.276 C  
HETATM   33  H   UNL     1     -10.931   9.348  67.829  1.00  0.00     0.000 HD 
HETATM   34  O   UNL     1     -11.466  11.462  70.129  1.00  0.00    -0.288 OA 
HETATM   35  N   UNL     1     -11.175  10.228  68.282  1.00  0.00    -0.264 N  
BRANCH  35  36
HETATM   36  C   UNL     1     -11.565  11.394  67.523  1.00  0.00    -0.219 C  
BRANCH  36  37
HETATM   37  N   UNL     1     -10.720  11.565  66.353  1.00  0.00    -0.264 NA 
HETATM   38  C   UNL     1     -10.213  10.261  65.877  1.00  0.00    -0.223 C  
HETATM   39  C   UNL     1      -9.689  10.599  64.495  1.00  0.00    -0.367 C  
HETATM   40  C   UNL     1     -10.693  11.611  63.970  1.00  0.00    -0.442 C  
HETATM   41  C   UNL     1     -11.426  12.134  65.204  1.00  0.00    -0.323 C  
ENDBRANCH  36  37
ENDBRANCH  35  36
ENDBRANCH  19  32
BRANCH  24  42
HETATM   42  N   UNL     1      -7.080   9.187  70.317  1.00  0.00    -0.053 NA 
HETATM   43  C   UNL     1      -6.508  10.534  70.450  1.00  0.00    -0.117 C  
HETATM   44  C   UNL     1      -6.124   8.299  69.693  1.00  0.00    -0.029 C  
ENDBRANCH  24  42
TORSDOF 4
ENDMDL
MODEL       38
REMARK 921   NORMALIZED FREE ENERGY PREDICTED BY IDOCK:   -5.96 KCAL/MOL
REMARK 922        TOTAL FREE ENERGY PREDICTED BY IDOCK:   -7.93 KCAL/MOL
REMARK 923 INTER-LIGAND FREE ENERGY PREDICTED BY IDOCK:   -7.53 KCAL/MOL
REMARK 924 INTRA-LIGAND FREE ENERGY PREDICTED BY IDOCK:   -0.40 KCAL/MOL
REMARK 927      BINDING AFFINITY PREDICTED BY RF-SCORE:    0.00 PKD
ROOT
HETATM    1  C   UNL     1      -8.288   8.028  65.685  1.00  0.00    -0.146 C  
HETATM    2  C   UNL     1      -9.183   7.071  66.446  1.00  0.00    -0.186 C  
HETATM    3  C   UNL     1      -9.525   7.556  67.885  1.00  0.00    -0.153 C  
HETATM    4  C   UNL     1      -8.276   7.945  68.639  1.00  0.00    -0.127 C  
HETATM    5  C   UNL     1      -8.194   7.620  70.107  1.00  0.00    -0.124 C  
HETATM    6  C   UNL     1      -7.227   8.514  68.005  1.00  0.00    -0.087 C  
HETATM    7  C   UNL     1      -9.405   7.126  70.817  1.00  0.00    -0.160 A  
HETATM    8  O   UNL     1      -7.141   7.759  70.735  1.00  0.00    -0.052 OA 
HETATM    9  O   UNL     1      -6.016   8.761  68.656  1.00  0.00    -0.044 OA 
HETATM   10  C   UNL     1      -7.110   8.642  66.473  1.00  0.00    -0.080 C  
HETATM   11  C   UNL     1      -7.044  10.105  65.768  1.00  0.00    -0.127 C  
HETATM   12  H   UNL     1      -5.278   9.161  68.210  1.00  0.00     0.000 HD 
HETATM   13  O   UNL     1      -5.923   7.873  66.235  1.00  0.00    -0.039 OA 
HETATM   14  C   UNL     1      -9.427   7.043  72.224  1.00  0.00    -0.139 A  
HETATM   15  O   UNL     1      -6.676  11.136  66.327  1.00  0.00    -0.127 OA 
HETATM   16  H   UNL     1      -5.199   8.250  66.720  1.00  0.00     0.000 HD 
HETATM   17  C   UNL     1     -10.584   6.653  72.902  1.00  0.00    -0.272 A  
HETATM   18  O   UNL     1      -8.345   7.313  73.016  1.00  0.00    -0.106 OA 
HETATM   19  C   UNL     1      -7.370  10.138  64.258  1.00  0.00    -0.110 C  
HETATM   20  C   UNL     1      -9.974   5.054  68.337  1.00  0.00    -0.202 C  
HETATM   21  C   UNL     1      -6.959   8.948  63.761  1.00  0.00    -0.088 C  
HETATM   22  C   UNL     1     -11.729   6.336  72.184  1.00  0.00    -0.368 A  
HETATM   23  H   UNL     1      -8.359   7.257  73.965  1.00  0.00     0.000 HD 
HETATM   24  C   UNL     1      -7.831   7.689  64.196  1.00  0.00    -0.133 C  
HETATM   25  O   UNL     1     -11.737   6.674  68.007  1.00  0.00    -0.473 OA 
HETATM   26  C   UNL     1     -10.435   6.506  68.587  1.00  0.00    -0.218 C  
HETATM   27  O   UNL     1      -5.588   8.688  63.644  1.00  0.00    -0.065 OA 
HETATM   28  C   UNL     1     -11.700   6.353  70.791  1.00  0.00    -0.378 A  
HETATM   29  H   UNL     1     -12.292   6.033  68.435  1.00  0.00     0.000 HD 
HETATM   30  H   UNL     1      -5.299   7.852  63.296  1.00  0.00     0.000 HD 
HETATM   31  C   UNL     1     -10.533   6.719  70.085  1.00  0.00    -0.240 A  
ENDROOT
BRANCH  19  32
HETATM   32  C   UNL     1      -8.731  10.423  63.633  1.00  0.00    -0.198 C  
HETATM   33  H   UNL     1      -9.553  11.479  65.250  1.00  0.00     0.000 HD 
HETATM   34  O   UNL     1      -8.972  10.041  62.485  1.00  0.00    -0.221 OA 
HETATM   35  N   UNL     1      -9.698  11.133  64.301  1.00  0.00    -0.254 N  
BRANCH  35  36
HETATM   36  C   UNL     1     -10.933  11.363  63.587  1.00  0.00    -0.363 C  
BRANCH  36  37
HETATM   37  N   UNL     1     -11.498  12.659  63.921  1.00  0.00    -0.406 NA 
HETATM   38  C   UNL     1     -12.522  12.528  64.978  1.00  0.00    -0.420 C  
HETATM   39  C   UNL     1     -12.710  13.963  65.430  1.00  0.00    -0.525 C  
HETATM   40  C   UNL     1     -11.308  14.543  65.367  1.00  0.00    -0.341 C  
HETATM   41  C   UNL     1     -10.517  13.599  64.465  1.00  0.00    -0.390 C  
ENDBRANCH  36  37
ENDBRANCH  35  36
ENDBRANCH  19  32
BRANCH  24  42
HETATM   42  N   UNL     1      -7.108   6.453  63.827  1.00  0.00    -0.047 NA 
HETATM   43  C   UNL     1      -7.344   6.124  62.416  1.00  0.00    -0.054 C  
HETATM   44  C   UNL     1      -7.302   5.282  64.653  1.00  0.00    -0.067 C  
ENDBRANCH  24  42
TORSDOF 4
ENDMDL
MODEL       39
REMARK 921   NORMALIZED FREE ENERGY PREDICTED BY IDOCK:   -5.94 KCAL/MOL
REMARK 922        TOTAL FREE ENERGY PREDICTED BY IDOCK:   -7.91 KCAL/MOL
REMARK 923 INTER-LIGAND FREE ENERGY PREDICTED BY IDOCK:   -7.34 KCAL/MOL
REMARK 924 INTRA-LIGAND FREE ENERGY PREDICTED BY IDOCK:   -0.57 KCAL/MOL
REMARK 927      BINDING AFFINITY PREDICTED BY RF-SCORE:    0.00 PKD
ROOT
HETATM    1  C   UNL     1      -8.413   9.969  67.847  1.00  0.00    -0.118 C  
HETATM    2  C   UNL     1      -7.965  11.389  68.132  1.00  0.00    -0.133 C  
HETATM    3  C   UNL     1      -9.060  12.454  67.832  1.00  0.00    -0.191 C  
HETATM    4  C   UNL     1      -9.636  12.268  66.449  1.00  0.00    -0.242 C  
HETATM    5  C   UNL     1      -9.983  13.494  65.647  1.00  0.00    -0.236 C  
HETATM    6  C   UNL     1      -9.780  11.037  65.914  1.00  0.00    -0.224 C  
HETATM    7  C   UNL     1      -9.954  14.831  66.300  1.00  0.00    -0.308 A  
HETATM    8  O   UNL     1     -10.297  13.411  64.456  1.00  0.00    -0.413 OA 
HETATM    9  O   UNL     1     -10.187  10.849  64.590  1.00  0.00    -0.302 OA 
HETATM   10  C   UNL     1      -9.211   9.749  66.543  1.00  0.00    -0.156 C  
HETATM   11  C   UNL     1     -10.205   8.558  67.030  1.00  0.00    -0.301 C  
HETATM   12  H   UNL     1     -10.288   9.983  64.213  1.00  0.00     0.000 HD 
HETATM   13  O   UNL     1      -8.321   9.319  65.504  1.00  0.00    -0.122 OA 
HETATM   14  C   UNL     1     -10.500  15.957  65.651  1.00  0.00    -0.392 A  
HETATM   15  O   UNL     1     -11.342   8.376  66.602  1.00  0.00     0.974 OA 
HETATM   16  H   UNL     1      -8.811   9.184  64.702  1.00  0.00     0.000 HD 
HETATM   17  C   UNL     1     -10.544  17.200  66.288  1.00  0.00    -0.185 A  
HETATM   18  O   UNL     1     -11.000  15.931  64.379  1.00  0.00    -0.849 OA 
HETATM   19  C   UNL     1      -9.597   7.541  68.023  1.00  0.00    -0.156 C  
HETATM   20  C   UNL     1      -7.057  14.073  67.643  1.00  0.00    -0.193 C  
HETATM   21  C   UNL     1      -8.281   7.464  67.719  1.00  0.00    -0.119 C  
HETATM   22  C   UNL     1     -10.040  17.333  67.574  1.00  0.00    -0.315 A  
HETATM   23  H   UNL     1     -11.368  16.690  63.941  1.00  0.00     0.000 HD 
HETATM   24  C   UNL     1      -7.418   8.748  68.091  1.00  0.00    -0.092 C  
HETATM   25  O   UNL     1      -8.508  13.985  69.575  1.00  0.00    -0.162 OA 
HETATM   26  C   UNL     1      -8.504  13.875  68.144  1.00  0.00    -0.171 C  
HETATM   27  O   UNL     1      -7.884   6.823  66.538  1.00  0.00    -0.100 OA 
HETATM   28  C   UNL     1      -9.441  16.242  68.200  1.00  0.00    -0.215 A  
HETATM   29  H   UNL     1      -8.168  14.852  69.765  1.00  0.00     0.000 HD 
HETATM   30  H   UNL     1      -6.960   6.769  66.324  1.00  0.00     0.000 HD 
HETATM   31  C   UNL     1      -9.362  14.983  67.564  1.00  0.00    -0.195 A  
ENDROOT
BRANCH  19  32
HETATM   32  C   UNL     1      -9.691   7.596  69.544  1.00  0.00    -0.168 C  
HETATM   33  H   UNL     1     -11.146   9.102  69.669  1.00  0.00     0.000 HD 
HETATM   34  O   UNL     1      -9.005   6.832  70.228  1.00  0.00    -0.151 OA 
HETATM   35  N   UNL     1     -10.551   8.453  70.184  1.00  0.00    -0.229 N  
BRANCH  35  36
HETATM   36  C   UNL     1     -10.566   8.385  71.627  1.00  0.00    -0.258 C  
BRANCH  36  37
HETATM   37  N   UNL     1     -11.683   9.136  72.175  1.00  0.00    -0.307 NA 
HETATM   38  C   UNL     1     -11.807  10.451  71.514  1.00  0.00    -0.120 C  
HETATM   39  C   UNL     1     -13.191  10.902  71.940  1.00  0.00    -0.508 C  
HETATM   40  C   UNL     1     -14.003   9.619  71.927  1.00  0.00    -0.191 C  
HETATM   41  C   UNL     1     -12.979   8.488  71.965  1.00  0.00    -0.371 C  
ENDBRANCH  36  37
ENDBRANCH  35  36
ENDBRANCH  19  32
BRANCH  24  42
HETATM   42  N   UNL     1      -6.091   8.638  67.449  1.00  0.00    -0.051 NA 
HETATM   43  C   UNL     1      -5.243   7.691  68.184  1.00  0.00    -0.026 C  
HETATM   44  C   UNL     1      -5.362   9.860  67.185  1.00  0.00    -0.042 C  
ENDBRANCH  24  42
TORSDOF 4
ENDMDL
MODEL       40
REMARK 921   NORMALIZED FREE ENERGY PREDICTED BY IDOCK:   -5.92 KCAL/MOL
REMARK 922        TOTAL FREE ENERGY PREDICTED BY IDOCK:   -7.89 KCAL/MOL
REMARK 923 INTER-LIGAND FREE ENERGY PREDICTED BY IDOCK:   -7.01 KCAL/MOL
REMARK 924 INTRA-LIGAND FREE ENERGY PREDICTED BY IDOCK:   -0.88 KCAL/MOL
REMARK 927      BINDING AFFINITY PREDICTED BY RF-SCORE:    0.00 PKD
ROOT
HETATM    1  C   UNL     1     -10.012  12.910  67.976  1.00  0.00    -0.236 C  
HETATM    2  C   UNL     1      -9.293  11.988  68.941  1.00  0.00     0.159 C  
HETATM    3  C   UNL     1      -8.284  11.030  68.243  1.00  0.00    -0.130 C  
HETATM    4  C   UNL     1      -8.932  10.308  67.086  1.00  0.00    -0.145 C  
HETATM    5  C   UNL     1      -8.559   8.870  66.840  1.00  0.00    -0.115 C  
HETATM    6  C   UNL     1      -9.871  10.910  66.325  1.00  0.00    -0.216 C  
HETATM    7  C   UNL     1      -7.425   8.266  67.593  1.00  0.00    -0.094 A  
HETATM    8  O   UNL     1      -9.174   8.180  66.021  1.00  0.00    -0.189 OA 
HETATM    9  O   UNL     1     -10.575  10.220  65.335  1.00  0.00    -0.152 OA 
HETATM   10  C   UNL     1     -10.507  12.274  66.659  1.00  0.00    -0.222 C  
HETATM   11  C   UNL     1     -10.318  13.542  65.658  1.00  0.00    -0.297 C  
HETATM   12  H   UNL     1     -11.236  10.644  64.800  1.00  0.00     0.000 HD 
HETATM   13  O   UNL     1     -11.884  11.895  66.797  1.00  0.00    -0.598 OA 
HETATM   14  C   UNL     1      -6.903   7.013  67.217  1.00  0.00    -0.069 A  
HETATM   15  O   UNL     1     -10.060  13.456  64.459  1.00  0.00    -0.341 OA 
HETATM   16  H   UNL     1     -12.188  11.505  65.987  1.00  0.00     0.000 HD 
HETATM   17  C   UNL     1      -5.791   6.474  67.870  1.00  0.00    -0.019 A  
HETATM   18  O   UNL     1      -7.434   6.235  66.225  1.00  0.00    -0.082 OA 
HETATM   19  C   UNL     1     -10.601  14.931  66.274  1.00  0.00    -0.309 C  
HETATM   20  C   UNL     1      -8.605   9.582  70.357  1.00  0.00    -0.246 C  
HETATM   21  C   UNL     1     -11.558  14.737  67.210  1.00  0.00    -0.369 C  
HETATM   22  C   UNL     1      -5.194   7.177  68.907  1.00  0.00    -0.014 A  
HETATM   23  H   UNL     1      -7.082   5.390  65.971  1.00  0.00     0.000 HD 
HETATM   24  C   UNL     1     -11.087  13.957  68.515  1.00  0.00    -0.265 C  
HETATM   25  O   UNL     1      -6.652  10.957  69.980  1.00  0.00    -0.144 OA 
HETATM   26  C   UNL     1      -7.607  10.120  69.310  1.00  0.00    -0.117 C  
HETATM   27  O   UNL     1     -12.868  14.449  66.806  1.00  0.00    -0.367 OA 
HETATM   28  C   UNL     1      -5.741   8.388  69.328  1.00  0.00    -0.031 A  
HETATM   29  H   UNL     1      -6.239  10.401  70.631  1.00  0.00     0.000 HD 
HETATM   30  H   UNL     1     -13.540  14.312  67.463  1.00  0.00     0.000 HD 
HETATM   31  C   UNL     1      -6.880   8.937  68.699  1.00  0.00    -0.063 A  
ENDROOT
BRANCH  19  32
HETATM   32  C   UNL     1      -9.572  15.872  66.891  1.00  0.00    -0.229 C  
HETATM   33  H   UNL     1      -7.874  15.057  65.966  1.00  0.00     0.000 HD 
HETATM   34  O   UNL     1      -9.940  16.769  67.654  1.00  0.00    -0.250 OA 
HETATM   35  N   UNL     1      -8.235  15.775  66.594  1.00  0.00    -0.270 N  
BRANCH  35  36
HETATM   36  C   UNL     1      -7.368  16.746  67.221  1.00  0.00    -0.175 C  
BRANCH  36  37
HETATM   37  N   UNL     1      -6.426  16.103  68.122  1.00  0.00    -0.119 NA 
HETATM   38  C   UNL     1      -6.774  16.381  69.531  1.00  0.00    -0.202 C  
HETATM   39  C   UNL     1      -5.938  15.362  70.280  1.00  0.00    -0.120 C  
HETATM   40  C   UNL     1      -5.990  14.133  69.389  1.00  0.00    -0.095 C  
HETATM   41  C   UNL     1      -6.424  14.643  68.017  1.00  0.00    -0.152 C  
ENDBRANCH  36  37
ENDBRANCH  35  36
ENDBRANCH  19  32
BRANCH  24  42
HETATM   42  N   UNL     1     -12.279  13.569  69.300  1.00  0.00    -0.272 NA 
HETATM   43  C   UNL     1     -12.755  14.703  70.102  1.00  0.00    -0.220 C  
HETATM   44  C   UNL     1     -12.196  12.378  70.117  1.00  0.00    -0.229 C  
ENDBRANCH  24  42
TORSDOF 4
ENDMDL
MODEL       41
REMARK 921   NORMALIZED FREE ENERGY PREDICTED BY IDOCK:   -5.91 KCAL/MOL
REMARK 922        TOTAL FREE ENERGY PREDICTED BY IDOCK:   -7.87 KCAL/MOL
REMARK 923 INTER-LIGAND FREE ENERGY PREDICTED BY IDOCK:   -7.19 KCAL/MOL
REMARK 924 INTRA-LIGAND FREE ENERGY PREDICTED BY IDOCK:   -0.68 KCAL/MOL
REMARK 927      BINDING AFFINITY PREDICTED BY RF-SCORE:    0.00 PKD
ROOT
HETATM    1  C   UNL     1      -9.675   8.492  69.233  1.00  0.00    -0.173 C  
HETATM    2  C   UNL     1      -9.648   9.406  68.025  1.00  0.00    -0.156 C  
HETATM    3  C   UNL     1      -9.640  10.919  68.395  1.00  0.00    -0.177 C  
HETATM    4  C   UNL     1     -10.741  11.244  69.374  1.00  0.00    -0.188 C  
HETATM    5  C   UNL     1     -11.464  12.557  69.230  1.00  0.00    -0.293 C  
HETATM    6  C   UNL     1     -11.118  10.357  70.321  1.00  0.00    -0.307 C  
HETATM    7  C   UNL     1     -10.947  13.578  68.279  1.00  0.00    -0.280 A  
HETATM    8  O   UNL     1     -12.477  12.806  69.889  1.00  0.00    -0.113 OA 
HETATM    9  O   UNL     1     -12.219  10.584  71.151  1.00  0.00    -0.346 OA 
HETATM   10  C   UNL     1     -10.627   8.897  70.380  1.00  0.00    -0.217 C  
HETATM   11  C   UNL     1      -9.763   8.366  71.650  1.00  0.00    -0.219 C  
HETATM   12  H   UNL     1     -12.484   9.960  71.816  1.00  0.00     0.000 HD 
HETATM   13  O   UNL     1     -11.870   8.195  70.240  1.00  0.00    -0.474 OA 
HETATM   14  C   UNL     1     -11.452  14.894  68.295  1.00  0.00    -0.324 A  
HETATM   15  O   UNL     1      -9.780   8.871  72.770  1.00  0.00    -0.097 OA 
HETATM   16  H   UNL     1     -12.455   8.444  70.945  1.00  0.00     0.000 HD 
HETATM   17  C   UNL     1     -10.920  15.878  67.459  1.00  0.00    -0.280 A  
HETATM   18  O   UNL     1     -12.485  15.300  69.095  1.00  0.00    -0.593 OA 
HETATM   19  C   UNL     1      -8.961   7.065  71.420  1.00  0.00    -0.139 C  
HETATM   20  C   UNL     1     -10.583  11.234  66.012  1.00  0.00    -0.314 C  
HETATM   21  C   UNL     1      -9.675   6.339  70.528  1.00  0.00    -0.173 C  
HETATM   22  C   UNL     1      -9.883  15.558  66.593  1.00  0.00    -0.268 A  
HETATM   23  H   UNL     1     -12.826  16.186  69.106  1.00  0.00     0.000 HD 
HETATM   24  C   UNL     1      -9.691   6.909  69.042  1.00  0.00    -0.150 C  
HETATM   25  O   UNL     1      -8.280  11.686  66.592  1.00  0.00    -0.170 OA 
HETATM   26  C   UNL     1      -9.622  11.773  67.093  1.00  0.00    -0.181 C  
HETATM   27  O   UNL     1     -10.875   5.741  70.931  1.00  0.00    -0.268 OA 
HETATM   28  C   UNL     1      -9.418  14.246  66.524  1.00  0.00    -0.306 A  
HETATM   29  H   UNL     1      -8.270  12.207  65.798  1.00  0.00     0.000 HD 
HETATM   30  H   UNL     1     -11.377   5.232  70.306  1.00  0.00     0.000 HD 
HETATM   31  C   UNL     1      -9.960  13.231  67.342  1.00  0.00    -0.233 A  
ENDROOT
BRANCH  19  32
HETATM   32  C   UNL     1      -7.500   6.967  70.991  1.00  0.00    -0.081 C  
HETATM   33  H   UNL     1      -7.501   4.927  70.501  1.00  0.00     0.000 HD 
HETATM   34  O   UNL     1      -6.787   7.973  71.010  1.00  0.00    -0.040 OA 
HETATM   35  N   UNL     1      -6.956   5.788  70.544  1.00  0.00    -0.056 N  
BRANCH  35  36
HETATM   36  C   UNL     1      -5.571   5.836  70.139  1.00  0.00    -0.012 C  
BRANCH  36  37
HETATM   37  N   UNL     1      -5.441   5.691  68.699  1.00  0.00    -0.007 NA 
HETATM   38  C   UNL     1      -6.618   5.002  68.132  1.00  0.00    -0.049 C  
HETATM   39  C   UNL     1      -6.473   5.275  66.647  1.00  0.00    -0.041 C  
HETATM   40  C   UNL     1      -5.940   6.696  66.596  1.00  0.00    -0.025 C  
HETATM   41  C   UNL     1      -5.379   6.971  67.990  1.00  0.00    -0.020 C  
ENDBRANCH  36  37
ENDBRANCH  35  36
ENDBRANCH  19  32
BRANCH  24  42
HETATM   42  N   UNL     1     -10.726   6.193  68.265  1.00  0.00    -0.263 NA 
HETATM   43  C   UNL     1     -10.278   4.830  67.950  1.00  0.00    -0.001 C  
HETATM   44  C   UNL     1     -11.247   6.835  67.078  1.00  0.00    -0.152 C  
ENDBRANCH  24  42
TORSDOF 4
ENDMDL
MODEL       42
REMARK 921   NORMALIZED FREE ENERGY PREDICTED BY IDOCK:   -5.90 KCAL/MOL
REMARK 922        TOTAL FREE ENERGY PREDICTED BY IDOCK:   -7.86 KCAL/MOL
REMARK 923 INTER-LIGAND FREE ENERGY PREDICTED BY IDOCK:   -7.62 KCAL/MOL
REMARK 924 INTRA-LIGAND FREE ENERGY PREDICTED BY IDOCK:   -0.24 KCAL/MOL
REMARK 927      BINDING AFFINITY PREDICTED BY RF-SCORE:    0.00 PKD
ROOT
HETATM    1  C   UNL     1      -9.070  11.271  68.166  1.00  0.00    -0.166 C  
HETATM    2  C   UNL     1      -7.994  12.336  68.243  1.00  0.00    -0.163 C  
HETATM    3  C   UNL     1      -8.551  13.754  68.565  1.00  0.00    -0.122 C  
HETATM    4  C   UNL     1      -9.692  14.112  67.643  1.00  0.00    -0.228 C  
HETATM    5  C   UNL     1      -9.806  15.535  67.164  1.00  0.00    -0.235 C  
HETATM    6  C   UNL     1     -10.556  13.171  67.205  1.00  0.00    -0.257 C  
HETATM    7  C   UNL     1      -8.937  16.584  67.765  1.00  0.00    -0.202 A  
HETATM    8  O   UNL     1     -10.611  15.851  66.283  1.00  0.00    -0.305 OA 
HETATM    9  O   UNL     1     -11.537  13.455  66.251  1.00  0.00    -0.318 OA 
HETATM   10  C   UNL     1     -10.367  11.657  67.422  1.00  0.00    -0.205 C  
HETATM   11  C   UNL     1     -11.444  10.806  68.294  1.00  0.00    -0.280 C  
HETATM   12  H   UNL     1     -12.144  12.794  65.942  1.00  0.00     0.000 HD 
HETATM   13  O   UNL     1     -10.292  11.203  66.063  1.00  0.00    -0.241 OA 
HETATM   14  C   UNL     1      -9.184  17.948  67.514  1.00  0.00    -0.249 A  
HETATM   15  O   UNL     1     -12.612  11.136  68.479  1.00  0.00    -0.224 OA 
HETATM   16  H   UNL     1     -11.090  11.440  65.606  1.00  0.00     0.000 HD 
HETATM   17  C   UNL     1      -8.421  18.941  68.134  1.00  0.00    -0.342 A  
HETATM   18  O   UNL     1     -10.149  18.400  66.657  1.00  0.00    -0.336 OA 
HETATM   19  C   UNL     1     -10.952   9.437  68.816  1.00  0.00    -0.080 C  
HETATM   20  C   UNL     1      -6.362  14.572  67.467  1.00  0.00    -0.033 C  
HETATM   21  C   UNL     1     -10.069   8.982  67.897  1.00  0.00    -0.197 C  
HETATM   22  C   UNL     1      -7.401  18.583  69.005  1.00  0.00    -0.243 A  
HETATM   23  H   UNL     1     -10.316  19.320  66.488  1.00  0.00     0.000 HD 
HETATM   24  C   UNL     1      -8.682   9.759  67.840  1.00  0.00    -0.125 C  
HETATM   25  O   UNL     1      -6.708  14.539  69.859  1.00  0.00    -0.166 OA 
HETATM   26  C   UNL     1      -7.377  14.776  68.612  1.00  0.00    -0.123 C  
HETATM   27  O   UNL     1     -10.537   8.542  66.652  1.00  0.00    -0.255 OA 
HETATM   28  C   UNL     1      -7.108  17.236  69.211  1.00  0.00    -0.155 A  
HETATM   29  H   UNL     1      -5.992  15.162  69.887  1.00  0.00     0.000 HD 
HETATM   30  H   UNL     1      -9.918   8.223  66.007  1.00  0.00     0.000 HD 
HETATM   31  C   UNL     1      -7.850  16.217  68.574  1.00  0.00    -0.172 A  
ENDROOT
BRANCH  19  32
HETATM   32  C   UNL     1     -10.338   9.159  70.185  1.00  0.00    -0.213 C  
HETATM   33  H   UNL     1      -9.406   7.344  69.696  1.00  0.00     0.000 HD 
HETATM   34  O   UNL     1     -10.497   9.966  71.103  1.00  0.00    -0.203 OA 
HETATM   35  N   UNL     1      -9.575   8.042  70.420  1.00  0.00    -0.174 N  
BRANCH  35  36
HETATM   36  C   UNL     1      -9.026   7.911  71.749  1.00  0.00    -0.132 C  
BRANCH  36  37
HETATM   37  N   UNL     1      -9.566   6.744  72.427  1.00  0.00    -0.154 NA 
HETATM   38  C   UNL     1     -11.042   6.794  72.462  1.00  0.00    -0.264 C  
HETATM   39  C   UNL     1     -11.408   5.375  72.854  1.00  0.00    -0.365 C  
HETATM   40  C   UNL     1     -10.384   4.528  72.118  1.00  0.00    -0.233 C  
HETATM   41  C   UNL     1      -9.249   5.483  71.755  1.00  0.00    -0.142 C  
ENDBRANCH  36  37
ENDBRANCH  35  36
ENDBRANCH  19  32
BRANCH  24  42
HETATM   42  N   UNL     1      -7.952   9.351  66.620  1.00  0.00    -0.108 NA 
HETATM   43  C   UNL     1      -7.289   8.057  66.830  1.00  0.00    -0.089 C  
HETATM   44  C   UNL     1      -7.028  10.297  66.034  1.00  0.00    -0.120 C  
ENDBRANCH  24  42
TORSDOF 4
ENDMDL
MODEL       43
REMARK 921   NORMALIZED FREE ENERGY PREDICTED BY IDOCK:   -5.67 KCAL/MOL
REMARK 922        TOTAL FREE ENERGY PREDICTED BY IDOCK:   -7.57 KCAL/MOL
REMARK 923 INTER-LIGAND FREE ENERGY PREDICTED BY IDOCK:   -6.71 KCAL/MOL
REMARK 924 INTRA-LIGAND FREE ENERGY PREDICTED BY IDOCK:   -0.86 KCAL/MOL
REMARK 927      BINDING AFFINITY PREDICTED BY RF-SCORE:    0.00 PKD
ROOT
HETATM    1  C   UNL     1      -8.919  12.182  67.544  1.00  0.00    -0.177 C  
HETATM    2  C   UNL     1      -7.617  11.508  67.928  1.00  0.00    -0.113 C  
HETATM    3  C   UNL     1      -7.807  10.067  68.486  1.00  0.00    -0.093 C  
HETATM    4  C   UNL     1      -8.846  10.041  69.581  1.00  0.00    -0.217 C  
HETATM    5  C   UNL     1      -8.622   9.132  70.759  1.00  0.00    -0.219 C  
HETATM    6  C   UNL     1      -9.921  10.858  69.542  1.00  0.00     0.025 C  
HETATM    7  C   UNL     1      -7.513   8.139  70.720  1.00  0.00    -0.066 A  
HETATM    8  O   UNL     1      -9.344   9.189  71.758  1.00  0.00    -0.328 OA 
HETATM    9  O   UNL     1     -10.823  10.944  70.605  1.00  0.00    -0.281 OA 
HETATM   10  C   UNL     1     -10.099  12.002  68.524  1.00  0.00    -0.196 C  
HETATM   11  C   UNL     1     -11.332  11.981  67.464  1.00  0.00    -0.319 C  
HETATM   12  H   UNL     1     -11.579  11.518  70.578  1.00  0.00     0.000 HD 
HETATM   13  O   UNL     1     -10.165  13.132  69.406  1.00  0.00    -0.319 OA 
HETATM   14  C   UNL     1      -7.427   7.122  71.692  1.00  0.00    -0.086 A  
HETATM   15  O   UNL     1     -12.382  11.363  67.623  1.00  0.00    -0.226 OA 
HETATM   16  H   UNL     1     -10.890  13.022  70.009  1.00  0.00     0.000 HD 
HETATM   17  C   UNL     1      -6.434   6.142  71.619  1.00  0.00    -0.050 A  
HETATM   18  O   UNL     1      -8.271   7.023  72.763  1.00  0.00    -0.107 OA 
HETATM   19  C   UNL     1     -11.176  12.904  66.235  1.00  0.00    -0.337 C  
HETATM   20  C   UNL     1      -5.507  10.477  69.587  1.00  0.00    -0.038 C  
HETATM   21  C   UNL     1     -10.449  13.965  66.655  1.00  0.00    -0.272 C  
HETATM   22  C   UNL     1      -5.513   6.171  70.580  1.00  0.00    -0.014 A  
HETATM   23  H   UNL     1      -8.214   6.338  73.418  1.00  0.00     0.000 HD 
HETATM   24  C   UNL     1      -8.916  13.664  66.959  1.00  0.00    -0.236 C  
HETATM   25  O   UNL     1      -5.803   9.115  67.612  1.00  0.00    -0.045 OA 
HETATM   26  C   UNL     1      -6.420   9.466  68.859  1.00  0.00    -0.047 C  
HETATM   27  O   UNL     1     -11.034  14.905  67.512  1.00  0.00    -0.285 OA 
HETATM   28  C   UNL     1      -5.551   7.208  69.650  1.00  0.00    -0.023 A  
HETATM   29  H   UNL     1      -4.956   8.748  67.840  1.00  0.00     0.000 HD 
HETATM   30  H   UNL     1     -10.524  15.650  67.807  1.00  0.00     0.000 HD 
HETATM   31  C   UNL     1      -6.530   8.223  69.721  1.00  0.00    -0.036 A  
ENDROOT
BRANCH  19  32
HETATM   32  C   UNL     1     -10.620  12.507  64.871  1.00  0.00    -0.301 C  
HETATM   33  H   UNL     1     -10.425  10.453  65.249  1.00  0.00     0.000 HD 
HETATM   34  O   UNL     1     -10.467  13.365  63.998  1.00  0.00    -0.323 OA 
HETATM   35  N   UNL     1     -10.313  11.204  64.568  1.00  0.00    -0.315 N  
BRANCH  35  36
HETATM   36  C   UNL     1      -9.824  10.956  63.231  1.00  0.00    -0.365 C  
BRANCH  36  37
HETATM   37  N   UNL     1      -8.920   9.818  63.207  1.00  0.00    -0.248 NA 
HETATM   38  C   UNL     1      -7.601  10.207  62.665  1.00  0.00    -0.138 C  
HETATM   39  C   UNL     1      -6.728   9.031  63.057  1.00  0.00    -0.090 C  
HETATM   40  C   UNL     1      -7.246   8.644  64.431  1.00  0.00    -0.097 C  
HETATM   41  C   UNL     1      -8.633   9.275  64.535  1.00  0.00    -0.195 C  
ENDBRANCH  36  37
ENDBRANCH  35  36
ENDBRANCH  19  32
BRANCH  24  42
HETATM   42  N   UNL     1      -8.332  14.820  67.673  1.00  0.00    -0.158 NA 
HETATM   43  C   UNL     1      -7.923  15.859  66.718  1.00  0.00    -0.252 C  
HETATM   44  C   UNL     1      -7.268  14.566  68.619  1.00  0.00    -0.124 C  
ENDBRANCH  24  42
TORSDOF 4
ENDMDL
MODEL       44
REMARK 921   NORMALIZED FREE ENERGY PREDICTED BY IDOCK:   -5.67 KCAL/MOL
REMARK 922        TOTAL FREE ENERGY PREDICTED BY IDOCK:   -7.57 KCAL/MOL
REMARK 923 INTER-LIGAND FREE ENERGY PREDICTED BY IDOCK:   -7.44 KCAL/MOL
REMARK 924 INTRA-LIGAND FREE ENERGY PREDICTED BY IDOCK:   -0.13 KCAL/MOL
REMARK 927      BINDING AFFINITY PREDICTED BY RF-SCORE:    0.00 PKD
ROOT
HETATM    1  C   UNL     1      -9.334   8.912  69.174  1.00  0.00    -0.148 C  
HETATM    2  C   UNL     1      -9.864  10.216  68.611  1.00  0.00    -0.170 C  
HETATM    3  C   UNL     1     -10.339  11.213  69.708  1.00  0.00     0.220 C  
HETATM    4  C   UNL     1     -11.283  10.545  70.679  1.00  0.00    -0.283 C  
HETATM    5  C   UNL     1     -12.448  11.340  71.208  1.00  0.00    -0.336 C  
HETATM    6  C   UNL     1     -11.130   9.247  71.019  1.00  0.00    -0.326 C  
HETATM    7  C   UNL     1     -12.522  12.802  70.937  1.00  0.00    -0.373 A  
HETATM    8  O   UNL     1     -13.342  10.802  71.867  1.00  0.00    -0.427 OA 
HETATM    9  O   UNL     1     -12.065   8.575  71.811  1.00  0.00    -0.294 OA 
HETATM   10  C   UNL     1     -10.139   8.286  70.333  1.00  0.00    -0.190 C  
HETATM   11  C   UNL     1      -8.923   7.612  71.176  1.00  0.00    -0.138 C  
HETATM   12  H   UNL     1     -11.957   7.662  72.050  1.00  0.00     0.000 HD 
HETATM   13  O   UNL     1     -11.045   7.303  69.811  1.00  0.00    -0.337 OA 
HETATM   14  C   UNL     1     -13.459  13.608  71.613  1.00  0.00    -0.322 A  
HETATM   15  O   UNL     1      -8.917   7.456  72.395  1.00  0.00    -0.128 OA 
HETATM   16  H   UNL     1     -11.540   6.918  70.524  1.00  0.00     0.000 HD 
HETATM   17  C   UNL     1     -13.486  14.992  71.421  1.00  0.00    -0.525 A  
HETATM   18  O   UNL     1     -14.403  13.117  72.472  1.00  0.00    -0.613 OA 
HETATM   19  C   UNL     1      -7.760   7.040  70.334  1.00  0.00    -0.096 C  
HETATM   20  C   UNL     1     -11.754  12.225  67.799  1.00  0.00    -0.403 C  
HETATM   21  C   UNL     1      -8.311   6.617  69.173  1.00  0.00    -0.124 C  
HETATM   22  C   UNL     1     -12.581  15.583  70.549  1.00  0.00    -0.462 A  
HETATM   23  H   UNL     1     -15.035  13.661  72.928  1.00  0.00     0.000 HD 
HETATM   24  C   UNL     1      -8.808   7.769  68.194  1.00  0.00    -0.125 C  
HETATM   25  O   UNL     1      -9.709  13.232  68.605  1.00  0.00    -0.362 OA 
HETATM   26  C   UNL     1     -10.874  12.512  69.035  1.00  0.00    -0.137 C  
HETATM   27  O   UNL     1      -9.116   5.471  69.171  1.00  0.00    -0.107 OA 
HETATM   28  C   UNL     1     -11.692  14.788  69.828  1.00  0.00    -0.354 A  
HETATM   29  H   UNL     1     -10.035  14.024  68.194  1.00  0.00     0.000 HD 
HETATM   30  H   UNL     1      -9.503   5.173  68.356  1.00  0.00     0.000 HD 
HETATM   31  C   UNL     1     -11.667  13.385  69.988  1.00  0.00    -0.297 A  
ENDROOT
BRANCH  19  32
HETATM   32  C   UNL     1      -6.469   7.765  69.965  1.00  0.00    -0.034 C  
HETATM   33  H   UNL     1      -7.309   9.661  69.646  1.00  0.00     0.000 HD 
HETATM   34  O   UNL     1      -5.399   7.152  69.969  1.00  0.00    -0.022 OA 
HETATM   35  N   UNL     1      -6.456   9.103  69.659  1.00  0.00    -0.042 N  
BRANCH  35  36
HETATM   36  C   UNL     1      -5.165   9.677  69.357  1.00  0.00    -0.035 C  
BRANCH  36  37
HETATM   37  N   UNL     1      -5.224  10.502  68.161  1.00  0.00    -0.034 NA 
HETATM   38  C   UNL     1      -6.041   9.851  67.115  1.00  0.00    -0.058 C  
HETATM   39  C   UNL     1      -6.282  10.985  66.137  1.00  0.00    -0.104 C  
HETATM   40  C   UNL     1      -6.463  12.197  67.035  1.00  0.00    -0.088 C  
HETATM   41  C   UNL     1      -5.863  11.800  68.382  1.00  0.00    -0.049 C  
ENDBRANCH  36  37
ENDBRANCH  35  36
ENDBRANCH  19  32
BRANCH  24  42
HETATM   42  N   UNL     1      -9.635   7.169  67.126  1.00  0.00    -0.143 NA 
HETATM   43  C   UNL     1      -8.792   6.761  65.994  1.00  0.00    -0.135 C  
HETATM   44  C   UNL     1     -10.779   7.916  66.652  1.00  0.00     0.164 C  
ENDBRANCH  24  42
TORSDOF 4
ENDMDL
MODEL       45
REMARK 921   NORMALIZED FREE ENERGY PREDICTED BY IDOCK:   -5.62 KCAL/MOL
REMARK 922        TOTAL FREE ENERGY PREDICTED BY IDOCK:   -7.51 KCAL/MOL
REMARK 923 INTER-LIGAND FREE ENERGY PREDICTED BY IDOCK:   -6.98 KCAL/MOL
REMARK 924 INTRA-LIGAND FREE ENERGY PREDICTED BY IDOCK:   -0.53 KCAL/MOL
REMARK 927      BINDING AFFINITY PREDICTED BY RF-SCORE:    0.00 PKD
ROOT
HETATM    1  C   UNL     1      -8.547   8.203  67.132  1.00  0.00    -0.124 C  
HETATM    2  C   UNL     1      -9.406   7.135  67.780  1.00  0.00    -0.131 C  
HETATM    3  C   UNL     1      -9.489   7.266  69.329  1.00  0.00    -0.153 C  
HETATM    4  C   UNL     1      -8.113   7.387  69.939  1.00  0.00    -0.126 C  
HETATM    5  C   UNL     1      -7.849   6.703  71.254  1.00  0.00    -0.102 C  
HETATM    6  C   UNL     1      -7.120   8.038  69.296  1.00  0.00    -0.068 C  
HETATM    7  C   UNL     1      -8.984   6.113  72.015  1.00  0.00    -0.139 A  
HETATM    8  O   UNL     1      -6.708   6.624  71.716  1.00  0.00    -0.060 OA 
HETATM    9  O   UNL     1      -5.809   8.050  69.779  1.00  0.00    -0.023 OA 
HETATM   10  C   UNL     1      -7.216   8.537  67.840  1.00  0.00    -0.088 C  
HETATM   11  C   UNL     1      -7.118  10.124  67.501  1.00  0.00    -0.087 C  
HETATM   12  H   UNL     1      -5.111   8.508  69.326  1.00  0.00     0.000 HD 
HETATM   13  O   UNL     1      -6.152   7.788  67.235  1.00  0.00    -0.046 OA 
HETATM   14  C   UNL     1      -8.808   5.685  73.346  1.00  0.00    -0.123 A  
HETATM   15  O   UNL     1      -6.580  10.962  68.220  1.00  0.00    -0.057 OA 
HETATM   16  H   UNL     1      -5.333   7.993  67.670  1.00  0.00     0.000 HD 
HETATM   17  C   UNL     1      -9.886   5.200  74.092  1.00  0.00    -0.190 A  
HETATM   18  O   UNL     1      -7.603   5.690  73.992  1.00  0.00    -0.092 OA 
HETATM   19  C   UNL     1      -7.656  10.548  66.116  1.00  0.00    -0.135 C  
HETATM   20  C   UNL     1     -10.096   4.757  69.241  1.00  0.00    -0.217 C  
HETATM   21  C   UNL     1      -7.433   9.499  65.291  1.00  0.00    -0.107 C  
HETATM   22  C   UNL     1     -11.147   5.134  73.517  1.00  0.00    -0.361 A  
HETATM   23  H   UNL     1      -7.484   5.401  74.889  1.00  0.00     0.000 HD 
HETATM   24  C   UNL     1      -8.345   8.221  65.551  1.00  0.00    -0.155 C  
HETATM   25  O   UNL     1     -11.732   6.501  69.599  1.00  0.00    -0.621 OA 
HETATM   26  C   UNL     1     -10.380   6.124  69.901  1.00  0.00    -0.213 C  
HETATM   27  O   UNL     1      -6.123   9.203  64.892  1.00  0.00    -0.063 OA 
HETATM   28  C   UNL     1     -11.320   5.496  72.182  1.00  0.00    -0.214 A  
HETATM   29  H   UNL     1     -12.275   5.804  69.948  1.00  0.00     0.000 HD 
HETATM   30  H   UNL     1      -5.966   8.466  64.314  1.00  0.00     0.000 HD 
HETATM   31  C   UNL     1     -10.239   5.963  71.402  1.00  0.00    -0.261 A  
ENDROOT
BRANCH  19  32
HETATM   32  C   UNL     1      -9.062  11.054  65.808  1.00  0.00    -0.202 C  
HETATM   33  H   UNL     1      -9.651  11.429  67.786  1.00  0.00     0.000 HD 
HETATM   34  O   UNL     1      -9.443  11.131  64.637  1.00  0.00    -0.220 OA 
HETATM   35  N   UNL     1      -9.915  11.465  66.802  1.00  0.00    -0.205 N  
BRANCH  35  36
HETATM   36  C   UNL     1     -11.207  11.951  66.375  1.00  0.00    -0.331 C  
BRANCH  36  37
HETATM   37  N   UNL     1     -11.953  12.505  67.492  1.00  0.00    -0.472 NA 
HETATM   38  C   UNL     1     -11.504  11.913  68.769  1.00  0.00    -0.290 C  
HETATM   39  C   UNL     1     -12.109  12.852  69.795  1.00  0.00    -0.312 C  
HETATM   40  C   UNL     1     -11.978  14.220  69.147  1.00  0.00    -0.372 C  
HETATM   41  C   UNL     1     -11.762  13.947  67.660  1.00  0.00    -0.368 C  
ENDBRANCH  36  37
ENDBRANCH  35  36
ENDBRANCH  19  32
BRANCH  24  42
HETATM   42  N   UNL     1      -7.800   7.079  64.786  1.00  0.00    -0.122 NA 
HETATM   43  C   UNL     1      -8.097   7.232  63.356  1.00  0.00    -0.003 C  
HETATM   44  C   UNL     1      -8.140   5.744  65.227  1.00  0.00    -0.130 C  
ENDBRANCH  24  42
TORSDOF 4
ENDMDL
MODEL       46
REMARK 921   NORMALIZED FREE ENERGY PREDICTED BY IDOCK:   -5.57 KCAL/MOL
REMARK 922        TOTAL FREE ENERGY PREDICTED BY IDOCK:   -7.45 KCAL/MOL
REMARK 923 INTER-LIGAND FREE ENERGY PREDICTED BY IDOCK:   -6.98 KCAL/MOL
REMARK 924 INTRA-LIGAND FREE ENERGY PREDICTED BY IDOCK:   -0.47 KCAL/MOL
REMARK 927      BINDING AFFINITY PREDICTED BY RF-SCORE:    0.00 PKD
ROOT
HETATM    1  C   UNL     1      -8.616   9.663  67.835  1.00  0.00    -0.122 C  
HETATM    2  C   UNL     1      -9.773  10.437  67.237  1.00  0.00    -0.195 C  
HETATM    3  C   UNL     1      -9.360  11.831  66.679  1.00  0.00    -0.205 C  
HETATM    4  C   UNL     1      -8.573  12.614  67.701  1.00  0.00    -0.180 C  
HETATM    5  C   UNL     1      -8.798  14.100  67.794  1.00  0.00    -0.185 C  
HETATM    6  C   UNL     1      -7.732  11.996  68.558  1.00  0.00    -0.127 C  
HETATM    7  C   UNL     1      -9.615  14.785  66.755  1.00  0.00    -0.267 A  
HETATM    8  O   UNL     1      -8.313  14.765  68.714  1.00  0.00    -0.158 OA 
HETATM    9  O   UNL     1      -7.095  12.682  69.595  1.00  0.00    -0.330 OA 
HETATM   10  C   UNL     1      -7.636  10.465  68.719  1.00  0.00    -0.097 C  
HETATM   11  C   UNL     1      -6.253   9.683  68.372  1.00  0.00    -0.047 C  
HETATM   12  H   UNL     1      -6.504  12.247  70.198  1.00  0.00     0.000 HD 
HETATM   13  O   UNL     1      -8.007  10.322  70.097  1.00  0.00    -0.329 OA 
HETATM   14  C   UNL     1      -9.644  16.192  66.678  1.00  0.00    -0.244 A  
HETATM   15  O   UNL     1      -5.138  10.198  68.371  1.00  0.00    -0.036 OA 
HETATM   16  H   UNL     1      -7.404  10.815  70.641  1.00  0.00     0.000 HD 
HETATM   17  C   UNL     1     -10.347  16.841  65.660  1.00  0.00    -0.284 A  
HETATM   18  O   UNL     1      -9.020  17.013  67.576  1.00  0.00    -0.216 OA 
HETATM   19  C   UNL     1      -6.384   8.161  68.140  1.00  0.00    -0.055 C  
HETATM   20  C   UNL     1     -11.858  12.403  66.998  1.00  0.00    -0.368 C  
HETATM   21  C   UNL     1      -7.406   7.750  68.926  1.00  0.00    -0.086 C  
HETATM   22  C   UNL     1     -11.032  16.093  64.712  1.00  0.00    -0.330 A  
HETATM   23  H   UNL     1      -9.039  17.962  67.525  1.00  0.00     0.000 HD 
HETATM   24  C   UNL     1      -8.855   8.216  68.460  1.00  0.00    -0.134 C  
HETATM   25  O   UNL     1     -10.880  11.907  64.843  1.00  0.00    -0.287 OA 
HETATM   26  C   UNL     1     -10.613  12.551  66.097  1.00  0.00    -0.253 C  
HETATM   27  O   UNL     1      -7.232   7.706  70.315  1.00  0.00    -0.064 OA 
HETATM   28  C   UNL     1     -11.062  14.704  64.815  1.00  0.00    -0.394 A  
HETATM   29  H   UNL     1     -11.644  12.347  64.488  1.00  0.00     0.000 HD 
HETATM   30  H   UNL     1      -7.949   7.418  70.867  1.00  0.00     0.000 HD 
HETATM   31  C   UNL     1     -10.380  14.029  65.852  1.00  0.00    -0.327 A  
ENDROOT
BRANCH  19  32
HETATM   32  C   UNL     1      -6.561   7.463  66.795  1.00  0.00    -0.057 C  
HETATM   33  H   UNL     1      -7.074   5.570  67.542  1.00  0.00     0.000 HD 
HETATM   34  O   UNL     1      -6.406   8.098  65.750  1.00  0.00    -0.047 OA 
HETATM   35  N   UNL     1      -6.926   6.142  66.710  1.00  0.00    -0.069 N  
BRANCH  35  36
HETATM   36  C   UNL     1      -7.091   5.608  65.378  1.00  0.00    -0.066 C  
BRANCH  36  37
HETATM   37  N   UNL     1      -8.497   5.495  65.028  1.00  0.00    -0.149 NA 
HETATM   38  C   UNL     1      -8.750   4.256  64.264  1.00  0.00    -0.136 C  
HETATM   39  C   UNL     1     -10.261   4.141  64.320  1.00  0.00    -0.133 C  
HETATM   40  C   UNL     1     -10.603   4.622  65.719  1.00  0.00    -0.264 C  
HETATM   41  C   UNL     1      -9.380   5.404  66.192  1.00  0.00    -0.157 C  
ENDBRANCH  36  37
ENDBRANCH  35  36
ENDBRANCH  19  32
BRANCH  24  42
HETATM   42  N   UNL     1      -9.819   7.948  69.549  1.00  0.00    -0.174 NA 
HETATM   43  C   UNL     1     -10.347   6.582  69.441  1.00  0.00    -0.205 C  
HETATM   44  C   UNL     1     -10.901   8.888  69.744  1.00  0.00    -0.200 C  
ENDBRANCH  24  42
TORSDOF 4
ENDMDL
MODEL       47
REMARK 921   NORMALIZED FREE ENERGY PREDICTED BY IDOCK:   -5.46 KCAL/MOL
REMARK 922        TOTAL FREE ENERGY PREDICTED BY IDOCK:   -7.32 KCAL/MOL
REMARK 923 INTER-LIGAND FREE ENERGY PREDICTED BY IDOCK:   -6.92 KCAL/MOL
REMARK 924 INTRA-LIGAND FREE ENERGY PREDICTED BY IDOCK:   -0.40 KCAL/MOL
REMARK 927      BINDING AFFINITY PREDICTED BY RF-SCORE:    0.00 PKD
ROOT
HETATM    1  C   UNL     1      -8.636  11.439  67.016  1.00  0.00    -0.157 C  
HETATM    2  C   UNL     1      -9.722  12.379  66.533  1.00  0.00    -0.245 C  
HETATM    3  C   UNL     1      -9.273  13.870  66.487  1.00  0.00    -0.220 C  
HETATM    4  C   UNL     1      -8.649  14.289  67.796  1.00  0.00    -0.177 C  
HETATM    5  C   UNL     1      -8.921  15.679  68.307  1.00  0.00    -0.181 C  
HETATM    6  C   UNL     1      -7.915  13.423  68.529  1.00  0.00    -0.107 C  
HETATM    7  C   UNL     1      -9.608  16.663  67.426  1.00  0.00    -0.242 A  
HETATM    8  O   UNL     1      -8.580  16.022  69.443  1.00  0.00    -0.247 OA 
HETATM    9  O   UNL     1      -7.439  13.749  69.801  1.00  0.00    -0.262 OA 
HETATM   10  C   UNL     1      -7.803  11.916  68.226  1.00  0.00    -0.141 C  
HETATM   11  C   UNL     1      -6.368  11.253  67.846  1.00  0.00    -0.054 C  
HETATM   12  H   UNL     1      -6.923  13.140  70.316  1.00  0.00     0.000 HD 
HETATM   13  O   UNL     1      -8.351  11.364  69.432  1.00  0.00    -0.365 OA 
HETATM   14  C   UNL     1      -9.661  18.026  67.780  1.00  0.00    -0.292 A  
HETATM   15  O   UNL     1      -5.275  11.724  68.152  1.00  0.00    -0.043 OA 
HETATM   16  H   UNL     1      -7.839  11.657  70.176  1.00  0.00     0.000 HD 
HETATM   17  C   UNL     1     -10.238  18.967  66.923  1.00  0.00    -0.459 A  
HETATM   18  O   UNL     1      -9.184  18.523  68.961  1.00  0.00    -0.223 OA 
HETATM   19  C   UNL     1      -6.429   9.877  67.145  1.00  0.00    -0.069 C  
HETATM   20  C   UNL     1     -11.805  14.360  66.626  1.00  0.00    -0.417 C  
HETATM   21  C   UNL     1      -7.536   9.263  67.623  1.00  0.00    -0.088 C  
HETATM   22  C   UNL     1     -10.773  18.558  65.709  1.00  0.00    -0.193 A  
HETATM   23  H   UNL     1      -9.219  19.442  69.199  1.00  0.00     0.000 HD 
HETATM   24  C   UNL     1      -8.921   9.875  67.132  1.00  0.00    -0.138 C  
HETATM   25  O   UNL     1     -10.536  14.530  64.575  1.00  0.00    -0.571 OA 
HETATM   26  C   UNL     1     -10.454  14.754  65.991  1.00  0.00    -0.303 C  
HETATM   27  O   UNL     1      -7.548   8.794  68.943  1.00  0.00    -0.088 OA 
HETATM   28  C   UNL     1     -10.782  17.204  65.378  1.00  0.00    -0.097 A  
HETATM   29  H   UNL     1     -11.257  15.070  64.273  1.00  0.00     0.000 HD 
HETATM   30  H   UNL     1      -8.325   8.363  69.279  1.00  0.00     0.000 HD 
HETATM   31  C   UNL     1     -10.228  16.233  66.241  1.00  0.00    -0.339 A  
ENDROOT
BRANCH  19  32
HETATM   32  C   UNL     1      -6.407   9.626  65.641  1.00  0.00    -0.069 C  
HETATM   33  H   UNL     1      -6.623   7.540  65.713  1.00  0.00     0.000 HD 
HETATM   34  O   UNL     1      -6.308  10.578  64.862  1.00  0.00    -0.111 OA 
HETATM   35  N   UNL     1      -6.532   8.363  65.118  1.00  0.00    -0.055 N  
BRANCH  35  36
HETATM   36  C   UNL     1      -6.527   8.264  63.676  1.00  0.00    -0.072 C  
BRANCH  36  37
HETATM   37  N   UNL     1      -6.937   6.940  63.240  1.00  0.00    -0.054 NA 
HETATM   38  C   UNL     1      -5.862   5.954  63.476  1.00  0.00    -0.021 C  
HETATM   39  C   UNL     1      -6.589   4.633  63.314  1.00  0.00    -0.030 C  
HETATM   40  C   UNL     1      -7.950   4.897  63.933  1.00  0.00    -0.098 C  
HETATM   41  C   UNL     1      -8.091   6.417  63.974  1.00  0.00    -0.043 C  
ENDBRANCH  36  37
ENDBRANCH  35  36
ENDBRANCH  19  32
BRANCH  24  42
HETATM   42  N   UNL     1     -10.015   9.304  67.947  1.00  0.00    -0.178 NA 
HETATM   43  C   UNL     1     -10.423   7.998  67.413  1.00  0.00    -0.287 C  
HETATM   44  C   UNL     1     -11.177  10.128  68.195  1.00  0.00    -0.180 C  
ENDBRANCH  24  42
TORSDOF 4
ENDMDL
MODEL       48
REMARK 921   NORMALIZED FREE ENERGY PREDICTED BY IDOCK:   -5.45 KCAL/MOL
REMARK 922        TOTAL FREE ENERGY PREDICTED BY IDOCK:   -7.30 KCAL/MOL
REMARK 923 INTER-LIGAND FREE ENERGY PREDICTED BY IDOCK:   -6.79 KCAL/MOL
REMARK 924 INTRA-LIGAND FREE ENERGY PREDICTED BY IDOCK:   -0.51 KCAL/MOL
REMARK 927      BINDING AFFINITY PREDICTED BY RF-SCORE:    0.00 PKD
ROOT
HETATM    1  C   UNL     1      -9.795  11.556  68.520  1.00  0.00    -0.198 C  
HETATM    2  C   UNL     1      -9.301  10.749  69.705  1.00  0.00     0.215 C  
HETATM    3  C   UNL     1      -8.402   9.544  69.300  1.00  0.00    -0.129 C  
HETATM    4  C   UNL     1      -9.064   8.707  68.232  1.00  0.00    -0.141 C  
HETATM    5  C   UNL     1      -8.900   7.212  68.290  1.00  0.00    -0.127 C  
HETATM    6  C   UNL     1      -9.838   9.274  67.281  1.00  0.00    -0.182 C  
HETATM    7  C   UNL     1      -7.933   6.616  69.253  1.00  0.00    -0.111 A  
HETATM    8  O   UNL     1      -9.550   6.468  67.550  1.00  0.00    -0.123 OA 
HETATM    9  O   UNL     1     -10.564   8.508  66.365  1.00  0.00    -0.284 OA 
HETATM   10  C   UNL     1     -10.281  10.751  67.295  1.00  0.00    -0.205 C  
HETATM   11  C   UNL     1      -9.823  11.762  66.107  1.00  0.00    -0.229 C  
HETATM   12  H   UNL     1     -11.109   8.906  65.697  1.00  0.00     0.000 HD 
HETATM   13  O   UNL     1     -11.706  10.599  67.357  1.00  0.00    -0.501 OA 
HETATM   14  C   UNL     1      -7.583   5.254  69.166  1.00  0.00    -0.074 A  
HETATM   15  O   UNL     1      -9.492  11.411  64.977  1.00  0.00    -0.226 OA 
HETATM   16  H   UNL     1     -12.004  10.103  66.604  1.00  0.00     0.000 HD 
HETATM   17  C   UNL     1      -6.621   4.705  70.017  1.00  0.00    -0.036 A  
HETATM   18  O   UNL     1      -8.152   4.379  68.281  1.00  0.00    -0.082 OA 
HETATM   19  C   UNL     1      -9.934  13.269  66.429  1.00  0.00    -0.288 C  
HETATM   20  C   UNL     1      -9.102   8.593  71.596  1.00  0.00    -0.318 C  
HETATM   21  C   UNL     1     -10.978  13.394  67.280  1.00  0.00    -0.272 C  
HETATM   22  C   UNL     1      -6.002   5.508  70.966  1.00  0.00    -0.028 A  
HETATM   23  H   UNL     1      -7.916   3.461  68.223  1.00  0.00     0.000 HD 
HETATM   24  C   UNL     1     -10.733  12.825  68.747  1.00  0.00    -0.214 C  
HETATM   25  O   UNL     1      -6.938   9.587  71.181  1.00  0.00    -0.270 OA 
HETATM   26  C   UNL     1      -7.956   8.775  70.578  1.00  0.00    -0.113 C  
HETATM   27  O   UNL     1     -12.282  13.216  66.802  1.00  0.00    -0.354 OA 
HETATM   28  C   UNL     1      -6.386   6.841  71.102  1.00  0.00    -0.041 A  
HETATM   29  H   UNL     1      -6.666   9.118  71.961  1.00  0.00     0.000 HD 
HETATM   30  H   UNL     1     -13.015  13.303  67.400  1.00  0.00     0.000 HD 
HETATM   31  C   UNL     1      -7.376   7.408  70.270  1.00  0.00    -0.078 A  
ENDROOT
BRANCH  19  32
HETATM   32  C   UNL     1      -8.822  14.162  66.969  1.00  0.00    -0.221 C  
HETATM   33  H   UNL     1      -7.406  12.651  67.308  1.00  0.00     0.000 HD 
HETATM   34  O   UNL     1      -8.994  15.382  67.040  1.00  0.00    -0.203 OA 
HETATM   35  N   UNL     1      -7.606  13.650  67.351  1.00  0.00    -0.159 N  
BRANCH  35  36
HETATM   36  C   UNL     1      -6.627  14.606  67.816  1.00  0.00    -0.171 C  
BRANCH  36  37
HETATM   37  N   UNL     1      -6.638  14.704  69.266  1.00  0.00    -0.118 NA 
HETATM   38  C   UNL     1      -6.047  13.496  69.878  1.00  0.00    -0.127 C  
HETATM   39  C   UNL     1      -5.815  13.936  71.311  1.00  0.00    -0.188 C  
HETATM   40  C   UNL     1      -5.382  15.385  71.173  1.00  0.00    -0.056 C  
HETATM   41  C   UNL     1      -5.835  15.815  69.779  1.00  0.00    -0.146 C  
ENDBRANCH  36  37
ENDBRANCH  35  36
ENDBRANCH  19  32
BRANCH  24  42
HETATM   42  N   UNL     1     -12.027  12.764  69.461  1.00  0.00    -0.301 NA 
HETATM   43  C   UNL     1     -12.320  14.053  70.100  1.00  0.00    -0.345 C  
HETATM   44  C   UNL     1     -12.234  11.682  70.399  1.00  0.00    -0.347 C  
ENDBRANCH  24  42
TORSDOF 4
ENDMDL
MODEL       49
REMARK 921   NORMALIZED FREE ENERGY PREDICTED BY IDOCK:   -5.45 KCAL/MOL
REMARK 922        TOTAL FREE ENERGY PREDICTED BY IDOCK:   -7.30 KCAL/MOL
REMARK 923 INTER-LIGAND FREE ENERGY PREDICTED BY IDOCK:   -7.03 KCAL/MOL
REMARK 924 INTRA-LIGAND FREE ENERGY PREDICTED BY IDOCK:   -0.27 KCAL/MOL
REMARK 927      BINDING AFFINITY PREDICTED BY RF-SCORE:    0.00 PKD
ROOT
HETATM    1  C   UNL     1      -9.076   9.781  68.034  1.00  0.00    -0.127 C  
HETATM    2  C   UNL     1     -10.188  10.680  67.531  1.00  0.00    -0.236 C  
HETATM    3  C   UNL     1      -9.670  11.989  66.865  1.00  0.00    -0.213 C  
HETATM    4  C   UNL     1      -8.678  12.696  67.757  1.00  0.00    -0.179 C  
HETATM    5  C   UNL     1      -8.702  14.201  67.803  1.00  0.00    -0.182 C  
HETATM    6  C   UNL     1      -7.829  12.001  68.544  1.00  0.00    -0.129 C  
HETATM    7  C   UNL     1      -9.540  14.951  66.829  1.00  0.00    -0.265 A  
HETATM    8  O   UNL     1      -8.035  14.826  68.632  1.00  0.00    -0.129 OA 
HETATM    9  O   UNL     1      -6.995  12.632  69.471  1.00  0.00    -0.323 OA 
HETATM   10  C   UNL     1      -7.908  10.477  68.766  1.00  0.00    -0.116 C  
HETATM   11  C   UNL     1      -6.685   9.510  68.306  1.00  0.00    -0.058 C  
HETATM   12  H   UNL     1      -6.399  12.144  70.025  1.00  0.00     0.000 HD 
HETATM   13  O   UNL     1      -8.133  10.428  70.182  1.00  0.00    -0.359 OA 
HETATM   14  C   UNL     1      -9.400  16.347  66.690  1.00  0.00    -0.259 A  
HETATM   15  O   UNL     1      -5.521   9.875  68.158  1.00  0.00    -0.039 OA 
HETATM   16  H   UNL     1      -7.415  10.856  70.632  1.00  0.00     0.000 HD 
HETATM   17  C   UNL     1     -10.129  17.048  65.725  1.00  0.00    -0.219 A  
HETATM   18  O   UNL     1      -8.579  17.109  67.474  1.00  0.00    -0.200 OA 
HETATM   19  C   UNL     1      -7.032   8.011  68.162  1.00  0.00    -0.077 C  
HETATM   20  C   UNL     1     -12.023  12.891  67.429  1.00  0.00    -0.360 C  
HETATM   21  C   UNL     1      -8.000   7.763  69.074  1.00  0.00    -0.123 C  
HETATM   22  C   UNL     1     -11.007  16.366  64.895  1.00  0.00    -0.277 A  
HETATM   23  H   UNL     1      -8.484  18.050  67.380  1.00  0.00     0.000 HD 
HETATM   24  C   UNL     1      -9.423   8.399  68.749  1.00  0.00    -0.147 C  
HETATM   25  O   UNL     1     -11.369  12.203  65.206  1.00  0.00    -0.324 OA 
HETATM   26  C   UNL     1     -10.880  12.846  66.392  1.00  0.00    -0.274 C  
HETATM   27  O   UNL     1      -7.674   7.743  70.436  1.00  0.00    -0.085 OA 
HETATM   28  C   UNL     1     -11.200  14.996  65.066  1.00  0.00    -0.413 A  
HETATM   29  H   UNL     1     -12.108  12.726  64.917  1.00  0.00     0.000 HD 
HETATM   30  H   UNL     1      -8.354   7.569  71.077  1.00  0.00     0.000 HD 
HETATM   31  C   UNL     1     -10.494  14.273  66.052  1.00  0.00    -0.306 A  
ENDROOT
BRANCH  19  32
HETATM   32  C   UNL     1      -7.448   7.299  66.880  1.00  0.00    -0.097 C  
HETATM   33  H   UNL     1      -7.942   5.453  67.747  1.00  0.00     0.000 HD 
HETATM   34  O   UNL     1      -7.421   7.904  65.805  1.00  0.00    -0.074 OA 
HETATM   35  N   UNL     1      -7.892   5.999  66.888  1.00  0.00    -0.101 N  
BRANCH  35  36
HETATM   36  C   UNL     1      -8.286   5.450  65.611  1.00  0.00    -0.130 C  
BRANCH  36  37
HETATM   37  N   UNL     1      -8.383   4.001  65.671  1.00  0.00    -0.108 NA 
HETATM   38  C   UNL     1      -9.609   3.528  64.996  1.00  0.00    -0.160 C  
HETATM   39  C   UNL     1      -9.345   2.043  64.843  1.00  0.00    -0.083 C  
HETATM   40  C   UNL     1      -7.860   1.974  64.531  1.00  0.00    -0.069 C  
HETATM   41  C   UNL     1      -7.288   3.317  64.980  1.00  0.00    -0.071 C  
ENDBRANCH  36  37
ENDBRANCH  35  36
ENDBRANCH  19  32
BRANCH  24  42
HETATM   42  N   UNL     1     -10.281   8.295  69.949  1.00  0.00    -0.197 NA 
HETATM   43  C   UNL     1     -10.972   6.999  69.974  1.00  0.00    -0.270 C  
HETATM   44  C   UNL     1     -11.218   9.366  70.207  1.00  0.00    -0.246 C  
ENDBRANCH  24  42
TORSDOF 4
ENDMDL
MODEL       50
REMARK 921   NORMALIZED FREE ENERGY PREDICTED BY IDOCK:   -5.41 KCAL/MOL
REMARK 922        TOTAL FREE ENERGY PREDICTED BY IDOCK:   -7.25 KCAL/MOL
REMARK 923 INTER-LIGAND FREE ENERGY PREDICTED BY IDOCK:   -6.29 KCAL/MOL
REMARK 924 INTRA-LIGAND FREE ENERGY PREDICTED BY IDOCK:   -0.97 KCAL/MOL
REMARK 927      BINDING AFFINITY PREDICTED BY RF-SCORE:    0.00 PKD
ROOT
HETATM    1  C   UNL     1      -8.885   7.766  70.510  1.00  0.00    -0.145 C  
HETATM    2  C   UNL     1      -9.971   8.450  69.703  1.00  0.00    -0.193 C  
HETATM    3  C   UNL     1      -9.417   9.361  68.569  1.00  0.00    -0.150 C  
HETATM    4  C   UNL     1      -8.369  10.310  69.098  1.00  0.00    -0.154 C  
HETATM    5  C   UNL     1      -8.326  11.710  68.546  1.00  0.00    -0.140 C  
HETATM    6  C   UNL     1      -7.527   9.939  70.087  1.00  0.00    -0.170 C  
HETATM    7  C   UNL     1      -9.160  12.058  67.363  1.00  0.00    -0.178 A  
HETATM    8  O   UNL     1      -7.608  12.576  69.053  1.00  0.00    -0.011 OA 
HETATM    9  O   UNL     1      -6.640  10.841  70.680  1.00  0.00    -0.397 OA 
HETATM   10  C   UNL     1      -7.666   8.633  70.894  1.00  0.00    -0.097 C  
HETATM   11  C   UNL     1      -6.500   7.501  70.841  1.00  0.00    -0.039 C  
HETATM   12  H   UNL     1      -6.048  10.580  71.376  1.00  0.00     0.000 HD 
HETATM   13  O   UNL     1      -7.850   9.158  72.216  1.00  0.00    -0.298 OA 
HETATM   14  C   UNL     1      -8.964  13.276  66.681  1.00  0.00    -0.126 A  
HETATM   15  O   UNL     1      -5.326   7.717  70.549  1.00  0.00    -0.023 OA 
HETATM   16  H   UNL     1      -7.101   9.691  72.452  1.00  0.00     0.000 HD 
HETATM   17  C   UNL     1      -9.690  13.577  65.526  1.00  0.00    -0.072 A  
HETATM   18  O   UNL     1      -8.087  14.242  67.092  1.00  0.00    -0.263 OA 
HETATM   19  C   UNL     1      -6.916   6.087  71.306  1.00  0.00    -0.068 C  
HETATM   20  C   UNL     1     -11.710  10.534  68.755  1.00  0.00    -0.190 C  
HETATM   21  C   UNL     1      -7.866   6.269  72.252  1.00  0.00    -0.104 C  
HETATM   22  C   UNL     1     -10.622  12.669  65.043  1.00  0.00    -0.329 A  
HETATM   23  H   UNL     1      -7.954  15.063  66.632  1.00  0.00     0.000 HD 
HETATM   24  C   UNL     1      -9.269   6.798  71.717  1.00  0.00    -0.147 C  
HETATM   25  O   UNL     1     -11.155   8.991  66.979  1.00  0.00    -0.231 OA 
HETATM   26  C   UNL     1     -10.603  10.024  67.808  1.00  0.00    -0.261 C  
HETATM   27  O   UNL     1      -7.501   6.771  73.507  1.00  0.00    -0.083 OA 
HETATM   28  C   UNL     1     -10.869  11.490  65.744  1.00  0.00    -0.319 A  
HETATM   29  H   UNL     1     -11.879   9.396  66.514  1.00  0.00     0.000 HD 
HETATM   30  H   UNL     1      -8.167   6.899  74.171  1.00  0.00     0.000 HD 
HETATM   31  C   UNL     1     -10.165  11.179  66.928  1.00  0.00    -0.260 A  
ENDROOT
BRANCH  19  32
HETATM   32  C   UNL     1      -7.402   4.949  70.414  1.00  0.00    -0.054 C  
HETATM   33  H   UNL     1      -6.802   5.771  68.579  1.00  0.00     0.000 HD 
HETATM   34  O   UNL     1      -7.929   3.955  70.920  1.00  0.00    -0.057 OA 
HETATM   35  N   UNL     1      -7.237   4.978  69.051  1.00  0.00    -0.053 N  
BRANCH  35  36
HETATM   36  C   UNL     1      -7.712   3.825  68.324  1.00  0.00    -0.065 C  
BRANCH  36  37
HETATM   37  N   UNL     1      -8.677   4.207  67.306  1.00  0.00    -0.104 NA 
HETATM   38  C   UNL     1      -9.862   4.843  67.918  1.00  0.00    -0.143 C  
HETATM   39  C   UNL     1     -10.544   5.481  66.724  1.00  0.00    -0.360 C  
HETATM   40  C   UNL     1      -9.387   5.975  65.874  1.00  0.00    -0.047 C  
HETATM   41  C   UNL     1      -8.163   5.203  66.364  1.00  0.00    -0.108 C  
ENDBRANCH  36  37
ENDBRANCH  35  36
ENDBRANCH  19  32
BRANCH  24  42
HETATM   42  N   UNL     1     -10.094   7.220  72.869  1.00  0.00    -0.205 NA 
HETATM   43  C   UNL     1     -10.596   6.048  73.597  1.00  0.00    -0.264 C  
HETATM   44  C   UNL     1     -11.171   8.155  72.625  1.00  0.00    -0.378 C  
ENDBRANCH  24  42
TORSDOF 4
ENDMDL
MODEL       51
REMARK 921   NORMALIZED FREE ENERGY PREDICTED BY IDOCK:   -5.35 KCAL/MOL
REMARK 922        TOTAL FREE ENERGY PREDICTED BY IDOCK:   -7.18 KCAL/MOL
REMARK 923 INTER-LIGAND FREE ENERGY PREDICTED BY IDOCK:   -7.14 KCAL/MOL
REMARK 924 INTRA-LIGAND FREE ENERGY PREDICTED BY IDOCK:   -0.04 KCAL/MOL
REMARK 927      BINDING AFFINITY PREDICTED BY RF-SCORE:    0.00 PKD
ROOT
HETATM    1  C   UNL     1     -10.235  12.821  67.872  1.00  0.00    -0.229 C  
HETATM    2  C   UNL     1     -11.170  11.991  68.728  1.00  0.00    -0.316 C  
HETATM    3  C   UNL     1     -10.431  10.961  69.631  1.00  0.00    -0.133 C  
HETATM    4  C   UNL     1      -9.455  10.135  68.827  1.00  0.00    -0.171 C  
HETATM    5  C   UNL     1      -9.298   8.677  69.169  1.00  0.00    -0.153 C  
HETATM    6  C   UNL     1      -8.782  10.669  67.785  1.00  0.00    -0.129 C  
HETATM    7  C   UNL     1      -9.935   8.140  70.403  1.00  0.00    -0.190 A  
HETATM    8  O   UNL     1      -8.648   7.917  68.446  1.00  0.00    -0.127 OA 
HETATM    9  O   UNL     1      -7.977   9.893  66.949  1.00  0.00    -0.108 OA 
HETATM   10  C   UNL     1      -9.070  12.065  67.196  1.00  0.00    -0.186 C  
HETATM   11  C   UNL     1      -7.934  13.227  67.231  1.00  0.00    -0.125 C  
HETATM   12  H   UNL     1      -7.504  10.268  66.216  1.00  0.00     0.000 HD 
HETATM   13  O   UNL     1      -9.443  11.712  65.856  1.00  0.00    -0.223 OA 
HETATM   14  C   UNL     1      -9.611   6.851  70.873  1.00  0.00    -0.164 A  
HETATM   15  O   UNL     1      -6.726  13.024  67.313  1.00  0.00    -0.148 OA 
HETATM   16  H   UNL     1      -8.727  11.248  65.440  1.00  0.00     0.000 HD 
HETATM   17  C   UNL     1     -10.146   6.369  72.070  1.00  0.00    -0.197 A  
HETATM   18  O   UNL     1      -8.787   5.986  70.208  1.00  0.00    -0.140 OA 
HETATM   19  C   UNL     1      -8.447  14.672  67.032  1.00  0.00    -0.237 C  
HETATM   20  C   UNL     1     -12.700   9.728  69.627  1.00  0.00     1.029 C  
HETATM   21  C   UNL     1      -9.526  14.577  66.221  1.00  0.00    -0.283 C  
HETATM   22  C   UNL     1     -11.013   7.165  72.807  1.00  0.00    -0.346 A  
HETATM   23  H   UNL     1      -8.568   5.118  70.525  1.00  0.00     0.000 HD 
HETATM   24  C   UNL     1     -10.819  13.924  66.880  1.00  0.00    -0.286 C  
HETATM   25  O   UNL     1     -11.913  11.043  71.497  1.00  0.00    -0.095 OA 
HETATM   26  C   UNL     1     -11.472  10.153  70.461  1.00  0.00    -0.337 C  
HETATM   27  O   UNL     1      -9.345  14.263  64.869  1.00  0.00    -0.037 OA 
HETATM   28  C   UNL     1     -11.389   8.416  72.320  1.00  0.00    -0.448 A  
HETATM   29  H   UNL     1     -12.549  10.550  72.003  1.00  0.00     0.000 HD 
HETATM   30  H   UNL     1     -10.103  14.196  64.299  1.00  0.00     0.000 HD 
HETATM   31  C   UNL     1     -10.880   8.911  71.099  1.00  0.00    -0.352 A  
ENDROOT
BRANCH  19  32
HETATM   32  C   UNL     1      -8.815  15.660  68.134  1.00  0.00    -0.174 C  
HETATM   33  H   UNL     1     -10.258  16.737  67.057  1.00  0.00     0.000 HD 
HETATM   34  O   UNL     1      -8.271  15.578  69.238  1.00  0.00    -0.224 OA 
HETATM   35  N   UNL     1      -9.771  16.627  67.947  1.00  0.00    -0.240 N  
BRANCH  35  36
HETATM   36  C   UNL     1     -10.049  17.480  69.079  1.00  0.00    -0.291 C  
BRANCH  36  37
HETATM   37  N   UNL     1     -10.021  18.882  68.698  1.00  0.00    -0.399 NA 
HETATM   38  C   UNL     1      -8.630  19.365  68.574  1.00  0.00    -0.364 C  
HETATM   39  C   UNL     1      -8.805  20.679  67.837  1.00  0.00    -0.028 C  
HETATM   40  C   UNL     1      -9.928  20.390  66.856  1.00  0.00    -0.549 C  
HETATM   41  C   UNL     1     -10.626  19.142  67.391  1.00  0.00    -0.481 C  
ENDBRANCH  36  37
ENDBRANCH  35  36
ENDBRANCH  19  32
BRANCH  24  42
HETATM   42  N   UNL     1     -11.801  13.624  65.816  1.00  0.00    -0.353 NA 
HETATM   43  C   UNL     1     -12.934  14.556  65.887  1.00  0.00     0.218 C  
HETATM   44  C   UNL     1     -12.280  12.264  65.699  1.00  0.00    -0.127 C  
ENDBRANCH  24  42
TORSDOF 4
ENDMDL
MODEL       52
REMARK 921   NORMALIZED FREE ENERGY PREDICTED BY IDOCK:   -5.32 KCAL/MOL
REMARK 922        TOTAL FREE ENERGY PREDICTED BY IDOCK:   -7.15 KCAL/MOL
REMARK 923 INTER-LIGAND FREE ENERGY PREDICTED BY IDOCK:   -6.95 KCAL/MOL
REMARK 924 INTRA-LIGAND FREE ENERGY PREDICTED BY IDOCK:   -0.20 KCAL/MOL
REMARK 927      BINDING AFFINITY PREDICTED BY RF-SCORE:    0.00 PKD
ROOT
HETATM    1  C   UNL     1      -8.595   8.953  68.363  1.00  0.00    -0.134 C  
HETATM    2  C   UNL     1      -8.183   7.555  67.948  1.00  0.00    -0.123 C  
HETATM    3  C   UNL     1      -9.071   6.438  68.570  1.00  0.00    -0.126 C  
HETATM    4  C   UNL     1      -9.196   6.613  70.065  1.00  0.00    -0.158 C  
HETATM    5  C   UNL     1      -9.209   5.382  70.932  1.00  0.00    -0.150 C  
HETATM    6  C   UNL     1      -9.231   7.843  70.623  1.00  0.00    -0.157 C  
HETATM    7  C   UNL     1      -9.313   4.040  70.297  1.00  0.00    -0.234 A  
HETATM    8  O   UNL     1      -9.139   5.465  72.161  1.00  0.00    -0.136 OA 
HETATM    9  O   UNL     1      -9.213   8.027  72.008  1.00  0.00    -0.142 OA 
HETATM   10  C   UNL     1      -8.956   9.149  69.851  1.00  0.00    -0.174 C  
HETATM   11  C   UNL     1     -10.115  10.280  69.703  1.00  0.00    -0.224 C  
HETATM   12  H   UNL     1      -9.238   8.892  72.400  1.00  0.00     0.000 HD 
HETATM   13  O   UNL     1      -7.810   9.639  70.562  1.00  0.00    -0.164 OA 
HETATM   14  C   UNL     1      -9.569   2.896  71.080  1.00  0.00    -0.156 A  
HETATM   15  O   UNL     1     -11.070  10.410  70.465  1.00  0.00    -0.311 OA 
HETATM   16  H   UNL     1      -8.032   9.759  71.477  1.00  0.00     0.000 HD 
HETATM   17  C   UNL     1      -9.743   1.644  70.485  1.00  0.00    -0.079 A  
HETATM   18  O   UNL     1      -9.647   2.913  72.445  1.00  0.00    -0.109 OA 
HETATM   19  C   UNL     1      -9.902  11.314  68.574  1.00  0.00    -0.198 C  
HETATM   20  C   UNL     1      -7.026   4.928  68.119  1.00  0.00    -0.061 C  
HETATM   21  C   UNL     1      -8.563  11.464  68.452  1.00  0.00    -0.156 C  
HETATM   22  C   UNL     1      -9.659   1.519  69.105  1.00  0.00    -0.109 A  
HETATM   23  H   UNL     1      -9.819   2.142  72.973  1.00  0.00     0.000 HD 
HETATM   24  C   UNL     1      -7.792  10.221  67.824  1.00  0.00    -0.101 C  
HETATM   25  O   UNL     1      -9.009   4.915  66.737  1.00  0.00    -0.110 OA 
HETATM   26  C   UNL     1      -8.565   5.045  68.095  1.00  0.00    -0.102 C  
HETATM   27  O   UNL     1      -7.852  12.140  69.451  1.00  0.00    -0.270 OA 
HETATM   28  C   UNL     1      -9.344   2.632  68.327  1.00  0.00    -0.258 A  
HETATM   29  H   UNL     1      -8.700   4.064  66.447  1.00  0.00     0.000 HD 
HETATM   30  H   UNL     1      -6.911  12.245  69.366  1.00  0.00     0.000 HD 
HETATM   31  C   UNL     1      -9.138   3.901  68.911  1.00  0.00    -0.196 A  
ENDROOT
BRANCH  19  32
HETATM   32  C   UNL     1     -10.463  11.234  67.158  1.00  0.00    -0.222 C  
HETATM   33  H   UNL     1      -8.871  12.196  66.185  1.00  0.00     0.000 HD 
HETATM   34  O   UNL     1     -11.546  10.681  66.957  1.00  0.00    -0.254 OA 
HETATM   35  N   UNL     1      -9.774  11.734  66.080  1.00  0.00    -0.227 N  
BRANCH  35  36
HETATM   36  C   UNL     1     -10.400  11.568  64.788  1.00  0.00    -0.289 C  
BRANCH  36  37
HETATM   37  N   UNL     1     -10.803  12.848  64.232  1.00  0.00    -0.373 NA 
HETATM   38  C   UNL     1     -12.271  13.006  64.287  1.00  0.00    -0.396 C  
HETATM   39  C   UNL     1     -12.450  14.488  64.023  1.00  0.00    -0.096 C  
HETATM   40  C   UNL     1     -11.280  15.124  64.752  1.00  0.00    -0.396 C  
HETATM   41  C   UNL     1     -10.275  13.995  64.973  1.00  0.00    -0.368 C  
ENDBRANCH  36  37
ENDBRANCH  35  36
ENDBRANCH  19  32
BRANCH  24  42
HETATM   42  N   UNL     1      -6.339  10.408  68.020  1.00  0.00    -0.059 NA 
HETATM   43  C   UNL     1      -5.821  11.415  67.085  1.00  0.00    -0.094 C  
HETATM   44  C   UNL     1      -5.495   9.233  68.005  1.00  0.00    -0.037 C  
ENDBRANCH  24  42
TORSDOF 4
ENDMDL
MODEL       53
REMARK 921   NORMALIZED FREE ENERGY PREDICTED BY IDOCK:   -5.30 KCAL/MOL
REMARK 922        TOTAL FREE ENERGY PREDICTED BY IDOCK:   -7.12 KCAL/MOL
REMARK 923 INTER-LIGAND FREE ENERGY PREDICTED BY IDOCK:   -6.91 KCAL/MOL
REMARK 924 INTRA-LIGAND FREE ENERGY PREDICTED BY IDOCK:   -0.21 KCAL/MOL
REMARK 927      BINDING AFFINITY PREDICTED BY RF-SCORE:    0.00 PKD
ROOT
HETATM    1  C   UNL     1      -9.528  12.473  67.838  1.00  0.00    -0.196 C  
HETATM    2  C   UNL     1     -10.097  11.256  68.539  1.00  0.00    -0.210 C  
HETATM    3  C   UNL     1      -9.009  10.350  69.185  1.00  0.00    -0.188 C  
HETATM    4  C   UNL     1      -7.917  10.022  68.195  1.00  0.00    -0.100 C  
HETATM    5  C   UNL     1      -7.313   8.643  68.224  1.00  0.00    -0.087 C  
HETATM    6  C   UNL     1      -7.530  10.918  67.261  1.00  0.00    -0.104 C  
HETATM    7  C   UNL     1      -7.646   7.720  69.344  1.00  0.00    -0.101 A  
HETATM    8  O   UNL     1      -6.542   8.263  67.339  1.00  0.00    -0.056 OA 
HETATM    9  O   UNL     1      -6.617  10.590  66.255  1.00  0.00    -0.101 OA 
HETATM   10  C   UNL     1      -8.265  12.244  66.980  1.00  0.00    -0.155 C  
HETATM   11  C   UNL     1      -7.516  13.669  67.213  1.00  0.00    -0.033 C  
HETATM   12  H   UNL     1      -6.345  11.220  65.598  1.00  0.00     0.000 HD 
HETATM   13  O   UNL     1      -8.645  12.050  65.611  1.00  0.00    -0.349 OA 
HETATM   14  C   UNL     1      -6.920   6.526  69.528  1.00  0.00    -0.067 A  
HETATM   15  O   UNL     1      -6.298  13.829  67.209  1.00  0.00    -0.295 OA 
HETATM   16  H   UNL     1      -7.868  11.909  65.083  1.00  0.00     0.000 HD 
HETATM   17  C   UNL     1      -7.175   5.692  70.619  1.00  0.00    -0.078 A  
HETATM   18  O   UNL     1      -5.947   6.090  68.671  1.00  0.00    -0.018 OA 
HETATM   19  C   UNL     1      -8.442  14.901  67.333  1.00  0.00    -0.212 C  
HETATM   20  C   UNL     1     -10.813   8.511  69.008  1.00  0.00    -0.026 C  
HETATM   21  C   UNL     1      -9.519  14.636  66.559  1.00  0.00    -0.297 C  
HETATM   22  C   UNL     1      -8.161   6.037  71.533  1.00  0.00    -0.123 A  
HETATM   23  H   UNL     1      -5.457   5.286  68.795  1.00  0.00     0.000 HD 
HETATM   24  C   UNL     1     -10.499  13.511  67.115  1.00  0.00    -0.256 C  
HETATM   25  O   UNL     1     -10.267   9.632  71.079  1.00  0.00    -0.288 OA 
HETATM   26  C   UNL     1      -9.688   9.126  69.867  1.00  0.00    -0.191 C  
HETATM   27  O   UNL     1      -9.385  14.647  65.165  1.00  0.00    -0.287 OA 
HETATM   28  C   UNL     1      -8.928   7.183  71.327  1.00  0.00    -0.147 A  
HETATM   29  H   UNL     1     -10.681   8.885  71.495  1.00  0.00     0.000 HD 
HETATM   30  H   UNL     1     -10.141  14.460  64.621  1.00  0.00     0.000 HD 
HETATM   31  C   UNL     1      -8.704   8.025  70.216  1.00  0.00    -0.134 A  
ENDROOT
BRANCH  19  32
HETATM   32  C   UNL     1      -8.974  15.509  68.627  1.00  0.00    -0.194 C  
HETATM   33  H   UNL     1     -10.670  16.435  67.809  1.00  0.00     0.000 HD 
HETATM   34  O   UNL     1      -8.376  15.314  69.687  1.00  0.00    -0.235 OA 
HETATM   35  N   UNL     1     -10.131  16.247  68.654  1.00  0.00    -0.224 N  
BRANCH  35  36
HETATM   36  C   UNL     1     -10.544  16.741  69.948  1.00  0.00    -0.103 C  
BRANCH  36  37
HETATM   37  N   UNL     1     -11.726  16.042  70.423  1.00  0.00    -0.344 NA 
HETATM   38  C   UNL     1     -12.071  14.923  69.523  1.00  0.00    -0.279 C  
HETATM   39  C   UNL     1     -13.057  14.126  70.356  1.00  0.00    -0.033 C  
HETATM   40  C   UNL     1     -12.499  14.231  71.765  1.00  0.00    -0.396 C  
HETATM   41  C   UNL     1     -11.546  15.424  71.738  1.00  0.00    -0.427 C  
ENDBRANCH  36  37
ENDBRANCH  35  36
ENDBRANCH  19  32
BRANCH  24  42
HETATM   42  N   UNL     1     -11.448  13.130  66.047  1.00  0.00    -0.323 NA 
HETATM   43  C   UNL     1     -12.658  13.959  66.119  1.00  0.00    -0.380 C  
HETATM   44  C   UNL     1     -11.806  11.734  65.924  1.00  0.00     0.121 C  
ENDBRANCH  24  42
TORSDOF 4
ENDMDL
MODEL       54
REMARK 921   NORMALIZED FREE ENERGY PREDICTED BY IDOCK:   -5.29 KCAL/MOL
REMARK 922        TOTAL FREE ENERGY PREDICTED BY IDOCK:   -7.10 KCAL/MOL
REMARK 923 INTER-LIGAND FREE ENERGY PREDICTED BY IDOCK:   -6.46 KCAL/MOL
REMARK 924 INTRA-LIGAND FREE ENERGY PREDICTED BY IDOCK:   -0.64 KCAL/MOL
REMARK 927      BINDING AFFINITY PREDICTED BY RF-SCORE:    0.00 PKD
ROOT
HETATM    1  C   UNL     1      -8.324   7.284  67.859  1.00  0.00    -0.119 C  
HETATM    2  C   UNL     1      -8.960   7.513  69.215  1.00  0.00    -0.136 C  
HETATM    3  C   UNL     1     -10.136   8.532  69.182  1.00  0.00    -0.207 C  
HETATM    4  C   UNL     1      -9.732   9.806  68.480  1.00  0.00    -0.164 C  
HETATM    5  C   UNL     1     -10.251  11.115  69.014  1.00  0.00    -0.176 C  
HETATM    6  C   UNL     1      -8.875   9.786  67.436  1.00  0.00    -0.132 C  
HETATM    7  C   UNL     1     -11.302  11.111  70.069  1.00  0.00    -0.326 A  
HETATM    8  O   UNL     1      -9.826  12.193  68.591  1.00  0.00    -0.188 OA 
HETATM    9  O   UNL     1      -8.387  10.960  66.858  1.00  0.00    -0.126 OA 
HETATM   10  C   UNL     1      -8.088   8.538  66.989  1.00  0.00    -0.103 C  
HETATM   11  C   UNL     1      -8.325   7.895  65.515  1.00  0.00    -0.147 C  
HETATM   12  H   UNL     1      -7.784  10.946  66.124  1.00  0.00     0.000 HD 
HETATM   13  O   UNL     1      -6.741   8.998  67.169  1.00  0.00    -0.064 OA 
HETATM   14  C   UNL     1     -11.974  12.300  70.414  1.00  0.00    -0.263 A  
HETATM   15  O   UNL     1      -8.769   8.508  64.546  1.00  0.00    -0.094 OA 
HETATM   16  H   UNL     1      -6.596   9.769  66.634  1.00  0.00     0.000 HD 
HETATM   17  C   UNL     1     -13.013  12.292  71.349  1.00  0.00    -0.354 A  
HETATM   18  O   UNL     1     -11.664  13.526  69.893  1.00  0.00    -0.339 OA 
HETATM   19  C   UNL     1      -7.842   6.439  65.332  1.00  0.00    -0.105 C  
HETATM   20  C   UNL     1      -9.614   8.814  71.695  1.00  0.00    -0.363 C  
HETATM   21  C   UNL     1      -6.772   6.295  66.148  1.00  0.00    -0.056 C  
HETATM   22  C   UNL     1     -13.387  11.099  71.952  1.00  0.00    -0.409 A  
HETATM   23  H   UNL     1     -12.117  14.328  70.126  1.00  0.00     0.000 HD 
HETATM   24  C   UNL     1      -7.100   6.274  67.705  1.00  0.00    -0.081 C  
HETATM   25  O   UNL     1     -11.485   7.525  70.871  1.00  0.00    -0.274 OA 
HETATM   26  C   UNL     1     -10.714   8.708  70.617  1.00  0.00    -0.222 C  
HETATM   27  O   UNL     1      -5.566   6.927  65.820  1.00  0.00    -0.028 OA 
HETATM   28  C   UNL     1     -12.688   9.928  71.664  1.00  0.00    -0.527 A  
HETATM   29  H   UNL     1     -11.837   7.633  71.747  1.00  0.00     0.000 HD 
HETATM   30  H   UNL     1      -4.815   6.826  66.392  1.00  0.00     0.000 HD 
HETATM   31  C   UNL     1     -11.617   9.920  70.743  1.00  0.00    -0.430 A  
ENDROOT
BRANCH  19  32
HETATM   32  C   UNL     1      -8.687   5.179  65.495  1.00  0.00    -0.147 C  
HETATM   33  H   UNL     1      -7.137   3.785  65.256  1.00  0.00     0.000 HD 
HETATM   34  O   UNL     1      -9.895   5.276  65.721  1.00  0.00    -0.130 OA 
HETATM   35  N   UNL     1      -8.131   3.925  65.434  1.00  0.00    -0.097 N  
BRANCH  35  36
HETATM   36  C   UNL     1      -9.034   2.815  65.635  1.00  0.00    -0.143 C  
BRANCH  36  37
HETATM   37  N   UNL     1      -8.589   1.969  66.730  1.00  0.00    -0.104 NA 
HETATM   38  C   UNL     1      -7.201   2.299  67.117  1.00  0.00    -0.056 C  
HETATM   39  C   UNL     1      -7.062   1.603  68.457  1.00  0.00    -0.039 C  
HETATM   40  C   UNL     1      -8.425   1.793  69.101  1.00  0.00    -0.079 C  
HETATM   41  C   UNL     1      -9.371   2.145  67.955  1.00  0.00    -0.194 C  
ENDBRANCH  36  37
ENDBRANCH  35  36
ENDBRANCH  19  32
BRANCH  24  42
HETATM   42  N   UNL     1      -5.837   6.405  68.464  1.00  0.00    -0.019 NA 
HETATM   43  C   UNL     1      -5.163   5.104  68.564  1.00  0.00     0.000 C  
HETATM   44  C   UNL     1      -5.887   7.043  69.761  1.00  0.00    -0.023 C  
ENDBRANCH  24  42
TORSDOF 4
ENDMDL
MODEL       55
REMARK 921   NORMALIZED FREE ENERGY PREDICTED BY IDOCK:   -5.21 KCAL/MOL
REMARK 922        TOTAL FREE ENERGY PREDICTED BY IDOCK:   -7.01 KCAL/MOL
REMARK 923 INTER-LIGAND FREE ENERGY PREDICTED BY IDOCK:   -6.55 KCAL/MOL
REMARK 924 INTRA-LIGAND FREE ENERGY PREDICTED BY IDOCK:   -0.46 KCAL/MOL
REMARK 927      BINDING AFFINITY PREDICTED BY RF-SCORE:    0.00 PKD
ROOT
HETATM    1  C   UNL     1      -8.997   8.302  70.550  1.00  0.00    -0.151 C  
HETATM    2  C   UNL     1      -7.937   9.122  69.842  1.00  0.00    -0.104 C  
HETATM    3  C   UNL     1      -8.020   9.031  68.290  1.00  0.00    -0.104 C  
HETATM    4  C   UNL     1      -8.079   7.593  67.833  1.00  0.00    -0.123 C  
HETATM    5  C   UNL     1      -7.345   7.211  66.575  1.00  0.00    -0.083 C  
HETATM    6  C   UNL     1      -8.718   6.654  68.563  1.00  0.00    -0.123 C  
HETATM    7  C   UNL     1      -6.768   8.277  65.710  1.00  0.00    -0.053 A  
HETATM    8  O   UNL     1      -7.215   6.030  66.243  1.00  0.00    -0.073 OA 
HETATM    9  O   UNL     1      -8.673   5.299  68.227  1.00  0.00    -0.102 OA 
HETATM   10  C   UNL     1      -9.265   6.890  69.984  1.00  0.00    -0.155 C  
HETATM   11  C   UNL     1     -10.859   6.775  70.287  1.00  0.00    -0.270 C  
HETATM   12  H   UNL     1      -9.123   4.638  68.740  1.00  0.00     0.000 HD 
HETATM   13  O   UNL     1      -8.503   5.925  70.724  1.00  0.00    -0.126 OA 
HETATM   14  C   UNL     1      -6.291   7.972  64.419  1.00  0.00    -0.057 A  
HETATM   15  O   UNL     1     -11.656   6.132  69.608  1.00  0.00    -0.407 OA 
HETATM   16  H   UNL     1      -8.668   5.058  70.376  1.00  0.00     0.000 HD 
HETATM   17  C   UNL     1      -5.818   8.978  63.573  1.00  0.00    -0.076 A  
HETATM   18  O   UNL     1      -6.238   6.704  63.910  1.00  0.00    -0.033 OA 
HETATM   19  C   UNL     1     -11.344   7.445  71.592  1.00  0.00    -0.286 C  
HETATM   20  C   UNL     1      -5.536   9.731  68.381  1.00  0.00    -0.043 C  
HETATM   21  C   UNL     1     -10.315   7.350  72.466  1.00  0.00    -0.227 C  
HETATM   22  C   UNL     1      -5.810  10.296  64.007  1.00  0.00    -0.142 A  
HETATM   23  H   UNL     1      -5.917   6.498  63.040  1.00  0.00     0.000 HD 
HETATM   24  C   UNL     1      -9.059   8.273  72.143  1.00  0.00    -0.212 C  
HETATM   25  O   UNL     1      -7.319  11.256  67.797  1.00  0.00    -0.088 OA 
HETATM   26  C   UNL     1      -6.890   9.894  67.657  1.00  0.00    -0.084 C  
HETATM   27  O   UNL     1      -9.991   6.103  73.014  1.00  0.00    -0.170 OA 
HETATM   28  C   UNL     1      -6.220  10.601  65.304  1.00  0.00    -0.046 A  
HETATM   29  H   UNL     1      -6.629  11.782  67.410  1.00  0.00     0.000 HD 
HETATM   30  H   UNL     1      -9.268   6.036  73.627  1.00  0.00     0.000 HD 
HETATM   31  C   UNL     1      -6.676   9.595  66.185  1.00  0.00    -0.083 A  
ENDROOT
BRANCH  19  32
HETATM   32  C   UNL     1     -11.903   8.858  71.729  1.00  0.00    -0.358 C  
HETATM   33  H   UNL     1     -11.464   9.510  69.784  1.00  0.00     0.000 HD 
HETATM   34  O   UNL     1     -12.424   9.211  72.790  1.00  0.00    -0.183 OA 
HETATM   35  N   UNL     1     -11.877   9.749  70.685  1.00  0.00    -0.283 N  
BRANCH  35  36
HETATM   36  C   UNL     1     -12.466  11.044  70.934  1.00  0.00    -0.410 C  
BRANCH  36  37
HETATM   37  N   UNL     1     -11.733  12.095  70.248  1.00  0.00    -0.232 NA 
HETATM   38  C   UNL     1     -11.761  11.885  68.786  1.00  0.00    -0.321 C  
HETATM   39  C   UNL     1     -11.289  13.225  68.255  1.00  0.00    -0.335 C  
HETATM   40  C   UNL     1     -11.924  14.228  69.203  1.00  0.00    -0.372 C  
HETATM   41  C   UNL     1     -12.306  13.428  70.446  1.00  0.00    -0.312 C  
ENDBRANCH  36  37
ENDBRANCH  35  36
ENDBRANCH  19  32
BRANCH  24  42
HETATM   42  N   UNL     1      -7.925   7.855  72.995  1.00  0.00    -0.123 NA 
HETATM   43  C   UNL     1      -8.078   8.394  74.353  1.00  0.00    -0.116 C  
HETATM   44  C   UNL     1      -6.585   8.101  72.509  1.00  0.00    -0.082 C  
ENDBRANCH  24  42
TORSDOF 4
ENDMDL
MODEL       56
REMARK 921   NORMALIZED FREE ENERGY PREDICTED BY IDOCK:   -5.18 KCAL/MOL
REMARK 922        TOTAL FREE ENERGY PREDICTED BY IDOCK:   -6.97 KCAL/MOL
REMARK 923 INTER-LIGAND FREE ENERGY PREDICTED BY IDOCK:   -6.10 KCAL/MOL
REMARK 924 INTRA-LIGAND FREE ENERGY PREDICTED BY IDOCK:   -0.87 KCAL/MOL
REMARK 927      BINDING AFFINITY PREDICTED BY RF-SCORE:    0.00 PKD
ROOT
HETATM    1  C   UNL     1      -9.176   8.798  68.545  1.00  0.00    -0.141 C  
HETATM    2  C   UNL     1      -8.071   9.771  68.186  1.00  0.00    -0.108 C  
HETATM    3  C   UNL     1      -8.236  11.168  68.852  1.00  0.00    -0.104 C  
HETATM    4  C   UNL     1      -9.624  11.718  68.623  1.00  0.00    -0.122 C  
HETATM    5  C   UNL     1      -9.777  13.195  68.377  1.00  0.00    -0.196 C  
HETATM    6  C   UNL     1     -10.699  10.902  68.576  1.00  0.00    -0.204 C  
HETATM    7  C   UNL     1      -8.609  14.097  68.573  1.00  0.00    -0.163 A  
HETATM    8  O   UNL     1     -10.856  13.676  68.020  1.00  0.00    -0.237 OA 
HETATM    9  O   UNL     1     -11.970  11.372  68.236  1.00  0.00    -0.566 OA 
HETATM   10  C   UNL     1     -10.613   9.362  68.549  1.00  0.00    -0.197 C  
HETATM   11  C   UNL     1     -11.249   8.478  69.756  1.00  0.00     0.031 C  
HETATM   12  H   UNL     1     -12.726  10.798  68.202  1.00  0.00     0.000 HD 
HETATM   13  O   UNL     1     -11.239   9.086  67.288  1.00  0.00    -0.279 OA 
HETATM   14  C   UNL     1      -8.779  15.496  68.586  1.00  0.00    -0.188 A  
HETATM   15  O   UNL     1     -12.146   8.858  70.506  1.00  0.00    -0.096 OA 
HETATM   16  H   UNL     1     -12.123   9.433  67.290  1.00  0.00     0.000 HD 
HETATM   17  C   UNL     1      -7.701  16.347  68.844  1.00  0.00    -0.230 A  
HETATM   18  O   UNL     1      -9.971  16.118  68.337  1.00  0.00    -0.222 OA 
HETATM   19  C   UNL     1     -10.739   7.023  69.863  1.00  0.00    -0.265 C  
HETATM   20  C   UNL     1      -6.736  11.976  66.911  1.00  0.00    -0.041 C  
HETATM   21  C   UNL     1     -10.452   6.634  68.599  1.00  0.00    -0.211 C  
HETATM   22  C   UNL     1      -6.444  15.812  69.087  1.00  0.00    -0.143 A  
HETATM   23  H   UNL     1     -10.085  17.062  68.345  1.00  0.00     0.000 HD 
HETATM   24  C   UNL     1      -9.171   7.320  67.949  1.00  0.00    -0.131 C  
HETATM   25  O   UNL     1      -5.923  11.654  69.165  1.00  0.00    -0.056 OA 
HETATM   26  C   UNL     1      -7.064  12.096  68.415  1.00  0.00    -0.089 C  
HETATM   27  O   UNL     1     -11.497   6.393  67.699  1.00  0.00    -0.668 OA 
HETATM   28  C   UNL     1      -6.252  14.433  69.014  1.00  0.00    -0.094 A  
HETATM   29  H   UNL     1      -5.208  12.220  68.898  1.00  0.00     0.000 HD 
HETATM   30  H   UNL     1     -11.296   6.120  66.811  1.00  0.00     0.000 HD 
HETATM   31  C   UNL     1      -7.322  13.557  68.728  1.00  0.00    -0.086 A  
ENDROOT
BRANCH  19  32
HETATM   32  C   UNL     1      -9.594   6.529  70.741  1.00  0.00    -0.179 C  
HETATM   33  H   UNL     1      -9.232   8.333  71.750  1.00  0.00     0.000 HD 
HETATM   34  O   UNL     1      -9.231   5.352  70.672  1.00  0.00    -0.142 OA 
HETATM   35  N   UNL     1      -8.970   7.353  71.645  1.00  0.00    -0.124 N  
BRANCH  35  36
HETATM   36  C   UNL     1      -7.921   6.755  72.439  1.00  0.00    -0.098 C  
BRANCH  36  37
HETATM   37  N   UNL     1      -6.674   7.487  72.296  1.00  0.00    -0.054 NA 
HETATM   38  C   UNL     1      -6.908   8.808  71.675  1.00  0.00    -0.078 C  
HETATM   39  C   UNL     1      -5.604   9.532  71.949  1.00  0.00    -0.044 C  
HETATM   40  C   UNL     1      -5.218   9.059  73.339  1.00  0.00    -0.092 C  
HETATM   41  C   UNL     1      -6.025   7.784  73.574  1.00  0.00    -0.061 C  
ENDBRANCH  36  37
ENDBRANCH  35  36
ENDBRANCH  19  32
BRANCH  24  42
HETATM   42  N   UNL     1      -9.152   7.026  66.499  1.00  0.00    -0.153 NA 
HETATM   43  C   UNL     1      -8.517   5.726  66.248  1.00  0.00    -0.126 C  
HETATM   44  C   UNL     1      -8.607   8.029  65.611  1.00  0.00    -0.145 C  
ENDBRANCH  24  42
TORSDOF 4
ENDMDL
MODEL       57
REMARK 921   NORMALIZED FREE ENERGY PREDICTED BY IDOCK:   -5.13 KCAL/MOL
REMARK 922        TOTAL FREE ENERGY PREDICTED BY IDOCK:   -6.90 KCAL/MOL
REMARK 923 INTER-LIGAND FREE ENERGY PREDICTED BY IDOCK:   -6.52 KCAL/MOL
REMARK 924 INTRA-LIGAND FREE ENERGY PREDICTED BY IDOCK:   -0.38 KCAL/MOL
REMARK 927      BINDING AFFINITY PREDICTED BY RF-SCORE:    0.00 PKD
ROOT
HETATM    1  C   UNL     1      -8.522   8.478  68.997  1.00  0.00    -0.126 C  
HETATM    2  C   UNL     1      -8.048   7.043  69.114  1.00  0.00    -0.121 C  
HETATM    3  C   UNL     1      -9.098   6.097  69.766  1.00  0.00    -0.144 C  
HETATM    4  C   UNL     1      -9.617   6.670  71.062  1.00  0.00    -0.178 C  
HETATM    5  C   UNL     1      -9.893   5.728  72.203  1.00  0.00    -0.156 C  
HETATM    6  C   UNL     1      -9.771   8.002  71.224  1.00  0.00    -0.163 C  
HETATM    7  C   UNL     1      -9.855   4.258  71.966  1.00  0.00    -0.241 A  
HETATM    8  O   UNL     1     -10.155   6.149  73.333  1.00  0.00    -0.175 OA 
HETATM    9  O   UNL     1     -10.122   8.562  72.455  1.00  0.00    -0.305 OA 
HETATM   10  C   UNL     1      -9.267   9.058  70.219  1.00  0.00    -0.202 C  
HETATM   11  C   UNL     1     -10.314  10.041  69.459  1.00  0.00    -0.235 C  
HETATM   12  H   UNL     1     -10.231   9.499  72.568  1.00  0.00     0.000 HD 
HETATM   13  O   UNL     1      -8.343   9.784  71.042  1.00  0.00    -0.352 OA 
HETATM   14  C   UNL     1     -10.340   3.363  72.941  1.00  0.00    -0.166 A  
HETATM   15  O   UNL     1     -11.436  10.325  69.872  1.00  0.00    -0.250 OA 
HETATM   16  H   UNL     1      -8.800  10.141  71.794  1.00  0.00     0.000 HD 
HETATM   17  C   UNL     1     -10.378   1.988  72.696  1.00  0.00    -0.231 A  
HETATM   18  O   UNL     1     -10.783   3.752  74.175  1.00  0.00    -0.202 OA 
HETATM   19  C   UNL     1      -9.780  10.733  68.184  1.00  0.00    -0.169 C  
HETATM   20  C   UNL     1      -7.044   4.631  70.315  1.00  0.00    -0.049 C  
HETATM   21  C   UNL     1      -8.454  10.914  68.385  1.00  0.00    -0.141 C  
HETATM   22  C   UNL     1      -9.928   1.492  71.480  1.00  0.00    -0.194 A  
HETATM   23  H   UNL     1     -11.110   3.148  74.832  1.00  0.00     0.000 HD 
HETATM   24  C   UNL     1      -7.574   9.588  68.358  1.00  0.00    -0.081 C  
HETATM   25  O   UNL     1      -8.582   4.132  68.517  1.00  0.00    -0.090 OA 
HETATM   26  C   UNL     1      -8.517   4.655  69.852  1.00  0.00    -0.073 C  
HETATM   27  O   UNL     1      -8.022  11.876  69.306  1.00  0.00    -0.339 OA 
HETATM   28  C   UNL     1      -9.389   2.362  70.534  1.00  0.00    -0.201 A  
HETATM   29  H   UNL     1      -8.227   3.252  68.570  1.00  0.00     0.000 HD 
HETATM   30  H   UNL     1      -7.092  12.003  69.448  1.00  0.00     0.000 HD 
HETATM   31  C   UNL     1      -9.316   3.752  70.772  1.00  0.00    -0.218 A  
ENDROOT
BRANCH  19  32
HETATM   32  C   UNL     1      -9.940  10.236  66.751  1.00  0.00    -0.209 C  
HETATM   33  H   UNL     1      -8.898  11.795  65.809  1.00  0.00     0.000 HD 
HETATM   34  O   UNL     1     -10.535   9.178  66.531  1.00  0.00    -0.228 OA 
HETATM   35  N   UNL     1      -9.405  10.919  65.686  1.00  0.00    -0.198 N  
BRANCH  35  36
HETATM   36  C   UNL     1      -9.600  10.326  64.383  1.00  0.00    -0.316 C  
BRANCH  36  37
HETATM   37  N   UNL     1      -8.330  10.104  63.713  1.00  0.00    -0.164 NA 
HETATM   38  C   UNL     1      -7.380   9.408  64.606  1.00  0.00    -0.104 C  
HETATM   39  C   UNL     1      -6.300   8.954  63.643  1.00  0.00    -0.088 C  
HETATM   40  C   UNL     1      -7.075   8.564  62.397  1.00  0.00    -0.097 C  
HETATM   41  C   UNL     1      -8.437   9.241  62.536  1.00  0.00    -0.203 C  
ENDBRANCH  36  37
ENDBRANCH  35  36
ENDBRANCH  19  32
BRANCH  24  42
HETATM   42  N   UNL     1      -6.222   9.899  68.872  1.00  0.00    -0.041 NA 
HETATM   43  C   UNL     1      -5.302  10.174  67.761  1.00  0.00    -0.038 C  
HETATM   44  C   UNL     1      -5.620   8.968  69.801  1.00  0.00    -0.032 C  
ENDBRANCH  24  42
TORSDOF 4
ENDMDL
MODEL       58
REMARK 921   NORMALIZED FREE ENERGY PREDICTED BY IDOCK:   -5.10 KCAL/MOL
REMARK 922        TOTAL FREE ENERGY PREDICTED BY IDOCK:   -6.87 KCAL/MOL
REMARK 923 INTER-LIGAND FREE ENERGY PREDICTED BY IDOCK:   -6.73 KCAL/MOL
REMARK 924 INTRA-LIGAND FREE ENERGY PREDICTED BY IDOCK:   -0.14 KCAL/MOL
REMARK 927      BINDING AFFINITY PREDICTED BY RF-SCORE:    0.00 PKD
ROOT
HETATM    1  C   UNL     1      -9.438   9.549  68.249  1.00  0.00    -0.143 C  
HETATM    2  C   UNL     1      -9.885   8.665  69.396  1.00  0.00    -0.184 C  
HETATM    3  C   UNL     1      -9.208   7.262  69.395  1.00  0.00    -0.148 C  
HETATM    4  C   UNL     1      -9.326   6.603  68.043  1.00  0.00    -0.113 C  
HETATM    5  C   UNL     1      -9.560   5.116  67.988  1.00  0.00    -0.136 C  
HETATM    6  C   UNL     1      -9.288   7.331  66.906  1.00  0.00    -0.156 C  
HETATM    7  C   UNL     1      -9.458   4.311  69.236  1.00  0.00    -0.254 A  
HETATM    8  O   UNL     1      -9.831   4.550  66.926  1.00  0.00    -0.193 OA 
HETATM    9  O   UNL     1      -9.526   6.760  65.653  1.00  0.00    -0.374 OA 
HETATM   10  C   UNL     1      -9.321   8.872  66.866  1.00  0.00    -0.168 C  
HETATM   11  C   UNL     1      -8.067   9.710  66.258  1.00  0.00    -0.112 C  
HETATM   12  H   UNL     1      -9.500   7.271  64.854  1.00  0.00     0.000 HD 
HETATM   13  O   UNL     1     -10.528   9.090  66.122  1.00  0.00    -0.237 OA 
HETATM   14  C   UNL     1      -9.432   2.903  69.180  1.00  0.00    -0.084 A  
HETATM   15  O   UNL     1      -7.249   9.265  65.457  1.00  0.00    -0.084 OA 
HETATM   16  H   UNL     1     -10.456   8.674  65.272  1.00  0.00     0.000 HD 
HETATM   17  C   UNL     1      -9.260   2.142  70.339  1.00  0.00    -0.186 A  
HETATM   18  O   UNL     1      -9.587   2.187  68.025  1.00  0.00    -0.329 OA 
HETATM   19  C   UNL     1      -8.000  11.201  66.659  1.00  0.00    -0.159 C  
HETATM   20  C   UNL     1     -11.262   6.565  70.797  1.00  0.00    -0.377 C  
HETATM   21  C   UNL     1      -9.283  11.604  66.813  1.00  0.00    -0.186 C  
HETATM   22  C   UNL     1      -9.118   2.777  71.565  1.00  0.00    -0.169 A  
HETATM   23  H   UNL     1      -9.569   1.238  67.987  1.00  0.00     0.000 HD 
HETATM   24  C   UNL     1     -10.033  11.019  68.089  1.00  0.00    -0.177 C  
HETATM   25  O   UNL     1      -9.079   6.964  71.758  1.00  0.00    -0.139 OA 
HETATM   26  C   UNL     1      -9.737   6.428  70.600  1.00  0.00    -0.179 C  
HETATM   27  O   UNL     1     -10.097  11.757  65.684  1.00  0.00    -0.227 OA 
HETATM   28  C   UNL     1      -9.205   4.167  71.640  1.00  0.00    -0.186 A  
HETATM   29  H   UNL     1      -9.402   6.455  72.492  1.00  0.00     0.000 HD 
HETATM   30  H   UNL     1     -10.998  12.040  65.792  1.00  0.00     0.000 HD 
HETATM   31  C   UNL     1      -9.405   4.953  70.484  1.00  0.00    -0.216 A  
ENDROOT
BRANCH  19  32
HETATM   32  C   UNL     1      -7.215  11.790  67.826  1.00  0.00    -0.097 C  
HETATM   33  H   UNL     1      -7.751  13.796  67.525  1.00  0.00     0.000 HD 
HETATM   34  O   UNL     1      -6.571  11.046  68.569  1.00  0.00    -0.056 OA 
HETATM   35  N   UNL     1      -7.231  13.135  68.102  1.00  0.00    -0.103 N  
BRANCH  35  36
HETATM   36  C   UNL     1      -6.471  13.561  69.254  1.00  0.00    -0.111 C  
BRANCH  36  37
HETATM   37  N   UNL     1      -6.658  14.979  69.510  1.00  0.00    -0.142 NA 
HETATM   38  C   UNL     1      -5.827  15.792  68.598  1.00  0.00    -0.101 C  
HETATM   39  C   UNL     1      -6.422  17.177  68.761  1.00  0.00    -0.185 C  
HETATM   40  C   UNL     1      -7.911  16.912  68.898  1.00  0.00    -0.233 C  
HETATM   41  C   UNL     1      -8.028  15.436  69.275  1.00  0.00    -0.229 C  
ENDBRANCH  36  37
ENDBRANCH  35  36
ENDBRANCH  19  32
BRANCH  24  42
HETATM   42  N   UNL     1     -11.479  11.304  67.969  1.00  0.00    -0.402 NA 
HETATM   43  C   UNL     1     -11.707  12.751  67.857  1.00  0.00    -0.357 C  
HETATM   44  C   UNL     1     -12.367  10.734  68.958  1.00  0.00     0.197 C  
ENDBRANCH  24  42
TORSDOF 4
ENDMDL
MODEL       59
REMARK 921   NORMALIZED FREE ENERGY PREDICTED BY IDOCK:   -5.10 KCAL/MOL
REMARK 922        TOTAL FREE ENERGY PREDICTED BY IDOCK:   -6.87 KCAL/MOL
REMARK 923 INTER-LIGAND FREE ENERGY PREDICTED BY IDOCK:   -7.47 KCAL/MOL
REMARK 924 INTRA-LIGAND FREE ENERGY PREDICTED BY IDOCK:    0.60 KCAL/MOL
REMARK 927      BINDING AFFINITY PREDICTED BY RF-SCORE:    0.00 PKD
ROOT
HETATM    1  C   UNL     1      -9.924  11.078  67.348  1.00  0.00    -0.209 C  
HETATM    2  C   UNL     1      -9.066  10.071  66.611  1.00  0.00    -0.169 C  
HETATM    3  C   UNL     1      -9.682   8.641  66.577  1.00  0.00    -0.325 C  
HETATM    4  C   UNL     1     -10.088   8.192  67.960  1.00  0.00    -0.241 C  
HETATM    5  C   UNL     1      -9.884   6.748  68.333  1.00  0.00    -0.136 C  
HETATM    6  C   UNL     1     -10.565   9.072  68.867  1.00  0.00    -0.180 C  
HETATM    7  C   UNL     1      -9.494   5.767  67.284  1.00  0.00    -0.116 A  
HETATM    8  O   UNL     1     -10.038   6.359  69.494  1.00  0.00    -0.161 OA 
HETATM    9  O   UNL     1     -10.823   8.703  70.190  1.00  0.00    -0.234 OA 
HETATM   10  C   UNL     1     -10.560  10.601  68.672  1.00  0.00    -0.203 C  
HETATM   11  C   UNL     1     -11.956  11.432  68.618  1.00  0.00    -0.249 C  
HETATM   12  H   UNL     1     -11.158   9.322  70.828  1.00  0.00     0.000 HD 
HETATM   13  O   UNL     1      -9.733  11.004  69.773  1.00  0.00    -0.360 OA 
HETATM   14  C   UNL     1      -9.530   4.383  67.548  1.00  0.00    -0.166 A  
HETATM   15  O   UNL     1     -13.017  11.053  69.110  1.00  0.00     0.039 OA 
HETATM   16  H   UNL     1     -10.124  10.711  70.587  1.00  0.00     0.000 HD 
HETATM   17  C   UNL     1      -9.238   3.453  66.546  1.00  0.00    -0.178 A  
HETATM   18  O   UNL     1      -9.827   3.852  68.773  1.00  0.00    -0.102 OA 
HETATM   19  C   UNL     1     -11.874  12.843  67.992  1.00  0.00    -0.390 C  
HETATM   20  C   UNL     1      -7.243   7.888  66.187  1.00  0.00    -0.073 C  
HETATM   21  C   UNL     1     -10.633  13.304  68.273  1.00  0.00    -0.251 C  
HETATM   22  C   UNL     1      -8.902   3.895  65.274  1.00  0.00    -0.126 A  
HETATM   23  H   UNL     1      -9.851   2.919  68.951  1.00  0.00     0.000 HD 
HETATM   24  C   UNL     1      -9.447  12.593  67.486  1.00  0.00    -0.186 C  
HETATM   25  O   UNL     1      -8.891   7.998  64.421  1.00  0.00    -0.370 OA 
HETATM   26  C   UNL     1      -8.726   7.680  65.811  1.00  0.00    -0.125 C  
HETATM   27  O   UNL     1     -10.316  13.671  69.587  1.00  0.00    -0.289 OA 
HETATM   28  C   UNL     1      -8.802   5.262  65.018  1.00  0.00    -0.111 A  
HETATM   29  H   UNL     1      -8.307   7.412  63.954  1.00  0.00     0.000 HD 
HETATM   30  H   UNL     1      -9.445  13.995  69.785  1.00  0.00     0.000 HD 
HETATM   31  C   UNL     1      -9.067   6.217  66.024  1.00  0.00    -0.126 A  
ENDROOT
BRANCH  19  32
HETATM   32  C   UNL     1     -12.154  13.204  66.537  1.00  0.00    -0.358 C  
HETATM   33  H   UNL     1     -10.704  14.709  66.351  1.00  0.00     0.000 HD 
HETATM   34  O   UNL     1     -13.022  12.593  65.909  1.00  0.00    -0.058 OA 
HETATM   35  N   UNL     1     -11.437  14.176  65.884  1.00  0.00    -0.331 N  
BRANCH  35  36
HETATM   36  C   UNL     1     -11.779  14.401  64.499  1.00  0.00    -0.419 C  
BRANCH  36  37
HETATM   37  N   UNL     1     -11.140  13.422  63.635  1.00  0.00    -0.036 NA 
HETATM   38  C   UNL     1      -9.918  12.882  64.268  1.00  0.00    -0.109 C  
HETATM   39  C   UNL     1      -9.622  11.662  63.417  1.00  0.00    -0.308 C  
HETATM   40  C   UNL     1     -11.000  11.103  63.105  1.00  0.00     0.089 C  
HETATM   41  C   UNL     1     -11.974  12.249  63.370  1.00  0.00    -0.494 C  
ENDBRANCH  36  37
ENDBRANCH  35  36
ENDBRANCH  19  32
BRANCH  24  42
HETATM   42  N   UNL     1      -8.160  12.988  68.098  1.00  0.00    -0.147 NA 
HETATM   43  C   UNL     1      -7.735  14.300  67.593  1.00  0.00    -0.177 C  
HETATM   44  C   UNL     1      -7.061  12.049  68.034  1.00  0.00    -0.086 C  
ENDBRANCH  24  42
TORSDOF 4
ENDMDL
MODEL       60
REMARK 921   NORMALIZED FREE ENERGY PREDICTED BY IDOCK:   -5.10 KCAL/MOL
REMARK 922        TOTAL FREE ENERGY PREDICTED BY IDOCK:   -6.87 KCAL/MOL
REMARK 923 INTER-LIGAND FREE ENERGY PREDICTED BY IDOCK:   -6.56 KCAL/MOL
REMARK 924 INTRA-LIGAND FREE ENERGY PREDICTED BY IDOCK:   -0.31 KCAL/MOL
REMARK 927      BINDING AFFINITY PREDICTED BY RF-SCORE:    0.00 PKD
ROOT
HETATM    1  C   UNL     1      -9.143   8.792  68.433  1.00  0.00    -0.141 C  
HETATM    2  C   UNL     1      -7.952   9.592  67.947  1.00  0.00    -0.098 C  
HETATM    3  C   UNL     1      -8.012  11.095  68.349  1.00  0.00    -0.137 C  
HETATM    4  C   UNL     1      -9.342  11.704  67.976  1.00  0.00    -0.178 C  
HETATM    5  C   UNL     1      -9.364  13.121  67.467  1.00  0.00    -0.207 C  
HETATM    6  C   UNL     1     -10.482  10.982  68.034  1.00  0.00    -0.189 C  
HETATM    7  C   UNL     1      -8.128  13.947  67.543  1.00  0.00    -0.191 A  
HETATM    8  O   UNL     1     -10.390  13.615  66.991  1.00  0.00    -0.256 OA 
HETATM    9  O   UNL     1     -11.700  11.483  67.570  1.00  0.00    -0.555 OA 
HETATM   10  C   UNL     1     -10.527   9.461  68.284  1.00  0.00    -0.217 C  
HETATM   11  C   UNL     1     -11.263   8.861  69.604  1.00  0.00     0.048 C  
HETATM   12  H   UNL     1     -12.502  10.975  67.611  1.00  0.00     0.000 HD 
HETATM   13  O   UNL     1     -11.147   9.014  67.070  1.00  0.00    -0.231 OA 
HETATM   14  C   UNL     1      -8.177  15.335  67.301  1.00  0.00    -0.204 A  
HETATM   15  O   UNL     1     -12.140   9.440  70.241  1.00  0.00    -0.058 OA 
HETATM   16  H   UNL     1     -11.998   9.425  66.978  1.00  0.00     0.000 HD 
HETATM   17  C   UNL     1      -7.037  16.129  67.444  1.00  0.00    -0.209 A  
HETATM   18  O   UNL     1      -9.306  15.995  66.902  1.00  0.00    -0.214 OA 
HETATM   19  C   UNL     1     -10.881   7.413  69.985  1.00  0.00    -0.266 C  
HETATM   20  C   UNL     1      -6.407  11.419  66.353  1.00  0.00    -0.047 C  
HETATM   21  C   UNL     1     -10.601   6.782  68.822  1.00  0.00    -0.226 C  
HETATM   22  C   UNL     1      -5.835  15.547  67.824  1.00  0.00    -0.157 A  
HETATM   23  H   UNL     1      -9.340  16.931  66.740  1.00  0.00     0.000 HD 
HETATM   24  C   UNL     1      -9.252   7.235  68.108  1.00  0.00    -0.132 C  
HETATM   25  O   UNL     1      -5.673  11.443  68.656  1.00  0.00    -0.043 OA 
HETATM   26  C   UNL     1      -6.756  11.832  67.799  1.00  0.00    -0.082 C  
HETATM   27  O   UNL     1     -11.643   6.467  67.941  1.00  0.00    -0.623 OA 
HETATM   28  C   UNL     1      -5.760  14.166  68.004  1.00  0.00    -0.131 A  
HETATM   29  H   UNL     1      -4.907  11.892  68.320  1.00  0.00     0.000 HD 
HETATM   30  H   UNL     1     -11.446   6.024  67.124  1.00  0.00     0.000 HD 
HETATM   31  C   UNL     1      -6.895  13.342  67.838  1.00  0.00    -0.144 A  
ENDROOT
BRANCH  19  32
HETATM   32  C   UNL     1      -9.802   6.995  70.979  1.00  0.00    -0.180 C  
HETATM   33  H   UNL     1     -10.074   4.921  70.813  1.00  0.00     0.000 HD 
HETATM   34  O   UNL     1      -9.115   7.854  71.537  1.00  0.00    -0.129 OA 
HETATM   35  N   UNL     1      -9.543   5.674  71.249  1.00  0.00    -0.158 N  
BRANCH  35  36
HETATM   36  C   UNL     1      -8.475   5.410  72.185  1.00  0.00    -0.126 C  
BRANCH  36  37
HETATM   37  N   UNL     1      -8.953   4.642  73.323  1.00  0.00    -0.113 NA 
HETATM   38  C   UNL     1     -10.307   4.110  73.066  1.00  0.00    -0.171 C  
HETATM   39  C   UNL     1     -10.465   3.074  74.162  1.00  0.00    -0.236 C  
HETATM   40  C   UNL     1      -9.080   2.461  74.274  1.00  0.00    -0.085 C  
HETATM   41  C   UNL     1      -8.136   3.462  73.612  1.00  0.00    -0.074 C  
ENDBRANCH  36  37
ENDBRANCH  35  36
ENDBRANCH  19  32
BRANCH  24  42
HETATM   42  N   UNL     1      -9.227   6.686  66.735  1.00  0.00    -0.144 NA 
HETATM   43  C   UNL     1      -8.778   5.287  66.751  1.00  0.00    -0.112 C  
HETATM   44  C   UNL     1      -8.513   7.428  65.720  1.00  0.00    -0.143 C  
ENDBRANCH  24  42
TORSDOF 4
ENDMDL
MODEL       61
REMARK 921   NORMALIZED FREE ENERGY PREDICTED BY IDOCK:   -5.10 KCAL/MOL
REMARK 922        TOTAL FREE ENERGY PREDICTED BY IDOCK:   -6.87 KCAL/MOL
REMARK 923 INTER-LIGAND FREE ENERGY PREDICTED BY IDOCK:   -6.59 KCAL/MOL
REMARK 924 INTRA-LIGAND FREE ENERGY PREDICTED BY IDOCK:   -0.27 KCAL/MOL
REMARK 927      BINDING AFFINITY PREDICTED BY RF-SCORE:    0.00 PKD
ROOT
HETATM    1  C   UNL     1      -9.879  12.083  68.258  1.00  0.00    -0.204 C  
HETATM    2  C   UNL     1      -9.394  11.097  69.301  1.00  0.00     0.123 C  
HETATM    3  C   UNL     1      -8.444  10.006  68.726  1.00  0.00    -0.126 C  
HETATM    4  C   UNL     1      -9.044   9.350  67.507  1.00  0.00    -0.136 C  
HETATM    5  C   UNL     1      -8.832   7.872  67.310  1.00  0.00    -0.127 C  
HETATM    6  C   UNL     1      -9.809  10.051  66.642  1.00  0.00    -0.203 C  
HETATM    7  C   UNL     1      -7.875   7.146  68.189  1.00  0.00    -0.118 A  
HETATM    8  O   UNL     1      -9.434   7.250  66.430  1.00  0.00    -0.175 OA 
HETATM    9  O   UNL     1     -10.481   9.436  65.582  1.00  0.00    -0.127 OA 
HETATM   10  C   UNL     1     -10.301  11.490  66.896  1.00  0.00    -0.223 C  
HETATM   11  C   UNL     1      -9.843  12.705  65.917  1.00  0.00    -0.244 C  
HETATM   12  H   UNL     1     -11.018   9.930  64.974  1.00  0.00     0.000 HD 
HETATM   13  O   UNL     1     -11.721  11.289  66.880  1.00  0.00    -0.464 OA 
HETATM   14  C   UNL     1      -7.476   5.829  67.880  1.00  0.00    -0.078 A  
HETATM   15  O   UNL     1      -9.466  12.565  64.756  1.00  0.00     0.108 OA 
HETATM   16  H   UNL     1     -11.981  10.925  66.043  1.00  0.00     0.000 HD 
HETATM   17  C   UNL     1      -6.521   5.168  68.656  1.00  0.00    -0.040 A  
HETATM   18  O   UNL     1      -7.988   5.107  66.838  1.00  0.00    -0.103 OA 
HETATM   19  C   UNL     1     -10.014  14.130  66.491  1.00  0.00    -0.289 C  
HETATM   20  C   UNL     1      -9.179   8.650  70.797  1.00  0.00    -0.223 C  
HETATM   21  C   UNL     1     -11.086  14.074  67.314  1.00  0.00    -0.302 C  
HETATM   22  C   UNL     1      -5.959   5.810  69.751  1.00  0.00    -0.025 A  
HETATM   23  H   UNL     1      -7.719   4.219  66.629  1.00  0.00     0.000 HD 
HETATM   24  C   UNL     1     -10.866  13.266  68.668  1.00  0.00    -0.259 C  
HETATM   25  O   UNL     1      -7.038   9.762  70.637  1.00  0.00    -0.189 OA 
HETATM   26  C   UNL     1      -8.010   9.039  69.867  1.00  0.00    -0.103 C  
HETATM   27  O   UNL     1     -12.369  13.946  66.767  1.00  0.00    -0.422 OA 
HETATM   28  C   UNL     1      -6.392   7.088  70.102  1.00  0.00    -0.035 A  
HETATM   29  H   UNL     1      -6.773   9.171  71.333  1.00  0.00     0.000 HD 
HETATM   30  H   UNL     1     -13.122  13.907  67.344  1.00  0.00     0.000 HD 
HETATM   31  C   UNL     1      -7.375   7.763  69.347  1.00  0.00    -0.086 A  
ENDROOT
BRANCH  19  32
HETATM   32  C   UNL     1      -8.949  14.946  67.217  1.00  0.00    -0.199 C  
HETATM   33  H   UNL     1     -10.038  16.733  67.367  1.00  0.00     0.000 HD 
HETATM   34  O   UNL     1      -7.873  14.422  67.516  1.00  0.00    -0.163 OA 
HETATM   35  N   UNL     1      -9.166  16.251  67.583  1.00  0.00    -0.205 N  
BRANCH  35  36
HETATM   36  C   UNL     1      -8.090  16.903  68.293  1.00  0.00    -0.217 C  
BRANCH  36  37
HETATM   37  N   UNL     1      -7.629  18.082  67.578  1.00  0.00    -0.207 NA 
HETATM   38  C   UNL     1      -6.844  17.699  66.386  1.00  0.00    -0.262 C  
HETATM   39  C   UNL     1      -6.780  18.998  65.606  1.00  0.00    -0.316 C  
HETATM   40  C   UNL     1      -8.149  19.616  65.830  1.00  0.00    -0.242 C  
HETATM   41  C   UNL     1      -8.719  18.909  67.058  1.00  0.00    -0.294 C  
ENDBRANCH  36  37
ENDBRANCH  35  36
ENDBRANCH  19  32
BRANCH  24  42
HETATM   42  N   UNL     1     -12.178  13.045  69.314  1.00  0.00    -0.175 NA 
HETATM   43  C   UNL     1     -12.679  14.297  69.895  1.00  0.00    -0.046 C  
HETATM   44  C   UNL     1     -12.288  11.969  70.275  1.00  0.00    -0.195 C  
ENDBRANCH  24  42
TORSDOF 4
ENDMDL
MODEL       62
REMARK 921   NORMALIZED FREE ENERGY PREDICTED BY IDOCK:   -5.09 KCAL/MOL
REMARK 922        TOTAL FREE ENERGY PREDICTED BY IDOCK:   -6.86 KCAL/MOL
REMARK 923 INTER-LIGAND FREE ENERGY PREDICTED BY IDOCK:   -6.82 KCAL/MOL
REMARK 924 INTRA-LIGAND FREE ENERGY PREDICTED BY IDOCK:   -0.04 KCAL/MOL
REMARK 927      BINDING AFFINITY PREDICTED BY RF-SCORE:    0.00 PKD
ROOT
HETATM    1  C   UNL     1      -9.510  12.186  68.110  1.00  0.00    -0.205 C  
HETATM    2  C   UNL     1      -8.578  13.282  67.633  1.00  0.00    -0.196 C  
HETATM    3  C   UNL     1      -8.694  14.595  68.460  1.00  0.00    -0.176 C  
HETATM    4  C   UNL     1     -10.133  15.036  68.581  1.00  0.00    -0.233 C  
HETATM    5  C   UNL     1     -10.439  16.509  68.526  1.00  0.00    -0.302 C  
HETATM    6  C   UNL     1     -11.134  14.133  68.672  1.00  0.00    -0.262 C  
HETATM    7  C   UNL     1      -9.321  17.492  68.569  1.00  0.00    -0.286 A  
HETATM    8  O   UNL     1     -11.600  16.920  68.451  1.00  0.00    -0.011 OA 
HETATM    9  O   UNL     1     -12.478  14.514  68.652  1.00  0.00    -0.584 OA 
HETATM   10  C   UNL     1     -10.949  12.616  68.469  1.00  0.00    -0.261 C  
HETATM   11  C   UNL     1     -11.249  11.577  69.683  1.00  0.00    -0.204 C  
HETATM   12  H   UNL     1     -13.181  13.880  68.716  1.00  0.00     0.000 HD 
HETATM   13  O   UNL     1     -11.809  12.394  67.342  1.00  0.00    -0.441 OA 
HETATM   14  C   UNL     1      -9.581  18.864  68.762  1.00  0.00    -0.382 A  
HETATM   15  O   UNL     1     -11.988  11.808  70.636  1.00  0.00    -0.350 OA 
HETATM   16  H   UNL     1     -12.694  12.659  67.563  1.00  0.00     0.000 HD 
HETATM   17  C   UNL     1      -8.535  19.783  68.879  1.00  0.00    -0.144 A  
HETATM   18  O   UNL     1     -10.840  19.395  68.830  1.00  0.00    -0.228 OA 
HETATM   19  C   UNL     1     -10.627  10.170  69.530  1.00  0.00    -0.269 C  
HETATM   20  C   UNL     1      -7.704  15.700  66.346  1.00  0.00     0.306 C  
HETATM   21  C   UNL     1     -10.591   9.919  68.201  1.00  0.00    -0.227 C  
HETATM   22  C   UNL     1      -7.221  19.344  68.800  1.00  0.00    -0.390 A  
HETATM   23  H   UNL     1     -11.015  20.320  68.959  1.00  0.00     0.000 HD 
HETATM   24  C   UNL     1      -9.529  10.771  67.375  1.00  0.00    -0.154 C  
HETATM   25  O   UNL     1      -6.407  15.259  68.338  1.00  0.00    -0.097 OA 
HETATM   26  C   UNL     1      -7.710  15.659  67.890  1.00  0.00    -0.131 C  
HETATM   27  O   UNL     1     -11.785   9.663  67.516  1.00  0.00     0.054 OA 
HETATM   28  C   UNL     1      -6.954  17.999  68.547  1.00  0.00    -0.245 A  
HETATM   29  H   UNL     1      -5.807  15.908  67.990  1.00  0.00     0.000 HD 
HETATM   30  H   UNL     1     -11.760   9.488  66.583  1.00  0.00     0.000 HD 
HETATM   31  C   UNL     1      -7.997  17.059  68.399  1.00  0.00    -0.239 A  
ENDROOT
BRANCH  19  32
HETATM   32  C   UNL     1      -9.289   9.707  70.098  1.00  0.00    -0.251 C  
HETATM   33  H   UNL     1      -9.737   7.660  70.203  1.00  0.00     0.000 HD 
HETATM   34  O   UNL     1      -8.392  10.528  70.302  1.00  0.00     0.216 OA 
HETATM   35  N   UNL     1      -9.035   8.383  70.358  1.00  0.00    -0.144 N  
BRANCH  35  36
HETATM   36  C   UNL     1      -7.719   8.071  70.865  1.00  0.00    -0.084 C  
BRANCH  36  37
HETATM   37  N   UNL     1      -7.086   7.029  70.074  1.00  0.00    -0.069 NA 
HETATM   38  C   UNL     1      -8.094   6.263  69.313  1.00  0.00    -0.110 C  
HETATM   39  C   UNL     1      -7.242   5.509  68.310  1.00  0.00    -0.071 C  
HETATM   40  C   UNL     1      -6.158   6.506  67.942  1.00  0.00    -0.027 C  
HETATM   41  C   UNL     1      -6.166   7.547  69.060  1.00  0.00    -0.035 C  
ENDBRANCH  36  37
ENDBRANCH  35  36
ENDBRANCH  19  32
BRANCH  24  42
HETATM   42  N   UNL     1      -9.802  10.607  65.931  1.00  0.00    -0.230 NA 
HETATM   43  C   UNL     1      -9.076   9.445  65.402  1.00  0.00    -0.226 C  
HETATM   44  C   UNL     1      -9.606  11.753  65.070  1.00  0.00    -0.130 C  
ENDBRANCH  24  42
TORSDOF 4
ENDMDL
MODEL       63
REMARK 921   NORMALIZED FREE ENERGY PREDICTED BY IDOCK:   -5.09 KCAL/MOL
REMARK 922        TOTAL FREE ENERGY PREDICTED BY IDOCK:   -6.85 KCAL/MOL
REMARK 923 INTER-LIGAND FREE ENERGY PREDICTED BY IDOCK:   -6.06 KCAL/MOL
REMARK 924 INTRA-LIGAND FREE ENERGY PREDICTED BY IDOCK:   -0.79 KCAL/MOL
REMARK 927      BINDING AFFINITY PREDICTED BY RF-SCORE:    0.00 PKD
ROOT
HETATM    1  C   UNL     1      -8.542   9.773  68.012  1.00  0.00    -0.122 C  
HETATM    2  C   UNL     1      -9.807  10.314  67.376  1.00  0.00    -0.214 C  
HETATM    3  C   UNL     1      -9.582  11.635  66.583  1.00  0.00    -0.220 C  
HETATM    4  C   UNL     1      -8.843  12.652  67.418  1.00  0.00    -0.189 C  
HETATM    5  C   UNL     1      -9.232  14.101  67.294  1.00  0.00    -0.219 C  
HETATM    6  C   UNL     1      -7.898  12.272  68.305  1.00  0.00    -0.153 C  
HETATM    7  C   UNL     1     -10.169  14.519  66.215  1.00  0.00    -0.306 A  
HETATM    8  O   UNL     1      -8.784  14.953  68.067  1.00  0.00    -0.157 OA 
HETATM    9  O   UNL     1      -7.296  13.180  69.180  1.00  0.00    -0.285 OA 
HETATM   10  C   UNL     1      -7.620  10.806  68.695  1.00  0.00    -0.106 C  
HETATM   11  C   UNL     1      -6.175  10.128  68.386  1.00  0.00    -0.048 C  
HETATM   12  H   UNL     1      -6.632  12.913  69.804  1.00  0.00     0.000 HD 
HETATM   13  O   UNL     1      -7.908  10.849  70.100  1.00  0.00    -0.330 OA 
HETATM   14  C   UNL     1     -10.362  15.884  65.923  1.00  0.00    -0.365 A  
HETATM   15  O   UNL     1      -5.127  10.751  68.233  1.00  0.00    -0.034 OA 
HETATM   16  H   UNL     1      -7.341  11.484  70.521  1.00  0.00     0.000 HD 
HETATM   17  C   UNL     1     -11.182  16.283  64.864  1.00  0.00    -0.243 A  
HETATM   18  O   UNL     1      -9.795  16.901  66.641  1.00  0.00    -0.261 OA 
HETATM   19  C   UNL     1      -6.142   8.583  68.402  1.00  0.00    -0.050 C  
HETATM   20  C   UNL     1     -12.112  11.984  66.968  1.00  0.00     0.123 C  
HETATM   21  C   UNL     1      -7.072   8.199  69.306  1.00  0.00    -0.060 C  
HETATM   22  C   UNL     1     -11.821  15.324  64.090  1.00  0.00    -0.138 A  
HETATM   23  H   UNL     1      -9.925  17.822  66.444  1.00  0.00     0.000 HD 
HETATM   24  C   UNL     1      -8.585   8.429  68.868  1.00  0.00    -0.135 C  
HETATM   25  O   UNL     1     -11.185  11.254  64.858  1.00  0.00    -0.176 OA 
HETATM   26  C   UNL     1     -10.935  12.116  65.978  1.00  0.00    -0.293 C  
HETATM   27  O   UNL     1      -6.830   8.399  70.671  1.00  0.00    -0.036 OA 
HETATM   28  C   UNL     1     -11.687  13.974  64.409  1.00  0.00    -0.415 A  
HETATM   29  H   UNL     1     -12.010  11.547  64.490  1.00  0.00     0.000 HD 
HETATM   30  H   UNL     1      -7.483   8.129  71.306  1.00  0.00     0.000 HD 
HETATM   31  C   UNL     1     -10.885  13.551  65.492  1.00  0.00    -0.293 A  
ENDROOT
BRANCH  19  32
HETATM   32  C   UNL     1      -6.300   7.663  67.196  1.00  0.00    -0.054 C  
HETATM   33  H   UNL     1      -6.060   9.124  65.710  1.00  0.00     0.000 HD 
HETATM   34  O   UNL     1      -6.479   6.454  67.366  1.00  0.00    -0.045 OA 
HETATM   35  N   UNL     1      -6.213   8.136  65.910  1.00  0.00    -0.044 N  
BRANCH  35  36
HETATM   36  C   UNL     1      -6.349   7.157  64.857  1.00  0.00    -0.037 C  
BRANCH  36  37
HETATM   37  N   UNL     1      -6.913   7.752  63.657  1.00  0.00    -0.066 NA 
HETATM   38  C   UNL     1      -8.213   8.390  63.949  1.00  0.00    -0.104 C  
HETATM   39  C   UNL     1      -8.444   9.239  62.714  1.00  0.00    -0.211 C  
HETATM   40  C   UNL     1      -7.057   9.751  62.368  1.00  0.00    -0.117 C  
HETATM   41  C   UNL     1      -6.087   8.823  63.097  1.00  0.00    -0.086 C  
ENDBRANCH  36  37
ENDBRANCH  35  36
ENDBRANCH  19  32
BRANCH  24  42
HETATM   42  N   UNL     1      -9.461   8.240  70.044  1.00  0.00    -0.166 NA 
HETATM   43  C   UNL     1      -9.782   6.818  70.221  1.00  0.00    -0.171 C  
HETATM   44  C   UNL     1     -10.664   9.038  70.130  1.00  0.00    -0.233 C  
ENDBRANCH  24  42
TORSDOF 4
ENDMDL
MODEL       64
REMARK 921   NORMALIZED FREE ENERGY PREDICTED BY IDOCK:   -5.04 KCAL/MOL
REMARK 922        TOTAL FREE ENERGY PREDICTED BY IDOCK:   -6.80 KCAL/MOL
REMARK 923 INTER-LIGAND FREE ENERGY PREDICTED BY IDOCK:   -6.40 KCAL/MOL
REMARK 924 INTRA-LIGAND FREE ENERGY PREDICTED BY IDOCK:   -0.40 KCAL/MOL
REMARK 927      BINDING AFFINITY PREDICTED BY RF-SCORE:    0.00 PKD
ROOT
HETATM    1  C   UNL     1      -8.385   9.365  67.050  1.00  0.00    -0.127 C  
HETATM    2  C   UNL     1      -7.920   8.535  65.869  1.00  0.00    -0.105 C  
HETATM    3  C   UNL     1      -8.751   7.235  65.663  1.00  0.00    -0.092 C  
HETATM    4  C   UNL     1      -8.859   6.450  66.948  1.00  0.00    -0.119 C  
HETATM    5  C   UNL     1      -8.806   4.947  66.877  1.00  0.00    -0.106 C  
HETATM    6  C   UNL     1      -8.937   7.075  68.143  1.00  0.00    -0.127 C  
HETATM    7  C   UNL     1      -8.864   4.273  65.550  1.00  0.00    -0.124 A  
HETATM    8  O   UNL     1      -8.721   4.260  67.898  1.00  0.00    -0.101 OA 
HETATM    9  O   UNL     1      -8.906   6.371  69.349  1.00  0.00    -0.131 OA 
HETATM   10  C   UNL     1      -8.731   8.590  68.340  1.00  0.00    -0.143 C  
HETATM   11  C   UNL     1      -9.938   9.523  68.902  1.00  0.00    -0.179 C  
HETATM   12  H   UNL     1      -8.961   6.810  70.190  1.00  0.00     0.000 HD 
HETATM   13  O   UNL     1      -7.595   8.589  69.217  1.00  0.00    -0.090 OA 
HETATM   14  C   UNL     1      -9.058   2.880  65.462  1.00  0.00    -0.147 A  
HETATM   15  O   UNL     1     -10.886   9.115  69.570  1.00  0.00    -0.231 OA 
HETATM   16  H   UNL     1      -7.808   8.113  70.010  1.00  0.00     0.000 HD 
HETATM   17  C   UNL     1      -9.188   2.251  64.222  1.00  0.00    -0.124 A  
HETATM   18  O   UNL     1      -9.115   2.052  66.549  1.00  0.00    -0.218 OA 
HETATM   19  C   UNL     1      -9.788  11.040  68.648  1.00  0.00    -0.197 C  
HETATM   20  C   UNL     1      -6.650   6.410  64.408  1.00  0.00    -0.034 C  
HETATM   21  C   UNL     1      -8.458  11.291  68.662  1.00  0.00    -0.143 C  
HETATM   22  C   UNL     1      -9.121   3.003  63.057  1.00  0.00    -0.091 A  
HETATM   23  H   UNL     1      -9.246   1.113  66.490  1.00  0.00     0.000 HD 
HETATM   24  C   UNL     1      -7.645  10.730  67.414  1.00  0.00    -0.099 C  
HETATM   25  O   UNL     1      -8.653   7.162  63.282  1.00  0.00    -0.340 OA 
HETATM   26  C   UNL     1      -8.193   6.449  64.439  1.00  0.00    -0.019 C  
HETATM   27  O   UNL     1      -7.760  11.240  69.875  1.00  0.00    -0.272 OA 
HETATM   28  C   UNL     1      -8.866   4.372  63.131  1.00  0.00    -0.123 A  
HETATM   29  H   UNL     1      -8.313   6.683  62.535  1.00  0.00     0.000 HD 
HETATM   30  H   UNL     1      -6.827  11.416  69.885  1.00  0.00     0.000 HD 
HETATM   31  C   UNL     1      -8.704   5.023  64.373  1.00  0.00    -0.119 A  
ENDROOT
BRANCH  19  32
HETATM   32  C   UNL     1     -10.367  11.822  67.474  1.00  0.00    -0.196 C  
HETATM   33  H   UNL     1      -9.514  13.681  67.944  1.00  0.00     0.000 HD 
HETATM   34  O   UNL     1     -11.072  11.247  66.642  1.00  0.00    -0.289 OA 
HETATM   35  N   UNL     1     -10.095  13.156  67.291  1.00  0.00    -0.231 N  
BRANCH  35  36
HETATM   36  C   UNL     1     -10.679  13.773  66.123  1.00  0.00    -0.283 C  
BRANCH  36  37
HETATM   37  N   UNL     1     -10.582  15.221  66.192  1.00  0.00    -0.303 NA 
HETATM   38  C   UNL     1     -11.024  15.715  67.513  1.00  0.00    -0.309 C  
HETATM   39  C   UNL     1     -10.514  17.143  67.515  1.00  0.00    -0.348 C  
HETATM   40  C   UNL     1      -9.175  17.044  66.805  1.00  0.00    -0.270 C  
HETATM   41  C   UNL     1      -9.214  15.720  66.044  1.00  0.00    -0.344 C  
ENDBRANCH  36  37
ENDBRANCH  35  36
ENDBRANCH  19  32
BRANCH  24  42
HETATM   42  N   UNL     1      -6.198  10.819  67.703  1.00  0.00    -0.051 NA 
HETATM   43  C   UNL     1      -5.683  12.144  67.332  1.00  0.00    -0.135 C  
HETATM   44  C   UNL     1      -5.336   9.783  67.178  1.00  0.00    -0.042 C  
ENDBRANCH  24  42
TORSDOF 4
ENDMDL
MODEL       65
REMARK 921   NORMALIZED FREE ENERGY PREDICTED BY IDOCK:   -5.03 KCAL/MOL
REMARK 922        TOTAL FREE ENERGY PREDICTED BY IDOCK:   -6.79 KCAL/MOL
REMARK 923 INTER-LIGAND FREE ENERGY PREDICTED BY IDOCK:   -6.31 KCAL/MOL
REMARK 924 INTRA-LIGAND FREE ENERGY PREDICTED BY IDOCK:   -0.48 KCAL/MOL
REMARK 927      BINDING AFFINITY PREDICTED BY RF-SCORE:    0.00 PKD
ROOT
HETATM    1  C   UNL     1      -8.237   8.199  67.833  1.00  0.00    -0.129 C  
HETATM    2  C   UNL     1      -7.651   9.582  68.035  1.00  0.00    -0.086 C  
HETATM    3  C   UNL     1      -8.670  10.729  67.768  1.00  0.00    -0.130 C  
HETATM    4  C   UNL     1      -9.351  10.550  66.433  1.00  0.00    -0.197 C  
HETATM    5  C   UNL     1      -9.646  11.776  65.609  1.00  0.00    -0.220 C  
HETATM    6  C   UNL     1      -9.635   9.320  65.953  1.00  0.00    -0.275 C  
HETATM    7  C   UNL     1      -9.459  13.125  66.209  1.00  0.00    -0.194 A  
HETATM    8  O   UNL     1     -10.046  11.684  64.445  1.00  0.00    -0.253 OA 
HETATM    9  O   UNL     1     -10.145   9.127  64.667  1.00  0.00     0.127 OA 
HETATM   10  C   UNL     1      -9.137   8.008  66.592  1.00  0.00    -0.163 C  
HETATM   11  C   UNL     1     -10.193   6.924  67.186  1.00  0.00    -0.240 C  
HETATM   12  H   UNL     1     -10.344   8.262  64.330  1.00  0.00     0.000 HD 
HETATM   13  O   UNL     1      -8.358   7.470  65.514  1.00  0.00    -0.130 OA 
HETATM   14  C   UNL     1      -9.950  14.274  65.556  1.00  0.00    -0.312 A  
HETATM   15  O   UNL     1     -11.368   6.828  66.840  1.00  0.00    -0.318 OA 
HETATM   16  H   UNL     1      -8.911   7.353  64.752  1.00  0.00     0.000 HD 
HETATM   17  C   UNL     1      -9.845  15.535  66.148  1.00  0.00    -0.342 A  
HETATM   18  O   UNL     1     -10.535  14.252  64.320  1.00  0.00    -0.532 OA 
HETATM   19  C   UNL     1      -9.608   5.890  68.174  1.00  0.00    -0.130 C  
HETATM   20  C   UNL     1      -6.554  12.160  67.390  1.00  0.00    -0.147 C  
HETATM   21  C   UNL     1      -8.327   5.688  67.789  1.00  0.00    -0.100 C  
HETATM   22  C   UNL     1      -9.246  15.664  67.393  1.00  0.00    -0.205 A  
HETATM   23  H   UNL     1     -10.866  15.026  63.880  1.00  0.00     0.000 HD 
HETATM   24  C   UNL     1      -7.335   6.903  68.057  1.00  0.00    -0.097 C  
HETATM   25  O   UNL     1      -7.872  12.259  69.414  1.00  0.00    -0.236 OA 
HETATM   26  C   UNL     1      -7.975  12.104  67.991  1.00  0.00    -0.152 C  
HETATM   27  O   UNL     1      -8.066   4.979  66.610  1.00  0.00    -0.107 OA 
HETATM   28  C   UNL     1      -8.701  14.544  68.019  1.00  0.00    -0.167 A  
HETATM   29  H   UNL     1      -7.448  13.099  69.549  1.00  0.00     0.000 HD 
HETATM   30  H   UNL     1      -7.167   4.837  66.339  1.00  0.00     0.000 HD 
HETATM   31  C   UNL     1      -8.772  13.265  67.426  1.00  0.00    -0.206 A  
ENDROOT
BRANCH  19  32
HETATM   32  C   UNL     1      -9.594   6.000  69.695  1.00  0.00    -0.148 C  
HETATM   33  H   UNL     1     -10.367   7.945  69.831  1.00  0.00     0.000 HD 
HETATM   34  O   UNL     1      -9.210   5.045  70.376  1.00  0.00    -0.136 OA 
HETATM   35  N   UNL     1     -10.033   7.128  70.342  1.00  0.00    -0.187 N  
BRANCH  35  36
HETATM   36  C   UNL     1      -9.997   7.094  71.785  1.00  0.00    -0.175 C  
BRANCH  36  37
HETATM   37  N   UNL     1      -9.037   8.052  72.309  1.00  0.00    -0.157 NA 
HETATM   38  C   UNL     1      -8.879   7.892  73.769  1.00  0.00    -0.271 C  
HETATM   39  C   UNL     1      -7.618   8.686  74.050  1.00  0.00    -0.038 C  
HETATM   40  C   UNL     1      -6.741   8.401  72.843  1.00  0.00    -0.103 C  
HETATM   41  C   UNL     1      -7.689   7.879  71.765  1.00  0.00    -0.094 C  
ENDBRANCH  36  37
ENDBRANCH  35  36
ENDBRANCH  19  32
BRANCH  24  42
HETATM   42  N   UNL     1      -6.068   6.658  67.335  1.00  0.00    -0.027 NA 
HETATM   43  C   UNL     1      -5.197   5.770  68.116  1.00  0.00    -0.004 C  
HETATM   44  C   UNL     1      -5.321   7.805  66.866  1.00  0.00    -0.031 C  
ENDBRANCH  24  42
TORSDOF 4
ENDMDL
MODEL       66
REMARK 921   NORMALIZED FREE ENERGY PREDICTED BY IDOCK:   -5.02 KCAL/MOL
REMARK 922        TOTAL FREE ENERGY PREDICTED BY IDOCK:   -6.77 KCAL/MOL
REMARK 923 INTER-LIGAND FREE ENERGY PREDICTED BY IDOCK:   -6.22 KCAL/MOL
REMARK 924 INTRA-LIGAND FREE ENERGY PREDICTED BY IDOCK:   -0.55 KCAL/MOL
REMARK 927      BINDING AFFINITY PREDICTED BY RF-SCORE:    0.00 PKD
ROOT
HETATM    1  C   UNL     1      -7.826   8.340  66.876  1.00  0.00    -0.096 C  
HETATM    2  C   UNL     1      -6.995   9.556  67.235  1.00  0.00    -0.085 C  
HETATM    3  C   UNL     1      -7.840  10.739  67.793  1.00  0.00    -0.109 C  
HETATM    4  C   UNL     1      -9.006  11.050  66.886  1.00  0.00    -0.162 C  
HETATM    5  C   UNL     1      -9.398  12.490  66.691  1.00  0.00    -0.236 C  
HETATM    6  C   UNL     1      -9.646  10.070  66.212  1.00  0.00    -0.202 C  
HETATM    7  C   UNL     1      -8.779  13.541  67.545  1.00  0.00    -0.208 A  
HETATM    8  O   UNL     1     -10.227  12.818  65.838  1.00  0.00    -0.277 OA 
HETATM    9  O   UNL     1     -10.639  10.348  65.270  1.00  0.00    -0.191 OA 
HETATM   10  C   UNL     1      -9.155   8.610  66.138  1.00  0.00    -0.201 C  
HETATM   11  C   UNL     1     -10.056   7.403  66.749  1.00  0.00    -0.235 C  
HETATM   12  H   UNL     1     -11.090   9.659  64.796  1.00  0.00     0.000 HD 
HETATM   13  O   UNL     1      -8.954   8.472  64.724  1.00  0.00    -0.412 OA 
HETATM   14  C   UNL     1      -9.294  14.853  67.553  1.00  0.00    -0.193 A  
HETATM   15  O   UNL     1     -11.272   7.452  66.917  1.00  0.00    -0.100 OA 
HETATM   16  H   UNL     1      -9.771   8.638  64.270  1.00  0.00     0.000 HD 
HETATM   17  C   UNL     1      -8.768  15.825  68.408  1.00  0.00    -0.177 A  
HETATM   18  O   UNL     1     -10.309  15.274  66.739  1.00  0.00    -0.268 OA 
HETATM   19  C   UNL     1      -9.307   6.079  67.022  1.00  0.00    -0.128 C  
HETATM   20  C   UNL     1      -5.838  12.180  67.029  1.00  0.00    -0.093 C  
HETATM   21  C   UNL     1      -8.326   6.006  66.093  1.00  0.00    -0.126 C  
HETATM   22  C   UNL     1      -7.719  15.500  69.257  1.00  0.00    -0.223 A  
HETATM   23  H   UNL     1     -10.657  16.158  66.745  1.00  0.00     0.000 HD 
HETATM   24  C   UNL     1      -7.127   7.035  66.284  1.00  0.00    -0.074 C  
HETATM   25  O   UNL     1      -6.232  11.583  69.339  1.00  0.00    -0.073 OA 
HETATM   26  C   UNL     1      -6.903  11.939  68.121  1.00  0.00    -0.071 C  
HETATM   27  O   UNL     1      -8.661   5.752  64.757  1.00  0.00    -0.315 OA 
HETATM   28  C   UNL     1      -7.160  14.224  69.212  1.00  0.00    -0.107 A  
HETATM   29  H   UNL     1      -5.660  12.315  69.538  1.00  0.00     0.000 HD 
HETATM   30  H   UNL     1      -7.973   5.701  64.104  1.00  0.00     0.000 HD 
HETATM   31  C   UNL     1      -7.660  13.235  68.337  1.00  0.00    -0.137 A  
ENDROOT
BRANCH  19  32
HETATM   32  C   UNL     1      -8.685   5.648  68.346  1.00  0.00    -0.109 C  
HETATM   33  H   UNL     1      -9.552   7.136  69.546  1.00  0.00     0.000 HD 
HETATM   34  O   UNL     1      -7.951   4.658  68.386  1.00  0.00    -0.080 OA 
HETATM   35  N   UNL     1      -8.948   6.315  69.518  1.00  0.00    -0.134 N  
BRANCH  35  36
HETATM   36  C   UNL     1      -8.322   5.788  70.708  1.00  0.00    -0.124 C  
BRANCH  36  37
HETATM   37  N   UNL     1      -9.172   5.969  71.872  1.00  0.00    -0.151 NA 
HETATM   38  C   UNL     1      -9.009   7.325  72.436  1.00  0.00    -0.127 C  
HETATM   39  C   UNL     1     -10.201   7.438  73.366  1.00  0.00    -0.402 C  
HETATM   40  C   UNL     1     -11.309   6.720  72.615  1.00  0.00    -0.259 C  
HETATM   41  C   UNL     1     -10.601   5.859  71.571  1.00  0.00    -0.245 C  
ENDBRANCH  36  37
ENDBRANCH  35  36
ENDBRANCH  19  32
BRANCH  24  42
HETATM   42  N   UNL     1      -6.298   7.040  65.060  1.00  0.00    -0.036 NA 
HETATM   43  C   UNL     1      -5.295   5.968  65.117  1.00  0.00    -0.013 C  
HETATM   44  C   UNL     1      -5.676   8.286  64.667  1.00  0.00    -0.044 C  
ENDBRANCH  24  42
TORSDOF 4
ENDMDL
MODEL       67
REMARK 921   NORMALIZED FREE ENERGY PREDICTED BY IDOCK:   -4.90 KCAL/MOL
REMARK 922        TOTAL FREE ENERGY PREDICTED BY IDOCK:   -6.62 KCAL/MOL
REMARK 923 INTER-LIGAND FREE ENERGY PREDICTED BY IDOCK:   -6.02 KCAL/MOL
REMARK 924 INTRA-LIGAND FREE ENERGY PREDICTED BY IDOCK:   -0.60 KCAL/MOL
REMARK 927      BINDING AFFINITY PREDICTED BY RF-SCORE:    0.00 PKD
ROOT
HETATM    1  C   UNL     1      -9.589  12.439  67.666  1.00  0.00    -0.193 C  
HETATM    2  C   UNL     1      -8.703  13.568  67.179  1.00  0.00    -0.222 C  
HETATM    3  C   UNL     1      -8.654  14.779  68.156  1.00  0.00    -0.159 C  
HETATM    4  C   UNL     1     -10.044  15.224  68.541  1.00  0.00    -0.222 C  
HETATM    5  C   UNL     1     -10.306  16.698  68.699  1.00  0.00    -0.304 C  
HETATM    6  C   UNL     1     -11.048  14.332  68.680  1.00  0.00    -0.253 C  
HETATM    7  C   UNL     1      -9.164  17.653  68.683  1.00  0.00    -0.266 A  
HETATM    8  O   UNL     1     -11.452  17.132  68.845  1.00  0.00     0.189 OA 
HETATM    9  O   UNL     1     -12.367  14.733  68.906  1.00  0.00    -0.568 OA 
HETATM   10  C   UNL     1     -10.945  12.846  68.283  1.00  0.00    -0.256 C  
HETATM   11  C   UNL     1     -11.095  11.678  69.404  1.00  0.00    -0.206 C  
HETATM   12  H   UNL     1     -13.074  14.106  69.004  1.00  0.00     0.000 HD 
HETATM   13  O   UNL     1     -11.969  12.769  67.282  1.00  0.00    -0.369 OA 
HETATM   14  C   UNL     1      -9.348  18.997  69.064  1.00  0.00    -0.244 A  
HETATM   15  O   UNL     1     -11.677  11.809  70.478  1.00  0.00    -0.272 OA 
HETATM   16  H   UNL     1     -12.803  13.020  67.661  1.00  0.00     0.000 HD 
HETATM   17  C   UNL     1      -8.267  19.880  69.124  1.00  0.00     0.072 A  
HETATM   18  O   UNL     1     -10.565  19.536  69.380  1.00  0.00    -0.391 OA 
HETATM   19  C   UNL     1     -10.548  10.289  69.004  1.00  0.00    -0.247 C  
HETATM   20  C   UNL     1      -7.952  16.106  66.055  1.00  0.00     0.313 C  
HETATM   21  C   UNL     1     -10.717  10.193  67.665  1.00  0.00    -0.285 C  
HETATM   22  C   UNL     1      -6.994  19.433  68.799  1.00  0.00    -0.368 A  
HETATM   23  H   UNL     1     -10.689  20.442  69.638  1.00  0.00     0.000 HD 
HETATM   24  C   UNL     1      -9.763  11.119  66.789  1.00  0.00    -0.193 C  
HETATM   25  O   UNL     1      -6.389  15.417  67.766  1.00  0.00    -0.138 OA 
HETATM   26  C   UNL     1      -7.731  15.886  67.567  1.00  0.00    -0.159 C  
HETATM   27  O   UNL     1     -12.007  10.036  67.143  1.00  0.00     0.686 OA 
HETATM   28  C   UNL     1      -6.810  18.123  68.360  1.00  0.00    -0.231 A  
HETATM   29  H   UNL     1      -5.827  16.093  67.406  1.00  0.00     0.000 HD 
HETATM   30  H   UNL     1     -12.126   9.969  66.203  1.00  0.00     0.000 HD 
HETATM   31  C   UNL     1      -7.894  17.222  68.267  1.00  0.00    -0.244 A  
ENDROOT
BRANCH  19  32
HETATM   32  C   UNL     1      -9.156   9.744  69.307  1.00  0.00    -0.184 C  
HETATM   33  H   UNL     1      -9.069   8.347  67.744  1.00  0.00     0.000 HD 
HETATM   34  O   UNL     1      -8.507  10.209  70.247  1.00  0.00    -0.051 OA 
HETATM   35  N   UNL     1      -8.581   8.763  68.537  1.00  0.00    -0.133 N  
BRANCH  35  36
HETATM   36  C   UNL     1      -7.247   8.356  68.911  1.00  0.00    -0.078 C  
BRANCH  36  37
HETATM   37  N   UNL     1      -6.342   8.420  67.776  1.00  0.00    -0.052 NA 
HETATM   38  C   UNL     1      -6.904   7.701  66.614  1.00  0.00    -0.066 C  
HETATM   39  C   UNL     1      -6.027   8.184  65.476  1.00  0.00    -0.045 C  
HETATM   40  C   UNL     1      -5.780   9.644  65.811  1.00  0.00    -0.050 C  
HETATM   41  C   UNL     1      -6.108   9.783  67.296  1.00  0.00    -0.055 C  
ENDBRANCH  36  37
ENDBRANCH  35  36
ENDBRANCH  19  32
BRANCH  24  42
HETATM   42  N   UNL     1     -10.251  11.127  65.393  1.00  0.00    -0.259 NA 
HETATM   43  C   UNL     1      -9.717   9.973  64.657  1.00  0.00    -0.269 C  
HETATM   44  C   UNL     1     -10.076  12.337  64.620  1.00  0.00    -0.250 C  
ENDBRANCH  24  42
TORSDOF 4
ENDMDL
MODEL       68
REMARK 921   NORMALIZED FREE ENERGY PREDICTED BY IDOCK:   -4.85 KCAL/MOL
REMARK 922        TOTAL FREE ENERGY PREDICTED BY IDOCK:   -6.57 KCAL/MOL
REMARK 923 INTER-LIGAND FREE ENERGY PREDICTED BY IDOCK:   -6.52 KCAL/MOL
REMARK 924 INTRA-LIGAND FREE ENERGY PREDICTED BY IDOCK:   -0.04 KCAL/MOL
REMARK 927      BINDING AFFINITY PREDICTED BY RF-SCORE:    0.00 PKD
ROOT
HETATM    1  C   UNL     1      -8.749  10.036  68.470  1.00  0.00    -0.123 C  
HETATM    2  C   UNL     1      -9.754   9.607  69.520  1.00  0.00    -0.216 C  
HETATM    3  C   UNL     1      -9.321   8.335  70.307  1.00  0.00    -0.159 C  
HETATM    4  C   UNL     1      -8.918   7.225  69.366  1.00  0.00    -0.139 C  
HETATM    5  C   UNL     1      -9.284   5.810  69.729  1.00  0.00    -0.140 C  
HETATM    6  C   UNL     1      -8.300   7.493  68.196  1.00  0.00    -0.125 C  
HETATM    7  C   UNL     1      -9.834   5.518  71.081  1.00  0.00    -0.235 A  
HETATM    8  O   UNL     1      -9.132   4.884  68.927  1.00  0.00    -0.103 OA 
HETATM    9  O   UNL     1      -8.037   6.495  67.254  1.00  0.00    -0.111 OA 
HETATM   10  C   UNL     1      -8.124   8.911  67.617  1.00  0.00    -0.106 C  
HETATM   11  C   UNL     1      -6.639   9.533  67.391  1.00  0.00    -0.070 C  
HETATM   12  H   UNL     1      -7.602   6.683  66.430  1.00  0.00     0.000 HD 
HETATM   13  O   UNL     1      -8.851   8.784  66.386  1.00  0.00    -0.133 OA 
HETATM   14  C   UNL     1      -9.958   4.189  71.532  1.00  0.00    -0.160 A  
HETATM   15  O   UNL     1      -5.615   8.869  67.252  1.00  0.00    -0.037 OA 
HETATM   16  H   UNL     1      -8.467   8.093  65.861  1.00  0.00     0.000 HD 
HETATM   17  C   UNL     1     -10.403   3.909  72.827  1.00  0.00    -0.237 A  
HETATM   18  O   UNL     1      -9.681   3.096  70.758  1.00  0.00    -0.171 OA 
HETATM   19  C   UNL     1      -6.572  11.069  67.236  1.00  0.00    -0.078 C  
HETATM   20  C   UNL     1     -11.848   8.091  70.780  1.00  0.00    -0.171 C  
HETATM   21  C   UNL     1      -7.734  11.437  66.648  1.00  0.00    -0.129 C  
HETATM   22  C   UNL     1     -10.732   4.952  73.682  1.00  0.00    -0.352 A  
HETATM   23  H   UNL     1      -9.764   2.200  71.062  1.00  0.00     0.000 HD 
HETATM   24  C   UNL     1      -9.030  11.317  67.564  1.00  0.00    -0.140 C  
HETATM   25  O   UNL     1     -10.272   8.919  72.415  1.00  0.00    -0.251 OA 
HETATM   26  C   UNL     1     -10.419   7.969  71.349  1.00  0.00    -0.215 C  
HETATM   27  O   UNL     1      -7.950  11.129  65.299  1.00  0.00    -0.363 OA 
HETATM   28  C   UNL     1     -10.673   6.267  73.226  1.00  0.00    -0.284 A  
HETATM   29  H   UNL     1     -10.941   8.696  73.050  1.00  0.00     0.000 HD 
HETATM   30  H   UNL     1      -8.766  11.386  64.886  1.00  0.00     0.000 HD 
HETATM   31  C   UNL     1     -10.252   6.570  71.912  1.00  0.00    -0.214 A  
ENDROOT
BRANCH  19  32
HETATM   32  C   UNL     1      -6.309  12.079  68.348  1.00  0.00    -0.053 C  
HETATM   33  H   UNL     1      -7.007  13.780  67.337  1.00  0.00     0.000 HD 
HETATM   34  O   UNL     1      -5.840  11.699  69.424  1.00  0.00    -0.059 OA 
HETATM   35  N   UNL     1      -6.613  13.410  68.202  1.00  0.00    -0.102 N  
BRANCH  35  36
HETATM   36  C   UNL     1      -6.343  14.257  69.340  1.00  0.00    -0.120 C  
BRANCH  36  37
HETATM   37  N   UNL     1      -7.254  15.389  69.379  1.00  0.00    -0.188 NA 
HETATM   38  C   UNL     1      -6.613  16.598  68.821  1.00  0.00    -0.169 C  
HETATM   39  C   UNL     1      -7.794  17.526  68.612  1.00  0.00    -0.272 C  
HETATM   40  C   UNL     1      -8.902  16.595  68.150  1.00  0.00    -0.206 C  
HETATM   41  C   UNL     1      -8.457  15.195  68.568  1.00  0.00    -0.160 C  
ENDBRANCH  36  37
ENDBRANCH  35  36
ENDBRANCH  19  32
BRANCH  24  42
HETATM   42  N   UNL     1     -10.233  11.467  66.717  1.00  0.00    -0.214 NA 
HETATM   43  C   UNL     1     -10.108  12.650  65.856  1.00  0.00    -0.264 C  
HETATM   44  C   UNL     1     -11.525  11.456  67.367  1.00  0.00    -0.251 C  
ENDBRANCH  24  42
TORSDOF 4
ENDMDL
MODEL       69
REMARK 921   NORMALIZED FREE ENERGY PREDICTED BY IDOCK:   -4.64 KCAL/MOL
REMARK 922        TOTAL FREE ENERGY PREDICTED BY IDOCK:   -6.30 KCAL/MOL
REMARK 923 INTER-LIGAND FREE ENERGY PREDICTED BY IDOCK:   -5.93 KCAL/MOL
REMARK 924 INTRA-LIGAND FREE ENERGY PREDICTED BY IDOCK:   -0.37 KCAL/MOL
REMARK 927      BINDING AFFINITY PREDICTED BY RF-SCORE:    0.00 PKD
ROOT
HETATM    1  C   UNL     1      -8.741   7.464  68.001  1.00  0.00    -0.124 C  
HETATM    2  C   UNL     1      -7.665   8.502  67.750  1.00  0.00    -0.103 C  
HETATM    3  C   UNL     1      -7.914   9.844  68.498  1.00  0.00    -0.086 C  
HETATM    4  C   UNL     1      -9.314  10.353  68.248  1.00  0.00    -0.150 C  
HETATM    5  C   UNL     1      -9.520  11.836  68.092  1.00  0.00    -0.193 C  
HETATM    6  C   UNL     1     -10.351   9.500  68.105  1.00  0.00    -0.208 C  
HETATM    7  C   UNL     1      -8.399  12.768  68.393  1.00  0.00    -0.119 A  
HETATM    8  O   UNL     1     -10.604  12.296  67.722  1.00  0.00    -0.211 OA 
HETATM    9  O   UNL     1     -11.627   9.940  67.744  1.00  0.00    -0.542 OA 
HETATM   10  C   UNL     1     -10.200   7.970  67.982  1.00  0.00    -0.210 C  
HETATM   11  C   UNL     1     -10.844   6.984  69.103  1.00  0.00    -0.195 C  
HETATM   12  H   UNL     1     -12.356   9.340  67.643  1.00  0.00     0.000 HD 
HETATM   13  O   UNL     1     -10.765   7.753  66.682  1.00  0.00    -0.443 OA 
HETATM   14  C   UNL     1      -8.628  14.156  68.489  1.00  0.00    -0.163 A  
HETATM   15  O   UNL     1     -11.783   7.277  69.838  1.00  0.00    -0.071 OA 
HETATM   16  H   UNL     1     -11.662   8.064  66.670  1.00  0.00     0.000 HD 
HETATM   17  C   UNL     1      -7.597  15.030  68.845  1.00  0.00    -0.144 A  
HETATM   18  O   UNL     1      -9.835  14.745  68.232  1.00  0.00    -0.211 OA 
HETATM   19  C   UNL     1     -10.277   5.546  69.137  1.00  0.00    -0.309 C  
HETATM   20  C   UNL     1      -6.377  10.837  66.676  1.00  0.00    -0.103 C  
HETATM   21  C   UNL     1      -9.926   5.253  67.863  1.00  0.00    -0.160 C  
HETATM   22  C   UNL     1      -6.329  14.529  69.104  1.00  0.00    -0.100 A  
HETATM   23  H   UNL     1      -9.989  15.681  68.296  1.00  0.00     0.000 HD 
HETATM   24  C   UNL     1      -8.651   6.030  67.311  1.00  0.00    -0.106 C  
HETATM   25  O   UNL     1      -5.637  10.399  68.936  1.00  0.00    -0.042 OA 
HETATM   26  C   UNL     1      -6.766  10.844  68.170  1.00  0.00    -0.063 C  
HETATM   27  O   UNL     1     -10.925   5.030  66.908  1.00  0.00    -0.269 OA 
HETATM   28  C   UNL     1      -6.077  13.167  68.951  1.00  0.00    -0.083 A  
HETATM   29  H   UNL     1      -4.937  11.010  68.735  1.00  0.00     0.000 HD 
HETATM   30  H   UNL     1     -10.679   4.825  66.013  1.00  0.00     0.000 HD 
HETATM   31  C   UNL     1      -7.098  12.270  68.566  1.00  0.00    -0.099 A  
ENDROOT
BRANCH  19  32
HETATM   32  C   UNL     1      -9.147   5.041  70.028  1.00  0.00    -0.123 C  
HETATM   33  H   UNL     1      -9.071   6.688  71.325  1.00  0.00     0.000 HD 
HETATM   34  O   UNL     1      -8.644   3.935  69.813  1.00  0.00    -0.062 OA 
HETATM   35  N   UNL     1      -8.689   5.771  71.097  1.00  0.00    -0.134 N  
BRANCH  35  36
HETATM   36  C   UNL     1      -7.636   5.167  71.880  1.00  0.00    -0.096 C  
BRANCH  36  37
HETATM   37  N   UNL     1      -8.145   4.667  73.146  1.00  0.00    -0.099 NA 
HETATM   38  C   UNL     1      -9.490   5.213  73.424  1.00  0.00    -0.137 C  
HETATM   39  C   UNL     1      -9.980   4.320  74.547  1.00  0.00    -0.221 C  
HETATM   40  C   UNL     1      -9.439   2.950  74.174  1.00  0.00    -0.109 C  
HETATM   41  C   UNL     1      -8.319   3.214  73.170  1.00  0.00    -0.080 C  
ENDBRANCH  36  37
ENDBRANCH  35  36
ENDBRANCH  19  32
BRANCH  24  42
HETATM   42  N   UNL     1      -8.565   5.834  65.848  1.00  0.00    -0.141 NA 
HETATM   43  C   UNL     1      -7.893   4.565  65.540  1.00  0.00    -0.094 C  
HETATM   44  C   UNL     1      -8.003   6.903  65.052  1.00  0.00    -0.125 C  
ENDBRANCH  24  42
TORSDOF 4
ENDMDL
MODEL       70
REMARK 921   NORMALIZED FREE ENERGY PREDICTED BY IDOCK:   -4.64 KCAL/MOL
REMARK 922        TOTAL FREE ENERGY PREDICTED BY IDOCK:   -6.30 KCAL/MOL
REMARK 923 INTER-LIGAND FREE ENERGY PREDICTED BY IDOCK:   -6.60 KCAL/MOL
REMARK 924 INTRA-LIGAND FREE ENERGY PREDICTED BY IDOCK:    0.30 KCAL/MOL
REMARK 927      BINDING AFFINITY PREDICTED BY RF-SCORE:    0.00 PKD
ROOT
HETATM    1  C   UNL     1      -8.282   9.125  67.668  1.00  0.00    -0.108 C  
HETATM    2  C   UNL     1      -8.866   8.198  68.716  1.00  0.00    -0.138 C  
HETATM    3  C   UNL     1     -10.360   8.494  69.039  1.00  0.00    -0.229 C  
HETATM    4  C   UNL     1     -10.572   9.958  69.340  1.00  0.00    -0.250 C  
HETATM    5  C   UNL     1     -11.555  10.332  70.418  1.00  0.00    -0.328 C  
HETATM    6  C   UNL     1      -9.855  10.911  68.708  1.00  0.00    -0.196 C  
HETATM    7  C   UNL     1     -12.437   9.285  71.003  1.00  0.00    -0.276 A  
HETATM    8  O   UNL     1     -11.647  11.494  70.824  1.00  0.00    -0.076 OA 
HETATM    9  O   UNL     1      -9.941  12.260  69.064  1.00  0.00    -0.421 OA 
HETATM   10  C   UNL     1      -8.649  10.620  67.792  1.00  0.00    -0.123 C  
HETATM   11  C   UNL     1      -8.692  11.021  66.217  1.00  0.00    -0.176 C  
HETATM   12  H   UNL     1      -9.436  12.930  68.620  1.00  0.00     0.000 HD 
HETATM   13  O   UNL     1      -7.609  11.311  68.498  1.00  0.00    -0.107 OA 
HETATM   14  C   UNL     1     -13.520   9.642  71.830  1.00  0.00    -0.413 A  
HETATM   15  O   UNL     1      -9.412  11.891  65.735  1.00  0.00    -0.236 OA 
HETATM   16  H   UNL     1      -7.835  12.230  68.575  1.00  0.00     0.000 HD 
HETATM   17  C   UNL     1     -14.397   8.672  72.322  1.00  0.00    -0.486 A  
HETATM   18  O   UNL     1     -13.785  10.925  72.223  1.00  0.00    -0.455 OA 
HETATM   19  C   UNL     1      -7.657  10.309  65.316  1.00  0.00    -0.143 C  
HETATM   20  C   UNL     1      -9.841   7.295  71.266  1.00  0.00    -0.183 C  
HETATM   21  C   UNL     1      -6.574  10.085  66.096  1.00  0.00    -0.088 C  
HETATM   22  C   UNL     1     -14.199   7.337  71.998  1.00  0.00    -0.370 A  
HETATM   23  H   UNL     1     -14.516  11.166  72.780  1.00  0.00     0.000 HD 
HETATM   24  C   UNL     1      -6.761   8.971  67.218  1.00  0.00    -0.069 C  
HETATM   25  O   UNL     1     -11.052   6.249  69.453  1.00  0.00    -0.342 OA 
HETATM   26  C   UNL     1     -10.864   7.502  70.128  1.00  0.00    -0.249 C  
HETATM   27  O   UNL     1      -5.767  11.162  66.480  1.00  0.00    -0.101 OA 
HETATM   28  C   UNL     1     -13.094   6.966  71.233  1.00  0.00    -0.273 A  
HETATM   29  H   UNL     1     -11.359   5.644  70.118  1.00  0.00     0.000 HD 
HETATM   30  H   UNL     1      -5.007  11.005  67.028  1.00  0.00     0.000 HD 
HETATM   31  C   UNL     1     -12.181   7.928  70.749  1.00  0.00    -0.049 A  
ENDROOT
BRANCH  19  32
HETATM   32  C   UNL     1      -7.885   9.035  64.509  1.00  0.00    -0.123 C  
HETATM   33  H   UNL     1      -5.996   8.178  64.822  1.00  0.00     0.000 HD 
HETATM   34  O   UNL     1      -8.977   8.838  63.970  1.00  0.00     0.029 OA 
HETATM   35  N   UNL     1      -6.914   8.071  64.392  1.00  0.00    -0.070 N  
BRANCH  35  36
HETATM   36  C   UNL     1      -7.267   6.897  63.627  1.00  0.00    -0.067 C  
BRANCH  36  37
HETATM   37  N   UNL     1      -7.326   5.718  64.474  1.00  0.00    -0.065 NA 
HETATM   38  C   UNL     1      -6.120   5.619  65.322  1.00  0.00    -0.026 C  
HETATM   39  C   UNL     1      -6.528   4.583  66.351  1.00  0.00    -0.041 C  
HETATM   40  C   UNL     1      -7.992   4.895  66.609  1.00  0.00    -0.103 C  
HETATM   41  C   UNL     1      -8.446   5.735  65.417  1.00  0.00    -0.151 C  
ENDBRANCH  36  37
ENDBRANCH  35  36
ENDBRANCH  19  32
BRANCH  24  42
HETATM   42  N   UNL     1      -5.622   9.041  68.158  1.00  0.00    -0.038 NA 
HETATM   43  C   UNL     1      -5.137   7.691  68.475  1.00  0.00    -0.025 C  
HETATM   44  C   UNL     1      -5.791   9.809  69.372  1.00  0.00    -0.033 C  
ENDBRANCH  24  42
TORSDOF 4
ENDMDL
MODEL       71
REMARK 921   NORMALIZED FREE ENERGY PREDICTED BY IDOCK:   -4.52 KCAL/MOL
REMARK 922        TOTAL FREE ENERGY PREDICTED BY IDOCK:   -6.15 KCAL/MOL
REMARK 923 INTER-LIGAND FREE ENERGY PREDICTED BY IDOCK:   -8.08 KCAL/MOL
REMARK 924 INTRA-LIGAND FREE ENERGY PREDICTED BY IDOCK:    1.92 KCAL/MOL
REMARK 927      BINDING AFFINITY PREDICTED BY RF-SCORE:    0.00 PKD
ROOT
HETATM    1  C   UNL     1     -10.267  10.461  67.054  1.00  0.00    -0.277 C  
HETATM    2  C   UNL     1     -10.659   8.997  67.025  1.00  0.00    -0.270 C  
HETATM    3  C   UNL     1      -9.748   8.096  67.909  1.00  0.00    -0.191 C  
HETATM    4  C   UNL     1      -8.289   8.337  67.607  1.00  0.00    -0.127 C  
HETATM    5  C   UNL     1      -7.351   7.159  67.619  1.00  0.00    -0.093 C  
HETATM    6  C   UNL     1      -7.839   9.565  67.272  1.00  0.00    -0.098 C  
HETATM    7  C   UNL     1      -7.831   5.844  68.126  1.00  0.00    -0.105 A  
HETATM    8  O   UNL     1      -6.188   7.262  67.219  1.00  0.00    -0.048 OA 
HETATM    9  O   UNL     1      -6.521   9.784  66.863  1.00  0.00    -0.065 OA 
HETATM   10  C   UNL     1      -8.756  10.769  66.975  1.00  0.00    -0.136 C  
HETATM   11  C   UNL     1      -8.700  12.100  67.906  1.00  0.00    -0.176 C  
HETATM   12  H   UNL     1      -6.205  10.648  66.627  1.00  0.00     0.000 HD 
HETATM   13  O   UNL     1      -8.394  11.045  65.614  1.00  0.00    -0.274 OA 
HETATM   14  C   UNL     1      -6.921   4.796  68.373  1.00  0.00    -0.056 A  
HETATM   15  O   UNL     1      -7.737  12.437  68.590  1.00  0.00    -0.118 OA 
HETATM   16  H   UNL     1      -7.465  11.234  65.566  1.00  0.00     0.000 HD 
HETATM   17  C   UNL     1      -7.353   3.585  68.921  1.00  0.00    -0.050 A  
HETATM   18  O   UNL     1      -5.585   4.869  68.090  1.00  0.00    -0.014 OA 
HETATM   19  C   UNL     1      -9.925  13.038  67.810  1.00  0.00    -0.227 C  
HETATM   20  C   UNL     1     -10.573   6.201  66.360  1.00  0.00    -0.107 C  
HETATM   21  C   UNL     1     -10.388  12.919  66.544  1.00  0.00    -0.264 C  
HETATM   22  C   UNL     1      -8.696   3.406  69.221  1.00  0.00    -0.129 A  
HETATM   23  H   UNL     1      -4.971   4.163  68.257  1.00  0.00     0.000 HD 
HETATM   24  C   UNL     1     -11.087  11.530  66.202  1.00  0.00    -0.244 C  
HETATM   25  O   UNL     1     -11.413   6.536  68.603  1.00  0.00    -0.580 OA 
HETATM   26  C   UNL     1     -10.222   6.616  67.805  1.00  0.00    -0.170 C  
HETATM   27  O   UNL     1      -9.654  13.471  65.487  1.00  0.00    -0.499 OA 
HETATM   28  C   UNL     1      -9.613   4.411  68.923  1.00  0.00    -0.233 A  
HETATM   29  H   UNL     1     -11.702   5.633  68.539  1.00  0.00     0.000 HD 
HETATM   30  H   UNL     1      -9.979  13.387  64.599  1.00  0.00     0.000 HD 
HETATM   31  C   UNL     1      -9.202   5.632  68.345  1.00  0.00    -0.125 A  
ENDROOT
BRANCH  19  32
HETATM   32  C   UNL     1     -11.146  13.027  68.723  1.00  0.00    -0.270 C  
HETATM   33  H   UNL     1     -10.678  11.273  69.776  1.00  0.00     0.000 HD 
HETATM   34  O   UNL     1     -11.977  13.936  68.648  1.00  0.00    -0.353 OA 
HETATM   35  N   UNL     1     -11.335  12.045  69.664  1.00  0.00    -0.221 N  
BRANCH  35  36
HETATM   36  C   UNL     1     -12.516  12.167  70.488  1.00  0.00    -0.198 C  
BRANCH  36  37
HETATM   37  N   UNL     1     -12.543  11.143  71.519  1.00  0.00    -0.353 NA 
HETATM   38  C   UNL     1     -13.874  10.505  71.590  1.00  0.00     0.279 C  
HETATM   39  C   UNL     1     -13.599   9.268  72.423  1.00  0.00    -0.527 C  
HETATM   40  C   UNL     1     -12.224   8.823  71.957  1.00  0.00    -0.447 C  
HETATM   41  C   UNL     1     -11.612  10.042  71.270  1.00  0.00    -0.350 C  
ENDBRANCH  36  37
ENDBRANCH  35  36
ENDBRANCH  19  32
BRANCH  24  42
HETATM   42  N   UNL     1     -11.275  11.434  64.738  1.00  0.00    -0.189 NA 
HETATM   43  C   UNL     1     -10.147  10.722  64.124  1.00  0.00    -0.353 C  
HETATM   44  C   UNL     1     -11.554  12.652  64.009  1.00  0.00    -0.418 C  
ENDBRANCH  24  42
TORSDOF 4
ENDMDL
MODEL       72
REMARK 921   NORMALIZED FREE ENERGY PREDICTED BY IDOCK:   -4.44 KCAL/MOL
REMARK 922        TOTAL FREE ENERGY PREDICTED BY IDOCK:   -6.06 KCAL/MOL
REMARK 923 INTER-LIGAND FREE ENERGY PREDICTED BY IDOCK:   -6.70 KCAL/MOL
REMARK 924 INTRA-LIGAND FREE ENERGY PREDICTED BY IDOCK:    0.64 KCAL/MOL
REMARK 927      BINDING AFFINITY PREDICTED BY RF-SCORE:    0.00 PKD
ROOT
HETATM    1  C   UNL     1      -9.339   7.802  69.463  1.00  0.00    -0.149 C  
HETATM    2  C   UNL     1      -8.697   7.597  68.106  1.00  0.00    -0.122 C  
HETATM    3  C   UNL     1      -9.412   6.520  67.240  1.00  0.00    -0.140 C  
HETATM    4  C   UNL     1      -9.607   5.240  68.016  1.00  0.00    -0.163 C  
HETATM    5  C   UNL     1      -9.448   3.930  67.290  1.00  0.00    -0.199 C  
HETATM    6  C   UNL     1      -9.854   5.259  69.343  1.00  0.00    -0.195 C  
HETATM    7  C   UNL     1      -9.317   3.925  65.807  1.00  0.00    -0.162 A  
HETATM    8  O   UNL     1      -9.428   2.858  67.900  1.00  0.00    -0.210 OA 
HETATM    9  O   UNL     1      -9.907   4.088  70.103  1.00  0.00    -0.210 OA 
HETATM   10  C   UNL     1      -9.771   6.526  70.219  1.00  0.00    -0.168 C  
HETATM   11  C   UNL     1     -11.091   7.093  70.980  1.00  0.00    -0.260 C  
HETATM   12  H   UNL     1     -10.081   4.102  71.037  1.00  0.00     0.000 HD 
HETATM   13  O   UNL     1      -8.739   6.142  71.139  1.00  0.00    -0.131 OA 
HETATM   14  C   UNL     1      -9.408   2.719  65.084  1.00  0.00    -0.111 A  
HETATM   15  O   UNL     1     -12.075   6.419  71.272  1.00  0.00    -0.310 OA 
HETATM   16  H   UNL     1      -9.004   5.358  71.603  1.00  0.00     0.000 HD 
HETATM   17  C   UNL     1      -9.362   2.714  63.687  1.00  0.00    -0.102 A  
HETATM   18  O   UNL     1      -9.528   1.490  65.671  1.00  0.00    -0.321 OA 
HETATM   19  C   UNL     1     -11.014   8.563  71.450  1.00  0.00    -0.329 C  
HETATM   20  C   UNL     1      -7.139   6.370  66.024  1.00  0.00    -0.067 C  
HETATM   21  C   UNL     1      -9.713   8.795  71.741  1.00  0.00    -0.310 C  
HETATM   22  C   UNL     1      -9.219   3.911  62.999  1.00  0.00    -0.113 A  
HETATM   23  H   UNL     1      -9.590   0.676  65.184  1.00  0.00     0.000 HD 
HETATM   24  C   UNL     1      -8.735   8.864  70.487  1.00  0.00    -0.186 C  
HETATM   25  O   UNL     1      -9.054   7.528  65.109  1.00  0.00    -0.347 OA 
HETATM   26  C   UNL     1      -8.676   6.375  65.876  1.00  0.00    -0.145 C  
HETATM   27  O   UNL     1      -9.148   8.212  72.882  1.00  0.00    -0.221 OA 
HETATM   28  C   UNL     1      -9.065   5.102  63.705  1.00  0.00     0.184 A  
HETATM   29  H   UNL     1      -8.604   7.439  64.276  1.00  0.00     0.000 HD 
HETATM   30  H   UNL     1      -8.235   8.374  73.087  1.00  0.00     0.000 HD 
HETATM   31  C   UNL     1      -9.082   5.126  65.117  1.00  0.00    -0.101 A  
ENDROOT
BRANCH  19  32
HETATM   32  C   UNL     1     -11.513   9.785  70.684  1.00  0.00    -0.324 C  
HETATM   33  H   UNL     1     -11.738  11.061  72.334  1.00  0.00     0.000 HD 
HETATM   34  O   UNL     1     -11.622   9.736  69.456  1.00  0.00    -0.090 OA 
HETATM   35  N   UNL     1     -11.815  10.962  71.322  1.00  0.00    -0.129 N  
BRANCH  35  36
HETATM   36  C   UNL     1     -12.248  12.053  70.479  1.00  0.00    -0.325 C  
BRANCH  36  37
HETATM   37  N   UNL     1     -13.119  12.963  71.205  1.00  0.00    -0.232 NA 
HETATM   38  C   UNL     1     -12.537  13.311  72.518  1.00  0.00     0.292 C  
HETATM   39  C   UNL     1     -13.372  14.505  72.939  1.00  0.00    -0.579 C  
HETATM   40  C   UNL     1     -13.599  15.256  71.638  1.00  0.00    -0.586 C  
HETATM   41  C   UNL     1     -13.312  14.246  70.529  1.00  0.00     0.108 C  
ENDBRANCH  36  37
ENDBRANCH  35  36
ENDBRANCH  19  32
BRANCH  24  42
HETATM   42  N   UNL     1      -7.337   8.829  70.966  1.00  0.00    -0.082 NA 
HETATM   43  C   UNL     1      -6.602  10.008  70.487  1.00  0.00    -0.122 C  
HETATM   44  C   UNL     1      -6.567   7.629  70.725  1.00  0.00    -0.038 C  
ENDBRANCH  24  42
TORSDOF 4
ENDMDL
MODEL       73
REMARK 921   NORMALIZED FREE ENERGY PREDICTED BY IDOCK:   -4.38 KCAL/MOL
REMARK 922        TOTAL FREE ENERGY PREDICTED BY IDOCK:   -5.98 KCAL/MOL
REMARK 923 INTER-LIGAND FREE ENERGY PREDICTED BY IDOCK:   -5.68 KCAL/MOL
REMARK 924 INTRA-LIGAND FREE ENERGY PREDICTED BY IDOCK:   -0.31 KCAL/MOL
REMARK 927      BINDING AFFINITY PREDICTED BY RF-SCORE:    0.00 PKD
ROOT
HETATM    1  C   UNL     1      -8.814   6.299  70.097  1.00  0.00    -0.149 C  
HETATM    2  C   UNL     1      -8.466   6.681  68.672  1.00  0.00    -0.122 C  
HETATM    3  C   UNL     1      -8.832   5.582  67.631  1.00  0.00    -0.105 C  
HETATM    4  C   UNL     1      -8.286   4.237  68.047  1.00  0.00    -0.097 C  
HETATM    5  C   UNL     1      -7.754   3.318  66.980  1.00  0.00    -0.079 C  
HETATM    6  C   UNL     1      -8.215   3.885  69.349  1.00  0.00    -0.057 C  
HETATM    7  C   UNL     1      -7.968   3.657  65.546  1.00  0.00    -0.093 A  
HETATM    8  O   UNL     1      -7.146   2.284  67.270  1.00  0.00    -0.046 OA 
HETATM    9  O   UNL     1      -7.595   2.704  69.764  1.00  0.00    -0.044 OA 
HETATM   10  C   UNL     1      -8.483   4.852  70.520  1.00  0.00    -0.097 C  
HETATM   11  C   UNL     1      -9.712   4.582  71.550  1.00  0.00    -0.175 C  
HETATM   12  H   UNL     1      -7.545   2.456  70.679  1.00  0.00     0.000 HD 
HETATM   13  O   UNL     1      -7.209   4.825  71.180  1.00  0.00    -0.049 OA 
HETATM   14  C   UNL     1      -7.699   2.710  64.538  1.00  0.00    -0.077 A  
HETATM   15  O   UNL     1     -10.226   3.485  71.756  1.00  0.00    -0.120 OA 
HETATM   16  H   UNL     1      -7.006   3.935  71.441  1.00  0.00     0.000 HD 
HETATM   17  C   UNL     1      -7.968   2.993  63.197  1.00  0.00    -0.069 A  
HETATM   18  O   UNL     1      -7.152   1.480  64.779  1.00  0.00    -0.044 OA 
HETATM   19  C   UNL     1     -10.163   5.799  72.390  1.00  0.00    -0.224 C  
HETATM   20  C   UNL     1      -7.044   6.743  66.173  1.00  0.00    -0.066 C  
HETATM   21  C   UNL     1      -9.054   6.549  72.585  1.00  0.00    -0.131 C  
HETATM   22  C   UNL     1      -8.504   4.225  62.847  1.00  0.00    -0.096 A  
HETATM   23  H   UNL     1      -6.970   0.841  64.100  1.00  0.00     0.000 HD 
HETATM   24  C   UNL     1      -8.505   7.304  71.296  1.00  0.00    -0.115 C  
HETATM   25  O   UNL     1      -9.420   7.026  65.827  1.00  0.00    -0.391 OA 
HETATM   26  C   UNL     1      -8.428   6.060  66.205  1.00  0.00    -0.130 C  
HETATM   27  O   UNL     1      -8.056   6.090  73.454  1.00  0.00    -0.110 OA 
HETATM   28  C   UNL     1      -8.715   5.192  63.829  1.00  0.00    -0.038 A  
HETATM   29  H   UNL     1      -9.174   7.318  64.957  1.00  0.00     0.000 HD 
HETATM   30  H   UNL     1      -7.278   6.617  73.591  1.00  0.00     0.000 HD 
HETATM   31  C   UNL     1      -8.425   4.936  65.187  1.00  0.00    -0.139 A  
ENDROOT
BRANCH  19  32
HETATM   32  C   UNL     1     -11.289   6.768  72.045  1.00  0.00    -0.272 C  
HETATM   33  H   UNL     1     -10.851   8.216  73.499  1.00  0.00     0.000 HD 
HETATM   34  O   UNL     1     -12.056   6.511  71.114  1.00  0.00    -0.350 OA 
HETATM   35  N   UNL     1     -11.458   7.949  72.724  1.00  0.00    -0.399 N  
BRANCH  35  36
HETATM   36  C   UNL     1     -12.544   8.793  72.281  1.00  0.00    -0.394 C  
BRANCH  36  37
HETATM   37  N   UNL     1     -12.052  10.078  71.815  1.00  0.00    -0.327 NA 
HETATM   38  C   UNL     1     -11.592   9.988  70.414  1.00  0.00    -0.302 C  
HETATM   39  C   UNL     1     -11.476  11.446  70.013  1.00  0.00    -0.331 C  
HETATM   40  C   UNL     1     -12.656  12.101  70.710  1.00  0.00    -0.305 C  
HETATM   41  C   UNL     1     -13.076  11.124  71.806  1.00  0.00    -0.431 C  
ENDBRANCH  36  37
ENDBRANCH  35  36
ENDBRANCH  19  32
BRANCH  24  42
HETATM   42  N   UNL     1      -7.156   7.833  71.587  1.00  0.00    -0.062 NA 
HETATM   43  C   UNL     1      -7.219   9.276  71.856  1.00  0.00     0.395 C  
HETATM   44  C   UNL     1      -6.096   7.547  70.644  1.00  0.00    -0.034 C  
ENDBRANCH  24  42
TORSDOF 4
ENDMDL
MODEL       74
REMARK 921   NORMALIZED FREE ENERGY PREDICTED BY IDOCK:   -4.23 KCAL/MOL
REMARK 922        TOTAL FREE ENERGY PREDICTED BY IDOCK:   -5.80 KCAL/MOL
REMARK 923 INTER-LIGAND FREE ENERGY PREDICTED BY IDOCK:   -5.82 KCAL/MOL
REMARK 924 INTRA-LIGAND FREE ENERGY PREDICTED BY IDOCK:    0.02 KCAL/MOL
REMARK 927      BINDING AFFINITY PREDICTED BY RF-SCORE:    0.00 PKD
ROOT
HETATM    1  C   UNL     1      -8.441   6.299  65.891  1.00  0.00    -0.146 C  
HETATM    2  C   UNL     1      -9.523   6.244  66.951  1.00  0.00    -0.157 C  
HETATM    3  C   UNL     1      -9.156   7.022  68.249  1.00  0.00    -0.126 C  
HETATM    4  C   UNL     1      -7.792   6.619  68.756  1.00  0.00    -0.111 C  
HETATM    5  C   UNL     1      -7.583   6.515  70.244  1.00  0.00    -0.096 C  
HETATM    6  C   UNL     1      -6.797   6.298  67.902  1.00  0.00    -0.067 C  
HETATM    7  C   UNL     1      -8.639   7.007  71.169  1.00  0.00    -0.133 A  
HETATM    8  O   UNL     1      -6.548   6.032  70.712  1.00  0.00    -0.045 OA 
HETATM    9  O   UNL     1      -5.571   5.798  68.349  1.00  0.00    -0.007 OA 
HETATM   10  C   UNL     1      -6.988   6.117  66.383  1.00  0.00    -0.067 C  
HETATM   11  C   UNL     1      -6.221   7.091  65.331  1.00  0.00    -0.037 C  
HETATM   12  H   UNL     1      -4.871   5.572  67.748  1.00  0.00     0.000 HD 
HETATM   13  O   UNL     1      -6.599   4.744  66.230  1.00  0.00    -0.046 OA 
HETATM   14  C   UNL     1      -8.377   7.145  72.547  1.00  0.00    -0.108 A  
HETATM   15  O   UNL     1      -5.190   7.712  65.575  1.00  0.00    -0.028 OA 
HETATM   16  H   UNL     1      -5.706   4.632  66.532  1.00  0.00     0.000 HD 
HETATM   17  C   UNL     1      -9.338   7.677  73.411  1.00  0.00    -0.324 A  
HETATM   18  O   UNL     1      -7.204   6.764  73.138  1.00  0.00    -0.076 OA 
HETATM   19  C   UNL     1      -6.803   7.123  63.900  1.00  0.00    -0.048 C  
HETATM   20  C   UNL     1     -10.899   5.470  69.354  1.00  0.00    -0.236 C  
HETATM   21  C   UNL     1      -7.320   5.893  63.679  1.00  0.00    -0.064 C  
HETATM   22  C   UNL     1     -10.571   8.072  72.910  1.00  0.00    -0.399 A  
HETATM   23  H   UNL     1      -7.027   6.857  74.067  1.00  0.00     0.000 HD 
HETATM   24  C   UNL     1      -8.643   5.553  64.497  1.00  0.00    -0.042 C  
HETATM   25  O   UNL     1     -11.348   7.780  68.802  1.00  0.00    -0.257 OA 
HETATM   26  C   UNL     1     -10.320   6.898  69.276  1.00  0.00    -0.198 C  
HETATM   27  O   UNL     1      -6.457   4.805  63.498  1.00  0.00    -0.025 OA 
HETATM   28  C   UNL     1     -10.863   7.882  71.560  1.00  0.00    -0.268 A  
HETATM   29  H   UNL     1     -12.058   7.705  69.429  1.00  0.00     0.000 HD 
HETATM   30  H   UNL     1      -6.820   3.941  63.343  1.00  0.00     0.000 HD 
HETATM   31  C   UNL     1      -9.916   7.321  70.676  1.00  0.00    -0.187 A  
ENDROOT
BRANCH  19  32
HETATM   32  C   UNL     1      -7.817   8.126  63.358  1.00  0.00    -0.149 C  
HETATM   33  H   UNL     1      -7.414   9.674  64.716  1.00  0.00     0.000 HD 
HETATM   34  O   UNL     1      -8.507   7.832  62.379  1.00  0.00    -0.117 OA 
HETATM   35  N   UNL     1      -7.962   9.375  63.910  1.00  0.00    -0.133 N  
BRANCH  35  36
HETATM   36  C   UNL     1      -8.935  10.241  63.285  1.00  0.00    -0.242 C  
BRANCH  36  37
HETATM   37  N   UNL     1      -9.398  11.262  64.210  1.00  0.00    -0.162 NA 
HETATM   38  C   UNL     1     -10.336  12.188  63.542  1.00  0.00    -0.441 C  
HETATM   39  C   UNL     1     -10.967  12.915  64.714  1.00  0.00    -0.344 C  
HETATM   40  C   UNL     1     -11.105  11.834  65.772  1.00  0.00    -0.351 C  
HETATM   41  C   UNL     1     -10.149  10.722  65.344  1.00  0.00    -0.285 C  
ENDBRANCH  36  37
ENDBRANCH  35  36
ENDBRANCH  19  32
BRANCH  24  42
HETATM   42  N   UNL     1      -8.921   4.105  64.381  1.00  0.00    -0.137 NA 
HETATM   43  C   UNL     1      -8.818   3.675  62.980  1.00  0.00    -0.096 C  
HETATM   44  C   UNL     1     -10.140   3.598  64.971  1.00  0.00    -0.065 C  
ENDBRANCH  24  42
TORSDOF 4
ENDMDL
MODEL       75
REMARK 921   NORMALIZED FREE ENERGY PREDICTED BY IDOCK:   -4.21 KCAL/MOL
REMARK 922        TOTAL FREE ENERGY PREDICTED BY IDOCK:   -5.77 KCAL/MOL
REMARK 923 INTER-LIGAND FREE ENERGY PREDICTED BY IDOCK:   -5.13 KCAL/MOL
REMARK 924 INTRA-LIGAND FREE ENERGY PREDICTED BY IDOCK:   -0.64 KCAL/MOL
REMARK 927      BINDING AFFINITY PREDICTED BY RF-SCORE:    0.00 PKD
ROOT
HETATM    1  C   UNL     1      -9.090   7.803  70.071  1.00  0.00    -0.150 C  
HETATM    2  C   UNL     1      -7.871   7.946  69.182  1.00  0.00    -0.109 C  
HETATM    3  C   UNL     1      -8.103   7.438  67.729  1.00  0.00    -0.119 C  
HETATM    4  C   UNL     1      -8.693   6.048  67.727  1.00  0.00    -0.104 C  
HETATM    5  C   UNL     1      -8.239   5.079  66.668  1.00  0.00    -0.108 C  
HETATM    6  C   UNL     1      -9.559   5.656  68.686  1.00  0.00    -0.130 C  
HETATM    7  C   UNL     1      -7.398   5.565  65.540  1.00  0.00    -0.073 A  
HETATM    8  O   UNL     1      -8.555   3.886  66.714  1.00  0.00    -0.103 OA 
HETATM    9  O   UNL     1     -10.014   4.339  68.779  1.00  0.00    -0.099 OA 
HETATM   10  C   UNL     1      -9.876   6.479  69.951  1.00  0.00    -0.167 C  
HETATM   11  C   UNL     1     -11.381   7.030  70.223  1.00  0.00    -0.295 C  
HETATM   12  H   UNL     1     -10.623   4.063  69.453  1.00  0.00     0.000 HD 
HETATM   13  O   UNL     1      -9.440   5.570  70.972  1.00  0.00    -0.156 OA 
HETATM   14  C   UNL     1      -7.161   4.745  64.418  1.00  0.00    -0.050 A  
HETATM   15  O   UNL     1     -12.403   6.543  69.746  1.00  0.00     0.188 OA 
HETATM   16  H   UNL     1      -9.924   4.756  70.899  1.00  0.00     0.000 HD 
HETATM   17  C   UNL     1      -6.436   5.221  63.323  1.00  0.00    -0.026 A  
HETATM   18  O   UNL     1      -7.591   3.451  64.320  1.00  0.00    -0.073 OA 
HETATM   19  C   UNL     1     -11.498   8.182  71.247  1.00  0.00    -0.299 C  
HETATM   20  C   UNL     1      -5.531   7.205  67.683  1.00  0.00    -0.020 C  
HETATM   21  C   UNL     1     -10.501   7.990  72.141  1.00  0.00    -0.265 C  
HETATM   22  C   UNL     1      -5.936   6.516  63.337  1.00  0.00    -0.034 A  
HETATM   23  H   UNL     1      -7.432   2.898  63.564  1.00  0.00     0.000 HD 
HETATM   24  C   UNL     1      -9.032   8.268  71.595  1.00  0.00    -0.180 C  
HETATM   25  O   UNL     1      -6.714   9.019  66.607  1.00  0.00    -0.073 OA 
HETATM   26  C   UNL     1      -6.797   7.616  66.900  1.00  0.00    -0.068 C  
HETATM   27  O   UNL     1     -10.588   6.929  73.052  1.00  0.00    -0.233 OA 
HETATM   28  C   UNL     1      -6.111   7.313  64.467  1.00  0.00    -0.037 A  
HETATM   29  H   UNL     1      -5.917   9.127  66.102  1.00  0.00     0.000 HD 
HETATM   30  H   UNL     1      -9.887   6.794  73.679  1.00  0.00     0.000 HD 
HETATM   31  C   UNL     1      -6.817   6.842  65.596  1.00  0.00    -0.052 A  
ENDROOT
BRANCH  19  32
HETATM   32  C   UNL     1     -11.520   9.674  70.932  1.00  0.00    -0.353 C  
HETATM   33  H   UNL     1     -11.124   9.519  68.877  1.00  0.00     0.000 HD 
HETATM   34  O   UNL     1     -11.755  10.487  71.829  1.00  0.00     0.051 OA 
HETATM   35  N   UNL     1     -11.317  10.145  69.658  1.00  0.00    -0.248 N  
BRANCH  35  36
HETATM   36  C   UNL     1     -11.393  11.578  69.487  1.00  0.00    -0.274 C  
BRANCH  36  37
HETATM   37  N   UNL     1     -10.796  11.987  68.227  1.00  0.00    -0.217 NA 
HETATM   38  C   UNL     1     -10.275  10.818  67.488  1.00  0.00    -0.196 C  
HETATM   39  C   UNL     1     -10.045  11.385  66.100  1.00  0.00    -0.271 C  
HETATM   40  C   UNL     1     -11.211  12.338  65.907  1.00  0.00    -0.381 C  
HETATM   41  C   UNL     1     -11.747  12.616  67.309  1.00  0.00    -0.370 C  
ENDBRANCH  36  37
ENDBRANCH  35  36
ENDBRANCH  19  32
BRANCH  24  42
HETATM   42  N   UNL     1      -8.050   7.746  72.569  1.00  0.00    -0.112 NA 
HETATM   43  C   UNL     1      -8.015   8.596  73.766  1.00  0.00     0.130 C  
HETATM   44  C   UNL     1      -6.706   7.483  72.103  1.00  0.00    -0.055 C  
ENDBRANCH  24  42
TORSDOF 4
ENDMDL
MODEL       76
REMARK 921   NORMALIZED FREE ENERGY PREDICTED BY IDOCK:   -4.21 KCAL/MOL
REMARK 922        TOTAL FREE ENERGY PREDICTED BY IDOCK:   -5.77 KCAL/MOL
REMARK 923 INTER-LIGAND FREE ENERGY PREDICTED BY IDOCK:   -6.03 KCAL/MOL
REMARK 924 INTRA-LIGAND FREE ENERGY PREDICTED BY IDOCK:    0.26 KCAL/MOL
REMARK 927      BINDING AFFINITY PREDICTED BY RF-SCORE:    0.00 PKD
ROOT
HETATM    1  C   UNL     1      -9.829  13.786  67.329  1.00  0.00    -0.241 C  
HETATM    2  C   UNL     1      -8.527  13.013  67.393  1.00  0.00    -0.200 C  
HETATM    3  C   UNL     1      -8.481  11.799  66.420  1.00  0.00    -0.081 C  
HETATM    4  C   UNL     1      -9.707  10.932  66.574  1.00  0.00    -0.235 C  
HETATM    5  C   UNL     1      -9.547   9.439  66.464  1.00  0.00    -0.208 C  
HETATM    6  C   UNL     1     -10.910  11.471  66.865  1.00  0.00    -0.284 C  
HETATM    7  C   UNL     1      -8.250   8.872  66.004  1.00  0.00    -0.117 A  
HETATM    8  O   UNL     1     -10.474   8.674  66.746  1.00  0.00    -0.291 OA 
HETATM    9  O   UNL     1     -12.028  10.680  67.141  1.00  0.00     0.026 OA 
HETATM   10  C   UNL     1     -11.123  12.947  67.257  1.00  0.00    -0.274 C  
HETATM   11  C   UNL     1     -12.030  13.926  66.329  1.00  0.00    -0.434 C  
HETATM   12  H   UNL     1     -12.875  11.059  67.347  1.00  0.00     0.000 HD 
HETATM   13  O   UNL     1     -11.668  12.794  68.575  1.00  0.00    -0.296 OA 
HETATM   14  C   UNL     1      -8.146   7.508  65.663  1.00  0.00    -0.128 A  
HETATM   15  O   UNL     1     -12.903  13.545  65.552  1.00  0.00    -0.549 OA 
HETATM   16  H   UNL     1     -12.464  12.278  68.531  1.00  0.00     0.000 HD 
HETATM   17  C   UNL     1      -6.953   6.984  65.158  1.00  0.00    -0.052 A  
HETATM   18  O   UNL     1      -9.165   6.609  65.811  1.00  0.00    -0.360 OA 
HETATM   19  C   UNL     1     -11.824  15.442  66.551  1.00  0.00     0.306 C  
HETATM   20  C   UNL     1      -6.675  10.909  68.037  1.00  0.00    -0.063 C  
HETATM   21  C   UNL     1     -11.500  15.587  67.856  1.00  0.00    -0.272 C  
HETATM   22  C   UNL     1      -5.852   7.813  64.994  1.00  0.00    -0.038 A  
HETATM   23  H   UNL     1      -9.095   5.689  65.581  1.00  0.00     0.000 HD 
HETATM   24  C   UNL     1     -10.054  15.059  68.263  1.00  0.00    -0.222 C  
HETATM   25  O   UNL     1      -6.157  11.895  65.892  1.00  0.00    -0.279 OA 
HETATM   26  C   UNL     1      -7.115  11.066  66.566  1.00  0.00    -0.136 C  
HETATM   27  O   UNL     1     -12.482  15.394  68.835  1.00  0.00    -0.594 OA 
HETATM   28  C   UNL     1      -5.925   9.149  65.386  1.00  0.00    -0.058 A  
HETATM   29  H   UNL     1      -5.324  11.448  65.981  1.00  0.00     0.000 HD 
HETATM   30  H   UNL     1     -12.254  15.496  69.752  1.00  0.00     0.000 HD 
HETATM   31  C   UNL     1      -7.113   9.692  65.923  1.00  0.00    -0.098 A  
ENDROOT
BRANCH  19  32
HETATM   32  C   UNL     1     -10.885  16.351  65.764  1.00  0.00    -0.145 C  
HETATM   33  H   UNL     1     -10.658  17.834  67.231  1.00  0.00     0.000 HD 
HETATM   34  O   UNL     1     -10.522  16.026  64.631  1.00  0.00    -0.502 OA 
HETATM   35  N   UNL     1     -10.396  17.518  66.297  1.00  0.00    -0.353 N  
BRANCH  35  36
HETATM   36  C   UNL     1      -9.492  18.274  65.462  1.00  0.00     0.932 C  
BRANCH  36  37
HETATM   37  N   UNL     1      -8.290  18.643  66.191  1.00  0.00    -0.461 NA 
HETATM   38  C   UNL     1      -8.297  20.084  66.519  1.00  0.00    -0.311 C  
HETATM   39  C   UNL     1      -7.197  20.188  67.557  1.00  0.00    -0.320 C  
HETATM   40  C   UNL     1      -7.344  18.909  68.362  1.00  0.00    -0.318 C  
HETATM   41  C   UNL     1      -8.163  17.966  67.483  1.00  0.00    -0.227 C  
ENDBRANCH  36  37
ENDBRANCH  35  36
ENDBRANCH  19  32
BRANCH  24  42
HETATM   42  N   UNL     1      -9.956  15.015  69.737  1.00  0.00    -0.118 NA 
HETATM   43  C   UNL     1     -10.627  16.179  70.330  1.00  0.00    -0.148 C  
HETATM   44  C   UNL     1      -8.646  14.841  70.325  1.00  0.00     1.119 C  
ENDBRANCH  24  42
TORSDOF 4
ENDMDL
MODEL       77
REMARK 921   NORMALIZED FREE ENERGY PREDICTED BY IDOCK:   -4.07 KCAL/MOL
REMARK 922        TOTAL FREE ENERGY PREDICTED BY IDOCK:   -5.59 KCAL/MOL
REMARK 923 INTER-LIGAND FREE ENERGY PREDICTED BY IDOCK:   -5.16 KCAL/MOL
REMARK 924 INTRA-LIGAND FREE ENERGY PREDICTED BY IDOCK:   -0.44 KCAL/MOL
REMARK 927      BINDING AFFINITY PREDICTED BY RF-SCORE:    0.00 PKD
ROOT
HETATM    1  C   UNL     1      -7.871  10.192  68.012  1.00  0.00    -0.096 C  
HETATM    2  C   UNL     1      -6.985  11.369  68.366  1.00  0.00    -0.075 C  
HETATM    3  C   UNL     1      -7.758  12.716  68.470  1.00  0.00    -0.114 C  
HETATM    4  C   UNL     1      -8.611  12.948  67.246  1.00  0.00    -0.205 C  
HETATM    5  C   UNL     1      -8.730  14.351  66.711  1.00  0.00    -0.159 C  
HETATM    6  C   UNL     1      -9.204  11.919  66.603  1.00  0.00    -0.205 C  
HETATM    7  C   UNL     1      -8.191  15.488  67.507  1.00  0.00    -0.182 A  
HETATM    8  O   UNL     1      -9.270  14.578  65.625  1.00  0.00    -0.037 OA 
HETATM    9  O   UNL     1      -9.886  12.095  65.397  1.00  0.00    -0.248 OA 
HETATM   10  C   UNL     1      -8.927  10.434  66.911  1.00  0.00    -0.139 C  
HETATM   11  C   UNL     1     -10.115   9.468  67.457  1.00  0.00    -0.204 C  
HETATM   12  H   UNL     1     -10.303  11.372  64.944  1.00  0.00     0.000 HD 
HETATM   13  O   UNL     1      -8.410   9.994  65.647  1.00  0.00    -0.135 OA 
HETATM   14  C   UNL     1      -8.497  16.817  67.154  1.00  0.00    -0.186 A  
HETATM   15  O   UNL     1     -11.315   9.667  67.284  1.00  0.00     0.095 OA 
HETATM   16  H   UNL     1      -9.059  10.143  64.970  1.00  0.00     0.000 HD 
HETATM   17  C   UNL     1      -8.058  17.887  67.939  1.00  0.00    -0.244 A  
HETATM   18  O   UNL     1      -9.211  17.162  66.040  1.00  0.00    -0.468 OA 
HETATM   19  C   UNL     1      -9.656   8.160  68.141  1.00  0.00    -0.162 C  
HETATM   20  C   UNL     1      -5.443  13.773  68.033  1.00  0.00    -0.115 C  
HETATM   21  C   UNL     1      -8.500   7.807  67.533  1.00  0.00    -0.120 C  
HETATM   22  C   UNL     1      -7.306  17.641  69.080  1.00  0.00    -0.194 A  
HETATM   23  H   UNL     1      -9.417  18.058  65.802  1.00  0.00     0.000 HD 
HETATM   24  C   UNL     1      -7.247   8.733  67.859  1.00  0.00    -0.084 C  
HETATM   25  O   UNL     1      -6.469  13.696  70.220  1.00  0.00    -0.362 OA 
HETATM   26  C   UNL     1      -6.765  13.861  68.826  1.00  0.00    -0.102 C  
HETATM   27  O   UNL     1      -8.533   7.321  66.220  1.00  0.00    -0.121 OA 
HETATM   28  C   UNL     1      -6.945  16.334  69.403  1.00  0.00    -0.212 A  
HETATM   29  H   UNL     1      -5.863  14.395  70.437  1.00  0.00     0.000 HD 
HETATM   30  H   UNL     1      -7.721   7.073  65.792  1.00  0.00     0.000 HD 
HETATM   31  C   UNL     1      -7.355  15.241  68.608  1.00  0.00    -0.120 A  
ENDROOT
BRANCH  19  32
HETATM   32  C   UNL     1      -9.444   7.948  69.636  1.00  0.00    -0.160 C  
HETATM   33  H   UNL     1      -8.483   6.087  69.510  1.00  0.00     0.000 HD 
HETATM   34  O   UNL     1      -9.814   8.811  70.437  1.00  0.00    -0.170 OA 
HETATM   35  N   UNL     1      -8.815   6.830  70.125  1.00  0.00    -0.141 N  
BRANCH  35  36
HETATM   36  C   UNL     1      -8.648   6.764  71.558  1.00  0.00    -0.120 C  
BRANCH  36  37
HETATM   37  N   UNL     1      -7.246   6.637  71.918  1.00  0.00    -0.083 NA 
HETATM   38  C   UNL     1      -7.103   6.154  73.308  1.00  0.00    -0.084 C  
HETATM   39  C   UNL     1      -5.643   5.746  73.362  1.00  0.00    -0.035 C  
HETATM   40  C   UNL     1      -5.390   5.145  71.990  1.00  0.00    -0.005 C  
HETATM   41  C   UNL     1      -6.524   5.658  71.105  1.00  0.00    -0.040 C  
ENDBRANCH  36  37
ENDBRANCH  35  36
ENDBRANCH  19  32
BRANCH  24  42
HETATM   42  N   UNL     1      -6.153   8.410  66.918  1.00  0.00    -0.053 NA 
HETATM   43  C   UNL     1      -5.415   7.227  67.377  1.00  0.00    -0.028 C  
HETATM   44  C   UNL     1      -5.231   9.467  66.560  1.00  0.00    -0.044 C  
ENDBRANCH  24  42
TORSDOF 4
ENDMDL
MODEL       78
REMARK 921   NORMALIZED FREE ENERGY PREDICTED BY IDOCK:   -3.96 KCAL/MOL
REMARK 922        TOTAL FREE ENERGY PREDICTED BY IDOCK:   -5.46 KCAL/MOL
REMARK 923 INTER-LIGAND FREE ENERGY PREDICTED BY IDOCK:   -5.59 KCAL/MOL
REMARK 924 INTRA-LIGAND FREE ENERGY PREDICTED BY IDOCK:    0.12 KCAL/MOL
REMARK 927      BINDING AFFINITY PREDICTED BY RF-SCORE:    0.00 PKD
ROOT
HETATM    1  C   UNL     1      -8.133   9.014  67.509  1.00  0.00    -0.108 C  
HETATM    2  C   UNL     1      -7.752   8.344  66.204  1.00  0.00    -0.097 C  
HETATM    3  C   UNL     1      -8.135   6.837  66.148  1.00  0.00    -0.115 C  
HETATM    4  C   UNL     1      -7.638   6.104  67.371  1.00  0.00    -0.090 C  
HETATM    5  C   UNL     1      -7.118   4.701  67.203  1.00  0.00    -0.068 C  
HETATM    6  C   UNL     1      -7.598   6.708  68.578  1.00  0.00    -0.097 C  
HETATM    7  C   UNL     1      -7.300   4.001  65.902  1.00  0.00    -0.076 A  
HETATM    8  O   UNL     1      -6.547   4.115  68.127  1.00  0.00    -0.040 OA 
HETATM    9  O   UNL     1      -7.021   6.095  69.693  1.00  0.00    -0.065 OA 
HETATM   10  C   UNL     1      -7.854   8.212  68.799  1.00  0.00    -0.113 C  
HETATM   11  C   UNL     1      -9.106   8.713  69.707  1.00  0.00    -0.150 C  
HETATM   12  H   UNL     1      -6.993   6.520  70.542  1.00  0.00     0.000 HD 
HETATM   13  O   UNL     1      -6.591   8.616  69.350  1.00  0.00    -0.044 OA 
HETATM   14  C   UNL     1      -7.045   2.620  65.789  1.00  0.00    -0.064 A  
HETATM   15  O   UNL     1      -9.656   8.039  70.575  1.00  0.00    -0.169 OA 
HETATM   16  H   UNL     1      -6.420   8.123  70.143  1.00  0.00     0.000 HD 
HETATM   17  C   UNL     1      -7.285   1.941  64.592  1.00  0.00    -0.053 A  
HETATM   18  O   UNL     1      -6.540   1.856  66.805  1.00  0.00    -0.033 OA 
HETATM   19  C   UNL     1      -9.531  10.186  69.509  1.00  0.00    -0.235 C  
HETATM   20  C   UNL     1      -6.291   6.708  64.345  1.00  0.00    -0.038 C  
HETATM   21  C   UNL     1      -8.403  10.861  69.191  1.00  0.00    -0.069 C  
HETATM   22  C   UNL     1      -7.776   2.634  63.494  1.00  0.00    -0.068 A  
HETATM   23  H   UNL     1      -6.368   0.925  66.729  1.00  0.00     0.000 HD 
HETATM   24  C   UNL     1      -7.811  10.557  67.745  1.00  0.00    -0.104 C  
HETATM   25  O   UNL     1      -8.651   6.720  63.823  1.00  0.00    -0.325 OA 
HETATM   26  C   UNL     1      -7.696   6.238  64.779  1.00  0.00    -0.101 C  
HETATM   27  O   UNL     1      -7.433  11.085  70.176  1.00  0.00    -0.406 OA 
HETATM   28  C   UNL     1      -7.973   4.012  63.575  1.00  0.00    -0.087 A  
HETATM   29  H   UNL     1      -8.383   6.354  62.988  1.00  0.00     0.000 HD 
HETATM   30  H   UNL     1      -6.641  11.559  69.953  1.00  0.00     0.000 HD 
HETATM   31  C   UNL     1      -7.711   4.721  64.768  1.00  0.00    -0.078 A  
ENDROOT
BRANCH  19  32
HETATM   32  C   UNL     1     -10.622  10.693  68.572  1.00  0.00    -0.200 C  
HETATM   33  H   UNL     1      -9.542  12.290  67.743  1.00  0.00     0.000 HD 
HETATM   34  O   UNL     1     -11.707  10.109  68.519  1.00  0.00    -0.116 OA 
HETATM   35  N   UNL     1     -10.420  11.772  67.747  1.00  0.00    -0.190 N  
BRANCH  35  36
HETATM   36  C   UNL     1     -11.522  12.133  66.884  1.00  0.00    -0.351 C  
BRANCH  36  37
HETATM   37  N   UNL     1     -11.278  11.707  65.517  1.00  0.00    -0.253 NA 
HETATM   38  C   UNL     1     -10.509  12.730  64.777  1.00  0.00    -0.335 C  
HETATM   39  C   UNL     1     -10.053  11.969  63.547  1.00  0.00    -0.448 C  
HETATM   40  C   UNL     1      -9.747  10.580  64.080  1.00  0.00    -0.388 C  
HETATM   41  C   UNL     1     -10.470  10.490  65.422  1.00  0.00    -0.152 C  
ENDBRANCH  36  37
ENDBRANCH  35  36
ENDBRANCH  19  32
BRANCH  24  42
HETATM   42  N   UNL     1      -6.451  11.129  67.652  1.00  0.00    -0.063 NA 
HETATM   43  C   UNL     1      -6.519  12.579  67.430  1.00  0.00    -0.153 C  
HETATM   44  C   UNL     1      -5.522  10.524  66.723  1.00  0.00    -0.046 C  
ENDBRANCH  24  42
TORSDOF 4
ENDMDL
MODEL       79
REMARK 921   NORMALIZED FREE ENERGY PREDICTED BY IDOCK:   -3.85 KCAL/MOL
REMARK 922        TOTAL FREE ENERGY PREDICTED BY IDOCK:   -5.33 KCAL/MOL
REMARK 923 INTER-LIGAND FREE ENERGY PREDICTED BY IDOCK:   -7.71 KCAL/MOL
REMARK 924 INTRA-LIGAND FREE ENERGY PREDICTED BY IDOCK:    2.38 KCAL/MOL
REMARK 927      BINDING AFFINITY PREDICTED BY RF-SCORE:    0.00 PKD
ROOT
HETATM    1  C   UNL     1      -9.835  14.503  68.368  1.00  0.00    -0.227 C  
HETATM    2  C   UNL     1      -8.859  13.368  68.602  1.00  0.00     0.020 C  
HETATM    3  C   UNL     1      -8.363  12.699  67.287  1.00  0.00    -0.189 C  
HETATM    4  C   UNL     1      -9.524  12.324  66.398  1.00  0.00    -0.240 C  
HETATM    5  C   UNL     1      -9.443  11.038  65.618  1.00  0.00    -0.217 C  
HETATM    6  C   UNL     1     -10.638  13.085  66.346  1.00  0.00    -0.284 C  
HETATM    7  C   UNL     1      -8.159  10.286  65.575  1.00  0.00    -0.156 A  
HETATM    8  O   UNL     1     -10.421  10.596  65.009  1.00  0.00    -0.295 OA 
HETATM    9  O   UNL     1     -11.772  12.689  65.633  1.00  0.00    -0.368 OA 
HETATM   10  C   UNL     1     -10.923  14.264  67.298  1.00  0.00    -0.297 C  
HETATM   11  C   UNL     1     -11.072  15.776  66.719  1.00  0.00    -0.116 C  
HETATM   12  H   UNL     1     -12.555  13.225  65.596  1.00  0.00     0.000 HD 
HETATM   13  O   UNL     1     -12.126  13.806  67.931  1.00  0.00    -0.365 OA 
HETATM   14  C   UNL     1      -7.983   9.220  64.670  1.00  0.00    -0.125 A  
HETATM   15  O   UNL     1     -11.381  16.057  65.564  1.00  0.00    -0.052 OA 
HETATM   16  H   UNL     1     -12.794  13.659  67.273  1.00  0.00     0.000 HD 
HETATM   17  C   UNL     1      -6.757   8.558  64.570  1.00  0.00    -0.066 A  
HETATM   18  O   UNL     1      -8.973   8.748  63.852  1.00  0.00    -0.419 OA 
HETATM   19  C   UNL     1     -10.914  16.910  67.758  1.00  0.00    -0.212 C  
HETATM   20  C   UNL     1      -7.857  10.682  68.818  1.00  0.00    -0.125 C  
HETATM   21  C   UNL     1     -11.372  16.411  68.929  1.00  0.00    -0.272 C  
HETATM   22  C   UNL     1      -5.696   8.949  65.375  1.00  0.00    -0.047 A  
HETATM   23  H   UNL     1      -8.854   8.030  63.241  1.00  0.00     0.000 HD 
HETATM   24  C   UNL     1     -10.451  15.301  69.603  1.00  0.00    -0.270 C  
HETATM   25  O   UNL     1      -6.147  12.183  68.001  1.00  0.00    -0.052 OA 
HETATM   26  C   UNL     1      -7.377  11.544  67.631  1.00  0.00    -0.105 C  
HETATM   27  O   UNL     1     -12.746  16.203  69.098  1.00  0.00    -0.263 OA 
HETATM   28  C   UNL     1      -5.877   9.959  66.318  1.00  0.00    -0.059 A  
HETATM   29  H   UNL     1      -5.545  11.478  68.211  1.00  0.00     0.000 HD 
HETATM   30  H   UNL     1     -13.068  15.852  69.920  1.00  0.00     0.000 HD 
HETATM   31  C   UNL     1      -7.116  10.623  66.454  1.00  0.00    -0.134 A  
ENDROOT
BRANCH  19  32
HETATM   32  C   UNL     1      -9.630  17.669  68.079  1.00  0.00    -0.289 C  
HETATM   33  H   UNL     1      -8.328  16.493  66.928  1.00  0.00     0.000 HD 
HETATM   34  O   UNL     1      -9.671  18.660  68.812  1.00  0.00    -0.360 OA 
HETATM   35  N   UNL     1      -8.420  17.300  67.544  1.00  0.00    -0.202 N  
BRANCH  35  36
HETATM   36  C   UNL     1      -7.286  18.120  67.903  1.00  0.00    -0.223 C  
BRANCH  36  37
HETATM   37  N   UNL     1      -6.922  17.930  69.297  1.00  0.00    -0.198 NA 
HETATM   38  C   UNL     1      -5.822  16.952  69.424  1.00  0.00    -0.192 C  
HETATM   39  C   UNL     1      -5.356  17.168  70.851  1.00  0.00    -0.138 C  
HETATM   40  C   UNL     1      -5.478  18.669  71.042  1.00  0.00    -0.185 C  
HETATM   41  C   UNL     1      -6.418  19.146  69.937  1.00  0.00    -0.132 C  
ENDBRANCH  36  37
ENDBRANCH  35  36
ENDBRANCH  19  32
BRANCH  24  42
HETATM   42  N   UNL     1     -11.205  14.652  70.698  1.00  0.00    -0.136 NA 
HETATM   43  C   UNL     1     -11.931  13.479  70.194  1.00  0.00    -0.329 C  
HETATM   44  C   UNL     1     -12.083  15.477  71.499  1.00  0.00    -0.393 C  
ENDBRANCH  24  42
TORSDOF 4
ENDMDL
MODEL       80
REMARK 921   NORMALIZED FREE ENERGY PREDICTED BY IDOCK:   -3.84 KCAL/MOL
REMARK 922        TOTAL FREE ENERGY PREDICTED BY IDOCK:   -5.32 KCAL/MOL
REMARK 923 INTER-LIGAND FREE ENERGY PREDICTED BY IDOCK:   -7.72 KCAL/MOL
REMARK 924 INTRA-LIGAND FREE ENERGY PREDICTED BY IDOCK:    2.40 KCAL/MOL
REMARK 927      BINDING AFFINITY PREDICTED BY RF-SCORE:    0.00 PKD
ROOT
HETATM    1  C   UNL     1      -8.162   9.391  68.231  1.00  0.00    -0.118 C  
HETATM    2  C   UNL     1      -7.902  10.881  68.146  1.00  0.00    -0.114 C  
HETATM    3  C   UNL     1      -9.136  11.697  67.659  1.00  0.00    -0.174 C  
HETATM    4  C   UNL     1      -9.710  11.110  66.393  1.00  0.00    -0.235 C  
HETATM    5  C   UNL     1     -10.235  12.051  65.341  1.00  0.00    -0.263 C  
HETATM    6  C   UNL     1      -9.699   9.777  66.173  1.00  0.00    -0.246 C  
HETATM    7  C   UNL     1     -10.371  13.500  65.654  1.00  0.00    -0.303 A  
HETATM    8  O   UNL     1     -10.559  11.643  64.222  1.00  0.00    -0.290 OA 
HETATM    9  O   UNL     1     -10.104   9.225  64.956  1.00  0.00    -0.245 OA 
HETATM   10  C   UNL     1      -8.950   8.763  67.061  1.00  0.00    -0.131 C  
HETATM   11  C   UNL     1      -9.766   7.611  67.869  1.00  0.00    -0.148 C  
HETATM   12  H   UNL     1     -10.096   8.287  64.802  1.00  0.00     0.000 HD 
HETATM   13  O   UNL     1      -8.032   8.208  66.109  1.00  0.00    -0.095 OA 
HETATM   14  C   UNL     1     -11.076  14.357  64.786  1.00  0.00    -0.394 A  
HETATM   15  O   UNL     1     -10.877   7.190  67.557  1.00  0.00    -0.257 OA 
HETATM   16  H   UNL     1      -8.516   7.822  65.389  1.00  0.00     0.000 HD 
HETATM   17  C   UNL     1     -11.273  15.702  65.110  1.00  0.00    -0.286 A  
HETATM   18  O   UNL     1     -11.594  13.961  63.584  1.00  0.00    -0.612 OA 
HETATM   19  C   UNL     1      -9.007   6.949  69.041  1.00  0.00    -0.132 C  
HETATM   20  C   UNL     1      -7.372  13.458  66.986  1.00  0.00     0.292 C  
HETATM   21  C   UNL     1      -7.699   6.965  68.696  1.00  0.00    -0.113 C  
HETATM   22  C   UNL     1     -10.764  16.206  66.299  1.00  0.00    -0.213 A  
HETATM   23  H   UNL     1     -12.069  14.539  62.999  1.00  0.00     0.000 HD 
HETATM   24  C   UNL     1      -7.008   8.399  68.707  1.00  0.00    -0.063 C  
HETATM   25  O   UNL     1      -8.757  13.662  68.957  1.00  0.00    -0.368 OA 
HETATM   26  C   UNL     1      -8.768  13.209  67.595  1.00  0.00    -0.192 C  
HETATM   27  O   UNL     1      -7.244   6.112  67.682  1.00  0.00    -0.075 OA 
HETATM   28  C   UNL     1     -10.011  15.382  67.135  1.00  0.00    -0.234 A  
HETATM   29  H   UNL     1      -8.532  14.584  68.917  1.00  0.00     0.000 HD 
HETATM   30  H   UNL     1      -6.325   6.124  67.440  1.00  0.00     0.000 HD 
HETATM   31  C   UNL     1      -9.778  14.027  66.813  1.00  0.00    -0.283 A  
ENDROOT
BRANCH  19  32
HETATM   32  C   UNL     1      -9.075   7.360  70.509  1.00  0.00    -0.157 C  
HETATM   33  H   UNL     1     -11.043   8.089  70.492  1.00  0.00     0.000 HD 
HETATM   34  O   UNL     1      -8.105   7.166  71.245  1.00  0.00    -0.105 OA 
HETATM   35  N   UNL     1     -10.209   7.912  71.052  1.00  0.00    -0.196 N  
BRANCH  35  36
HETATM   36  C   UNL     1     -10.155   8.227  72.461  1.00  0.00    -0.306 C  
BRANCH  36  37
HETATM   37  N   UNL     1     -10.773   7.179  73.256  1.00  0.00    -0.343 NA 
HETATM   38  C   UNL     1     -11.239   6.072  72.396  1.00  0.00    -0.292 C  
HETATM   39  C   UNL     1     -11.497   4.965  73.399  1.00  0.00    -0.306 C  
HETATM   40  C   UNL     1     -10.376   5.133  74.411  1.00  0.00    -0.313 C  
HETATM   41  C   UNL     1      -9.852   6.553  74.207  1.00  0.00    -0.314 C  
ENDBRANCH  36  37
ENDBRANCH  35  36
ENDBRANCH  19  32
BRANCH  24  42
HETATM   42  N   UNL     1      -5.691   8.303  68.040  1.00  0.00    -0.034 NA 
HETATM   43  C   UNL     1      -5.393   9.546  67.316  1.00  0.00    -0.036 C  
HETATM   44  C   UNL     1      -5.442   7.158  67.191  1.00  0.00    -0.021 C  
ENDBRANCH  24  42
TORSDOF 4
ENDMDL
MODEL       81
REMARK 921   NORMALIZED FREE ENERGY PREDICTED BY IDOCK:   -3.73 KCAL/MOL
REMARK 922        TOTAL FREE ENERGY PREDICTED BY IDOCK:   -5.18 KCAL/MOL
REMARK 923 INTER-LIGAND FREE ENERGY PREDICTED BY IDOCK:   -5.83 KCAL/MOL
REMARK 924 INTRA-LIGAND FREE ENERGY PREDICTED BY IDOCK:    0.65 KCAL/MOL
REMARK 927      BINDING AFFINITY PREDICTED BY RF-SCORE:    0.00 PKD
ROOT
HETATM    1  C   UNL     1      -9.002   7.854  68.708  1.00  0.00    -0.141 C  
HETATM    2  C   UNL     1      -8.137   6.625  68.905  1.00  0.00    -0.116 C  
HETATM    3  C   UNL     1      -7.843   5.858  67.582  1.00  0.00    -0.098 C  
HETATM    4  C   UNL     1      -9.116   5.585  66.817  1.00  0.00    -0.118 C  
HETATM    5  C   UNL     1      -9.249   4.272  66.093  1.00  0.00    -0.145 C  
HETATM    6  C   UNL     1     -10.140   6.466  66.831  1.00  0.00    -0.187 C  
HETATM    7  C   UNL     1      -8.065   3.379  65.969  1.00  0.00    -0.093 A  
HETATM    8  O   UNL     1     -10.322   3.922  65.594  1.00  0.00    -0.066 OA 
HETATM    9  O   UNL     1     -11.372   6.175  66.240  1.00  0.00    -0.635 OA 
HETATM   10  C   UNL     1     -10.204   7.702  67.750  1.00  0.00    -0.201 C  
HETATM   11  C   UNL     1     -10.241   9.200  67.120  1.00  0.00    -0.261 C  
HETATM   12  H   UNL     1     -12.093   6.794  66.249  1.00  0.00     0.000 HD 
HETATM   13  O   UNL     1     -11.385   7.405  68.508  1.00  0.00    -0.359 OA 
HETATM   14  C   UNL     1      -8.092   2.269  65.101  1.00  0.00    -0.079 A  
HETATM   15  O   UNL     1     -10.624   9.473  65.985  1.00  0.00    -0.046 OA 
HETATM   16  H   UNL     1     -12.124   7.311  67.920  1.00  0.00     0.000 HD 
HETATM   17  C   UNL     1      -6.960   1.470  64.922  1.00  0.00    -0.039 A  
HETATM   18  O   UNL     1      -9.199   1.884  64.397  1.00  0.00    -0.122 OA 
HETATM   19  C   UNL     1      -9.863  10.344  68.087  1.00  0.00    -0.168 C  
HETATM   20  C   UNL     1      -7.419   3.851  69.152  1.00  0.00    -0.054 C  
HETATM   21  C   UNL     1     -10.261   9.941  69.316  1.00  0.00    -0.209 C  
HETATM   22  C   UNL     1      -5.792   1.766  65.612  1.00  0.00    -0.017 A  
HETATM   23  H   UNL     1      -9.218   1.136  63.811  1.00  0.00     0.000 HD 
HETATM   24  C   UNL     1      -9.408   8.759  69.955  1.00  0.00    -0.168 C  
HETATM   25  O   UNL     1      -5.639   5.121  68.119  1.00  0.00    -0.014 OA 
HETATM   26  C   UNL     1      -6.961   4.611  67.888  1.00  0.00    -0.060 C  
HETATM   27  O   UNL     1     -11.628   9.895  69.616  1.00  0.00    -0.415 OA 
HETATM   28  C   UNL     1      -5.773   2.823  66.520  1.00  0.00    -0.022 A  
HETATM   29  H   UNL     1      -5.102   4.360  68.305  1.00  0.00     0.000 HD 
HETATM   30  H   UNL     1     -11.908   9.612  70.479  1.00  0.00     0.000 HD 
HETATM   31  C   UNL     1      -6.914   3.626  66.735  1.00  0.00    -0.055 A  
ENDROOT
BRANCH  19  32
HETATM   32  C   UNL     1      -8.480  10.964  68.259  1.00  0.00    -0.134 C  
HETATM   33  H   UNL     1      -9.113  12.907  68.732  1.00  0.00     0.000 HD 
HETATM   34  O   UNL     1      -7.473  10.264  68.122  1.00  0.00    -0.084 OA 
HETATM   35  N   UNL     1      -8.317  12.284  68.600  1.00  0.00    -0.064 N  
BRANCH  35  36
HETATM   36  C   UNL     1      -6.956  12.740  68.762  1.00  0.00    -0.096 C  
BRANCH  36  37
HETATM   37  N   UNL     1      -6.854  14.173  68.543  1.00  0.00    -0.094 NA 
HETATM   38  C   UNL     1      -7.757  14.603  67.456  1.00  0.00    -0.195 C  
HETATM   39  C   UNL     1      -7.782  16.109  67.629  1.00  0.00    -0.161 C  
HETATM   40  C   UNL     1      -7.760  16.295  69.137  1.00  0.00    -0.229 C  
HETATM   41  C   UNL     1      -7.258  14.969  69.703  1.00  0.00    -0.192 C  
ENDBRANCH  36  37
ENDBRANCH  35  36
ENDBRANCH  19  32
BRANCH  24  42
HETATM   42  N   UNL     1     -10.123   8.238  71.141  1.00  0.00    -0.186 NA 
HETATM   43  C   UNL     1      -9.319   8.441  72.353  1.00  0.00    -0.285 C  
HETATM   44  C   UNL     1     -10.619   6.880  71.091  1.00  0.00    -0.222 C  
ENDBRANCH  24  42
TORSDOF 4
ENDMDL
MODEL       82
REMARK 921   NORMALIZED FREE ENERGY PREDICTED BY IDOCK:   -3.71 KCAL/MOL
REMARK 922        TOTAL FREE ENERGY PREDICTED BY IDOCK:   -5.16 KCAL/MOL
REMARK 923 INTER-LIGAND FREE ENERGY PREDICTED BY IDOCK:   -5.16 KCAL/MOL
REMARK 924 INTRA-LIGAND FREE ENERGY PREDICTED BY IDOCK:    0.00 KCAL/MOL
REMARK 927      BINDING AFFINITY PREDICTED BY RF-SCORE:    0.00 PKD
ROOT
HETATM    1  C   UNL     1      -8.611  10.046  68.581  1.00  0.00    -0.123 C  
HETATM    2  C   UNL     1      -9.618  11.178  68.548  1.00  0.00    -0.193 C  
HETATM    3  C   UNL     1      -9.036  12.506  67.982  1.00  0.00    -0.192 C  
HETATM    4  C   UNL     1      -7.741  12.869  68.669  1.00  0.00    -0.067 C  
HETATM    5  C   UNL     1      -7.465  14.320  68.957  1.00  0.00    -0.102 C  
HETATM    6  C   UNL     1      -6.876  11.915  69.075  1.00  0.00    -0.105 C  
HETATM    7  C   UNL     1      -8.355  15.365  68.380  1.00  0.00    -0.147 A  
HETATM    8  O   UNL     1      -6.511  14.663  69.661  1.00  0.00    -0.126 OA 
HETATM    9  O   UNL     1      -5.739  12.219  69.827  1.00  0.00    -0.089 OA 
HETATM   10  C   UNL     1      -7.189  10.405  69.067  1.00  0.00    -0.088 C  
HETATM   11  C   UNL     1      -6.321   9.386  68.144  1.00  0.00    -0.054 C  
HETATM   12  H   UNL     1      -5.130  11.548  70.113  1.00  0.00     0.000 HD 
HETATM   13  O   UNL     1      -7.070  10.103  70.464  1.00  0.00    -0.266 OA 
HETATM   14  C   UNL     1      -7.988  16.725  68.430  1.00  0.00    -0.224 A  
HETATM   15  O   UNL     1      -5.180   9.602  67.743  1.00  0.00    -0.036 OA 
HETATM   16  H   UNL     1      -6.197  10.324  70.763  1.00  0.00     0.000 HD 
HETATM   17  C   UNL     1      -8.780  17.704  67.825  1.00  0.00    -0.232 A  
HETATM   18  O   UNL     1      -6.872  17.187  69.070  1.00  0.00    -0.210 OA 
HETATM   19  C   UNL     1      -6.973   8.012  67.866  1.00  0.00    -0.078 C  
HETATM   20  C   UNL     1     -10.965  13.604  69.302  1.00  0.00    -0.189 C  
HETATM   21  C   UNL     1      -7.721   7.726  68.956  1.00  0.00    -0.109 C  
HETATM   22  C   UNL     1      -9.947  17.337  67.169  1.00  0.00    -0.282 A  
HETATM   23  H   UNL     1      -6.625  18.104  69.104  1.00  0.00     0.000 HD 
HETATM   24  C   UNL     1      -9.031   8.612  69.136  1.00  0.00    -0.142 C  
HETATM   25  O   UNL     1     -11.013  13.293  66.905  1.00  0.00    -0.277 OA 
HETATM   26  C   UNL     1     -10.138  13.606  67.999  1.00  0.00    -0.250 C  
HETATM   27  O   UNL     1      -7.086   7.384  70.156  1.00  0.00    -0.062 OA 
HETATM   28  C   UNL     1     -10.351  16.003  67.167  1.00  0.00    -0.295 A  
HETATM   29  H   UNL     1     -11.685  13.964  66.916  1.00  0.00     0.000 HD 
HETATM   30  H   UNL     1      -7.611   7.183  70.922  1.00  0.00     0.000 HD 
HETATM   31  C   UNL     1      -9.579  15.002  67.796  1.00  0.00    -0.203 A  
ENDROOT
BRANCH  19  32
HETATM   32  C   UNL     1      -7.816   7.641  66.650  1.00  0.00    -0.106 C  
HETATM   33  H   UNL     1      -8.261   5.673  67.223  1.00  0.00     0.000 HD 
HETATM   34  O   UNL     1      -8.020   8.478  65.767  1.00  0.00    -0.099 OA 
HETATM   35  N   UNL     1      -8.391   6.401  66.521  1.00  0.00    -0.112 N  
BRANCH  35  36
HETATM   36  C   UNL     1      -9.191   6.186  65.338  1.00  0.00     0.238 C  
BRANCH  36  37
HETATM   37  N   UNL     1      -8.511   5.311  64.397  1.00  0.00    -0.140 NA 
HETATM   38  C   UNL     1      -7.102   5.108  64.794  1.00  0.00    -0.058 C  
HETATM   39  C   UNL     1      -6.691   3.923  63.942  1.00  0.00    -0.043 C  
HETATM   40  C   UNL     1      -7.932   3.048  63.925  1.00  0.00    -0.082 C  
HETATM   41  C   UNL     1      -9.082   3.964  64.340  1.00  0.00    -0.137 C  
ENDBRANCH  36  37
ENDBRANCH  35  36
ENDBRANCH  19  32
BRANCH  24  42
HETATM   42  N   UNL     1      -9.578   8.392  70.492  1.00  0.00    -0.167 NA 
HETATM   43  C   UNL     1     -10.678   7.419  70.450  1.00  0.00    -0.237 C  
HETATM   44  C   UNL     1      -9.966   9.552  71.264  1.00  0.00    -0.082 C  
ENDBRANCH  24  42
TORSDOF 4
ENDMDL
MODEL       83
REMARK 921   NORMALIZED FREE ENERGY PREDICTED BY IDOCK:   -3.57 KCAL/MOL
REMARK 922        TOTAL FREE ENERGY PREDICTED BY IDOCK:   -4.98 KCAL/MOL
REMARK 923 INTER-LIGAND FREE ENERGY PREDICTED BY IDOCK:   -6.88 KCAL/MOL
REMARK 924 INTRA-LIGAND FREE ENERGY PREDICTED BY IDOCK:    1.89 KCAL/MOL
REMARK 927      BINDING AFFINITY PREDICTED BY RF-SCORE:    0.00 PKD
ROOT
HETATM    1  C   UNL     1      -8.091   9.426  66.334  1.00  0.00    -0.108 C  
HETATM    2  C   UNL     1      -8.411   9.066  67.771  1.00  0.00    -0.117 C  
HETATM    3  C   UNL     1      -9.848   9.477  68.206  1.00  0.00    -0.174 C  
HETATM    4  C   UNL     1     -10.125  10.922  67.869  1.00  0.00    -0.199 C  
HETATM    5  C   UNL     1     -10.938  11.741  68.836  1.00  0.00    -0.239 C  
HETATM    6  C   UNL     1      -9.606  11.492  66.760  1.00  0.00    -0.186 C  
HETATM    7  C   UNL     1     -11.620  11.067  69.975  1.00  0.00    -0.427 A  
HETATM    8  O   UNL     1     -11.056  12.962  68.701  1.00  0.00    -0.244 OA 
HETATM    9  O   UNL     1      -9.740  12.858  66.498  1.00  0.00    -0.246 OA 
HETATM   10  C   UNL     1      -8.552  10.820  65.856  1.00  0.00    -0.179 C  
HETATM   11  C   UNL     1      -8.893  10.476  64.304  1.00  0.00    -0.197 C  
HETATM   12  H   UNL     1      -9.374  13.259  65.718  1.00  0.00     0.000 HD 
HETATM   13  O   UNL     1      -7.468  11.751  65.978  1.00  0.00    -0.300 OA 
HETATM   14  C   UNL     1     -12.574  11.757  70.749  1.00  0.00    -0.253 A  
HETATM   15  O   UNL     1      -9.754  11.041  63.634  1.00  0.00    -0.261 OA 
HETATM   16  H   UNL     1      -7.751  12.608  65.685  1.00  0.00     0.000 HD 
HETATM   17  C   UNL     1     -13.273  11.110  71.771  1.00  0.00    -0.486 A  
HETATM   18  O   UNL     1     -12.872  13.081  70.581  1.00  0.00    -0.149 OA 
HETATM   19  C   UNL     1      -7.971   9.435  63.630  1.00  0.00    -0.142 C  
HETATM   20  C   UNL     1      -8.864   9.396  70.591  1.00  0.00    -0.275 C  
HETATM   21  C   UNL     1      -6.758   9.579  64.210  1.00  0.00    -0.101 C  
HETATM   22  C   UNL     1     -13.023   9.771  72.035  1.00  0.00    -0.515 A  
HETATM   23  H   UNL     1     -13.515  13.547  71.103  1.00  0.00     0.000 HD 
HETATM   24  C   UNL     1      -6.660   9.083  65.720  1.00  0.00    -0.064 C  
HETATM   25  O   UNL     1     -10.274   7.655  69.684  1.00  0.00    -0.194 OA 
HETATM   26  C   UNL     1     -10.077   9.077  69.693  1.00  0.00    -0.197 C  
HETATM   27  O   UNL     1      -5.988  10.713  63.924  1.00  0.00    -0.336 OA 
HETATM   28  C   UNL     1     -12.037   9.095  71.318  1.00  0.00    -0.392 A  
HETATM   29  H   UNL     1     -10.413   7.411  70.592  1.00  0.00     0.000 HD 
HETATM   30  H   UNL     1      -5.136  10.815  64.331  1.00  0.00     0.000 HD 
HETATM   31  C   UNL     1     -11.301   9.738  70.298  1.00  0.00    -0.333 A  
ENDROOT
BRANCH  19  32
HETATM   32  C   UNL     1      -8.228   7.935  63.523  1.00  0.00    -0.008 C  
HETATM   33  H   UNL     1      -8.701   7.599  65.539  1.00  0.00     0.000 HD 
HETATM   34  O   UNL     1      -8.133   7.373  62.429  1.00  0.00    -0.136 OA 
HETATM   35  N   UNL     1      -8.601   7.187  64.612  1.00  0.00     0.177 N  
BRANCH  35  36
HETATM   36  C   UNL     1      -8.844   5.783  64.371  1.00  0.00     0.252 C  
BRANCH  36  37
HETATM   37  N   UNL     1      -8.887   5.038  65.618  1.00  0.00    -0.138 NA 
HETATM   38  C   UNL     1      -7.644   5.236  66.392  1.00  0.00    -0.088 C  
HETATM   39  C   UNL     1      -8.024   4.708  67.761  1.00  0.00    -0.092 C  
HETATM   40  C   UNL     1      -9.468   5.151  67.926  1.00  0.00    -0.155 C  
HETATM   41  C   UNL     1      -9.960   5.468  66.516  1.00  0.00    -0.185 C  
ENDBRANCH  36  37
ENDBRANCH  35  36
ENDBRANCH  19  32
BRANCH  24  42
HETATM   42  N   UNL     1      -5.388   9.563  66.302  1.00  0.00    -0.043 NA 
HETATM   43  C   UNL     1      -5.126   8.892  67.582  1.00  0.00    -0.034 C  
HETATM   44  C   UNL     1      -5.200  10.990  66.437  1.00  0.00    -0.109 C  
ENDBRANCH  24  42
TORSDOF 4
ENDMDL
MODEL       84
REMARK 921   NORMALIZED FREE ENERGY PREDICTED BY IDOCK:   -3.27 KCAL/MOL
REMARK 922        TOTAL FREE ENERGY PREDICTED BY IDOCK:   -4.61 KCAL/MOL
REMARK 923 INTER-LIGAND FREE ENERGY PREDICTED BY IDOCK:   -7.76 KCAL/MOL
REMARK 924 INTRA-LIGAND FREE ENERGY PREDICTED BY IDOCK:    3.14 KCAL/MOL
REMARK 927      BINDING AFFINITY PREDICTED BY RF-SCORE:    0.00 PKD
ROOT
HETATM    1  C   UNL     1     -10.194  11.924  67.308  1.00  0.00    -0.220 C  
HETATM    2  C   UNL     1     -10.788  10.914  68.269  1.00  0.00    -0.272 C  
HETATM    3  C   UNL     1      -9.856  10.581  69.470  1.00  0.00    -0.170 C  
HETATM    4  C   UNL     1      -8.468  10.221  68.997  1.00  0.00    -0.150 C  
HETATM    5  C   UNL     1      -7.724   9.130  69.721  1.00  0.00    -0.082 C  
HETATM    6  C   UNL     1      -7.925  10.815  67.913  1.00  0.00    -0.110 C  
HETATM    7  C   UNL     1      -8.274   8.587  70.993  1.00  0.00    -0.163 A  
HETATM    8  O   UNL     1      -6.663   8.678  69.281  1.00  0.00    -0.048 OA 
HETATM    9  O   UNL     1      -6.699  10.406  67.381  1.00  0.00    -0.070 OA 
HETATM   10  C   UNL     1      -8.702  11.741  66.956  1.00  0.00    -0.181 C  
HETATM   11  C   UNL     1      -8.271  13.299  66.782  1.00  0.00     0.166 C  
HETATM   12  H   UNL     1      -6.317  10.823  66.618  1.00  0.00     0.000 HD 
HETATM   13  O   UNL     1      -8.586  11.008  65.728  1.00  0.00    -0.180 OA 
HETATM   14  C   UNL     1      -7.491   7.747  71.811  1.00  0.00    -0.072 A  
HETATM   15  O   UNL     1      -7.151  13.747  67.018  1.00  0.00     0.006 OA 
HETATM   16  H   UNL     1      -7.669  10.896  65.511  1.00  0.00     0.000 HD 
HETATM   17  C   UNL     1      -7.971   7.294  73.042  1.00  0.00    -0.116 A  
HETATM   18  O   UNL     1      -6.243   7.304  71.469  1.00  0.00    -0.037 OA 
HETATM   19  C   UNL     1      -9.344  14.228  66.169  1.00  0.00    -0.191 C  
HETATM   20  C   UNL     1     -11.237   8.402  69.596  1.00  0.00     0.089 C  
HETATM   21  C   UNL     1     -10.065  13.457  65.322  1.00  0.00    -0.249 C  
HETATM   22  C   UNL     1      -9.238   7.671  73.468  1.00  0.00    -0.331 A  
HETATM   23  H   UNL     1      -5.715   6.738  72.020  1.00  0.00     0.000 HD 
HETATM   24  C   UNL     1     -11.009  12.380  66.016  1.00  0.00    -0.289 C  
HETATM   25  O   UNL     1     -11.551  10.256  71.116  1.00  0.00    -0.355 OA 
HETATM   26  C   UNL     1     -10.546   9.531  70.390  1.00  0.00    -0.276 C  
HETATM   27  O   UNL     1      -9.488  13.030  64.119  1.00  0.00    -0.398 OA 
HETATM   28  C   UNL     1     -10.044   8.450  72.640  1.00  0.00    -0.322 A  
HETATM   29  H   UNL     1     -11.972   9.615  71.677  1.00  0.00     0.000 HD 
HETATM   30  H   UNL     1      -9.994  12.488  63.525  1.00  0.00     0.000 HD 
HETATM   31  C   UNL     1      -9.588   8.895  71.380  1.00  0.00    -0.359 A  
ENDROOT
BRANCH  19  32
HETATM   32  C   UNL     1     -10.345  15.084  66.938  1.00  0.00    -0.266 C  
HETATM   33  H   UNL     1      -8.951  16.208  68.031  1.00  0.00     0.000 HD 
HETATM   34  O   UNL     1     -11.553  14.943  66.738  1.00  0.00    -0.344 OA 
HETATM   35  N   UNL     1      -9.937  16.044  67.831  1.00  0.00    -0.231 N  
BRANCH  35  36
HETATM   36  C   UNL     1     -10.983  16.808  68.470  1.00  0.00    -0.312 C  
BRANCH  36  37
HETATM   37  N   UNL     1     -11.090  18.137  67.892  1.00  0.00    -0.054 NA 
HETATM   38  C   UNL     1     -10.220  19.093  68.607  1.00  0.00    -0.330 C  
HETATM   39  C   UNL     1     -10.188  20.277  67.660  1.00  0.00    -0.469 C  
HETATM   40  C   UNL     1     -10.163  19.633  66.285  1.00  0.00    -0.598 C  
HETATM   41  C   UNL     1     -10.650  18.201  66.497  1.00  0.00    -0.272 C  
ENDBRANCH  36  37
ENDBRANCH  35  36
ENDBRANCH  19  32
BRANCH  24  42
HETATM   42  N   UNL     1     -11.499  11.437  64.988  1.00  0.00    -0.033 NA 
HETATM   43  C   UNL     1     -10.480  10.419  64.699  1.00  0.00     0.023 C  
HETATM   44  C   UNL     1     -12.019  11.987  63.755  1.00  0.00    -0.490 C  
ENDBRANCH  24  42
TORSDOF 4
ENDMDL
MODEL       85
REMARK 921   NORMALIZED FREE ENERGY PREDICTED BY IDOCK:   -2.75 KCAL/MOL
REMARK 922        TOTAL FREE ENERGY PREDICTED BY IDOCK:   -3.97 KCAL/MOL
REMARK 923 INTER-LIGAND FREE ENERGY PREDICTED BY IDOCK:   -4.01 KCAL/MOL
REMARK 924 INTRA-LIGAND FREE ENERGY PREDICTED BY IDOCK:    0.04 KCAL/MOL
REMARK 927      BINDING AFFINITY PREDICTED BY RF-SCORE:    0.00 PKD
ROOT
HETATM    1  C   UNL     1      -7.991   6.361  66.927  1.00  0.00    -0.109 C  
HETATM    2  C   UNL     1      -9.032   5.586  67.710  1.00  0.00    -0.108 C  
HETATM    3  C   UNL     1      -8.926   5.791  69.249  1.00  0.00    -0.122 C  
HETATM    4  C   UNL     1      -7.514   5.563  69.732  1.00  0.00    -0.070 C  
HETATM    5  C   UNL     1      -7.312   4.882  71.060  1.00  0.00    -0.061 C  
HETATM    6  C   UNL     1      -6.453   5.902  68.969  1.00  0.00    -0.049 C  
HETATM    7  C   UNL     1      -8.482   4.645  71.949  1.00  0.00    -0.120 A  
HETATM    8  O   UNL     1      -6.191   4.519  71.429  1.00  0.00    -0.017 OA 
HETATM    9  O   UNL     1      -5.144   5.581  69.338  1.00  0.00    -0.003 OA 
HETATM   10  C   UNL     1      -6.556   6.353  67.498  1.00  0.00    -0.054 C  
HETATM   11  C   UNL     1      -6.079   7.844  67.056  1.00  0.00    -0.053 C  
HETATM   12  H   UNL     1      -4.397   5.819  68.801  1.00  0.00     0.000 HD 
HETATM   13  O   UNL     1      -5.789   5.327  66.853  1.00  0.00    -0.017 OA 
HETATM   14  C   UNL     1      -8.296   4.234  73.284  1.00  0.00    -0.090 A  
HETATM   15  O   UNL     1      -5.273   8.534  67.674  1.00  0.00    -0.033 OA 
HETATM   16  H   UNL     1      -4.907   5.322  67.204  1.00  0.00     0.000 HD 
HETATM   17  C   UNL     1      -9.384   4.083  74.147  1.00  0.00    -0.115 A  
HETATM   18  O   UNL     1      -7.074   3.942  73.824  1.00  0.00    -0.056 OA 
HETATM   19  C   UNL     1      -6.619   8.345  65.697  1.00  0.00    -0.052 C  
HETATM   20  C   UNL     1     -10.175   3.533  69.367  1.00  0.00     0.971 C  
HETATM   21  C   UNL     1      -6.760   7.245  64.923  1.00  0.00    -0.047 C  
HETATM   22  C   UNL     1     -10.669   4.334  73.685  1.00  0.00    -0.336 A  
HETATM   23  H   UNL     1      -6.948   3.665  74.725  1.00  0.00     0.000 HD 
HETATM   24  C   UNL     1      -7.946   6.267  65.336  1.00  0.00    -0.118 C  
HETATM   25  O   UNL     1     -11.254   5.662  69.753  1.00  0.00    -0.274 OA 
HETATM   26  C   UNL     1     -10.026   4.950  69.963  1.00  0.00    -0.253 C  
HETATM   27  O   UNL     1      -5.620   6.595  64.434  1.00  0.00    -0.029 OA 
HETATM   28  C   UNL     1     -10.870   4.680  72.350  1.00  0.00    -0.131 A  
HETATM   29  H   UNL     1     -11.924   5.149  70.189  1.00  0.00     0.000 HD 
HETATM   30  H   UNL     1      -5.719   5.823  63.891  1.00  0.00     0.000 HD 
HETATM   31  C   UNL     1      -9.786   4.812  71.455  1.00  0.00    -0.240 A  
ENDROOT
BRANCH  19  32
HETATM   32  C   UNL     1      -7.867   9.195  65.478  1.00  0.00    -0.095 C  
HETATM   33  H   UNL     1      -8.955   8.506  67.135  1.00  0.00     0.000 HD 
HETATM   34  O   UNL     1      -7.912   9.984  64.532  1.00  0.00    -0.139 OA 
HETATM   35  N   UNL     1      -8.940   9.135  66.333  1.00  0.00    -0.142 N  
BRANCH  35  36
HETATM   36  C   UNL     1     -10.047  10.014  66.032  1.00  0.00    -0.248 C  
BRANCH  36  37
HETATM   37  N   UNL     1     -10.380  10.847  67.175  1.00  0.00    -0.210 NA 
HETATM   38  C   UNL     1     -11.440  11.816  66.827  1.00  0.00    -0.281 C  
HETATM   39  C   UNL     1     -11.890  12.311  68.188  1.00  0.00    -0.372 C  
HETATM   40  C   UNL     1     -11.823  11.068  69.059  1.00  0.00    -0.399 C  
HETATM   41  C   UNL     1     -10.920  10.092  68.307  1.00  0.00    -0.248 C  
ENDBRANCH  36  37
ENDBRANCH  35  36
ENDBRANCH  19  32
BRANCH  24  42
HETATM   42  N   UNL     1      -7.797   4.993  64.600  1.00  0.00    -0.088 NA 
HETATM   43  C   UNL     1      -8.550   5.038  63.341  1.00  0.00    -0.109 C  
HETATM   44  C   UNL     1      -8.081   3.763  65.308  1.00  0.00    -0.097 C  
ENDBRANCH  24  42
TORSDOF 4
ENDMDL
MODEL       86
REMARK 921   NORMALIZED FREE ENERGY PREDICTED BY IDOCK:   -2.52 KCAL/MOL
REMARK 922        TOTAL FREE ENERGY PREDICTED BY IDOCK:   -3.68 KCAL/MOL
REMARK 923 INTER-LIGAND FREE ENERGY PREDICTED BY IDOCK:   -4.18 KCAL/MOL
REMARK 924 INTRA-LIGAND FREE ENERGY PREDICTED BY IDOCK:    0.49 KCAL/MOL
REMARK 927      BINDING AFFINITY PREDICTED BY RF-SCORE:    0.00 PKD
ROOT
HETATM    1  C   UNL     1      -9.321  15.864  67.312  1.00  0.00    -0.218 C  
HETATM    2  C   UNL     1      -8.410  14.749  67.787  1.00  0.00    -0.166 C  
HETATM    3  C   UNL     1      -8.118  13.682  66.692  1.00  0.00     0.475 C  
HETATM    4  C   UNL     1      -9.396  13.189  66.057  1.00  0.00    -0.023 C  
HETATM    5  C   UNL     1      -9.499  11.733  65.691  1.00  0.00    -0.192 C  
HETATM    6  C   UNL     1     -10.450  14.015  65.878  1.00  0.00    -0.309 C  
HETATM    7  C   UNL     1      -8.287  10.871  65.762  1.00  0.00    -0.133 A  
HETATM    8  O   UNL     1     -10.570  11.238  65.327  1.00  0.00    -0.275 OA 
HETATM    9  O   UNL     1     -11.683  13.551  65.416  1.00  0.00    -0.315 OA 
HETATM   10  C   UNL     1     -10.537  15.441  66.459  1.00  0.00    -0.306 C  
HETATM   11  C   UNL     1     -10.639  16.730  65.473  1.00  0.00    -0.230 C  
HETATM   12  H   UNL     1     -12.424  14.131  65.290  1.00  0.00     0.000 HD 
HETATM   13  O   UNL     1     -11.691  15.312  67.301  1.00  0.00    -0.244 OA 
HETATM   14  C   UNL     1      -8.294   9.577  65.202  1.00  0.00    -0.142 A  
HETATM   15  O   UNL     1     -11.055  16.697  64.317  1.00  0.00    -1.029 OA 
HETATM   16  H   UNL     1     -12.439  15.052  66.777  1.00  0.00     0.000 HD 
HETATM   17  C   UNL     1      -7.139   8.791  65.197  1.00  0.00    -0.086 A  
HETATM   18  O   UNL     1      -9.402   8.996  64.649  1.00  0.00    -0.425 OA 
HETATM   19  C   UNL     1     -10.281  18.092  66.110  1.00  0.00    -0.364 C  
HETATM   20  C   UNL     1      -7.592  12.149  68.702  1.00  0.00    -0.097 C  
HETATM   21  C   UNL     1     -10.639  18.001  67.412  1.00  0.00    -0.365 C  
HETATM   22  C   UNL     1      -5.968   9.285  65.755  1.00  0.00    -0.055 A  
HETATM   23  H   UNL     1      -9.407   8.124  64.272  1.00  0.00     0.000 HD 
HETATM   24  C   UNL     1      -9.732  17.043  68.303  1.00  0.00    -0.275 C  
HETATM   25  O   UNL     1      -5.879  13.167  67.332  1.00  0.00    -0.303 OA 
HETATM   26  C   UNL     1      -7.187  12.578  67.276  1.00  0.00    -0.114 C  
HETATM   27  O   UNL     1     -11.997  17.994  67.753  1.00  0.00     1.399 OA 
HETATM   28  C   UNL     1      -5.967  10.537  66.368  1.00  0.00    -0.084 A  
HETATM   29  H   UNL     1      -5.312  12.493  67.688  1.00  0.00     0.000 HD 
HETATM   30  H   UNL     1     -12.249  17.929  68.667  1.00  0.00     0.000 HD 
HETATM   31  C   UNL     1      -7.130  11.336  66.407  1.00  0.00    -0.053 A  
ENDROOT
BRANCH  19  32
HETATM   32  C   UNL     1      -8.917  18.773  66.080  1.00  0.00    -0.139 C  
HETATM   33  H   UNL     1      -7.844  17.269  67.075  1.00  0.00     0.000 HD 
HETATM   34  O   UNL     1      -8.792  19.872  65.534  1.00  0.00    -0.233 OA 
HETATM   35  N   UNL     1      -7.801  18.179  66.617  1.00  0.00    -0.231 N  
BRANCH  35  36
HETATM   36  C   UNL     1      -6.564  18.915  66.496  1.00  0.00    -0.194 C  
BRANCH  36  37
HETATM   37  N   UNL     1      -5.858  18.967  67.766  1.00  0.00    -0.195 NA 
HETATM   38  C   UNL     1      -6.327  20.107  68.580  1.00  0.00    -0.300 C  
HETATM   39  C   UNL     1      -5.769  19.779  69.952  1.00  0.00    -0.304 C  
HETATM   40  C   UNL     1      -5.912  18.270  70.044  1.00  0.00    -0.168 C  
HETATM   41  C   UNL     1      -6.084  17.789  68.604  1.00  0.00    -0.192 C  
ENDBRANCH  36  37
ENDBRANCH  35  36
ENDBRANCH  19  32
BRANCH  24  42
HETATM   42  N   UNL     1     -10.403  16.818  69.602  1.00  0.00    -0.211 NA 
HETATM   43  C   UNL     1     -10.385  18.046  70.407  1.00  0.00     1.650 C  
HETATM   44  C   UNL     1      -9.975  15.690  70.400  1.00  0.00     0.269 C  
ENDBRANCH  24  42
TORSDOF 4
ENDMDL
MODEL       87
REMARK 921   NORMALIZED FREE ENERGY PREDICTED BY IDOCK:   -2.42 KCAL/MOL
REMARK 922        TOTAL FREE ENERGY PREDICTED BY IDOCK:   -3.56 KCAL/MOL
REMARK 923 INTER-LIGAND FREE ENERGY PREDICTED BY IDOCK:   -5.83 KCAL/MOL
REMARK 924 INTRA-LIGAND FREE ENERGY PREDICTED BY IDOCK:    2.27 KCAL/MOL
REMARK 927      BINDING AFFINITY PREDICTED BY RF-SCORE:    0.00 PKD
ROOT
HETATM    1  C   UNL     1      -8.908  16.343  68.241  1.00  0.00    -0.202 C  
HETATM    2  C   UNL     1     -10.095  16.325  69.183  1.00  0.00    -0.264 C  
HETATM    3  C   UNL     1     -10.384  14.919  69.786  1.00  0.00    -0.111 C  
HETATM    4  C   UNL     1     -10.455  13.868  68.704  1.00  0.00    -0.249 C  
HETATM    5  C   UNL     1     -11.473  12.767  68.841  1.00  0.00    -0.305 C  
HETATM    6  C   UNL     1      -9.673  13.943  67.606  1.00  0.00    -0.226 C  
HETATM    7  C   UNL     1     -12.225  12.618  70.117  1.00  0.00    -0.310 A  
HETATM    8  O   UNL     1     -11.693  11.980  67.916  1.00  0.00    -0.375 OA 
HETATM    9  O   UNL     1      -9.814  13.057  66.535  1.00  0.00    -0.251 OA 
HETATM   10  C   UNL     1      -8.800  15.163  67.250  1.00  0.00    -0.200 C  
HETATM   11  C   UNL     1      -7.182  15.026  67.166  1.00  0.00    -0.016 C  
HETATM   12  H   UNL     1      -9.264  13.110  65.763  1.00  0.00     0.000 HD 
HETATM   13  O   UNL     1      -9.376  15.541  65.992  1.00  0.00    -0.316 OA 
HETATM   14  C   UNL     1     -12.999  11.465  70.362  1.00  0.00     0.133 A  
HETATM   15  O   UNL     1      -6.578  13.976  66.962  1.00  0.00    -0.021 OA 
HETATM   16  H   UNL     1      -9.310  14.816  65.382  1.00  0.00     0.000 HD 
HETATM   17  C   UNL     1     -13.647  11.283  71.586  1.00  0.00     0.082 A  
HETATM   18  O   UNL     1     -13.189  10.470  69.443  1.00  0.00    -0.323 OA 
HETATM   19  C   UNL     1      -6.391  16.351  67.243  1.00  0.00    -0.215 C  
HETATM   20  C   UNL     1     -12.766  15.854  70.137  1.00  0.00     0.148 C  
HETATM   21  C   UNL     1      -7.183  17.292  66.679  1.00  0.00    -0.243 C  
HETATM   22  C   UNL     1     -13.534  12.250  72.576  1.00  0.00     0.035 A  
HETATM   23  H   UNL     1     -13.710   9.693  69.608  1.00  0.00     0.000 HD 
HETATM   24  C   UNL     1      -8.468  17.698  67.527  1.00  0.00    -0.219 C  
HETATM   25  O   UNL     1     -11.154  15.637  71.926  1.00  0.00    -0.276 OA 
HETATM   26  C   UNL     1     -11.622  15.001  70.727  1.00  0.00    -0.317 C  
HETATM   27  O   UNL     1      -7.385  17.283  65.293  1.00  0.00     0.371 OA 
HETATM   28  C   UNL     1     -12.823  13.422  72.322  1.00  0.00    -0.288 A  
HETATM   29  H   UNL     1     -11.909  15.687  72.500  1.00  0.00     0.000 HD 
HETATM   30  H   UNL     1      -7.941  17.943  64.898  1.00  0.00     0.000 HD 
HETATM   31  C   UNL     1     -12.183  13.638  71.082  1.00  0.00    -0.326 A  
ENDROOT
BRANCH  19  32
HETATM   32  C   UNL     1      -5.797  16.978  68.500  1.00  0.00    -0.140 C  
HETATM   33  H   UNL     1      -6.498  15.549  69.868  1.00  0.00     0.000 HD 
HETATM   34  O   UNL     1      -5.126  18.009  68.413  1.00  0.00    -0.153 OA 
HETATM   35  N   UNL     1      -5.958  16.405  69.738  1.00  0.00    -0.193 N  
BRANCH  35  36
HETATM   36  C   UNL     1      -5.319  17.080  70.843  1.00  0.00    -0.123 C  
BRANCH  36  37
HETATM   37  N   UNL     1      -5.383  18.523  70.684  1.00  0.00    -0.251 NA 
HETATM   38  C   UNL     1      -6.732  18.945  70.251  1.00  0.00     0.418 C  
HETATM   39  C   UNL     1      -6.700  20.441  70.497  1.00  0.00     0.283 C  
HETATM   40  C   UNL     1      -5.899  20.575  71.780  1.00  0.00    -0.145 C  
HETATM   41  C   UNL     1      -5.142  19.257  71.927  1.00  0.00    -0.198 C  
ENDBRANCH  36  37
ENDBRANCH  35  36
ENDBRANCH  19  32
BRANCH  24  42
HETATM   42  N   UNL     1      -9.373  18.499  66.674  1.00  0.00    -0.301 NA 
HETATM   43  C   UNL     1      -8.785  19.817  66.400  1.00  0.00    -0.368 C  
HETATM   44  C   UNL     1     -10.749  18.644  67.093  1.00  0.00    -0.377 C  
ENDBRANCH  24  42
TORSDOF 4
ENDMDL
MODEL       88
REMARK 921   NORMALIZED FREE ENERGY PREDICTED BY IDOCK:   -2.40 KCAL/MOL
REMARK 922        TOTAL FREE ENERGY PREDICTED BY IDOCK:   -3.54 KCAL/MOL
REMARK 923 INTER-LIGAND FREE ENERGY PREDICTED BY IDOCK:   -4.05 KCAL/MOL
REMARK 924 INTRA-LIGAND FREE ENERGY PREDICTED BY IDOCK:    0.51 KCAL/MOL
REMARK 927      BINDING AFFINITY PREDICTED BY RF-SCORE:    0.00 PKD
ROOT
HETATM    1  C   UNL     1      -8.344   7.526  69.116  1.00  0.00    -0.135 C  
HETATM    2  C   UNL     1      -7.535   7.145  67.892  1.00  0.00    -0.099 C  
HETATM    3  C   UNL     1      -8.343   6.315  66.852  1.00  0.00    -0.109 C  
HETATM    4  C   UNL     1      -9.034   5.144  67.509  1.00  0.00    -0.110 C  
HETATM    5  C   UNL     1      -9.112   3.843  66.756  1.00  0.00    -0.150 C  
HETATM    6  C   UNL     1      -9.517   5.236  68.767  1.00  0.00    -0.128 C  
HETATM    7  C   UNL     1      -8.705   3.798  65.325  1.00  0.00    -0.116 A  
HETATM    8  O   UNL     1      -9.511   2.810  67.302  1.00  0.00    -0.159 OA 
HETATM    9  O   UNL     1     -10.041   4.130  69.440  1.00  0.00    -0.075 OA 
HETATM   10  C   UNL     1      -9.252   6.428  69.709  1.00  0.00    -0.144 C  
HETATM   11  C   UNL     1     -10.481   7.349  70.242  1.00  0.00    -0.221 C  
HETATM   12  H   UNL     1     -10.381   4.194  70.325  1.00  0.00     0.000 HD 
HETATM   13  O   UNL     1      -8.567   5.767  70.782  1.00  0.00    -0.126 OA 
HETATM   14  C   UNL     1      -8.989   2.667  64.534  1.00  0.00    -0.121 A  
HETATM   15  O   UNL     1     -11.653   6.984  70.310  1.00  0.00    -0.299 OA 
HETATM   16  H   UNL     1      -9.125   5.092  71.147  1.00  0.00     0.000 HD 
HETATM   17  C   UNL     1      -8.679   2.646  63.172  1.00  0.00    -0.085 A  
HETATM   18  O   UNL     1      -9.559   1.524  65.023  1.00  0.00    -0.301 OA 
HETATM   19  C   UNL     1     -10.087   8.737  70.795  1.00  0.00    -0.261 C  
HETATM   20  C   UNL     1      -6.013   5.521  66.071  1.00  0.00    -0.022 C  
HETATM   21  C   UNL     1      -8.855   8.589  71.334  1.00  0.00    -0.198 C  
HETATM   22  C   UNL     1      -8.076   3.751  62.587  1.00  0.00    -0.071 A  
HETATM   23  H   UNL     1      -9.752   0.761  64.490  1.00  0.00     0.000 HD 
HETATM   24  C   UNL     1      -7.675   8.374  70.288  1.00  0.00    -0.080 C  
HETATM   25  O   UNL     1      -7.313   7.175  64.880  1.00  0.00    -0.074 OA 
HETATM   26  C   UNL     1      -7.428   5.964  65.642  1.00  0.00    -0.081 C  
HETATM   27  O   UNL     1      -8.708   7.871  72.527  1.00  0.00    -0.125 OA 
HETATM   28  C   UNL     1      -7.733   4.851  63.372  1.00  0.00    -0.072 A  
HETATM   29  H   UNL     1      -6.755   6.960  64.142  1.00  0.00     0.000 HD 
HETATM   30  H   UNL     1      -7.843   7.766  72.906  1.00  0.00     0.000 HD 
HETATM   31  C   UNL     1      -8.014   4.880  64.756  1.00  0.00    -0.098 A  
ENDROOT
BRANCH  19  32
HETATM   32  C   UNL     1     -10.067  10.049  70.017  1.00  0.00    -0.239 C  
HETATM   33  H   UNL     1      -7.983  10.259  69.899  1.00  0.00     0.000 HD 
HETATM   34  O   UNL     1     -11.129  10.575  69.674  1.00  0.00    -0.244 OA 
HETATM   35  N   UNL     1      -8.890  10.652  69.649  1.00  0.00     0.044 N  
BRANCH  35  36
HETATM   36  C   UNL     1      -9.008  11.874  68.888  1.00  0.00     0.172 C  
BRANCH  36  37
HETATM   37  N   UNL     1      -7.728  12.555  68.789  1.00  0.00    -0.053 NA 
HETATM   38  C   UNL     1      -6.612  11.606  68.981  1.00  0.00    -0.092 C  
HETATM   39  C   UNL     1      -5.418  12.401  68.487  1.00  0.00    -0.055 C  
HETATM   40  C   UNL     1      -5.971  13.175  67.303  1.00  0.00     0.148 C  
HETATM   41  C   UNL     1      -7.488  13.154  67.475  1.00  0.00    -0.160 C  
ENDBRANCH  36  37
ENDBRANCH  35  36
ENDBRANCH  19  32
BRANCH  24  42
HETATM   42  N   UNL     1      -6.462   7.942  71.015  1.00  0.00    -0.037 NA 
HETATM   43  C   UNL     1      -5.604   9.097  71.311  1.00  0.00    -0.051 C  
HETATM   44  C   UNL     1      -5.676   6.869  70.447  1.00  0.00    -0.024 C  
ENDBRANCH  24  42
TORSDOF 4
ENDMDL
MODEL       89
REMARK 921   NORMALIZED FREE ENERGY PREDICTED BY IDOCK:   -2.05 KCAL/MOL
REMARK 922        TOTAL FREE ENERGY PREDICTED BY IDOCK:   -3.10 KCAL/MOL
REMARK 923 INTER-LIGAND FREE ENERGY PREDICTED BY IDOCK:   -4.49 KCAL/MOL
REMARK 924 INTRA-LIGAND FREE ENERGY PREDICTED BY IDOCK:    1.39 KCAL/MOL
REMARK 927      BINDING AFFINITY PREDICTED BY RF-SCORE:    0.00 PKD
ROOT
HETATM    1  C   UNL     1      -8.334  11.654  67.834  1.00  0.00    -0.143 C  
HETATM    2  C   UNL     1      -9.480  10.666  67.920  1.00  0.00    -0.168 C  
HETATM    3  C   UNL     1      -9.952  10.393  69.378  1.00  0.00    -0.240 C  
HETATM    4  C   UNL     1      -8.786  10.045  70.271  1.00  0.00     0.064 C  
HETATM    5  C   UNL     1      -8.984   8.995  71.332  1.00  0.00    -0.173 C  
HETATM    6  C   UNL     1      -7.574  10.612  70.088  1.00  0.00     0.356 C  
HETATM    7  C   UNL     1     -10.354   8.486  71.613  1.00  0.00    -0.333 A  
HETATM    8  O   UNL     1      -8.031   8.550  71.977  1.00  0.00    -0.155 OA 
HETATM    9  O   UNL     1      -6.452  10.209  70.816  1.00  0.00    -0.230 OA 
HETATM   10  C   UNL     1      -7.205  11.489  68.874  1.00  0.00    -0.117 C  
HETATM   11  C   UNL     1      -6.791  13.048  69.076  1.00  0.00    -0.081 C  
HETATM   12  H   UNL     1      -5.599  10.607  70.687  1.00  0.00     0.000 HD 
HETATM   13  O   UNL     1      -6.139  10.715  68.306  1.00  0.00    -0.047 OA 
HETATM   14  C   UNL     1     -10.603   7.691  72.750  1.00  0.00    -0.325 A  
HETATM   15  O   UNL     1      -6.347  13.526  70.118  1.00  0.00    -0.111 OA 
HETATM   16  H   UNL     1      -5.445  10.614  68.945  1.00  0.00     0.000 HD 
HETATM   17  C   UNL     1     -11.899   7.272  73.063  1.00  0.00     0.193 A  
HETATM   18  O   UNL     1      -9.625   7.261  73.604  1.00  0.00    -0.219 OA 
HETATM   19  C   UNL     1      -6.873  13.933  67.812  1.00  0.00    -0.184 C  
HETATM   20  C   UNL     1     -10.872   8.194  68.386  1.00  0.00     0.036 C  
HETATM   21  C   UNL     1      -6.593  13.119  66.768  1.00  0.00     1.242 C  
HETATM   22  C   UNL     1     -12.957   7.637  72.242  1.00  0.00    -0.024 A  
HETATM   23  H   UNL     1      -9.793   6.725  74.370  1.00  0.00     0.000 HD 
HETATM   24  C   UNL     1      -7.718  12.048  66.417  1.00  0.00     0.284 C  
HETATM   25  O   UNL     1     -12.272  10.092  68.916  1.00  0.00    -0.494 OA 
HETATM   26  C   UNL     1     -11.120   9.363  69.363  1.00  0.00    -0.076 C  
HETATM   27  O   UNL     1      -5.282  12.662  66.583  1.00  0.00    -0.313 OA 
HETATM   28  C   UNL     1     -12.714   8.371  71.082  1.00  0.00    -0.121 A  
HETATM   29  H   UNL     1     -12.985   9.463  68.907  1.00  0.00     0.000 HD 
HETATM   30  H   UNL     1      -5.086  12.090  65.850  1.00  0.00     0.000 HD 
HETATM   31  C   UNL     1     -11.408   8.781  70.734  1.00  0.00    -0.313 A  
ENDROOT
BRANCH  19  32
HETATM   32  C   UNL     1      -8.057  14.795  67.387  1.00  0.00    -0.198 C  
HETATM   33  H   UNL     1      -8.728  13.575  65.818  1.00  0.00     0.000 HD 
HETATM   34  O   UNL     1      -8.308  15.836  67.999  1.00  0.00    -0.150 OA 
HETATM   35  N   UNL     1      -8.884  14.428  66.355  1.00  0.00    -0.096 N  
BRANCH  35  36
HETATM   36  C   UNL     1      -9.988  15.316  66.072  1.00  0.00    -0.319 C  
BRANCH  36  37
HETATM   37  N   UNL     1     -10.905  14.723  65.112  1.00  0.00    -0.375 NA 
HETATM   38  C   UNL     1     -10.295  13.544  64.463  1.00  0.00    -0.358 C  
HETATM   39  C   UNL     1     -11.490  12.878  63.808  1.00  0.00    -0.519 C  
HETATM   40  C   UNL     1     -12.609  13.084  64.815  1.00  0.00    -0.460 C  
HETATM   41  C   UNL     1     -12.137  14.220  65.721  1.00  0.00    -0.405 C  
ENDBRANCH  36  37
ENDBRANCH  35  36
ENDBRANCH  19  32
BRANCH  24  42
HETATM   42  N   UNL     1      -7.161  11.060  65.468  1.00  0.00     0.123 NA 
HETATM   43  C   UNL     1      -8.158  10.716  64.445  1.00  0.00     0.044 C  
HETATM   44  C   UNL     1      -6.565   9.859  66.010  1.00  0.00    -0.086 C  
ENDBRANCH  24  42
TORSDOF 4
ENDMDL
MODEL       90
REMARK 921   NORMALIZED FREE ENERGY PREDICTED BY IDOCK:   -1.65 KCAL/MOL
REMARK 922        TOTAL FREE ENERGY PREDICTED BY IDOCK:   -2.61 KCAL/MOL
REMARK 923 INTER-LIGAND FREE ENERGY PREDICTED BY IDOCK:   -2.09 KCAL/MOL
REMARK 924 INTRA-LIGAND FREE ENERGY PREDICTED BY IDOCK:   -0.52 KCAL/MOL
REMARK 927      BINDING AFFINITY PREDICTED BY RF-SCORE:    0.00 PKD
ROOT
HETATM    1  C   UNL     1      -8.666   6.273  69.368  1.00  0.00    -0.128 C  
HETATM    2  C   UNL     1      -7.375   5.938  68.649  1.00  0.00    -0.085 C  
HETATM    3  C   UNL     1      -7.555   5.741  67.115  1.00  0.00    -0.099 C  
HETATM    4  C   UNL     1      -8.679   4.778  66.819  1.00  0.00    -0.107 C  
HETATM    5  C   UNL     1      -8.519   3.821  65.668  1.00  0.00    -0.110 C  
HETATM    6  C   UNL     1      -9.778   4.725  67.603  1.00  0.00    -0.160 C  
HETATM    7  C   UNL     1      -7.373   3.986  64.732  1.00  0.00    -0.071 A  
HETATM    8  O   UNL     1      -9.322   2.903  65.481  1.00  0.00    -0.149 OA 
HETATM    9  O   UNL     1     -10.767   3.755  67.426  1.00  0.00     0.889 OA 
HETATM   10  C   UNL     1      -9.916   5.469  68.947  1.00  0.00    -0.174 C  
HETATM   11  C   UNL     1     -11.055   6.611  69.146  1.00  0.00    -0.275 C  
HETATM   12  H   UNL     1     -11.540   3.718  67.977  1.00  0.00     0.000 HD 
HETATM   13  O   UNL     1     -10.097   4.362  69.842  1.00  0.00    -0.222 OA 
HETATM   14  C   UNL     1      -7.328   3.266  63.520  1.00  0.00    -0.054 A  
HETATM   15  O   UNL     1     -12.090   6.691  68.489  1.00  0.00     1.023 OA 
HETATM   16  H   UNL     1     -10.865   3.868  69.584  1.00  0.00     0.000 HD 
HETATM   17  C   UNL     1      -6.296   3.471  62.602  1.00  0.00    -0.021 A  
HETATM   18  O   UNL     1      -8.254   2.325  63.163  1.00  0.00    -0.071 OA 
HETATM   19  C   UNL     1     -10.833   7.580  70.330  1.00  0.00    -0.257 C  
HETATM   20  C   UNL     1      -5.372   4.375  67.303  1.00  0.00    -0.012 C  
HETATM   21  C   UNL     1     -10.185   6.867  71.280  1.00  0.00    -0.198 C  
HETATM   22  C   UNL     1      -5.295   4.390  62.885  1.00  0.00    -0.009 A  
HETATM   23  H   UNL     1      -8.224   1.840  62.346  1.00  0.00     0.000 HD 
HETATM   24  C   UNL     1      -8.671   6.504  70.945  1.00  0.00    -0.136 C  
HETATM   25  O   UNL     1      -5.451   6.627  66.426  1.00  0.00    -0.016 OA 
HETATM   26  C   UNL     1      -6.182   5.392  66.470  1.00  0.00    -0.035 C  
HETATM   27  O   UNL     1     -10.874   5.874  71.987  1.00  0.00    -0.233 OA 
HETATM   28  C   UNL     1      -5.295   5.061  64.107  1.00  0.00    -0.010 A  
HETATM   29  H   UNL     1      -4.613   6.413  66.032  1.00  0.00     0.000 HD 
HETATM   30  H   UNL     1     -10.419   5.374  72.653  1.00  0.00     0.000 HD 
HETATM   31  C   UNL     1      -6.315   4.849  65.060  1.00  0.00    -0.035 A  
ENDROOT
BRANCH  19  32
HETATM   32  C   UNL     1     -10.152   8.943  70.267  1.00  0.00    -0.189 C  
HETATM   33  H   UNL     1      -9.954   9.048  68.181  1.00  0.00     0.000 HD 
HETATM   34  O   UNL     1      -9.939   9.571  71.307  1.00  0.00    -0.255 OA 
HETATM   35  N   UNL     1      -9.797   9.518  69.072  1.00  0.00    -0.170 N  
BRANCH  35  36
HETATM   36  C   UNL     1      -9.187  10.826  69.147  1.00  0.00    -0.116 C  
BRANCH  36  37
HETATM   37  N   UNL     1      -7.775  10.728  69.479  1.00  0.00    -0.113 NA 
HETATM   38  C   UNL     1      -7.139   9.615  68.743  1.00  0.00    -0.067 C  
HETATM   39  C   UNL     1      -5.662   9.904  68.928  1.00  0.00    -0.035 C  
HETATM   40  C   UNL     1      -5.583  11.419  68.851  1.00  0.00    -0.042 C  
HETATM   41  C   UNL     1      -7.006  11.914  69.101  1.00  0.00    -0.079 C  
ENDBRANCH  36  37
ENDBRANCH  35  36
ENDBRANCH  19  32
BRANCH  24  42
HETATM   42  N   UNL     1      -8.193   5.497  71.917  1.00  0.00    -0.118 NA 
HETATM   43  C   UNL     1      -7.938   6.125  73.220  1.00  0.00    -0.103 C  
HETATM   44  C   UNL     1      -7.073   4.665  71.536  1.00  0.00    -0.051 C  
ENDBRANCH  24  42
TORSDOF 4
ENDMDL
MODEL       91
REMARK 921   NORMALIZED FREE ENERGY PREDICTED BY IDOCK:   -0.58 KCAL/MOL
REMARK 922        TOTAL FREE ENERGY PREDICTED BY IDOCK:   -1.30 KCAL/MOL
REMARK 923 INTER-LIGAND FREE ENERGY PREDICTED BY IDOCK:   -1.79 KCAL/MOL
REMARK 924 INTRA-LIGAND FREE ENERGY PREDICTED BY IDOCK:    0.50 KCAL/MOL
REMARK 927      BINDING AFFINITY PREDICTED BY RF-SCORE:    0.00 PKD
ROOT
HETATM    1  C   UNL     1     -10.086  15.284  67.654  1.00  0.00    -0.235 C  
HETATM    2  C   UNL     1     -10.123  13.787  67.888  1.00  0.00    -0.246 C  
HETATM    3  C   UNL     1     -11.402  13.310  68.636  1.00  0.00    -0.324 C  
HETATM    4  C   UNL     1     -11.636  14.123  69.887  1.00  0.00    -0.329 C  
HETATM    5  C   UNL     1     -12.165  13.422  71.109  1.00  0.00    -0.152 C  
HETATM    6  C   UNL     1     -11.320  15.436  69.935  1.00  0.00    -0.304 C  
HETATM    7  C   UNL     1     -12.640  12.015  71.000  1.00  0.00    -0.370 A  
HETATM    8  O   UNL     1     -12.217  13.992  72.202  1.00  0.00    -0.116 OA 
HETATM    9  O   UNL     1     -11.404  16.174  71.118  1.00  0.00    -0.387 OA 
HETATM   10  C   UNL     1     -10.532  16.175  68.834  1.00  0.00    -0.258 C  
HETATM   11  C   UNL     1     -11.216  17.397  68.008  1.00  0.00     0.150 C  
HETATM   12  H   UNL     1     -11.182  17.097  71.152  1.00  0.00     0.000 HD 
HETATM   13  O   UNL     1      -9.380  16.601  69.575  1.00  0.00    -0.078 OA 
HETATM   14  C   UNL     1     -13.356  11.417  72.056  1.00  0.00    -0.283 A  
HETATM   15  O   UNL     1     -12.154  18.079  68.414  1.00  0.00     2.169 OA 
HETATM   16  H   UNL     1      -9.655  17.148  70.301  1.00  0.00     0.000 HD 
HETATM   17  C   UNL     1     -13.871  10.124  71.933  1.00  0.00    -0.066 A  
HETATM   18  O   UNL     1     -13.584  12.027  73.259  1.00  0.00     1.021 OA 
HETATM   19  C   UNL     1     -10.536  17.765  66.670  1.00  0.00    -0.224 C  
HETATM   20  C   UNL     1      -9.947  11.275  69.277  1.00  0.00     0.022 C  
HETATM   21  C   UNL     1      -9.220  17.495  66.832  1.00  0.00    -0.265 C  
HETATM   22  C   UNL     1     -13.672   9.414  70.757  1.00  0.00     0.160 A  
HETATM   23  H   UNL     1     -14.067  11.624  73.971  1.00  0.00     0.000 HD 
HETATM   24  C   UNL     1      -8.845  15.950  66.906  1.00  0.00    -0.236 C  
HETATM   25  O   UNL     1     -11.642  11.199  67.554  1.00  0.00    -0.526 OA 
HETATM   26  C   UNL     1     -11.343  11.767  68.838  1.00  0.00    -0.267 C  
HETATM   27  O   UNL     1      -8.446  18.317  67.660  1.00  0.00    -0.250 OA 
HETATM   28  C   UNL     1     -12.912   9.971  69.730  1.00  0.00     0.757 A  
HETATM   29  H   UNL     1     -11.606  10.257  67.678  1.00  0.00     0.000 HD 
HETATM   30  H   UNL     1      -7.522  18.128  67.775  1.00  0.00     0.000 HD 
HETATM   31  C   UNL     1     -12.360  11.266  69.846  1.00  0.00    -0.301 A  
ENDROOT
BRANCH  19  32
HETATM   32  C   UNL     1     -10.920  17.246  65.288  1.00  0.00     0.091 C  
HETATM   33  H   UNL     1     -11.112  15.222  65.806  1.00  0.00     0.000 HD 
HETATM   34  O   UNL     1     -11.032  18.034  64.346  1.00  0.00     0.133 OA 
HETATM   35  N   UNL     1     -11.183  15.917  65.063  1.00  0.00    -0.329 N  
BRANCH  35  36
HETATM   36  C   UNL     1     -11.566  15.559  63.717  1.00  0.00     0.645 C  
BRANCH  36  37
HETATM   37  N   UNL     1     -12.473  14.423  63.715  1.00  0.00    -0.786 NA 
HETATM   38  C   UNL     1     -11.784  13.203  63.246  1.00  0.00    -0.206 C  
HETATM   39  C   UNL     1     -12.747  12.106  63.657  1.00  0.00    -0.549 C  
HETATM   40  C   UNL     1     -13.280  12.583  64.997  1.00  0.00     0.675 C  
HETATM   41  C   UNL     1     -12.978  14.080  65.045  1.00  0.00    -0.134 C  
ENDBRANCH  36  37
ENDBRANCH  35  36
ENDBRANCH  19  32
BRANCH  24  42
HETATM   42  N   UNL     1      -7.447  15.816  67.369  1.00  0.00    -0.174 NA 
HETATM   43  C   UNL     1      -6.571  16.728  66.622  1.00  0.00    -0.181 C  
HETATM   44  C   UNL     1      -6.870  14.490  67.411  1.00  0.00    -0.038 C  
ENDBRANCH  24  42
TORSDOF 4
ENDMDL
MODEL       92
REMARK 921   NORMALIZED FREE ENERGY PREDICTED BY IDOCK:    0.13 KCAL/MOL
REMARK 922        TOTAL FREE ENERGY PREDICTED BY IDOCK:   -0.42 KCAL/MOL
REMARK 923 INTER-LIGAND FREE ENERGY PREDICTED BY IDOCK:   -3.47 KCAL/MOL
REMARK 924 INTRA-LIGAND FREE ENERGY PREDICTED BY IDOCK:    3.06 KCAL/MOL
REMARK 927      BINDING AFFINITY PREDICTED BY RF-SCORE:    0.00 PKD
ROOT
HETATM    1  C   UNL     1      -8.429  10.261  67.539  1.00  0.00    -0.118 C  
HETATM    2  C   UNL     1      -9.629   9.551  68.135  1.00  0.00    -0.153 C  
HETATM    3  C   UNL     1      -9.443   9.177  69.634  1.00  0.00    -0.178 C  
HETATM    4  C   UNL     1      -8.139   8.448  69.855  1.00  0.00    -0.119 C  
HETATM    5  C   UNL     1      -8.107   7.322  70.854  1.00  0.00    -0.106 C  
HETATM    6  C   UNL     1      -7.040   8.752  69.132  1.00  0.00    -0.063 C  
HETATM    7  C   UNL     1      -9.281   7.095  71.741  1.00  0.00    -0.147 A  
HETATM    8  O   UNL     1      -7.123   6.584  70.956  1.00  0.00    -0.066 OA 
HETATM    9  O   UNL     1      -5.863   8.005  69.226  1.00  0.00    -0.032 OA 
HETATM   10  C   UNL     1      -7.042   9.695  67.912  1.00  0.00    -0.080 C  
HETATM   11  C   UNL     1      -6.182  11.075  67.933  1.00  0.00    -0.053 C  
HETATM   12  H   UNL     1      -5.090   8.218  68.718  1.00  0.00     0.000 HD 
HETATM   13  O   UNL     1      -6.599   8.797  66.884  1.00  0.00    -0.060 OA 
HETATM   14  C   UNL     1      -9.191   6.214  72.837  1.00  0.00    -0.134 A  
HETATM   15  O   UNL     1      -5.206  11.281  68.649  1.00  0.00    -0.044 OA 
HETATM   16  H   UNL     1      -5.745   8.449  67.113  1.00  0.00     0.000 HD 
HETATM   17  C   UNL     1     -10.263   6.053  73.718  1.00  0.00    -0.253 A  
HETATM   18  O   UNL     1      -8.087   5.455  73.112  1.00  0.00    -0.110 OA 
HETATM   19  C   UNL     1      -6.588  12.134  66.884  1.00  0.00    -0.006 C  
HETATM   20  C   UNL     1     -11.262   7.410  69.143  1.00  0.00     0.133 C  
HETATM   21  C   UNL     1      -7.040  11.444  65.811  1.00  0.00     0.464 C  
HETATM   22  C   UNL     1     -11.437   6.763  73.511  1.00  0.00     0.571 A  
HETATM   23  H   UNL     1      -8.025   4.862  73.851  1.00  0.00     0.000 HD 
HETATM   24  C   UNL     1      -8.441  10.715  66.011  1.00  0.00    -0.165 C  
HETATM   25  O   UNL     1     -11.706   9.472  70.325  1.00  0.00    -0.398 OA 
HETATM   26  C   UNL     1     -10.718   8.446  70.150  1.00  0.00    -0.236 C  
HETATM   27  O   UNL     1      -6.131  10.739  65.013  1.00  0.00    -0.336 OA 
HETATM   28  C   UNL     1     -11.560   7.589  72.394  1.00  0.00    -0.356 A  
HETATM   29  H   UNL     1     -12.484   9.026  70.639  1.00  0.00     0.000 HD 
HETATM   30  H   UNL     1      -6.448  10.254  64.260  1.00  0.00     0.000 HD 
HETATM   31  C   UNL     1     -10.498   7.745  71.477  1.00  0.00    -0.239 A  
ENDROOT
BRANCH  19  32
HETATM   32  C   UNL     1      -7.558  13.292  67.096  1.00  0.00     0.030 C  
HETATM   33  H   UNL     1      -6.226  14.578  68.085  1.00  0.00     0.000 HD 
HETATM   34  O   UNL     1      -8.713  13.210  66.673  1.00  0.00    -0.137 OA 
HETATM   35  N   UNL     1      -7.171  14.452  67.720  1.00  0.00    -0.158 N  
BRANCH  35  36
HETATM   36  C   UNL     1      -8.175  15.485  67.832  1.00  0.00    -0.143 C  
BRANCH  36  37
HETATM   37  N   UNL     1      -7.567  16.785  68.064  1.00  0.00    -0.165 NA 
HETATM   38  C   UNL     1      -8.376  17.859  67.452  1.00  0.00    -0.224 C  
HETATM   39  C   UNL     1      -7.805  19.106  68.098  1.00  0.00    -0.336 C  
HETATM   40  C   UNL     1      -7.513  18.668  69.523  1.00  0.00     0.169 C  
HETATM   41  C   UNL     1      -7.481  17.141  69.481  1.00  0.00     0.232 C  
ENDBRANCH  36  37
ENDBRANCH  35  36
ENDBRANCH  19  32
BRANCH  24  42
HETATM   42  N   UNL     1      -8.661   9.781  64.886  1.00  0.00    -0.169 NA 
HETATM   43  C   UNL     1      -7.391   9.482  64.212  1.00  0.00    -0.118 C  
HETATM   44  C   UNL     1      -9.675  10.120  63.911  1.00  0.00    -0.169 C  
ENDBRANCH  24  42
TORSDOF 4
ENDMDL
MODEL       93
REMARK 921   NORMALIZED FREE ENERGY PREDICTED BY IDOCK:    0.29 KCAL/MOL
REMARK 922        TOTAL FREE ENERGY PREDICTED BY IDOCK:   -0.22 KCAL/MOL
REMARK 923 INTER-LIGAND FREE ENERGY PREDICTED BY IDOCK:   -0.61 KCAL/MOL
REMARK 924 INTRA-LIGAND FREE ENERGY PREDICTED BY IDOCK:    0.39 KCAL/MOL
REMARK 927      BINDING AFFINITY PREDICTED BY RF-SCORE:    0.00 PKD
ROOT
HETATM    1  C   UNL     1      -9.048  14.157  68.201  1.00  0.00    -0.193 C  
HETATM    2  C   UNL     1     -10.397  13.665  68.686  1.00  0.00    -0.223 C  
HETATM    3  C   UNL     1     -10.301  12.447  69.651  1.00  0.00     0.857 C  
HETATM    4  C   UNL     1      -9.434  11.357  69.066  1.00  0.00     0.020 C  
HETATM    5  C   UNL     1      -9.835   9.924  69.293  1.00  0.00    -0.207 C  
HETATM    6  C   UNL     1      -8.360  11.654  68.303  1.00  0.00    -0.159 C  
HETATM    7  C   UNL     1     -10.933   9.612  70.249  1.00  0.00    -0.337 A  
HETATM    8  O   UNL     1      -9.267   9.000  68.704  1.00  0.00    -0.136 OA 
HETATM    9  O   UNL     1      -7.624  10.665  67.646  1.00  0.00    -0.091 OA 
HETATM   10  C   UNL     1      -8.026  13.072  67.797  1.00  0.00    -0.164 C  
HETATM   11  C   UNL     1      -6.651  13.810  68.253  1.00  0.00    -0.109 C  
HETATM   12  H   UNL     1      -6.868  10.874  67.110  1.00  0.00     0.000 HD 
HETATM   13  O   UNL     1      -8.084  12.865  66.378  1.00  0.00    -0.263 OA 
HETATM   14  C   UNL     1     -11.168   8.285  70.661  1.00  0.00    -0.256 A  
HETATM   15  O   UNL     1      -5.640  13.230  68.641  1.00  0.00    -0.070 OA 
HETATM   16  H   UNL     1      -7.456  12.198  66.130  1.00  0.00     0.000 HD 
HETATM   17  C   UNL     1     -12.146   7.992  71.615  1.00  0.00    -0.339 A  
HETATM   18  O   UNL     1     -10.491   7.205  70.165  1.00  0.00    -0.206 OA 
HETATM   19  C   UNL     1      -6.619  15.343  68.065  1.00  0.00    -0.160 C  
HETATM   20  C   UNL     1     -12.734  12.005  68.909  1.00  0.00     1.174 C  
HETATM   21  C   UNL     1      -7.392  15.604  66.986  1.00  0.00    -0.168 C  
HETATM   22  C   UNL     1     -12.903   9.019  72.162  1.00  0.00    -0.478 A  
HETATM   23  H   UNL     1     -10.649   6.310  70.443  1.00  0.00     0.000 HD 
HETATM   24  C   UNL     1      -8.956  15.394  67.201  1.00  0.00    -0.218 C  
HETATM   25  O   UNL     1     -12.161  12.988  71.042  1.00  0.00    -0.436 OA 
HETATM   26  C   UNL     1     -11.732  12.010  70.083  1.00  0.00    -0.233 C  
HETATM   27  O   UNL     1      -6.933  15.256  65.709  1.00  0.00     2.746 OA 
HETATM   28  C   UNL     1     -12.723  10.327  71.715  1.00  0.00    -0.535 A  
HETATM   29  H   UNL     1     -13.034  12.721  71.305  1.00  0.00     0.000 HD 
HETATM   30  H   UNL     1      -7.476  15.438  64.951  1.00  0.00     0.000 HD 
HETATM   31  C   UNL     1     -11.758  10.640  70.733  1.00  0.00    -0.435 A  
ENDROOT
BRANCH  19  32
HETATM   32  C   UNL     1      -6.970  16.391  69.116  1.00  0.00    -0.218 C  
HETATM   33  H   UNL     1      -8.403  17.431  67.989  1.00  0.00     0.000 HD 
HETATM   34  O   UNL     1      -6.424  16.359  70.221  1.00  0.00     0.023 OA 
HETATM   35  N   UNL     1      -7.914  17.360  68.882  1.00  0.00    -0.231 N  
BRANCH  35  36
HETATM   36  C   UNL     1      -8.178  18.273  69.970  1.00  0.00     1.881 C  
BRANCH  36  37
HETATM   37  N   UNL     1      -8.799  19.496  69.489  1.00  0.00     0.127 NA 
HETATM   38  C   UNL     1      -7.985  20.114  68.422  1.00  0.00    -0.053 C  
HETATM   39  C   UNL     1      -8.945  21.122  67.821  1.00  0.00     0.212 C  
HETATM   40  C   UNL     1     -10.285  20.408  67.865  1.00  0.00    -0.362 C  
HETATM   41  C   UNL     1     -10.113  19.281  68.881  1.00  0.00    -0.362 C  
ENDBRANCH  36  37
ENDBRANCH  35  36
ENDBRANCH  19  32
BRANCH  24  42
HETATM   42  N   UNL     1      -9.631  15.430  65.886  1.00  0.00    -0.343 NA 
HETATM   43  C   UNL     1     -10.441  16.648  65.759  1.00  0.00    -0.311 C  
HETATM   44  C   UNL     1     -10.402  14.273  65.487  1.00  0.00    -0.355 C  
ENDBRANCH  24  42
TORSDOF 4
ENDMDL
MODEL       94
REMARK 921   NORMALIZED FREE ENERGY PREDICTED BY IDOCK:    1.86 KCAL/MOL
REMARK 922        TOTAL FREE ENERGY PREDICTED BY IDOCK:    1.72 KCAL/MOL
REMARK 923 INTER-LIGAND FREE ENERGY PREDICTED BY IDOCK:    0.60 KCAL/MOL
REMARK 924 INTRA-LIGAND FREE ENERGY PREDICTED BY IDOCK:    1.12 KCAL/MOL
REMARK 927      BINDING AFFINITY PREDICTED BY RF-SCORE:    0.00 PKD
ROOT
HETATM    1  C   UNL     1      -8.593  11.307  69.312  1.00  0.00     0.221 C  
HETATM    2  C   UNL     1      -7.533  12.081  70.070  1.00  0.00     1.455 C  
HETATM    3  C   UNL     1      -7.606  13.618  69.835  1.00  0.00     0.995 C  
HETATM    4  C   UNL     1      -7.653  13.942  68.362  1.00  0.00    -0.130 C  
HETATM    5  C   UNL     1      -6.909  15.155  67.870  1.00  0.00    -0.155 C  
HETATM    6  C   UNL     1      -8.293  13.133  67.490  1.00  0.00    -0.185 C  
HETATM    7  C   UNL     1      -6.332  16.110  68.855  1.00  0.00    -0.129 A  
HETATM    8  O   UNL     1      -6.771  15.376  66.663  1.00  0.00     0.060 OA 
HETATM    9  O   UNL     1      -8.238  13.342  66.110  1.00  0.00     0.187 OA 
HETATM   10  C   UNL     1      -8.851  11.742  67.853  1.00  0.00    -0.165 C  
HETATM   11  C   UNL     1     -10.446  11.440  67.757  1.00  0.00    -0.185 C  
HETATM   12  H   UNL     1      -8.688  12.773  65.497  1.00  0.00     0.000 HD 
HETATM   13  O   UNL     1      -8.089  10.912  66.965  1.00  0.00    -0.123 OA 
HETATM   14  C   UNL     1      -5.845  17.365  68.435  1.00  0.00    -0.155 A  
HETATM   15  O   UNL     1     -11.235  12.062  67.050  1.00  0.00    -0.282 OA 
HETATM   16  H   UNL     1      -8.247  11.180  66.067  1.00  0.00     0.000 HD 
HETATM   17  C   UNL     1      -5.371  18.297  69.361  1.00  0.00    -0.202 A  
HETATM   18  O   UNL     1      -5.781  17.754  67.125  1.00  0.00    -0.128 OA 
HETATM   19  C   UNL     1     -10.943  10.205  68.541  1.00  0.00    -0.278 C  
HETATM   20  C   UNL     1      -5.126  13.576  70.556  1.00  0.00    -0.108 C  
HETATM   21  C   UNL     1      -9.920   9.320  68.533  1.00  0.00    -0.175 C  
HETATM   22  C   UNL     1      -5.373  17.986  70.714  1.00  0.00    -0.250 A  
HETATM   23  H   UNL     1      -5.454  18.600  66.842  1.00  0.00     0.000 HD 
HETATM   24  C   UNL     1      -8.666   9.718  69.430  1.00  0.00    -0.174 C  
HETATM   25  O   UNL     1      -6.913  14.310  72.010  1.00  0.00     0.716 OA 
HETATM   26  C   UNL     1      -6.475  14.322  70.643  1.00  0.00     0.017 C  
HETATM   27  O   UNL     1      -9.592   8.657  67.344  1.00  0.00    -0.148 OA 
HETATM   28  C   UNL     1      -5.793  16.725  71.134  1.00  0.00     0.742 A  
HETATM   29  H   UNL     1      -6.223  14.739  72.502  1.00  0.00     0.000 HD 
HETATM   30  H   UNL     1      -8.874   8.036  67.338  1.00  0.00     0.000 HD 
HETATM   31  C   UNL     1      -6.250  15.758  70.212  1.00  0.00    -0.003 A  
ENDROOT
BRANCH  19  32
HETATM   32  C   UNL     1     -11.510  10.202  69.957  1.00  0.00    -0.277 C  
HETATM   33  H   UNL     1     -12.323   8.268  69.916  1.00  0.00     0.000 HD 
HETATM   34  O   UNL     1     -11.353  11.187  70.683  1.00  0.00    -0.126 OA 
HETATM   35  N   UNL     1     -12.169   9.111  70.469  1.00  0.00    -0.006 N  
BRANCH  35  36
HETATM   36  C   UNL     1     -12.630   9.224  71.833  1.00  0.00    -0.390 C  
BRANCH  36  37
HETATM   37  N   UNL     1     -12.075   8.169  72.663  1.00  0.00    -0.325 NA 
HETATM   38  C   UNL     1     -11.609   7.038  71.834  1.00  0.00    -0.284 C  
HETATM   39  C   UNL     1     -10.760   6.245  72.809  1.00  0.00    -0.269 C  
HETATM   40  C   UNL     1     -10.073   7.317  73.637  1.00  0.00    -0.387 C  
HETATM   41  C   UNL     1     -10.896   8.586  73.423  1.00  0.00     1.427 C  
ENDBRANCH  36  37
ENDBRANCH  35  36
ENDBRANCH  19  32
BRANCH  24  42
HETATM   42  N   UNL     1      -7.536   8.825  69.098  1.00  0.00    -0.075 NA 
HETATM   43  C   UNL     1      -6.593   8.755  70.222  1.00  0.00    -0.040 C  
HETATM   44  C   UNL     1      -6.823   9.062  67.862  1.00  0.00    -0.070 C  
ENDBRANCH  24  42
TORSDOF 4
ENDMDL
MODEL       95
REMARK 921   NORMALIZED FREE ENERGY PREDICTED BY IDOCK:    2.28 KCAL/MOL
REMARK 922        TOTAL FREE ENERGY PREDICTED BY IDOCK:    2.24 KCAL/MOL
REMARK 923 INTER-LIGAND FREE ENERGY PREDICTED BY IDOCK:    1.66 KCAL/MOL
REMARK 924 INTRA-LIGAND FREE ENERGY PREDICTED BY IDOCK:    0.58 KCAL/MOL
REMARK 927      BINDING AFFINITY PREDICTED BY RF-SCORE:    0.00 PKD
ROOT
HETATM    1  C   UNL     1      -8.618   8.721  66.503  1.00  0.00    -0.126 C  
HETATM    2  C   UNL     1      -8.676  10.139  67.035  1.00  0.00    -0.137 C  
HETATM    3  C   UNL     1      -9.948  10.916  66.585  1.00  0.00    -0.250 C  
HETATM    4  C   UNL     1     -10.143  10.822  65.091  1.00  0.00    -0.363 C  
HETATM    5  C   UNL     1     -10.659  12.031  64.358  1.00  0.00    -0.318 C  
HETATM    6  C   UNL     1      -9.804   9.704  64.412  1.00  0.00     0.355 C  
HETATM    7  C   UNL     1     -11.160  13.200  65.132  1.00  0.00    -0.308 A  
HETATM    8  O   UNL     1     -10.679  12.072  63.124  1.00  0.00    -0.368 OA 
HETATM    9  O   UNL     1      -9.852   9.643  63.017  1.00  0.00    -0.428 OA 
HETATM   10  C   UNL     1      -9.026   8.523  65.027  1.00  0.00     0.050 C  
HETATM   11  C   UNL     1      -9.705   7.050  65.127  1.00  0.00     1.742 C  
HETATM   12  H   UNL     1      -9.613   8.857  62.540  1.00  0.00     0.000 HD 
HETATM   13  O   UNL     1      -7.852   8.523  64.202  1.00  0.00    -0.128 OA 
HETATM   14  C   UNL     1     -11.865  14.237  64.488  1.00  0.00    -0.442 A  
HETATM   15  O   UNL     1     -10.623   6.651  64.415  1.00  0.00     5.678 OA 
HETATM   16  H   UNL     1      -8.103   8.401  63.294  1.00  0.00     0.000 HD 
HETATM   17  C   UNL     1     -12.404  15.299  65.218  1.00  0.00     0.387 A  
HETATM   18  O   UNL     1     -12.058  14.297  63.135  1.00  0.00    -0.724 OA 
HETATM   19  C   UNL     1      -9.047   6.074  66.129  1.00  0.00    -0.159 C  
HETATM   20  C   UNL     1      -8.516  13.010  67.065  1.00  0.00    -0.142 C  
HETATM   21  C   UNL     1      -7.732   6.396  66.154  1.00  0.00    -0.092 C  
HETATM   22  C   UNL     1     -12.241  15.341  66.596  1.00  0.00     0.599 A  
HETATM   23  H   UNL     1     -12.534  14.995  62.701  1.00  0.00     0.000 HD 
HETATM   24  C   UNL     1      -7.382   7.779  66.859  1.00  0.00    -0.090 C  
HETATM   25  O   UNL     1     -10.246  12.221  68.558  1.00  0.00    -0.221 OA 
HETATM   26  C   UNL     1      -9.912  12.359  67.169  1.00  0.00    -0.207 C  
HETATM   27  O   UNL     1      -6.928   6.091  65.050  1.00  0.00    -0.056 OA 
HETATM   28  C   UNL     1     -11.492  14.354  67.235  1.00  0.00    -0.377 A  
HETATM   29  H   UNL     1     -10.223  13.102  68.915  1.00  0.00     0.000 HD 
HETATM   30  H   UNL     1      -6.005   6.317  65.067  1.00  0.00     0.000 HD 
HETATM   31  C   UNL     1     -10.916  13.286  66.512  1.00  0.00    -0.299 A  
ENDROOT
BRANCH  19  32
HETATM   32  C   UNL     1      -9.467   5.845  67.577  1.00  0.00    -0.110 C  
HETATM   33  H   UNL     1     -10.611   7.589  67.804  1.00  0.00     0.000 HD 
HETATM   34  O   UNL     1      -9.104   4.824  68.167  1.00  0.00    -0.109 OA 
HETATM   35  N   UNL     1     -10.276   6.732  68.243  1.00  0.00    -0.164 N  
BRANCH  35  36
HETATM   36  C   UNL     1     -10.627   6.383  69.601  1.00  0.00    -0.254 C  
BRANCH  36  37
HETATM   37  N   UNL     1     -11.697   7.230  70.099  1.00  0.00    -0.124 NA 
HETATM   38  C   UNL     1     -12.581   6.476  71.012  1.00  0.00     0.063 C  
HETATM   39  C   UNL     1     -13.371   7.580  71.688  1.00  0.00    -0.414 C  
HETATM   40  C   UNL     1     -12.351   8.691  71.865  1.00  0.00    -0.414 C  
HETATM   41  C   UNL     1     -11.220   8.364  70.893  1.00  0.00    -0.262 C  
ENDBRANCH  36  37
ENDBRANCH  35  36
ENDBRANCH  19  32
BRANCH  24  42
HETATM   42  N   UNL     1      -5.978   8.130  66.558  1.00  0.00    -0.044 NA 
HETATM   43  C   UNL     1      -5.283   8.557  67.780  1.00  0.00    -0.034 C  
HETATM   44  C   UNL     1      -5.728   9.070  65.487  1.00  0.00    -0.050 C  
ENDBRANCH  24  42
TORSDOF 4
ENDMDL
MODEL       96
REMARK 921   NORMALIZED FREE ENERGY PREDICTED BY IDOCK:    3.14 KCAL/MOL
REMARK 922        TOTAL FREE ENERGY PREDICTED BY IDOCK:    3.30 KCAL/MOL
REMARK 923 INTER-LIGAND FREE ENERGY PREDICTED BY IDOCK:    2.06 KCAL/MOL
REMARK 924 INTRA-LIGAND FREE ENERGY PREDICTED BY IDOCK:    1.24 KCAL/MOL
REMARK 927      BINDING AFFINITY PREDICTED BY RF-SCORE:    0.00 PKD
ROOT
HETATM    1  C   UNL     1      -9.528   8.940  69.894  1.00  0.00    -0.177 C  
HETATM    2  C   UNL     1      -8.258   8.204  69.519  1.00  0.00    -0.121 C  
HETATM    3  C   UNL     1      -8.286   7.618  68.077  1.00  0.00    -0.124 C  
HETATM    4  C   UNL     1      -9.542   6.815  67.841  1.00  0.00    -0.125 C  
HETATM    5  C   UNL     1      -9.446   5.561  67.012  1.00  0.00    -0.131 C  
HETATM    6  C   UNL     1     -10.715   7.171  68.408  1.00  0.00    -0.147 C  
HETATM    7  C   UNL     1      -8.185   5.261  66.280  1.00  0.00    -0.109 A  
HETATM    8  O   UNL     1     -10.396   4.778  66.925  1.00  0.00    -0.216 OA 
HETATM    9  O   UNL     1     -11.857   6.372  68.310  1.00  0.00    -0.302 OA 
HETATM   10  C   UNL     1     -10.857   8.273  69.477  1.00  0.00    -0.116 C  
HETATM   11  C   UNL     1     -11.747   9.602  69.181  1.00  0.00     0.429 C  
HETATM   12  H   UNL     1     -12.681   6.622  68.710  1.00  0.00     0.000 HD 
HETATM   13  O   UNL     1     -11.375   7.510  70.575  1.00  0.00    -0.275 OA 
HETATM   14  C   UNL     1      -8.145   4.234  65.315  1.00  0.00    -0.101 A  
HETATM   15  O   UNL     1     -12.653   9.668  68.354  1.00  0.00     2.551 OA 
HETATM   16  H   UNL     1     -12.192   7.099  70.319  1.00  0.00     0.000 HD 
HETATM   17  C   UNL     1      -6.988   3.995  64.570  1.00  0.00    -0.050 A  
HETATM   18  O   UNL     1      -9.197   3.401  65.049  1.00  0.00    -0.136 OA 
HETATM   19  C   UNL     1     -11.473  10.811  70.103  1.00  0.00    -0.415 C  
HETATM   20  C   UNL     1      -6.478   6.010  68.980  1.00  0.00    -0.043 C  
HETATM   21  C   UNL     1     -11.110  10.294  71.300  1.00  0.00     0.229 C  
HETATM   22  C   UNL     1      -5.858   4.773  64.783  1.00  0.00    -0.017 A  
HETATM   23  H   UNL     1      -9.170   2.709  64.399  1.00  0.00     0.000 HD 
HETATM   24  C   UNL     1      -9.678   9.601  71.337  1.00  0.00     0.436 C  
HETATM   25  O   UNL     1      -5.974   7.905  67.565  1.00  0.00    -0.043 OA 
HETATM   26  C   UNL     1      -6.948   6.875  67.790  1.00  0.00    -0.083 C  
HETATM   27  O   UNL     1     -12.074   9.671  72.102  1.00  0.00    -0.291 OA 
HETATM   28  C   UNL     1      -5.867   5.749  65.778  1.00  0.00    -0.021 A  
HETATM   29  H   UNL     1      -5.158   7.451  67.391  1.00  0.00     0.000 HD 
HETATM   30  H   UNL     1     -11.820   9.307  72.941  1.00  0.00     0.000 HD 
HETATM   31  C   UNL     1      -7.018   5.989  66.561  1.00  0.00    -0.067 A  
ENDROOT
BRANCH  19  32
HETATM   32  C   UNL     1     -10.518  11.966  69.820  1.00  0.00     0.745 C  
HETATM   33  H   UNL     1      -9.558  11.119  68.158  1.00  0.00     0.000 HD 
HETATM   34  O   UNL     1     -10.557  12.980  70.521  1.00  0.00     1.920 OA 
HETATM   35  N   UNL     1      -9.630  11.929  68.774  1.00  0.00    -0.082 N  
BRANCH  35  36
HETATM   36  C   UNL     1      -8.803  13.099  68.594  1.00  0.00     0.051 C  
BRANCH  36  37
HETATM   37  N   UNL     1      -7.391  12.762  68.675  1.00  0.00    -0.110 NA 
HETATM   38  C   UNL     1      -6.869  12.368  67.350  1.00  0.00    -0.147 C  
HETATM   39  C   UNL     1      -5.369  12.419  67.562  1.00  0.00    -0.115 C  
HETATM   40  C   UNL     1      -5.177  13.619  68.472  1.00  0.00    -0.089 C  
HETATM   41  C   UNL     1      -6.548  13.883  69.092  1.00  0.00    -0.111 C  
ENDBRANCH  36  37
ENDBRANCH  35  36
ENDBRANCH  19  32
BRANCH  24  42
HETATM   42  N   UNL     1      -9.544   8.841  72.598  1.00  0.00    -0.215 NA 
HETATM   43  C   UNL     1      -8.133   8.526  72.859  1.00  0.00    -0.024 C  
HETATM   44  C   UNL     1     -10.360   7.659  72.768  1.00  0.00    -0.295 C  
ENDBRANCH  24  42
TORSDOF 4
ENDMDL
MODEL       97
REMARK 921   NORMALIZED FREE ENERGY PREDICTED BY IDOCK:    5.41 KCAL/MOL
REMARK 922        TOTAL FREE ENERGY PREDICTED BY IDOCK:    6.09 KCAL/MOL
REMARK 923 INTER-LIGAND FREE ENERGY PREDICTED BY IDOCK:    6.57 KCAL/MOL
REMARK 924 INTRA-LIGAND FREE ENERGY PREDICTED BY IDOCK:   -0.48 KCAL/MOL
REMARK 927      BINDING AFFINITY PREDICTED BY RF-SCORE:    0.00 PKD
ROOT
HETATM    1  C   UNL     1      -8.883  11.261  67.578  1.00  0.00    -0.140 C  
HETATM    2  C   UNL     1      -9.382  11.540  68.982  1.00  0.00     0.090 C  
HETATM    3  C   UNL     1     -10.797  12.188  69.017  1.00  0.00    -0.208 C  
HETATM    4  C   UNL     1     -10.869  13.385  68.100  1.00  0.00    -0.273 C  
HETATM    5  C   UNL     1     -11.673  14.579  68.543  1.00  0.00    -0.318 C  
HETATM    6  C   UNL     1     -10.181  13.417  66.939  1.00  0.00    -0.252 C  
HETATM    7  C   UNL     1     -12.536  14.475  69.752  1.00  0.00    -0.162 A  
HETATM    8  O   UNL     1     -11.633  15.644  67.921  1.00  0.00    -0.305 OA 
HETATM    9  O   UNL     1     -10.129  14.563  66.141  1.00  0.00    -0.279 OA 
HETATM   10  C   UNL     1      -9.130  12.367  66.529  1.00  0.00    -0.181 C  
HETATM   11  C   UNL     1      -9.355  11.444  65.209  1.00  0.00    -0.171 C  
HETATM   12  H   UNL     1      -9.645  14.586  65.324  1.00  0.00     0.000 HD 
HETATM   13  O   UNL     1      -7.962  13.192  66.419  1.00  0.00    -0.059 OA 
HETATM   14  C   UNL     1     -13.474  15.483  70.051  1.00  0.00     0.777 A  
HETATM   15  O   UNL     1     -10.074  11.743  64.259  1.00  0.00    -0.264 OA 
HETATM   16  H   UNL     1      -8.114  13.872  65.773  1.00  0.00     0.000 HD 
HETATM   17  C   UNL     1     -14.340  15.357  71.140  1.00  0.00    -0.284 A  
HETATM   18  O   UNL     1     -13.599  16.640  69.333  1.00  0.00     2.212 OA 
HETATM   19  C   UNL     1      -8.499  10.159  65.135  1.00  0.00    -0.167 C  
HETATM   20  C   UNL     1     -10.066  13.021  71.349  1.00  0.00     9.356 C  
HETATM   21  C   UNL     1      -7.339  10.446  65.771  1.00  0.00    -0.147 C  
HETATM   22  C   UNL     1     -14.275  14.228  71.944  1.00  0.00    -0.597 A  
HETATM   23  H   UNL     1     -14.232  17.320  69.534  1.00  0.00     0.000 HD 
HETATM   24  C   UNL     1      -7.448  10.603  67.351  1.00  0.00    -0.094 C  
HETATM   25  O   UNL     1     -11.574  11.159  71.023  1.00  0.00    -0.269 OA 
HETATM   26  C   UNL     1     -11.215  12.445  70.495  1.00  0.00     1.183 C  
HETATM   27  O   UNL     1      -6.418  11.311  65.166  1.00  0.00    -0.150 OA 
HETATM   28  C   UNL     1     -13.309  13.254  71.695  1.00  0.00    -0.406 A  
HETATM   29  H   UNL     1     -11.829  11.316  71.925  1.00  0.00     0.000 HD 
HETATM   30  H   UNL     1      -5.605  11.512  65.612  1.00  0.00     0.000 HD 
HETATM   31  C   UNL     1     -12.407  13.375  70.615  1.00  0.00    -0.423 A  
ENDROOT
BRANCH  19  32
HETATM   32  C   UNL     1      -8.916   8.767  65.598  1.00  0.00    -0.200 C  
HETATM   33  H   UNL     1     -10.769   9.303  66.424  1.00  0.00     0.000 HD 
HETATM   34  O   UNL     1      -8.179   7.802  65.380  1.00  0.00    -0.128 OA 
HETATM   35  N   UNL     1     -10.118   8.544  66.224  1.00  0.00    -0.208 N  
BRANCH  35  36
HETATM   36  C   UNL     1     -10.408   7.175  66.584  1.00  0.00    -0.151 C  
BRANCH  36  37
HETATM   37  N   UNL     1      -9.885   6.858  67.902  1.00  0.00    -0.132 NA 
HETATM   38  C   UNL     1     -10.527   7.696  68.936  1.00  0.00    -0.199 C  
HETATM   39  C   UNL     1     -10.142   6.983  70.219  1.00  0.00    -0.198 C  
HETATM   40  C   UNL     1     -10.207   5.513  69.843  1.00  0.00    -0.338 C  
HETATM   41  C   UNL     1     -10.153   5.480  68.317  1.00  0.00    -0.173 C  
ENDBRANCH  36  37
ENDBRANCH  35  36
ENDBRANCH  19  32
BRANCH  24  42
HETATM   42  N   UNL     1      -6.192  11.192  67.863  1.00  0.00    -0.053 NA 
HETATM   43  C   UNL     1      -5.272  10.134  68.301  1.00  0.00    -0.035 C  
HETATM   44  C   UNL     1      -6.288  12.221  68.875  1.00  0.00    -0.084 C  
ENDBRANCH  24  42
TORSDOF 4
ENDMDL
MODEL       98
REMARK 921   NORMALIZED FREE ENERGY PREDICTED BY IDOCK:    5.55 KCAL/MOL
REMARK 922        TOTAL FREE ENERGY PREDICTED BY IDOCK:    6.27 KCAL/MOL
REMARK 923 INTER-LIGAND FREE ENERGY PREDICTED BY IDOCK:    5.44 KCAL/MOL
REMARK 924 INTRA-LIGAND FREE ENERGY PREDICTED BY IDOCK:    0.83 KCAL/MOL
REMARK 927      BINDING AFFINITY PREDICTED BY RF-SCORE:    0.00 PKD
ROOT
HETATM    1  C   UNL     1      -9.980  14.209  67.267  1.00  0.00    -0.249 C  
HETATM    2  C   UNL     1     -11.005  13.109  67.456  1.00  0.00    -0.282 C  
HETATM    3  C   UNL     1     -10.390  11.773  67.966  1.00  0.00    -0.212 C  
HETATM    4  C   UNL     1      -9.210  11.360  67.119  1.00  0.00    -0.170 C  
HETATM    5  C   UNL     1      -9.017   9.896  66.826  1.00  0.00    -0.138 C  
HETATM    6  C   UNL     1      -8.381  12.280  66.582  1.00  0.00    -0.014 C  
HETATM    7  C   UNL     1      -9.850   8.888  67.537  1.00  0.00    -0.237 A  
HETATM    8  O   UNL     1      -8.175   9.513  66.008  1.00  0.00    -0.113 OA 
HETATM    9  O   UNL     1      -7.363  11.929  65.692  1.00  0.00     0.359 OA 
HETATM   10  C   UNL     1      -8.647  13.799  66.603  1.00  0.00     0.073 C  
HETATM   11  C   UNL     1      -7.634  14.805  67.381  1.00  0.00    -0.202 C  
HETATM   12  H   UNL     1      -6.780  12.576  65.314  1.00  0.00     0.000 HD 
HETATM   13  O   UNL     1      -8.708  14.074  65.196  1.00  0.00     1.355 OA 
HETATM   14  C   UNL     1      -9.533   7.517  67.466  1.00  0.00    -0.139 A  
HETATM   15  O   UNL     1      -6.456  14.560  67.630  1.00  0.00    -0.175 OA 
HETATM   16  H   UNL     1      -7.888  13.822  64.788  1.00  0.00     0.000 HD 
HETATM   17  C   UNL     1     -10.264   6.572  68.191  1.00  0.00    -0.194 A  
HETATM   18  O   UNL     1      -8.526   7.011  66.691  1.00  0.00    -0.114 OA 
HETATM   19  C   UNL     1      -8.204  16.202  67.717  1.00  0.00    -0.162 C  
HETATM   20  C   UNL     1     -12.509  10.714  66.937  1.00  0.00     4.685 C  
HETATM   21  C   UNL     1      -9.082  16.494  66.730  1.00  0.00    -0.237 C  
HETATM   22  C   UNL     1     -11.321   6.985  68.989  1.00  0.00     0.029 A  
HETATM   23  H   UNL     1      -8.311   6.086  66.643  1.00  0.00     0.000 HD 
HETATM   24  C   UNL     1     -10.430  15.646  66.745  1.00  0.00    -0.297 C  
HETATM   25  O   UNL     1     -12.227  11.065  69.312  1.00  0.00    -0.413 OA 
HETATM   26  C   UNL     1     -11.515  10.707  68.118  1.00  0.00    -0.228 C  
HETATM   27  O   UNL     1      -8.604  16.797  65.450  1.00  0.00     0.019 OA 
HETATM   28  C   UNL     1     -11.683   8.331  69.018  1.00  0.00     1.352 A  
HETATM   29  H   UNL     1     -12.913  10.414  69.405  1.00  0.00     0.000 HD 
HETATM   30  H   UNL     1      -9.221  17.002  64.757  1.00  0.00     0.000 HD 
HETATM   31  C   UNL     1     -10.974   9.298  68.272  1.00  0.00    -0.047 A  
ENDROOT
BRANCH  19  32
HETATM   32  C   UNL     1      -8.865  16.618  69.027  1.00  0.00    -0.201 C  
HETATM   33  H   UNL     1     -10.852  16.280  68.443  1.00  0.00     0.000 HD 
HETATM   34  O   UNL     1      -8.167  16.975  69.979  1.00  0.00     1.179 OA 
HETATM   35  N   UNL     1     -10.227  16.573  69.194  1.00  0.00    -0.280 N  
BRANCH  35  36
HETATM   36  C   UNL     1     -10.725  16.964  70.493  1.00  0.00     0.502 C  
BRANCH  36  37
HETATM   37  N   UNL     1     -12.068  16.455  70.714  1.00  0.00     0.124 NA 
HETATM   38  C   UNL     1     -12.364  15.338  69.793  1.00  0.00    -0.253 C  
HETATM   39  C   UNL     1     -13.608  14.728  70.409  1.00  0.00     0.288 C  
HETATM   40  C   UNL     1     -13.360  14.843  71.903  1.00  0.00    -0.458 C  
HETATM   41  C   UNL     1     -12.266  15.898  72.053  1.00  0.00    -0.490 C  
ENDBRANCH  36  37
ENDBRANCH  35  36
ENDBRANCH  19  32
BRANCH  24  42
HETATM   42  N   UNL     1     -11.146  15.862  65.469  1.00  0.00    -0.206 NA 
HETATM   43  C   UNL     1     -11.364  17.296  65.240  1.00  0.00     0.735 C  
HETATM   44  C   UNL     1     -12.374  15.129  65.248  1.00  0.00     0.246 C  
ENDBRANCH  24  42
TORSDOF 4
ENDMDL
MODEL       99
REMARK 921   NORMALIZED FREE ENERGY PREDICTED BY IDOCK:    6.13 KCAL/MOL
REMARK 922        TOTAL FREE ENERGY PREDICTED BY IDOCK:    6.99 KCAL/MOL
REMARK 923 INTER-LIGAND FREE ENERGY PREDICTED BY IDOCK:    4.37 KCAL/MOL
REMARK 924 INTRA-LIGAND FREE ENERGY PREDICTED BY IDOCK:    2.62 KCAL/MOL
REMARK 927      BINDING AFFINITY PREDICTED BY RF-SCORE:    0.00 PKD
ROOT
HETATM    1  C   UNL     1      -9.947  16.557  67.943  1.00  0.00    -0.245 C  
HETATM    2  C   UNL     1     -11.040  16.042  68.857  1.00  0.00    -0.331 C  
HETATM    3  C   UNL     1     -10.869  14.543  69.241  1.00  0.00    -0.270 C  
HETATM    4  C   UNL     1     -10.654  13.689  68.015  1.00  0.00    -0.256 C  
HETATM    5  C   UNL     1     -11.284  12.322  67.974  1.00  0.00    -0.269 C  
HETATM    6  C   UNL     1      -9.969  14.157  66.949  1.00  0.00    -0.261 C  
HETATM    7  C   UNL     1     -11.912  11.767  69.205  1.00  0.00    -0.356 A  
HETATM    8  O   UNL     1     -11.286  11.648  66.940  1.00  0.00    -0.320 OA 
HETATM    9  O   UNL     1      -9.871  13.435  65.757  1.00  0.00    -0.371 OA 
HETATM   10  C   UNL     1      -9.520  15.623  66.789  1.00  0.00    -0.242 C  
HETATM   11  C   UNL     1      -7.941  16.000  66.705  1.00  0.00    -0.256 C  
HETATM   12  H   UNL     1      -9.390  13.765  65.008  1.00  0.00     0.000 HD 
HETATM   13  O   UNL     1     -10.227  15.986  65.594  1.00  0.00    -0.351 OA 
HETATM   14  C   UNL     1     -12.291  10.411  69.266  1.00  0.00     0.287 A  
HETATM   15  O   UNL     1      -7.053  15.225  66.355  1.00  0.00     0.501 OA 
HETATM   16  H   UNL     1      -9.964  15.412  64.884  1.00  0.00     0.000 HD 
HETATM   17  C   UNL     1     -12.811   9.863  70.442  1.00  0.00    -0.003 A  
HETATM   18  O   UNL     1     -12.201   9.549  68.208  1.00  0.00     1.083 OA 
HETATM   19  C   UNL     1      -7.587  17.477  66.987  1.00  0.00    -0.235 C  
HETATM   20  C   UNL     1     -13.408  14.645  69.699  1.00  0.00     1.242 C  
HETATM   21  C   UNL     1      -8.646  18.203  66.560  1.00  0.00    -0.263 C  
HETATM   22  C   UNL     1     -12.963  10.664  71.565  1.00  0.00    -0.566 A  
HETATM   23  H   UNL     1     -12.456   8.635  68.249  1.00  0.00     0.000 HD 
HETATM   24  C   UNL     1      -9.964  18.071  67.443  1.00  0.00    -0.326 C  
HETATM   25  O   UNL     1     -11.747  14.673  71.455  1.00  0.00    -0.405 OA 
HETATM   26  C   UNL     1     -12.040  14.106  70.169  1.00  0.00    -0.346 C  
HETATM   27  O   UNL     1      -8.882  18.334  65.186  1.00  0.00     1.097 OA 
HETATM   28  C   UNL     1     -12.651  12.021  71.497  1.00  0.00    -0.279 A  
HETATM   29  H   UNL     1     -12.462  14.406  72.021  1.00  0.00     0.000 HD 
HETATM   30  H   UNL     1      -9.626  18.843  64.886  1.00  0.00     0.000 HD 
HETATM   31  C   UNL     1     -12.149  12.599  70.310  1.00  0.00    -0.372 A  
ENDROOT
BRANCH  19  32
HETATM   32  C   UNL     1      -7.169  18.066  68.331  1.00  0.00    -0.254 C  
HETATM   33  H   UNL     1      -5.492  16.845  68.648  1.00  0.00     0.000 HD 
HETATM   34  O   UNL     1      -7.812  18.999  68.819  1.00  0.00    -0.340 OA 
HETATM   35  N   UNL     1      -6.064  17.609  69.006  1.00  0.00    -0.196 N  
BRANCH  35  36
HETATM   36  C   UNL     1      -5.758  18.272  70.253  1.00  0.00    -0.198 C  
BRANCH  36  37
HETATM   37  N   UNL     1      -5.315  17.319  71.258  1.00  0.00    -0.182 NA 
HETATM   38  C   UNL     1      -6.327  17.174  72.325  1.00  0.00     4.088 C  
HETATM   39  C   UNL     1      -5.869  15.918  73.041  1.00  0.00     1.896 C  
HETATM   40  C   UNL     1      -5.368  15.029  71.915  1.00  0.00     0.027 C  
HETATM   41  C   UNL     1      -5.128  15.966  70.733  1.00  0.00    -0.182 C  
ENDBRANCH  36  37
ENDBRANCH  35  36
ENDBRANCH  19  32
BRANCH  24  42
HETATM   42  N   UNL     1     -11.097  18.672  66.708  1.00  0.00     0.056 NA 
HETATM   43  C   UNL     1     -11.446  17.849  65.542  1.00  0.00     1.694 C  
HETATM   44  C   UNL     1     -10.995  20.063  66.324  1.00  0.00     0.070 C  
ENDBRANCH  24  42
TORSDOF 4
ENDMDL
MODEL      100
REMARK 921   NORMALIZED FREE ENERGY PREDICTED BY IDOCK:    7.81 KCAL/MOL
REMARK 922        TOTAL FREE ENERGY PREDICTED BY IDOCK:    9.06 KCAL/MOL
REMARK 923 INTER-LIGAND FREE ENERGY PREDICTED BY IDOCK:    6.05 KCAL/MOL
REMARK 924 INTRA-LIGAND FREE ENERGY PREDICTED BY IDOCK:    3.02 KCAL/MOL
REMARK 927      BINDING AFFINITY PREDICTED BY RF-SCORE:    0.00 PKD
ROOT
HETATM    1  C   UNL     1     -10.535   8.516  69.377  1.00  0.00    -0.223 C  
HETATM    2  C   UNL     1     -11.127   7.225  69.905  1.00  0.00    -0.233 C  
HETATM    3  C   UNL     1     -10.424   6.703  71.192  1.00  0.00    -0.247 C  
HETATM    4  C   UNL     1      -8.926   6.650  71.010  1.00  0.00    -0.146 C  
HETATM    5  C   UNL     1      -8.169   5.505  71.628  1.00  0.00    -0.119 C  
HETATM    6  C   UNL     1      -8.282   7.570  70.259  1.00  0.00    -0.128 C  
HETATM    7  C   UNL     1      -8.868   4.585  72.567  1.00  0.00    -0.126 A  
HETATM    8  O   UNL     1      -6.976   5.316  71.376  1.00  0.00    -0.050 OA 
HETATM    9  O   UNL     1      -6.919   7.465  69.970  1.00  0.00    -0.057 OA 
HETATM   10  C   UNL     1      -8.993   8.614  69.375  1.00  0.00    -0.145 C  
HETATM   11  C   UNL     1      -8.821  10.203  69.672  1.00  0.00    -0.164 C  
HETATM   12  H   UNL     1      -6.466   8.111  69.442  1.00  0.00     0.000 HD 
HETATM   13  O   UNL     1      -8.493   8.248  68.081  1.00  0.00    -0.130 OA 
HETATM   14  C   UNL     1      -8.137   3.660  73.340  1.00  0.00    -0.079 A  
HETATM   15  O   UNL     1      -7.875  10.705  70.274  1.00  0.00     0.084 OA 
HETATM   16  H   UNL     1      -7.545   8.308  68.079  1.00  0.00     0.000 HD 
HETATM   17  C   UNL     1      -8.777   2.846  74.278  1.00  0.00    -0.076 A  
HETATM   18  O   UNL     1      -6.787   3.477  73.228  1.00  0.00    -0.036 OA 
HETATM   19  C   UNL     1      -9.889  11.123  69.039  1.00  0.00    -0.132 C  
HETATM   20  C   UNL     1     -11.388   4.418  70.472  1.00  0.00     3.419 C  
HETATM   21  C   UNL     1     -10.266  10.521  67.887  1.00  0.00    -0.183 C  
HETATM   22  C   UNL     1     -10.151   2.941  74.449  1.00  0.00    -0.185 A  
HETATM   23  H   UNL     1      -6.294   2.854  73.749  1.00  0.00     0.000 HD 
HETATM   24  C   UNL     1     -11.127   9.194  68.062  1.00  0.00     0.175 C  
HETATM   25  O   UNL     1     -12.341   5.755  72.247  1.00  0.00    -0.283 OA 
HETATM   26  C   UNL     1     -11.094   5.373  71.649  1.00  0.00    -0.050 C  
HETATM   27  O   UNL     1      -9.382  10.498  66.801  1.00  0.00    -0.154 OA 
HETATM   28  C   UNL     1     -10.891   3.807  73.646  1.00  0.00    -0.329 A  
HETATM   29  H   UNL     1     -12.750   4.943  72.525  1.00  0.00     0.000 HD 
HETATM   30  H   UNL     1      -9.646  10.074  65.993  1.00  0.00     0.000 HD 
HETATM   31  C   UNL     1     -10.267   4.620  72.674  1.00  0.00    -0.239 A  
ENDROOT
BRANCH  19  32
HETATM   32  C   UNL     1     -11.166  11.620  69.709  1.00  0.00    -0.127 C  
HETATM   33  H   UNL     1     -10.885  10.672  71.559  1.00  0.00     0.000 HD 
HETATM   34  O   UNL     1     -11.929  12.370  69.095  1.00  0.00    -0.290 OA 
HETATM   35  N   UNL     1     -11.481  11.284  71.002  1.00  0.00     0.450 N  
BRANCH  35  36
HETATM   36  C   UNL     1     -12.703  11.845  71.530  1.00  0.00    -0.274 C  
BRANCH  36  37
HETATM   37  N   UNL     1     -12.494  13.202  72.005  1.00  0.00     0.085 NA 
HETATM   38  C   UNL     1     -12.101  14.093  70.893  1.00  0.00    -0.344 C  
HETATM   39  C   UNL     1     -12.292  15.471  71.496  1.00  0.00    -0.465 C  
HETATM   40  C   UNL     1     -13.536  15.317  72.353  1.00  0.00    -0.592 C  
HETATM   41  C   UNL     1     -13.700  13.814  72.566  1.00  0.00    -0.561 C  
ENDBRANCH  36  37
ENDBRANCH  35  36
ENDBRANCH  19  32
BRANCH  24  42
HETATM   42  N   UNL     1     -11.213   8.502  66.758  1.00  0.00     0.821 NA 
HETATM   43  C   UNL     1     -12.352   7.575  66.744  1.00  0.00     7.191 C  
HETATM   44  C   UNL     1     -10.026   7.842  66.260  1.00  0.00    -0.013 C  
ENDBRANCH  24  42
TORSDOF 4
ENDMDL
MODEL      101
REMARK 921   NORMALIZED FREE ENERGY PREDICTED BY IDOCK:    8.51 KCAL/MOL
REMARK 922        TOTAL FREE ENERGY PREDICTED BY IDOCK:    9.93 KCAL/MOL
REMARK 923 INTER-LIGAND FREE ENERGY PREDICTED BY IDOCK:    9.50 KCAL/MOL
REMARK 924 INTRA-LIGAND FREE ENERGY PREDICTED BY IDOCK:    0.43 KCAL/MOL
REMARK 927      BINDING AFFINITY PREDICTED BY RF-SCORE:    0.00 PKD
ROOT
HETATM    1  C   UNL     1     -10.660  14.527  68.927  1.00  0.00    -0.249 C  
HETATM    2  C   UNL     1      -9.181  14.857  68.934  1.00  0.00    -0.192 C  
HETATM    3  C   UNL     1      -8.816  16.037  69.882  1.00  0.00     0.481 C  
HETATM    4  C   UNL     1      -9.700  17.233  69.627  1.00  0.00     0.381 C  
HETATM    5  C   UNL     1      -9.091  18.607  69.714  1.00  0.00     0.963 C  
HETATM    6  C   UNL     1     -10.993  17.080  69.266  1.00  0.00    -0.008 C  
HETATM    7  C   UNL     1      -7.711  18.764  70.249  1.00  0.00     1.705 A  
HETATM    8  O   UNL     1      -9.716  19.608  69.354  1.00  0.00    -0.342 OA 
HETATM    9  O   UNL     1     -11.792  18.166  68.899  1.00  0.00     1.824 OA 
HETATM   10  C   UNL     1     -11.631  15.727  68.894  1.00  0.00    -0.394 C  
HETATM   11  C   UNL     1     -12.850  15.115  69.780  1.00  0.00     0.084 C  
HETATM   12  H   UNL     1     -12.700  18.059  68.645  1.00  0.00     0.000 HD 
HETATM   13  O   UNL     1     -12.025  15.986  67.539  1.00  0.00     0.194 OA 
HETATM   14  C   UNL     1      -7.207  20.042  70.565  1.00  0.00     0.567 A  
HETATM   15  O   UNL     1     -13.603  15.779  70.487  1.00  0.00    -0.298 OA 
HETATM   16  H   UNL     1     -12.622  16.724  67.518  1.00  0.00     0.000 HD 
HETATM   17  C   UNL     1      -5.941  20.192  71.138  1.00  0.00    -0.312 A  
HETATM   18  O   UNL     1      -7.886  21.205  70.330  1.00  0.00     2.604 OA 
HETATM   19  C   UNL     1     -13.112  13.603  69.605  1.00  0.00     1.081 C  
HETATM   20  C   UNL     1      -6.733  16.257  68.371  1.00  0.00    -0.136 C  
HETATM   21  C   UNL     1     -12.775  13.310  68.328  1.00  0.00     1.138 C  
HETATM   22  C   UNL     1      -5.164  19.071  71.395  1.00  0.00    -0.321 A  
HETATM   23  H   UNL     1      -7.547  22.067  70.543  1.00  0.00     0.000 HD 
HETATM   24  C   UNL     1     -11.216  13.348  68.009  1.00  0.00    -0.268 C  
HETATM   25  O   UNL     1      -6.671  15.249  70.568  1.00  0.00     0.050 OA 
HETATM   26  C   UNL     1      -7.283  16.305  69.813  1.00  0.00     0.160 C  
HETATM   27  O   UNL     1     -13.590  13.756  67.281  1.00  0.00     2.598 OA 
HETATM   28  C   UNL     1      -5.627  17.809  71.028  1.00  0.00     0.123 A  
HETATM   29  H   UNL     1      -5.737  15.414  70.525  1.00  0.00     0.000 HD 
HETATM   30  H   UNL     1     -13.353  13.550  66.384  1.00  0.00     0.000 HD 
HETATM   31  C   UNL     1      -6.891  17.637  70.424  1.00  0.00     1.473 A  
ENDROOT
BRANCH  19  32
HETATM   32  C   UNL     1     -12.550  12.481  70.473  1.00  0.00    -0.098 C  
HETATM   33  H   UNL     1     -11.871  11.251  68.914  1.00  0.00     0.000 HD 
HETATM   34  O   UNL     1     -12.601  12.572  71.702  1.00  0.00    -0.216 OA 
HETATM   35  N   UNL     1     -11.948  11.376  69.924  1.00  0.00    -0.336 N  
BRANCH  35  36
HETATM   36  C   UNL     1     -11.428  10.401  70.855  1.00  0.00    -0.297 C  
BRANCH  36  37
HETATM   37  N   UNL     1     -12.011   9.091  70.620  1.00  0.00    -0.170 NA 
HETATM   38  C   UNL     1     -10.972   8.040  70.660  1.00  0.00    -0.245 C  
HETATM   39  C   UNL     1     -11.795   6.771  70.766  1.00  0.00    -0.446 C  
HETATM   40  C   UNL     1     -12.948   7.169  71.672  1.00  0.00    -0.415 C  
HETATM   41  C   UNL     1     -12.982   8.695  71.641  1.00  0.00    -0.344 C  
ENDBRANCH  36  37
ENDBRANCH  35  36
ENDBRANCH  19  32
BRANCH  24  42
HETATM   42  N   UNL     1     -11.024  13.298  66.543  1.00  0.00    -0.284 NA 
HETATM   43  C   UNL     1     -10.432  12.013  66.148  1.00  0.00    -0.236 C  
HETATM   44  C   UNL     1     -10.314  14.390  65.914  1.00  0.00    -0.314 C  
ENDBRANCH  24  42
TORSDOF 4
ENDMDL
MODEL      102
REMARK 921   NORMALIZED FREE ENERGY PREDICTED BY IDOCK:    8.94 KCAL/MOL
REMARK 922        TOTAL FREE ENERGY PREDICTED BY IDOCK:   10.45 KCAL/MOL
REMARK 923 INTER-LIGAND FREE ENERGY PREDICTED BY IDOCK:    9.86 KCAL/MOL
REMARK 924 INTRA-LIGAND FREE ENERGY PREDICTED BY IDOCK:    0.59 KCAL/MOL
REMARK 927      BINDING AFFINITY PREDICTED BY RF-SCORE:    0.00 PKD
ROOT
HETATM    1  C   UNL     1      -9.198  11.808  69.040  1.00  0.00     0.220 C  
HETATM    2  C   UNL     1      -9.777  10.419  69.220  1.00  0.00    -0.231 C  
HETATM    3  C   UNL     1      -9.098   9.346  68.320  1.00  0.00    -0.128 C  
HETATM    4  C   UNL     1      -9.046   9.797  66.880  1.00  0.00    -0.162 C  
HETATM    5  C   UNL     1      -9.263   8.772  65.799  1.00  0.00    -0.206 C  
HETATM    6  C   UNL     1      -8.872  11.099  66.563  1.00  0.00    -0.171 C  
HETATM    7  C   UNL     1      -9.310   7.328  66.157  1.00  0.00    -0.101 A  
HETATM    8  O   UNL     1      -9.399   9.105  64.619  1.00  0.00    -0.083 OA 
HETATM    9  O   UNL     1      -8.952  11.556  65.245  1.00  0.00    -0.388 OA 
HETATM   10  C   UNL     1      -8.908  12.249  67.589  1.00  0.00    -0.175 C  
HETATM   11  C   UNL     1      -7.594  13.172  67.842  1.00  0.00    -0.147 C  
HETATM   12  H   UNL     1      -8.830  12.471  65.022  1.00  0.00     0.000 HD 
HETATM   13  O   UNL     1     -10.016  13.012  67.090  1.00  0.00    -0.228 OA 
HETATM   14  C   UNL     1      -9.271   6.339  65.153  1.00  0.00     0.479 A  
HETATM   15  O   UNL     1      -6.681  13.328  67.035  1.00  0.00    -0.078 OA 
HETATM   16  H   UNL     1      -9.838  13.283  66.198  1.00  0.00     0.000 HD 
HETATM   17  C   UNL     1      -9.238   4.982  65.483  1.00  0.00    -0.157 A  
HETATM   18  O   UNL     1      -9.278   6.618  63.814  1.00  0.00     0.651 OA 
HETATM   19  C   UNL     1      -7.585  13.979  69.160  1.00  0.00     0.030 C  
HETATM   20  C   UNL     1     -11.304   8.048  68.661  1.00  0.00     0.713 C  
HETATM   21  C   UNL     1      -8.878  14.270  69.429  1.00  0.00     0.422 C  
HETATM   22  C   UNL     1      -9.251   4.597  66.816  1.00  0.00    -0.130 A  
HETATM   23  H   UNL     1      -9.251   5.952  63.137  1.00  0.00     0.000 HD 
HETATM   24  C   UNL     1      -9.776  13.035  69.879  1.00  0.00     2.420 C  
HETATM   25  O   UNL     1      -9.259   7.508  69.831  1.00  0.00    -0.148 OA 
HETATM   26  C   UNL     1      -9.766   7.961  68.567  1.00  0.00    -0.161 C  
HETATM   27  O   UNL     1      -9.549  15.216  68.643  1.00  0.00    -0.198 OA 
HETATM   28  C   UNL     1      -9.354   5.564  67.816  1.00  0.00    -0.119 A  
HETATM   29  H   UNL     1      -9.666   6.663  69.982  1.00  0.00     0.000 HD 
HETATM   30  H   UNL     1     -10.457  15.420  68.832  1.00  0.00     0.000 HD 
HETATM   31  C   UNL     1      -9.414   6.939  67.503  1.00  0.00    -0.143 A  
ENDROOT
BRANCH  19  32
HETATM   32  C   UNL     1      -6.952  13.548  70.480  1.00  0.00     1.155 C  
HETATM   33  H   UNL     1      -5.122  12.885  69.695  1.00  0.00     0.000 HD 
HETATM   34  O   UNL     1      -7.572  13.698  71.535  1.00  0.00     3.790 OA 
HETATM   35  N   UNL     1      -5.683  13.026  70.535  1.00  0.00    -0.173 N  
BRANCH  35  36
HETATM   36  C   UNL     1      -5.188  12.687  71.849  1.00  0.00     0.051 C  
BRANCH  36  37
HETATM   37  N   UNL     1      -5.923  11.568  72.414  1.00  0.00     1.288 NA 
HETATM   38  C   UNL     1      -6.025  10.461  71.440  1.00  0.00     0.242 C  
HETATM   39  C   UNL     1      -6.474   9.302  72.308  1.00  0.00     0.246 C  
HETATM   40  C   UNL     1      -5.716   9.515  73.607  1.00  0.00     0.164 C  
HETATM   41  C   UNL     1      -5.273  10.977  73.585  1.00  0.00     0.560 C  
ENDBRANCH  36  37
ENDBRANCH  35  36
ENDBRANCH  19  32
BRANCH  24  42
HETATM   42  N   UNL     1     -11.198  13.440  69.853  1.00  0.00     0.001 NA 
HETATM   43  C   UNL     1     -11.752  13.448  71.213  1.00  0.00     0.898 C  
HETATM   44  C   UNL     1     -12.088  12.737  68.955  1.00  0.00    -0.144 C  
ENDBRANCH  24  42
TORSDOF 4
ENDMDL
MODEL      103
REMARK 921   NORMALIZED FREE ENERGY PREDICTED BY IDOCK:    9.72 KCAL/MOL
REMARK 922        TOTAL FREE ENERGY PREDICTED BY IDOCK:   11.42 KCAL/MOL
REMARK 923 INTER-LIGAND FREE ENERGY PREDICTED BY IDOCK:    9.48 KCAL/MOL
REMARK 924 INTRA-LIGAND FREE ENERGY PREDICTED BY IDOCK:    1.94 KCAL/MOL
REMARK 927      BINDING AFFINITY PREDICTED BY RF-SCORE:    0.00 PKD
ROOT
HETATM    1  C   UNL     1     -10.252  15.894  66.731  1.00  0.00    -0.283 C  
HETATM    2  C   UNL     1      -9.887  14.438  66.944  1.00  0.00    -0.263 C  
HETATM    3  C   UNL     1      -9.833  13.615  65.624  1.00  0.00    -0.196 C  
HETATM    4  C   UNL     1     -11.090  13.810  64.810  1.00  0.00    -0.380 C  
HETATM    5  C   UNL     1     -11.652  12.628  64.066  1.00  0.00    -0.418 C  
HETATM    6  C   UNL     1     -11.735  14.996  64.797  1.00  0.00    -0.370 C  
HETATM    7  C   UNL     1     -10.857  11.373  63.974  1.00  0.00    -0.450 A  
HETATM    8  O   UNL     1     -12.760  12.681  63.524  1.00  0.00    -0.719 OA 
HETATM    9  O   UNL     1     -12.967  15.161  64.158  1.00  0.00    -0.477 OA 
HETATM   10  C   UNL     1     -11.392  16.176  65.728  1.00  0.00     0.299 C  
HETATM   11  C   UNL     1     -10.871  17.589  65.115  1.00  0.00     0.233 C  
HETATM   12  H   UNL     1     -13.421  15.995  64.149  1.00  0.00     0.000 HD 
HETATM   13  O   UNL     1     -12.630  16.319  66.439  1.00  0.00     2.399 OA 
HETATM   14  C   UNL     1     -11.243  10.344  63.092  1.00  0.00     2.415 A  
HETATM   15  O   UNL     1     -11.089  17.979  63.970  1.00  0.00     1.704 OA 
HETATM   16  H   UNL     1     -13.331  16.493  65.823  1.00  0.00     0.000 HD 
HETATM   17  C   UNL     1     -10.462   9.195  62.945  1.00  0.00     4.947 A  
HETATM   18  O   UNL     1     -12.387  10.375  62.344  1.00  0.00     1.562 OA 
HETATM   19  C   UNL     1     -10.150  18.527  66.109  1.00  0.00    -0.391 C  
HETATM   20  C   UNL     1     -10.208  11.591  67.184  1.00  0.00    -0.233 C  
HETATM   21  C   UNL     1     -10.712  18.293  67.318  1.00  0.00    -0.337 C  
HETATM   22  C   UNL     1      -9.292   9.059  63.680  1.00  0.00     0.765 A  
HETATM   23  H   UNL     1     -12.647   9.681  61.749  1.00  0.00     0.000 HD 
HETATM   24  C   UNL     1     -10.359  16.886  67.974  1.00  0.00    -0.334 C  
HETATM   25  O   UNL     1      -8.056  12.145  66.232  1.00  0.00    -0.382 OA 
HETATM   26  C   UNL     1      -9.463  12.137  65.947  1.00  0.00    -0.179 C  
HETATM   27  O   UNL     1     -12.017  18.736  67.568  1.00  0.00     1.414 OA 
HETATM   28  C   UNL     1      -8.934  10.042  64.602  1.00  0.00    -0.249 A  
HETATM   29  H   UNL     1      -7.831  11.243  66.429  1.00  0.00     0.000 HD 
HETATM   30  H   UNL     1     -12.412  18.571  68.416  1.00  0.00     0.000 HD 
HETATM   31  C   UNL     1      -9.724  11.198  64.785  1.00  0.00    -0.303 A  
ENDROOT
BRANCH  19  32
HETATM   32  C   UNL     1      -8.645  18.616  66.339  1.00  0.00    -0.271 C  
HETATM   33  H   UNL     1      -8.285  16.560  66.556  1.00  0.00     0.000 HD 
HETATM   34  O   UNL     1      -8.085  19.715  66.317  1.00  0.00    -0.309 OA 
HETATM   35  N   UNL     1      -7.877  17.495  66.535  1.00  0.00    -0.253 N  
BRANCH  35  36
HETATM   36  C   UNL     1      -6.459  17.712  66.709  1.00  0.00    -0.187 C  
BRANCH  36  37
HETATM   37  N   UNL     1      -6.143  18.024  68.093  1.00  0.00    -0.174 NA 
HETATM   38  C   UNL     1      -6.747  19.313  68.492  1.00  0.00    -0.270 C  
HETATM   39  C   UNL     1      -6.626  19.276  70.003  1.00  0.00    -0.085 C  
HETATM   40  C   UNL     1      -6.890  17.820  70.347  1.00  0.00     1.447 C  
HETATM   41  C   UNL     1      -6.677  17.049  69.045  1.00  0.00    -0.221 C  
ENDBRANCH  36  37
ENDBRANCH  35  36
ENDBRANCH  19  32
BRANCH  24  42
HETATM   42  N   UNL     1     -11.256  16.654  69.126  1.00  0.00    -0.222 NA 
HETATM   43  C   UNL     1     -10.593  17.043  70.377  1.00  0.00     0.597 C  
HETATM   44  C   UNL     1     -11.859  15.347  69.264  1.00  0.00    -0.343 C  
ENDBRANCH  24  42
TORSDOF 4
ENDMDL
MODEL      104
REMARK 921   NORMALIZED FREE ENERGY PREDICTED BY IDOCK:   12.19 KCAL/MOL
REMARK 922        TOTAL FREE ENERGY PREDICTED BY IDOCK:   14.46 KCAL/MOL
REMARK 923 INTER-LIGAND FREE ENERGY PREDICTED BY IDOCK:    7.88 KCAL/MOL
REMARK 924 INTRA-LIGAND FREE ENERGY PREDICTED BY IDOCK:    6.58 KCAL/MOL
REMARK 927      BINDING AFFINITY PREDICTED BY RF-SCORE:    0.00 PKD
ROOT
HETATM    1  C   UNL     1      -8.914   7.474  69.128  1.00  0.00    -0.135 C  
HETATM    2  C   UNL     1      -9.251   7.159  67.685  1.00  0.00    -0.127 C  
HETATM    3  C   UNL     1      -8.973   5.678  67.295  1.00  0.00    -0.111 C  
HETATM    4  C   UNL     1      -7.578   5.263  67.693  1.00  0.00    -0.088 C  
HETATM    5  C   UNL     1      -6.812   4.349  66.774  1.00  0.00    -0.052 C  
HETATM    6  C   UNL     1      -6.999   5.748  68.813  1.00  0.00    -0.068 C  
HETATM    7  C   UNL     1      -7.510   3.713  65.623  1.00  0.00    -0.077 A  
HETATM    8  O   UNL     1      -5.615   4.112  66.959  1.00  0.00    -0.019 OA 
HETATM    9  O   UNL     1      -5.665   5.482  69.131  1.00  0.00    -0.011 OA 
HETATM   10  C   UNL     1      -7.593   6.884  69.669  1.00  0.00    -0.101 C  
HETATM   11  C   UNL     1      -8.026   6.616  71.213  1.00  0.00    -0.107 C  
HETATM   12  H   UNL     1      -5.257   5.822  69.918  1.00  0.00     0.000 HD 
HETATM   13  O   UNL     1      -6.551   7.866  69.563  1.00  0.00    -0.034 OA 
HETATM   14  C   UNL     1      -6.892   2.677  64.895  1.00  0.00    -0.044 A  
HETATM   15  O   UNL     1      -7.577   5.718  71.921  1.00  0.00    -0.093 OA 
HETATM   16  H   UNL     1      -5.739   7.503  69.895  1.00  0.00     0.000 HD 
HETATM   17  C   UNL     1      -7.569   2.024  63.861  1.00  0.00    -0.060 A  
HETATM   18  O   UNL     1      -5.613   2.249  65.120  1.00  0.00    -0.012 OA 
HETATM   19  C   UNL     1      -8.992   7.654  71.828  1.00  0.00    -0.145 C  
HETATM   20  C   UNL     1      -8.865   6.610  64.889  1.00  0.00     0.356 C  
HETATM   21  C   UNL     1      -8.703   8.833  71.231  1.00  0.00    -0.215 C  
HETATM   22  C   UNL     1      -8.866   2.402  63.541  1.00  0.00    -0.085 A  
HETATM   23  H   UNL     1      -5.196   1.550  64.629  1.00  0.00     0.000 HD 
HETATM   24  C   UNL     1      -9.130   8.946  69.702  1.00  0.00    -0.151 C  
HETATM   25  O   UNL     1     -10.774   5.406  65.755  1.00  0.00    -0.486 OA 
HETATM   26  C   UNL     1      -9.340   5.456  65.798  1.00  0.00    -0.118 C  
HETATM   27  O   UNL     1      -7.507   9.490  71.547  1.00  0.00    -0.303 OA 
HETATM   28  C   UNL     1      -9.463   3.468  64.213  1.00  0.00    -0.149 A  
HETATM   29  H   UNL     1     -10.997   5.270  64.841  1.00  0.00     0.000 HD 
HETATM   30  H   UNL     1      -7.304  10.318  71.127  1.00  0.00     0.000 HD 
HETATM   31  C   UNL     1      -8.786   4.158  65.242  1.00  0.00    -0.122 A  
ENDROOT
BRANCH  19  32
HETATM   32  C   UNL     1     -10.513   7.554  71.882  1.00  0.00    -0.202 C  
HETATM   33  H   UNL     1     -10.844   9.186  73.158  1.00  0.00     0.000 HD 
HETATM   34  O   UNL     1     -11.093   6.679  71.234  1.00  0.00    -0.247 OA 
HETATM   35  N   UNL     1     -11.269   8.440  72.609  1.00  0.00    -0.343 N  
BRANCH  35  36
HETATM   36  C   UNL     1     -12.701   8.255  72.551  1.00  0.00    -0.177 C  
BRANCH  36  37
HETATM   37  N   UNL     1     -13.157   8.113  71.179  1.00  0.00    -0.118 NA 
HETATM   38  C   UNL     1     -12.970   9.373  70.430  1.00  0.00     0.488 C  
HETATM   39  C   UNL     1     -13.144   8.927  68.991  1.00  0.00     6.242 C  
HETATM   40  C   UNL     1     -12.487   7.558  68.961  1.00  0.00     3.311 C  
HETATM   41  C   UNL     1     -12.408   7.111  70.419  1.00  0.00     0.039 C  
ENDBRANCH  36  37
ENDBRANCH  35  36
ENDBRANCH  19  32
BRANCH  24  42
HETATM   42  N   UNL     1      -8.502  10.149  69.115  1.00  0.00    -0.145 NA 
HETATM   43  C   UNL     1      -8.263  11.160  70.153  1.00  0.00     1.740 C  
HETATM   44  C   UNL     1      -9.138  10.754  67.965  1.00  0.00    -0.150 C  
ENDBRANCH  24  42
TORSDOF 4
ENDMDL
MODEL      105
REMARK 921   NORMALIZED FREE ENERGY PREDICTED BY IDOCK:   12.67 KCAL/MOL
REMARK 922        TOTAL FREE ENERGY PREDICTED BY IDOCK:   15.06 KCAL/MOL
REMARK 923 INTER-LIGAND FREE ENERGY PREDICTED BY IDOCK:   11.70 KCAL/MOL
REMARK 924 INTRA-LIGAND FREE ENERGY PREDICTED BY IDOCK:    3.36 KCAL/MOL
REMARK 927      BINDING AFFINITY PREDICTED BY RF-SCORE:    0.00 PKD
ROOT
HETATM    1  C   UNL     1     -10.440  14.541  67.498  1.00  0.00    -0.253 C  
HETATM    2  C   UNL     1     -11.388  14.594  68.679  1.00  0.00    -0.305 C  
HETATM    3  C   UNL     1     -11.364  13.303  69.549  1.00  0.00    -0.236 C  
HETATM    4  C   UNL     1     -11.530  12.069  68.695  1.00  0.00    -0.350 C  
HETATM    5  C   UNL     1     -12.348  10.927  69.237  1.00  0.00    -0.037 C  
HETATM    6  C   UNL     1     -11.014  12.009  67.449  1.00  0.00    -0.261 C  
HETATM    7  C   UNL     1     -12.788  10.950  70.660  1.00  0.00    -0.340 A  
HETATM    8  O   UNL     1     -12.659   9.968  68.526  1.00  0.00     1.296 OA 
HETATM    9  O   UNL     1     -11.267  10.932  66.595  1.00  0.00    -0.207 OA 
HETATM   10  C   UNL     1     -10.397  13.213  66.710  1.00  0.00    -0.252 C  
HETATM   11  C   UNL     1      -8.830  13.204  66.278  1.00  0.00     0.216 C  
HETATM   12  H   UNL     1     -10.904  10.889  65.718  1.00  0.00     0.000 HD 
HETATM   13  O   UNL     1     -11.270  13.302  65.576  1.00  0.00    -0.287 OA 
HETATM   14  C   UNL     1     -13.341   9.800  71.257  1.00  0.00    -0.339 A  
HETATM   15  O   UNL     1      -8.155  12.190  66.111  1.00  0.00     0.220 OA 
HETATM   16  H   UNL     1     -11.244  12.486  65.091  1.00  0.00     0.000 HD 
HETATM   17  C   UNL     1     -13.687   9.790  72.611  1.00  0.00    -0.037 A  
HETATM   18  O   UNL     1     -13.595   8.640  70.578  1.00  0.00     0.010 OA 
HETATM   19  C   UNL     1      -8.214  14.584  65.958  1.00  0.00     1.566 C  
HETATM   20  C   UNL     1     -13.715  14.076  70.287  1.00  0.00     1.167 C  
HETATM   21  C   UNL     1      -9.219  15.333  65.450  1.00  0.00     0.433 C  
HETATM   22  C   UNL     1     -13.489  10.928  73.380  1.00  0.00     4.890 A  
HETATM   23  H   UNL     1     -13.967   7.864  70.981  1.00  0.00     0.000 HD 
HETATM   24  C   UNL     1     -10.336  15.775  66.495  1.00  0.00    -0.294 C  
HETATM   25  O   UNL     1     -11.746  14.332  71.666  1.00  0.00    -0.390 OA 
HETATM   26  C   UNL     1     -12.374  13.449  70.725  1.00  0.00    -0.354 C  
HETATM   27  O   UNL     1      -9.707  15.052  64.167  1.00  0.00     0.393 OA 
HETATM   28  C   UNL     1     -13.001  12.091  72.785  1.00  0.00     1.734 A  
HETATM   29  H   UNL     1     -12.362  14.421  72.384  1.00  0.00     0.000 HD 
HETATM   30  H   UNL     1     -10.414  15.578  63.811  1.00  0.00     0.000 HD 
HETATM   31  C   UNL     1     -12.671  12.130  71.413  1.00  0.00    -0.368 A  
ENDROOT
BRANCH  19  32
HETATM   32  C   UNL     1      -7.450  15.481  66.928  1.00  0.00    -0.082 C  
HETATM   33  H   UNL     1      -9.035  16.769  67.406  1.00  0.00     0.000 HD 
HETATM   34  O   UNL     1      -6.265  15.246  67.176  1.00  0.00    -0.293 OA 
HETATM   35  N   UNL     1      -8.057  16.533  67.569  1.00  0.00    -0.151 N  
BRANCH  35  36
HETATM   36  C   UNL     1      -7.232  17.285  68.485  1.00  0.00    -0.224 C  
BRANCH  36  37
HETATM   37  N   UNL     1      -6.893  16.493  69.656  1.00  0.00    -0.167 NA 
HETATM   38  C   UNL     1      -7.685  15.246  69.694  1.00  0.00    -0.161 C  
HETATM   39  C   UNL     1      -6.949  14.423  70.733  1.00  0.00     0.684 C  
HETATM   40  C   UNL     1      -5.488  14.753  70.480  1.00  0.00    -0.136 C  
HETATM   41  C   UNL     1      -5.497  16.050  69.674  1.00  0.00    -0.124 C  
ENDBRANCH  36  37
ENDBRANCH  35  36
ENDBRANCH  19  32
BRANCH  24  42
HETATM   42  N   UNL     1     -11.494  16.324  65.757  1.00  0.00     0.393 NA 
HETATM   43  C   UNL     1     -11.869  17.637  66.297  1.00  0.00     2.937 C  
HETATM   44  C   UNL     1     -12.666  15.489  65.615  1.00  0.00     1.403 C  
ENDBRANCH  24  42
TORSDOF 4
ENDMDL
MODEL      106
REMARK 921   NORMALIZED FREE ENERGY PREDICTED BY IDOCK:   13.31 KCAL/MOL
REMARK 922        TOTAL FREE ENERGY PREDICTED BY IDOCK:   15.84 KCAL/MOL
REMARK 923 INTER-LIGAND FREE ENERGY PREDICTED BY IDOCK:   13.74 KCAL/MOL
REMARK 924 INTRA-LIGAND FREE ENERGY PREDICTED BY IDOCK:    2.10 KCAL/MOL
REMARK 927      BINDING AFFINITY PREDICTED BY RF-SCORE:    0.00 PKD
ROOT
HETATM    1  C   UNL     1      -9.419  10.480  69.761  1.00  0.00     0.059 C  
HETATM    2  C   UNL     1      -8.884  11.824  69.310  1.00  0.00     0.602 C  
HETATM    3  C   UNL     1      -9.737  12.483  68.187  1.00  0.00    -0.222 C  
HETATM    4  C   UNL     1      -9.979  11.517  67.052  1.00  0.00    -0.225 C  
HETATM    5  C   UNL     1      -9.970  12.050  65.643  1.00  0.00    -0.245 C  
HETATM    6  C   UNL     1     -10.137  10.196  67.282  1.00  0.00    -0.206 C  
HETATM    7  C   UNL     1      -9.937  13.521  65.416  1.00  0.00    -0.220 A  
HETATM    8  O   UNL     1      -9.994  11.290  64.671  1.00  0.00    -0.246 OA 
HETATM    9  O   UNL     1     -10.231   9.270  66.240  1.00  0.00    -0.273 OA 
HETATM   10  C   UNL     1      -9.898   9.523  68.648  1.00  0.00    -0.162 C  
HETATM   11  C   UNL     1     -11.117   8.784  69.430  1.00  0.00     0.067 C  
HETATM   12  H   UNL     1     -10.342   8.341  66.401  1.00  0.00     0.000 HD 
HETATM   13  O   UNL     1      -8.841   8.612  68.312  1.00  0.00    -0.140 OA 
HETATM   14  C   UNL     1     -10.169  14.052  64.131  1.00  0.00     0.863 A  
HETATM   15  O   UNL     1     -12.131   8.344  68.892  1.00  0.00     1.981 OA 
HETATM   16  H   UNL     1      -9.136   8.024  67.627  1.00  0.00     0.000 HD 
HETATM   17  C   UNL     1     -10.215  15.433  63.923  1.00  0.00     3.543 A  
HETATM   18  O   UNL     1     -10.346  13.284  63.013  1.00  0.00     0.539 OA 
HETATM   19  C   UNL     1     -10.896   8.541  70.940  1.00  0.00    -0.275 C  
HETATM   20  C   UNL     1      -7.566  13.783  67.669  1.00  0.00    -0.189 C  
HETATM   21  C   UNL     1      -9.564   8.357  71.098  1.00  0.00    -0.177 C  
HETATM   22  C   UNL     1     -10.025  16.297  64.992  1.00  0.00     0.483 A  
HETATM   23  H   UNL     1     -10.502  13.642  62.147  1.00  0.00     0.000 HD 
HETATM   24  C   UNL     1      -8.668   9.658  70.903  1.00  0.00     0.257 C  
HETATM   25  O   UNL     1      -9.441  14.756  68.845  1.00  0.00    -0.203 OA 
HETATM   26  C   UNL     1      -9.104  13.848  67.786  1.00  0.00    -0.191 C  
HETATM   27  O   UNL     1      -8.974   7.174  70.636  1.00  0.00    -0.152 OA 
HETATM   28  C   UNL     1      -9.732  15.783  66.255  1.00  0.00    -0.328 A  
HETATM   29  H   UNL     1      -9.054  15.589  68.601  1.00  0.00     0.000 HD 
HETATM   30  H   UNL     1      -8.039   7.045  70.746  1.00  0.00     0.000 HD 
HETATM   31  C   UNL     1      -9.655  14.391  66.481  1.00  0.00    -0.310 A  
ENDROOT
BRANCH  19  32
HETATM   32  C   UNL     1     -11.347   9.451  72.078  1.00  0.00    -0.052 C  
HETATM   33  H   UNL     1     -13.260   9.885  71.332  1.00  0.00     0.000 HD 
HETATM   34  O   UNL     1     -10.595   9.658  73.033  1.00  0.00     2.861 OA 
HETATM   35  N   UNL     1     -12.594  10.026  72.092  1.00  0.00    -0.283 N  
BRANCH  35  36
HETATM   36  C   UNL     1     -12.910  10.841  73.242  1.00  0.00     5.306 C  
BRANCH  36  37
HETATM   37  N   UNL     1     -12.951  12.251  72.890  1.00  0.00     0.980 NA 
HETATM   38  C   UNL     1     -12.156  12.510  71.672  1.00  0.00     0.909 C  
HETATM   39  C   UNL     1     -12.613  13.901  71.274  1.00  0.00    -0.450 C  
HETATM   40  C   UNL     1     -14.096  13.896  71.602  1.00  0.00    -0.282 C  
HETATM   41  C   UNL     1     -14.295  12.731  72.570  1.00  0.00     0.410 C  
ENDBRANCH  36  37
ENDBRANCH  35  36
ENDBRANCH  19  32
BRANCH  24  42
HETATM   42  N   UNL     1      -7.248   9.254  70.815  1.00  0.00    -0.114 NA 
HETATM   43  C   UNL     1      -6.468  10.277  70.106  1.00  0.00    -0.128 C  
HETATM   44  C   UNL     1      -6.947   7.941  70.288  1.00  0.00    -0.049 C  
ENDBRANCH  24  42
TORSDOF 4
ENDMDL
MODEL      107
REMARK 921   NORMALIZED FREE ENERGY PREDICTED BY IDOCK:   14.66 KCAL/MOL
REMARK 922        TOTAL FREE ENERGY PREDICTED BY IDOCK:   17.51 KCAL/MOL
REMARK 923 INTER-LIGAND FREE ENERGY PREDICTED BY IDOCK:   16.39 KCAL/MOL
REMARK 924 INTRA-LIGAND FREE ENERGY PREDICTED BY IDOCK:    1.12 KCAL/MOL
REMARK 927      BINDING AFFINITY PREDICTED BY RF-SCORE:    0.00 PKD
ROOT
HETATM    1  C   UNL     1      -8.707   5.115  71.151  1.00  0.00    -0.139 C  
HETATM    2  C   UNL     1      -7.564   4.796  70.208  1.00  0.00    -0.057 C  
HETATM    3  C   UNL     1      -8.004   4.692  68.718  1.00  0.00    -0.079 C  
HETATM    4  C   UNL     1      -9.190   3.770  68.565  1.00  0.00    -0.214 C  
HETATM    5  C   UNL     1      -9.253   2.879  67.353  1.00  0.00    -0.182 C  
HETATM    6  C   UNL     1     -10.143   3.696  69.518  1.00  0.00     0.588 C  
HETATM    7  C   UNL     1      -8.275   3.074  66.248  1.00  0.00    -0.091 A  
HETATM    8  O   UNL     1     -10.104   1.991  67.255  1.00  0.00     0.792 OA 
HETATM    9  O   UNL     1     -11.177   2.758  69.459  1.00  0.00     5.524 OA 
HETATM   10  C   UNL     1     -10.032   4.363  70.904  1.00  0.00    -0.172 C  
HETATM   11  C   UNL     1     -11.087   5.516  71.353  1.00  0.00    -0.080 C  
HETATM   12  H   UNL     1     -11.848   2.705  70.129  1.00  0.00     0.000 HD 
HETATM   13  O   UNL     1     -10.095   3.211  71.756  1.00  0.00    -0.151 OA 
HETATM   14  C   UNL     1      -8.455   2.425  65.009  1.00  0.00    -0.098 A  
HETATM   15  O   UNL     1     -12.215   5.655  70.885  1.00  0.00     0.931 OA 
HETATM   16  H   UNL     1     -10.910   2.748  71.605  1.00  0.00     0.000 HD 
HETATM   17  C   UNL     1      -7.584   2.660  63.942  1.00  0.00    -0.067 A  
HETATM   18  O   UNL     1      -9.455   1.525  64.763  1.00  0.00    -0.192 OA 
HETATM   19  C   UNL     1     -10.642   6.409  72.533  1.00  0.00    -0.240 C  
HETATM   20  C   UNL     1      -5.862   3.272  68.463  1.00  0.00    -0.023 C  
HETATM   21  C   UNL     1      -9.866   5.630  73.320  1.00  0.00    -0.168 C  
HETATM   22  C   UNL     1      -6.522   3.541  64.102  1.00  0.00    -0.031 A  
HETATM   23  H   UNL     1      -9.577   1.088  63.928  1.00  0.00     0.000 HD 
HETATM   24  C   UNL     1      -8.441   5.255  72.717  1.00  0.00    -0.116 C  
HETATM   25  O   UNL     1      -6.018   5.571  67.733  1.00  0.00    -0.016 OA 
HETATM   26  C   UNL     1      -6.768   4.352  67.834  1.00  0.00    -0.051 C  
HETATM   27  O   UNL     1     -10.458   4.612  74.079  1.00  0.00    -0.215 OA 
HETATM   28  C   UNL     1      -6.298   4.139  65.340  1.00  0.00    -0.032 A  
HETATM   29  H   UNL     1      -5.264   5.363  67.193  1.00  0.00     0.000 HD 
HETATM   30  H   UNL     1      -9.913   4.064  74.632  1.00  0.00     0.000 HD 
HETATM   31  C   UNL     1      -7.151   3.894  66.439  1.00  0.00    -0.064 A  
ENDROOT
BRANCH  19  32
HETATM   32  C   UNL     1      -9.940   7.760  72.429  1.00  0.00    -0.214 C  
HETATM   33  H   UNL     1     -11.550   8.948  73.060  1.00  0.00     0.000 HD 
HETATM   34  O   UNL     1      -8.760   7.811  72.075  1.00  0.00    -0.115 OA 
HETATM   35  N   UNL     1     -10.577   8.931  72.756  1.00  0.00     0.342 N  
BRANCH  35  36
HETATM   36  C   UNL     1      -9.792  10.139  72.644  1.00  0.00     6.954 C  
BRANCH  36  37
HETATM   37  N   UNL     1     -10.250  10.962  71.538  1.00  0.00     3.918 NA 
HETATM   38  C   UNL     1      -9.934  10.324  70.243  1.00  0.00     0.112 C  
HETATM   39  C   UNL     1     -10.789  11.116  69.272  1.00  0.00    -0.277 C  
HETATM   40  C   UNL     1     -12.066  11.377  70.051  1.00  0.00    -0.417 C  
HETATM   41  C   UNL     1     -11.701  11.153  71.517  1.00  0.00     0.925 C  
ENDBRANCH  36  37
ENDBRANCH  35  36
ENDBRANCH  19  32
BRANCH  24  42
HETATM   42  N   UNL     1      -7.838   4.184  73.539  1.00  0.00    -0.084 NA 
HETATM   43  C   UNL     1      -6.750   4.724  74.365  1.00  0.00    -0.070 C  
HETATM   44  C   UNL     1      -7.406   2.977  72.870  1.00  0.00    -0.045 C  
ENDBRANCH  24  42
TORSDOF 4
ENDMDL
MODEL      108
REMARK 921   NORMALIZED FREE ENERGY PREDICTED BY IDOCK:   16.71 KCAL/MOL
REMARK 922        TOTAL FREE ENERGY PREDICTED BY IDOCK:   20.04 KCAL/MOL
REMARK 923 INTER-LIGAND FREE ENERGY PREDICTED BY IDOCK:   17.49 KCAL/MOL
REMARK 924 INTRA-LIGAND FREE ENERGY PREDICTED BY IDOCK:    2.55 KCAL/MOL
REMARK 927      BINDING AFFINITY PREDICTED BY RF-SCORE:    0.00 PKD
ROOT
HETATM    1  C   UNL     1     -11.146  12.971  66.597  1.00  0.00    -0.318 C  
HETATM    2  C   UNL     1     -11.977  11.883  67.247  1.00  0.00    -0.065 C  
HETATM    3  C   UNL     1     -11.124  10.822  68.003  1.00  0.00    -0.359 C  
HETATM    4  C   UNL     1     -10.015  10.292  67.126  1.00  0.00    -0.243 C  
HETATM    5  C   UNL     1      -9.660   8.833  67.224  1.00  0.00    -0.165 C  
HETATM    6  C   UNL     1      -9.396  11.088  66.227  1.00  0.00    -0.183 C  
HETATM    7  C   UNL     1     -10.249   8.006  68.312  1.00  0.00    -0.243 A  
HETATM    8  O   UNL     1      -8.884   8.307  66.420  1.00  0.00    -0.135 OA 
HETATM    9  O   UNL     1      -8.461  10.588  65.318  1.00  0.00    -0.168 OA 
HETATM   10  C   UNL     1      -9.864  12.512  65.867  1.00  0.00    -0.247 C  
HETATM   11  C   UNL     1      -8.910  13.795  66.161  1.00  0.00     0.407 C  
HETATM   12  H   UNL     1      -8.025  11.147  64.686  1.00  0.00     0.000 HD 
HETATM   13  O   UNL     1     -10.141  12.352  64.469  1.00  0.00    -0.377 OA 
HETATM   14  C   UNL     1      -9.757   6.711  68.575  1.00  0.00    -0.131 A  
HETATM   15  O   UNL     1      -7.688  13.748  66.274  1.00  0.00     1.160 OA 
HETATM   16  H   UNL     1      -9.353  12.070  64.020  1.00  0.00     0.000 HD 
HETATM   17  C   UNL     1     -10.253   5.958  69.642  1.00  0.00    -0.281 A  
HETATM   18  O   UNL     1      -8.796   6.097  67.820  1.00  0.00    -0.113 OA 
HETATM   19  C   UNL     1      -9.620  15.168  66.182  1.00  0.00    -0.344 C  
HETATM   20  C   UNL     1     -13.190   9.310  67.665  1.00  0.00    14.193 C  
HETATM   21  C   UNL     1     -10.649  15.070  65.308  1.00  0.00    -0.397 C  
HETATM   22  C   UNL     1     -11.247   6.486  70.454  1.00  0.00    -0.414 A  
HETATM   23  H   UNL     1      -8.464   5.225  67.997  1.00  0.00     0.000 HD 
HETATM   24  C   UNL     1     -11.853  14.140  65.775  1.00  0.00    -0.380 C  
HETATM   25  O   UNL     1     -12.659  10.372  69.771  1.00  0.00    -0.561 OA 
HETATM   26  C   UNL     1     -12.063   9.747  68.625  1.00  0.00     1.505 C  
HETATM   27  O   UNL     1     -10.384  15.025  63.934  1.00  0.00     0.537 OA 
HETATM   28  C   UNL     1     -11.785   7.739  70.165  1.00  0.00     0.122 A  
HETATM   29  H   UNL     1     -13.232   9.716  70.151  1.00  0.00     0.000 HD 
HETATM   30  H   UNL     1     -11.106  14.956  63.321  1.00  0.00     0.000 HD 
HETATM   31  C   UNL     1     -11.317   8.505  69.075  1.00  0.00     0.533 A  
ENDROOT
BRANCH  19  32
HETATM   32  C   UNL     1     -10.161  15.888  67.413  1.00  0.00    -0.252 C  
HETATM   33  H   UNL     1     -11.288  17.340  66.401  1.00  0.00     0.000 HD 
HETATM   34  O   UNL     1      -9.866  15.482  68.540  1.00  0.00    -0.196 OA 
HETATM   35  N   UNL     1     -11.005  16.965  67.307  1.00  0.00    -0.115 N  
BRANCH  35  36
HETATM   36  C   UNL     1     -11.472  17.538  68.548  1.00  0.00     0.907 C  
BRANCH  36  37
HETATM   37  N   UNL     1     -10.588  18.600  69.000  1.00  0.00     0.199 NA 
HETATM   38  C   UNL     1     -10.070  18.311  70.353  1.00  0.00     1.824 C  
HETATM   39  C   UNL     1      -8.928  19.301  70.483  1.00  0.00     2.121 C  
HETATM   40  C   UNL     1      -8.322  19.330  69.090  1.00  0.00    -0.167 C  
HETATM   41  C   UNL     1      -9.395  18.757  68.167  1.00  0.00    -0.316 C  
ENDBRANCH  36  37
ENDBRANCH  35  36
ENDBRANCH  19  32
BRANCH  24  42
HETATM   42  N   UNL     1     -12.749  13.899  64.623  1.00  0.00    -0.673 NA 
HETATM   43  C   UNL     1     -12.775  12.470  64.286  1.00  0.00    -0.341 C  
HETATM   44  C   UNL     1     -12.547  14.691  63.430  1.00  0.00     1.166 C  
ENDBRANCH  24  42
TORSDOF 4
ENDMDL
MODEL      109
REMARK 921   NORMALIZED FREE ENERGY PREDICTED BY IDOCK:   19.59 KCAL/MOL
REMARK 922        TOTAL FREE ENERGY PREDICTED BY IDOCK:   23.60 KCAL/MOL
REMARK 923 INTER-LIGAND FREE ENERGY PREDICTED BY IDOCK:   20.77 KCAL/MOL
REMARK 924 INTRA-LIGAND FREE ENERGY PREDICTED BY IDOCK:    2.83 KCAL/MOL
REMARK 927      BINDING AFFINITY PREDICTED BY RF-SCORE:    0.00 PKD
ROOT
HETATM    1  C   UNL     1      -9.655  17.800  67.314  1.00  0.00    -0.272 C  
HETATM    2  C   UNL     1      -9.859  16.506  68.076  1.00  0.00    -0.240 C  
HETATM    3  C   UNL     1     -10.967  16.599  69.166  1.00  0.00    -0.276 C  
HETATM    4  C   UNL     1     -10.752  17.799  70.058  1.00  0.00     1.111 C  
HETATM    5  C   UNL     1     -11.057  17.664  71.526  1.00  0.00     2.224 C  
HETATM    6  C   UNL     1     -10.239  18.948  69.569  1.00  0.00     0.373 C  
HETATM    7  C   UNL     1     -11.753  16.444  72.022  1.00  0.00    -0.434 A  
HETATM    8  O   UNL     1     -10.746  18.548  72.328  1.00  0.00     2.087 OA 
HETATM    9  O   UNL     1      -9.910  20.023  70.399  1.00  0.00     0.006 OA 
HETATM   10  C   UNL     1      -9.651  19.097  68.152  1.00  0.00    -0.348 C  
HETATM   11  C   UNL     1     -10.326  20.116  67.079  1.00  0.00    -0.365 C  
HETATM   12  H   UNL     1      -9.549  20.832  70.056  1.00  0.00     0.000 HD 
HETATM   13  O   UNL     1      -8.298  19.460  68.465  1.00  0.00    -0.346 OA 
HETATM   14  C   UNL     1     -12.263  16.395  73.335  1.00  0.00    -0.467 A  
HETATM   15  O   UNL     1     -11.017  21.088  67.375  1.00  0.00     1.592 OA 
HETATM   16  H   UNL     1      -8.296  20.258  68.980  1.00  0.00     0.000 HD 
HETATM   17  C   UNL     1     -12.982  15.284  73.783  1.00  0.00    -0.486 A  
HETATM   18  O   UNL     1     -12.086  17.390  74.255  1.00  0.00    -0.282 OA 
HETATM   19  C   UNL     1      -9.956  19.873  65.599  1.00  0.00    -0.252 C  
HETATM   20  C   UNL     1      -9.724  14.597  70.222  1.00  0.00     0.868 C  
HETATM   21  C   UNL     1      -8.699  19.374  65.604  1.00  0.00     0.420 C  
HETATM   22  C   UNL     1     -13.195  14.211  72.929  1.00  0.00    -0.553 A  
HETATM   23  H   UNL     1     -12.430  17.357  75.140  1.00  0.00     0.000 HD 
HETATM   24  C   UNL     1      -8.556  17.890  66.162  1.00  0.00    -0.096 C  
HETATM   25  O   UNL     1     -11.788  14.368  68.985  1.00  0.00    -0.296 OA 
HETATM   26  C   UNL     1     -11.094  15.231  69.898  1.00  0.00    -0.289 C  
HETATM   27  O   UNL     1      -7.626  20.216  65.922  1.00  0.00    -0.412 OA 
HETATM   28  C   UNL     1     -12.642  14.223  71.650  1.00  0.00    -0.431 A  
HETATM   29  H   UNL     1     -11.866  13.533  69.431  1.00  0.00     0.000 HD 
HETATM   30  H   UNL     1      -6.743  19.866  65.927  1.00  0.00     0.000 HD 
HETATM   31  C   UNL     1     -11.889  15.324  71.186  1.00  0.00    -0.399 A  
ENDROOT
BRANCH  19  32
HETATM   32  C   UNL     1     -10.749  19.044  64.593  1.00  0.00     3.007 C  
HETATM   33  H   UNL     1     -10.467  17.175  65.505  1.00  0.00     0.000 HD 
HETATM   34  O   UNL     1     -11.304  19.599  63.642  1.00  0.00     5.176 OA 
HETATM   35  N   UNL     1     -10.898  17.686  64.735  1.00  0.00     0.660 N  
BRANCH  35  36
HETATM   36  C   UNL     1     -11.698  17.022  63.732  1.00  0.00     3.418 C  
BRANCH  36  37
HETATM   37  N   UNL     1     -12.528  15.987  64.325  1.00  0.00    -0.352 NA 
HETATM   38  C   UNL     1     -12.995  15.035  63.296  1.00  0.00     2.504 C  
HETATM   39  C   UNL     1     -13.505  13.876  64.131  1.00  0.00     2.268 C  
HETATM   40  C   UNL     1     -12.518  13.805  65.283  1.00  0.00    -0.512 C  
HETATM   41  C   UNL     1     -11.818  15.162  65.304  1.00  0.00    -0.062 C  
ENDBRANCH  36  37
ENDBRANCH  35  36
ENDBRANCH  19  32
BRANCH  24  42
HETATM   42  N   UNL     1      -7.124  17.593  66.379  1.00  0.00    -0.246 NA 
HETATM   43  C   UNL     1      -6.362  18.839  66.537  1.00  0.00    -0.188 C  
HETATM   44  C   UNL     1      -6.462  16.719  65.435  1.00  0.00     2.656 C  
ENDBRANCH  24  42
TORSDOF 4
ENDMDL
MODEL      110
REMARK 921   NORMALIZED FREE ENERGY PREDICTED BY IDOCK:   20.26 KCAL/MOL
REMARK 922        TOTAL FREE ENERGY PREDICTED BY IDOCK:   24.43 KCAL/MOL
REMARK 923 INTER-LIGAND FREE ENERGY PREDICTED BY IDOCK:   23.79 KCAL/MOL
REMARK 924 INTRA-LIGAND FREE ENERGY PREDICTED BY IDOCK:    0.64 KCAL/MOL
REMARK 927      BINDING AFFINITY PREDICTED BY RF-SCORE:    0.00 PKD
ROOT
HETATM    1  C   UNL     1      -9.684  11.211  68.510  1.00  0.00    -0.196 C  
HETATM    2  C   UNL     1      -9.382  12.495  67.763  1.00  0.00    -0.198 C  
HETATM    3  C   UNL     1      -8.802  13.617  68.673  1.00  0.00    -0.023 C  
HETATM    4  C   UNL     1      -9.658  13.819  69.901  1.00  0.00     1.697 C  
HETATM    5  C   UNL     1      -9.855  15.220  70.415  1.00  0.00     0.349 C  
HETATM    6  C   UNL     1     -10.287  12.779  70.491  1.00  0.00     3.803 C  
HETATM    7  C   UNL     1      -9.046  16.331  69.844  1.00  0.00     0.636 A  
HETATM    8  O   UNL     1     -10.673  15.466  71.306  1.00  0.00    -0.205 OA 
HETATM    9  O   UNL     1     -11.186  12.961  71.545  1.00  0.00     2.135 OA 
HETATM   10  C   UNL     1     -10.364  11.362  69.889  1.00  0.00     0.691 C  
HETATM   11  C   UNL     1      -9.694  10.098  70.661  1.00  0.00     0.482 C  
HETATM   12  H   UNL     1     -11.628  12.230  71.960  1.00  0.00     0.000 HD 
HETATM   13  O   UNL     1     -11.783  11.215  69.741  1.00  0.00    -0.281 OA 
HETATM   14  C   UNL     1      -9.032  17.598  70.462  1.00  0.00     4.104 A  
HETATM   15  O   UNL     1      -9.470  10.053  71.869  1.00  0.00     1.564 OA 
HETATM   16  H   UNL     1     -12.201  11.308  70.589  1.00  0.00     0.000 HD 
HETATM   17  C   UNL     1      -8.217  18.624  69.977  1.00  0.00     1.541 A  
HETATM   18  O   UNL     1      -9.804  17.923  71.543  1.00  0.00     4.833 OA 
HETATM   19  C   UNL     1      -9.437   8.843  69.797  1.00  0.00    -0.174 C  
HETATM   20  C   UNL     1      -9.679  15.199  66.830  1.00  0.00    -0.248 C  
HETATM   21  C   UNL     1     -10.410   8.831  68.857  1.00  0.00    -0.212 C  
HETATM   22  C   UNL     1      -7.413  18.399  68.868  1.00  0.00    -0.263 A  
HETATM   23  H   UNL     1      -9.795  18.777  71.960  1.00  0.00     0.000 HD 
HETATM   24  C   UNL     1     -10.289   9.955  67.737  1.00  0.00    -0.221 C  
HETATM   25  O   UNL     1      -7.345  14.614  67.070  1.00  0.00    -0.296 OA 
HETATM   26  C   UNL     1      -8.536  14.893  67.821  1.00  0.00    -0.154 C  
HETATM   27  O   UNL     1     -11.725   8.527  69.231  1.00  0.00     0.073 OA 
HETATM   28  C   UNL     1      -7.466  17.170  68.211  1.00  0.00    -0.217 A  
HETATM   29  H   UNL     1      -7.183  15.393  66.550  1.00  0.00     0.000 HD 
HETATM   30  H   UNL     1     -12.409   8.519  68.571  1.00  0.00     0.000 HD 
HETATM   31  C   UNL     1      -8.303  16.129  68.670  1.00  0.00    -0.211 A  
ENDROOT
BRANCH  19  32
HETATM   32  C   UNL     1      -8.137   8.487  69.083  1.00  0.00    -0.117 C  
HETATM   33  H   UNL     1      -8.979   7.300  67.571  1.00  0.00     0.000 HD 
HETATM   34  O   UNL     1      -7.067   8.940  69.496  1.00  0.00    -0.056 OA 
HETATM   35  N   UNL     1      -8.123   7.697  67.960  1.00  0.00    -0.122 N  
BRANCH  35  36
HETATM   36  C   UNL     1      -6.831   7.460  67.360  1.00  0.00    -0.078 C  
BRANCH  36  37
HETATM   37  N   UNL     1      -6.953   6.670  66.147  1.00  0.00    -0.060 NA 
HETATM   38  C   UNL     1      -6.079   5.480  66.205  1.00  0.00    -0.033 C  
HETATM   39  C   UNL     1      -6.610   4.630  65.066  1.00  0.00    -0.044 C  
HETATM   40  C   UNL     1      -8.111   4.857  65.121  1.00  0.00    -0.112 C  
HETATM   41  C   UNL     1      -8.299   6.137  65.933  1.00  0.00    -0.140 C  
ENDBRANCH  36  37
ENDBRANCH  35  36
ENDBRANCH  19  32
BRANCH  24  42
HETATM   42  N   UNL     1     -11.551  10.004  66.967  1.00  0.00     0.546 NA 
HETATM   43  C   UNL     1     -11.270  10.128  65.531  1.00  0.00     1.399 C  
HETATM   44  C   UNL     1     -12.552  10.970  67.365  1.00  0.00     3.593 C  
ENDBRANCH  24  42
TORSDOF 4
ENDMDL
MODEL      111
REMARK 921   NORMALIZED FREE ENERGY PREDICTED BY IDOCK:   20.84 KCAL/MOL
REMARK 922        TOTAL FREE ENERGY PREDICTED BY IDOCK:   25.14 KCAL/MOL
REMARK 923 INTER-LIGAND FREE ENERGY PREDICTED BY IDOCK:   23.62 KCAL/MOL
REMARK 924 INTRA-LIGAND FREE ENERGY PREDICTED BY IDOCK:    1.52 KCAL/MOL
REMARK 927      BINDING AFFINITY PREDICTED BY RF-SCORE:    0.00 PKD
ROOT
HETATM    1  C   UNL     1      -8.489  14.095  68.600  1.00  0.00    -0.120 C  
HETATM    2  C   UNL     1      -9.829  13.470  68.266  1.00  0.00    -0.233 C  
HETATM    3  C   UNL     1     -10.468  12.703  69.460  1.00  0.00     0.514 C  
HETATM    4  C   UNL     1      -9.486  11.734  70.072  1.00  0.00     2.496 C  
HETATM    5  C   UNL     1      -9.999  10.404  70.556  1.00  0.00     0.603 C  
HETATM    6  C   UNL     1      -8.168  12.020  70.130  1.00  0.00     3.272 C  
HETATM    7  C   UNL     1     -11.467  10.161  70.616  1.00  0.00    -0.432 A  
HETATM    8  O   UNL     1      -9.225   9.509  70.908  1.00  0.00    -0.217 OA 
HETATM    9  O   UNL     1      -7.227  11.086  70.571  1.00  0.00    -0.350 OA 
HETATM   10  C   UNL     1      -7.515  13.227  69.427  1.00  0.00     0.405 C  
HETATM   11  C   UNL     1      -6.783  14.392  70.294  1.00  0.00    -0.005 C  
HETATM   12  H   UNL     1      -6.299  11.287  70.612  1.00  0.00     0.000 HD 
HETATM   13  O   UNL     1      -6.603  12.557  68.545  1.00  0.00    -0.066 OA 
HETATM   14  C   UNL     1     -11.979   9.030  71.283  1.00  0.00    -0.312 A  
HETATM   15  O   UNL     1      -6.332  14.243  71.427  1.00  0.00    -0.019 OA 
HETATM   16  H   UNL     1      -6.004  12.024  69.053  1.00  0.00     0.000 HD 
HETATM   17  C   UNL     1     -13.357   8.834  71.409  1.00  0.00    -0.289 A  
HETATM   18  O   UNL     1     -11.195   8.052  71.829  1.00  0.00    -0.247 OA 
HETATM   19  C   UNL     1      -6.562  15.735  69.562  1.00  0.00    -0.183 C  
HETATM   20  C   UNL     1     -11.769  11.451  67.614  1.00  0.00    -0.246 C  
HETATM   21  C   UNL     1      -6.384  15.424  68.257  1.00  0.00    -0.119 C  
HETATM   22  C   UNL     1     -14.236   9.762  70.867  1.00  0.00     0.605 A  
HETATM   23  H   UNL     1     -11.540   7.289  72.278  1.00  0.00     0.000 HD 
HETATM   24  C   UNL     1      -7.686  14.915  67.494  1.00  0.00    -0.192 C  
HETATM   25  O   UNL     1     -12.751  13.192  68.973  1.00  0.00     0.334 OA 
HETATM   26  C   UNL     1     -11.830  12.092  69.017  1.00  0.00    -0.306 C  
HETATM   27  O   UNL     1      -5.197  14.800  67.853  1.00  0.00    -0.171 OA 
HETATM   28  C   UNL     1     -13.741  10.851  70.152  1.00  0.00     1.677 A  
HETATM   29  H   UNL     1     -13.582  12.819  68.702  1.00  0.00     0.000 HD 
HETATM   30  H   UNL     1      -5.073  14.582  66.937  1.00  0.00     0.000 HD 
HETATM   31  C   UNL     1     -12.353  11.052  69.989  1.00  0.00    -0.377 A  
ENDROOT
BRANCH  19  32
HETATM   32  C   UNL     1      -7.485  16.948  69.599  1.00  0.00     0.377 C  
HETATM   33  H   UNL     1      -6.235  18.269  68.552  1.00  0.00     0.000 HD 
HETATM   34  O   UNL     1      -8.592  16.860  70.136  1.00  0.00     1.484 OA 
HETATM   35  N   UNL     1      -7.135  18.140  69.015  1.00  0.00    -0.262 N  
BRANCH  35  36
HETATM   36  C   UNL     1      -8.111  19.202  69.093  1.00  0.00    -0.137 C  
BRANCH  36  37
HETATM   37  N   UNL     1      -8.319  19.820  67.794  1.00  0.00    -0.302 NA 
HETATM   38  C   UNL     1      -8.022  18.866  66.705  1.00  0.00    -0.259 C  
HETATM   39  C   UNL     1      -8.633  19.548  65.497  1.00  0.00     0.561 C  
HETATM   40  C   UNL     1      -9.900  20.180  66.048  1.00  0.00    -0.460 C  
HETATM   41  C   UNL     1      -9.703  20.234  67.562  1.00  0.00    -0.435 C  
ENDBRANCH  36  37
ENDBRANCH  35  36
ENDBRANCH  19  32
BRANCH  24  42
HETATM   42  N   UNL     1      -7.286  14.346  66.189  1.00  0.00     2.311 NA 
HETATM   43  C   UNL     1      -5.829  14.426  66.020  1.00  0.00     6.891 C  
HETATM   44  C   UNL     1      -7.954  14.835  65.003  1.00  0.00     7.831 C  
ENDBRANCH  24  42
TORSDOF 4
ENDMDL
MODEL      112
REMARK 921   NORMALIZED FREE ENERGY PREDICTED BY IDOCK:   22.14 KCAL/MOL
REMARK 922        TOTAL FREE ENERGY PREDICTED BY IDOCK:   26.75 KCAL/MOL
REMARK 923 INTER-LIGAND FREE ENERGY PREDICTED BY IDOCK:   21.09 KCAL/MOL
REMARK 924 INTRA-LIGAND FREE ENERGY PREDICTED BY IDOCK:    5.66 KCAL/MOL
REMARK 927      BINDING AFFINITY PREDICTED BY RF-SCORE:    0.00 PKD
ROOT
HETATM    1  C   UNL     1      -9.471  15.403  68.988  1.00  0.00    -0.236 C  
HETATM    2  C   UNL     1      -9.506  13.892  69.095  1.00  0.00     0.280 C  
HETATM    3  C   UNL     1     -10.923  13.327  69.406  1.00  0.00    -0.067 C  
HETATM    4  C   UNL     1     -11.541  14.031  70.589  1.00  0.00    -0.126 C  
HETATM    5  C   UNL     1     -12.366  13.221  71.554  1.00  0.00     0.010 C  
HETATM    6  C   UNL     1     -11.312  15.342  70.819  1.00  0.00    -0.345 C  
HETATM    7  C   UNL     1     -12.726  11.818  71.213  1.00  0.00    -0.420 A  
HETATM    8  O   UNL     1     -12.755  13.700  72.623  1.00  0.00    -0.194 OA 
HETATM    9  O   UNL     1     -11.765  15.980  71.976  1.00  0.00    -0.450 OA 
HETATM   10  C   UNL     1     -10.277  16.186  70.048  1.00  0.00    -0.060 C  
HETATM   11  C   UNL     1     -10.750  17.454  69.149  1.00  0.00    -0.034 C  
HETATM   12  H   UNL     1     -11.604  16.902  72.138  1.00  0.00     0.000 HD 
HETATM   13  O   UNL     1      -9.406  16.577  71.119  1.00  0.00     3.613 OA 
HETATM   14  C   UNL     1     -13.687  11.120  71.972  1.00  0.00     0.151 A  
HETATM   15  O   UNL     1     -11.795  18.080  69.313  1.00  0.00     2.883 OA 
HETATM   16  H   UNL     1      -9.901  17.057  71.771  1.00  0.00     0.000 HD 
HETATM   17  C   UNL     1     -14.086   9.830  71.614  1.00  0.00     0.050 A  
HETATM   18  O   UNL     1     -14.277  11.625  73.098  1.00  0.00     0.881 OA 
HETATM   19  C   UNL     1      -9.732  17.945  68.093  1.00  0.00    -0.320 C  
HETATM   20  C   UNL     1      -9.622  11.281  70.294  1.00  0.00     2.297 C  
HETATM   21  C   UNL     1      -8.508  17.693  68.610  1.00  0.00    -0.266 C  
HETATM   22  C   UNL     1     -13.526   9.221  70.499  1.00  0.00     0.511 A  
HETATM   23  H   UNL     1     -14.925  11.155  73.609  1.00  0.00     0.000 HD 
HETATM   24  C   UNL     1      -8.100  16.156  68.679  1.00  0.00    -0.203 C  
HETATM   25  O   UNL     1     -10.747  11.305  68.154  1.00  0.00    -0.184 OA 
HETATM   26  C   UNL     1     -10.854  11.775  69.506  1.00  0.00     0.008 C  
HETATM   27  O   UNL     1      -8.041  18.463  69.682  1.00  0.00     0.425 OA 
HETATM   28  C   UNL     1     -12.530   9.877  69.778  1.00  0.00     0.410 A  
HETATM   29  H   UNL     1     -10.705  10.358  68.216  1.00  0.00     0.000 HD 
HETATM   30  H   UNL     1      -7.181  18.286  70.045  1.00  0.00     0.000 HD 
HETATM   31  C   UNL     1     -12.093  11.171  70.139  1.00  0.00    -0.443 A  
ENDROOT
BRANCH  19  32
HETATM   32  C   UNL     1      -9.681  17.530  66.627  1.00  0.00    -0.299 C  
HETATM   33  H   UNL     1      -8.450  15.848  66.867  1.00  0.00     0.000 HD 
HETATM   34  O   UNL     1     -10.306  18.178  65.784  1.00  0.00    -0.586 OA 
HETATM   35  N   UNL     1      -8.980  16.424  66.214  1.00  0.00    -0.308 N  
BRANCH  35  36
HETATM   36  C   UNL     1      -9.036  16.121  64.802  1.00  0.00     3.303 C  
BRANCH  36  37
HETATM   37  N   UNL     1     -10.373  15.712  64.406  1.00  0.00     0.165 NA 
HETATM   38  C   UNL     1     -11.288  15.715  65.567  1.00  0.00    -0.037 C  
HETATM   39  C   UNL     1     -12.652  15.632  64.908  1.00  0.00     0.721 C  
HETATM   40  C   UNL     1     -12.500  16.491  63.665  1.00  0.00     3.556 C  
HETATM   41  C   UNL     1     -10.995  16.616  63.437  1.00  0.00     5.041 C  
ENDBRANCH  36  37
ENDBRANCH  35  36
ENDBRANCH  19  32
BRANCH  24  42
HETATM   42  N   UNL     1      -6.889  16.017  69.517  1.00  0.00    -0.203 NA 
HETATM   43  C   UNL     1      -7.253  15.616  70.881  1.00  0.00     1.802 C  
HETATM   44  C   UNL     1      -5.959  17.125  69.553  1.00  0.00    -0.235 C  
ENDBRANCH  24  42
TORSDOF 4
ENDMDL
MODEL      113
REMARK 921   NORMALIZED FREE ENERGY PREDICTED BY IDOCK:   24.35 KCAL/MOL
REMARK 922        TOTAL FREE ENERGY PREDICTED BY IDOCK:   29.47 KCAL/MOL
REMARK 923 INTER-LIGAND FREE ENERGY PREDICTED BY IDOCK:   28.88 KCAL/MOL
REMARK 924 INTRA-LIGAND FREE ENERGY PREDICTED BY IDOCK:    0.59 KCAL/MOL
REMARK 927      BINDING AFFINITY PREDICTED BY RF-SCORE:    0.00 PKD
ROOT
HETATM    1  C   UNL     1      -8.768  10.932  66.815  1.00  0.00    -0.147 C  
HETATM    2  C   UNL     1      -7.908  10.416  67.951  1.00  0.00    -0.101 C  
HETATM    3  C   UNL     1      -8.676   9.481  68.932  1.00  0.00    -0.133 C  
HETATM    4  C   UNL     1      -9.966  10.117  69.391  1.00  0.00    -0.247 C  
HETATM    5  C   UNL     1     -10.400   9.909  70.818  1.00  0.00    -0.128 C  
HETATM    6  C   UNL     1     -10.687  10.907  68.566  1.00  0.00    -0.204 C  
HETATM    7  C   UNL     1      -9.675   8.926  71.669  1.00  0.00    -0.379 A  
HETATM    8  O   UNL     1     -11.349  10.536  71.296  1.00  0.00    -0.113 OA 
HETATM    9  O   UNL     1     -11.811  11.609  69.009  1.00  0.00    -0.297 OA 
HETATM   10  C   UNL     1     -10.195  11.393  67.187  1.00  0.00    -0.202 C  
HETATM   11  C   UNL     1     -10.982  10.964  65.831  1.00  0.00     0.016 C  
HETATM   12  H   UNL     1     -12.317  12.165  68.428  1.00  0.00     0.000 HD 
HETATM   13  O   UNL     1     -10.201  12.813  67.391  1.00  0.00    -0.219 OA 
HETATM   14  C   UNL     1     -10.199   8.536  72.917  1.00  0.00     0.061 A  
HETATM   15  O   UNL     1     -12.160  10.621  65.783  1.00  0.00     1.595 OA 
HETATM   16  H   UNL     1     -11.078  13.096  67.620  1.00  0.00     0.000 HD 
HETATM   17  C   UNL     1      -9.565   7.558  73.688  1.00  0.00    -0.347 A  
HETATM   18  O   UNL     1     -11.328   9.077  73.469  1.00  0.00     2.032 OA 
HETATM   19  C   UNL     1     -10.185  11.120  64.516  1.00  0.00    -0.383 C  
HETATM   20  C   UNL     1      -6.825  10.155  70.602  1.00  0.00    -0.015 C  
HETATM   21  C   UNL     1      -9.350  12.168  64.706  1.00  0.00     0.292 C  
HETATM   22  C   UNL     1      -8.399   6.965  73.224  1.00  0.00    -0.131 A  
HETATM   23  H   UNL     1     -11.682   8.814  74.311  1.00  0.00     0.000 HD 
HETATM   24  C   UNL     1      -8.148  11.907  65.717  1.00  0.00     0.698 C  
HETATM   25  O   UNL     1      -6.869   8.020  69.468  1.00  0.00    -0.045 OA 
HETATM   26  C   UNL     1      -7.716   9.014  70.065  1.00  0.00    -0.082 C  
HETATM   27  O   UNL     1      -9.874  13.465  64.754  1.00  0.00    -0.595 OA 
HETATM   28  C   UNL     1      -7.838   7.388  72.020  1.00  0.00    -0.093 A  
HETATM   29  H   UNL     1      -6.283   7.735  70.159  1.00  0.00     0.000 HD 
HETATM   30  H   UNL     1      -9.288  14.201  64.888  1.00  0.00     0.000 HD 
HETATM   31  C   UNL     1      -8.449   8.393  71.239  1.00  0.00    -0.183 A  
ENDROOT
BRANCH  19  32
HETATM   32  C   UNL     1      -9.370  10.035  63.819  1.00  0.00    -0.257 C  
HETATM   33  H   UNL     1     -10.980   8.816  63.247  1.00  0.00     0.000 HD 
HETATM   34  O   UNL     1      -8.143  10.138  63.750  1.00  0.00    -0.154 OA 
HETATM   35  N   UNL     1      -9.969   8.951  63.227  1.00  0.00     2.884 N  
BRANCH  35  36
HETATM   36  C   UNL     1      -9.088   8.011  62.573  1.00  0.00     0.853 C  
BRANCH  36  37
HETATM   37  N   UNL     1      -8.997   6.769  63.322  1.00  0.00     0.929 NA 
HETATM   38  C   UNL     1      -7.938   6.852  64.350  1.00  0.00    -0.093 C  
HETATM   39  C   UNL     1      -8.243   5.656  65.230  1.00  0.00    -0.134 C  
HETATM   40  C   UNL     1      -9.761   5.613  65.261  1.00  0.00     0.427 C  
HETATM   41  C   UNL     1     -10.216   6.448  64.066  1.00  0.00     5.237 C  
ENDBRANCH  36  37
ENDBRANCH  35  36
ENDBRANCH  19  32
BRANCH  24  42
HETATM   42  N   UNL     1      -7.508  13.199  66.044  1.00  0.00     2.212 NA 
HETATM   43  C   UNL     1      -7.138  13.913  64.815  1.00  0.00    15.710 C  
HETATM   44  C   UNL     1      -6.396  13.190  66.970  1.00  0.00     0.613 C  
ENDBRANCH  24  42
TORSDOF 4
ENDMDL
MODEL      114
REMARK 921   NORMALIZED FREE ENERGY PREDICTED BY IDOCK:   25.18 KCAL/MOL
REMARK 922        TOTAL FREE ENERGY PREDICTED BY IDOCK:   30.49 KCAL/MOL
REMARK 923 INTER-LIGAND FREE ENERGY PREDICTED BY IDOCK:   30.03 KCAL/MOL
REMARK 924 INTRA-LIGAND FREE ENERGY PREDICTED BY IDOCK:    0.45 KCAL/MOL
REMARK 927      BINDING AFFINITY PREDICTED BY RF-SCORE:    0.00 PKD
ROOT
HETATM    1  C   UNL     1      -9.778  11.242  68.516  1.00  0.00    -0.199 C  
HETATM    2  C   UNL     1      -9.351  12.343  67.566  1.00  0.00    -0.181 C  
HETATM    3  C   UNL     1      -8.131  13.163  68.079  1.00  0.00    -0.157 C  
HETATM    4  C   UNL     1      -8.352  13.639  69.495  1.00  0.00     0.980 C  
HETATM    5  C   UNL     1      -7.854  15.007  69.877  1.00  0.00     0.115 C  
HETATM    6  C   UNL     1      -9.035  12.887  70.385  1.00  0.00     5.728 C  
HETATM    7  C   UNL     1      -6.983  15.761  68.934  1.00  0.00    -0.135 A  
HETATM    8  O   UNL     1      -8.150  15.516  70.962  1.00  0.00     2.041 OA 
HETATM    9  O   UNL     1      -9.364  13.362  71.656  1.00  0.00     9.336 OA 
HETATM   10  C   UNL     1      -9.808  11.604  70.018  1.00  0.00     1.932 C  
HETATM   11  C   UNL     1      -9.378  10.170  70.652  1.00  0.00     0.710 C  
HETATM   12  H   UNL     1      -9.845  12.834  72.282  1.00  0.00     0.000 HD 
HETATM   13  O   UNL     1     -11.140  11.983  70.392  1.00  0.00    -0.141 OA 
HETATM   14  C   UNL     1      -6.310  16.925  69.355  1.00  0.00    -0.231 A  
HETATM   15  O   UNL     1      -8.757  10.026  71.702  1.00  0.00     1.267 OA 
HETATM   16  H   UNL     1     -11.159  12.206  71.314  1.00  0.00     0.000 HD 
HETATM   17  C   UNL     1      -5.432  17.596  68.500  1.00  0.00    -0.154 A  
HETATM   18  O   UNL     1      -6.470  17.489  70.591  1.00  0.00     0.735 OA 
HETATM   19  C   UNL     1      -9.904   8.922  69.906  1.00  0.00    -0.190 C  
HETATM   20  C   UNL     1      -9.024  14.987  66.484  1.00  0.00    -0.310 C  
HETATM   21  C   UNL     1     -11.094   9.280  69.372  1.00  0.00    -0.043 C  
HETATM   22  C   UNL     1      -5.221  17.115  67.215  1.00  0.00    -0.168 A  
HETATM   23  H   UNL     1      -6.016  18.274  70.876  1.00  0.00     0.000 HD 
HETATM   24  C   UNL     1     -11.015  10.304  68.155  1.00  0.00    -0.274 C  
HETATM   25  O   UNL     1      -7.118  13.594  65.964  1.00  0.00     2.219 OA 
HETATM   26  C   UNL     1      -7.776  14.271  67.044  1.00  0.00     0.138 C  
HETATM   27  O   UNL     1     -12.198   9.466  70.212  1.00  0.00    -0.469 OA 
HETATM   28  C   UNL     1      -5.928  16.000  66.767  1.00  0.00     0.493 A  
HETATM   29  H   UNL     1      -6.902  14.270  65.332  1.00  0.00     0.000 HD 
HETATM   30  H   UNL     1     -13.034   9.717  69.837  1.00  0.00     0.000 HD 
HETATM   31  C   UNL     1      -6.840  15.324  67.607  1.00  0.00    -0.205 A  
ENDROOT
BRANCH  19  32
HETATM   32  C   UNL     1      -9.163   8.133  68.831  1.00  0.00    -0.147 C  
HETATM   33  H   UNL     1      -8.017   9.720  68.075  1.00  0.00     0.000 HD 
HETATM   34  O   UNL     1      -9.371   6.924  68.705  1.00  0.00    -0.132 OA 
HETATM   35  N   UNL     1      -8.234   8.725  68.012  1.00  0.00    -0.117 N  
BRANCH  35  36
HETATM   36  C   UNL     1      -7.580   7.861  67.056  1.00  0.00    -0.100 C  
BRANCH  36  37
HETATM   37  N   UNL     1      -6.365   8.471  66.544  1.00  0.00    -0.057 NA 
HETATM   38  C   UNL     1      -6.433   8.623  65.075  1.00  0.00    -0.061 C  
HETATM   39  C   UNL     1      -5.288   9.576  64.792  1.00  0.00    -0.054 C  
HETATM   40  C   UNL     1      -5.325  10.537  65.968  1.00  0.00    -0.083 C  
HETATM   41  C   UNL     1      -6.136   9.825  67.050  1.00  0.00    -0.063 C  
ENDBRANCH  36  37
ENDBRANCH  35  36
ENDBRANCH  19  32
BRANCH  24  42
HETATM   42  N   UNL     1     -12.372  10.820  67.873  1.00  0.00     0.572 NA 
HETATM   43  C   UNL     1     -12.653  10.760  66.432  1.00  0.00     5.668 C  
HETATM   44  C   UNL     1     -12.727  12.120  68.397  1.00  0.00     1.769 C  
ENDBRANCH  24  42
TORSDOF 4
ENDMDL
MODEL      115
REMARK 921   NORMALIZED FREE ENERGY PREDICTED BY IDOCK:   25.58 KCAL/MOL
REMARK 922        TOTAL FREE ENERGY PREDICTED BY IDOCK:   30.98 KCAL/MOL
REMARK 923 INTER-LIGAND FREE ENERGY PREDICTED BY IDOCK:   28.07 KCAL/MOL
REMARK 924 INTRA-LIGAND FREE ENERGY PREDICTED BY IDOCK:    2.92 KCAL/MOL
REMARK 927      BINDING AFFINITY PREDICTED BY RF-SCORE:    0.00 PKD
ROOT
HETATM    1  C   UNL     1      -9.917  13.236  66.440  1.00  0.00    -0.288 C  
HETATM    2  C   UNL     1      -9.437  13.972  67.674  1.00  0.00    -0.210 C  
HETATM    3  C   UNL     1     -10.439  13.902  68.864  1.00  0.00    -0.199 C  
HETATM    4  C   UNL     1     -11.829  14.297  68.428  1.00  0.00    -0.373 C  
HETATM    5  C   UNL     1     -12.678  15.098  69.379  1.00  0.00     0.213 C  
HETATM    6  C   UNL     1     -12.284  13.997  67.192  1.00  0.00    -0.321 C  
HETATM    7  C   UNL     1     -12.220  15.297  70.781  1.00  0.00    -0.411 A  
HETATM    8  O   UNL     1     -13.750  15.592  69.019  1.00  0.00     2.508 OA 
HETATM    9  O   UNL     1     -13.514  14.466  66.723  1.00  0.00     1.085 OA 
HETATM   10  C   UNL     1     -11.404  13.421  66.064  1.00  0.00    -0.309 C  
HETATM   11  C   UNL     1     -11.713  11.951  65.444  1.00  0.00    -0.162 C  
HETATM   12  H   UNL     1     -13.833  14.255  65.854  1.00  0.00     0.000 HD 
HETATM   13  O   UNL     1     -11.523  14.459  65.081  1.00  0.00    -0.334 OA 
HETATM   14  C   UNL     1     -13.094  15.829  71.751  1.00  0.00    -0.416 A  
HETATM   15  O   UNL     1     -12.806  11.390  65.482  1.00  0.00     1.912 OA 
HETATM   16  H   UNL     1     -12.437  14.573  64.850  1.00  0.00     0.000 HD 
HETATM   17  C   UNL     1     -12.697  15.949  73.085  1.00  0.00    -0.631 A  
HETATM   18  O   UNL     1     -14.356  16.276  71.472  1.00  0.00     0.431 OA 
HETATM   19  C   UNL     1     -10.552  11.294  64.663  1.00  0.00    -0.392 C  
HETATM   20  C   UNL     1      -9.225  16.037  69.664  1.00  0.00    -0.002 C  
HETATM   21  C   UNL     1      -9.856  12.311  64.104  1.00  0.00    -0.145 C  
HETATM   22  C   UNL     1     -11.425  15.544  73.464  1.00  0.00     0.226 A  
HETATM   23  H   UNL     1     -14.945  16.635  72.125  1.00  0.00     0.000 HD 
HETATM   24  C   UNL     1      -9.021  13.206  65.122  1.00  0.00     1.441 C  
HETATM   25  O   UNL     1      -8.838  13.856  70.632  1.00  0.00     2.723 OA 
HETATM   26  C   UNL     1      -9.863  14.693  70.076  1.00  0.00     0.499 C  
HETATM   27  O   UNL     1     -10.414  13.021  63.034  1.00  0.00    -0.132 OA 
HETATM   28  C   UNL     1     -10.531  15.075  72.502  1.00  0.00     2.391 A  
HETATM   29  H   UNL     1      -8.488  14.338  71.371  1.00  0.00     0.000 HD 
HETATM   30  H   UNL     1      -9.925  13.735  62.642  1.00  0.00     0.000 HD 
HETATM   31  C   UNL     1     -10.903  14.972  71.144  1.00  0.00     0.012 A  
ENDROOT
BRANCH  19  32
HETATM   32  C   UNL     1      -9.524  10.318  65.224  1.00  0.00    -0.240 C  
HETATM   33  H   UNL     1      -9.671   8.874  63.709  1.00  0.00     0.000 HD 
HETATM   34  O   UNL     1      -8.925  10.590  66.268  1.00  0.00    -0.151 OA 
HETATM   35  N   UNL     1      -9.212   9.147  64.578  1.00  0.00    -0.020 N  
BRANCH  35  36
HETATM   36  C   UNL     1      -8.199   8.325  65.197  1.00  0.00    -0.154 C  
BRANCH  36  37
HETATM   37  N   UNL     1      -8.389   6.922  64.868  1.00  0.00    -0.073 NA 
HETATM   38  C   UNL     1      -7.157   6.347  64.289  1.00  0.00    -0.057 C  
HETATM   39  C   UNL     1      -7.426   4.857  64.362  1.00  0.00    -0.068 C  
HETATM   40  C   UNL     1      -8.165   4.692  65.679  1.00  0.00    -0.115 C  
HETATM   41  C   UNL     1      -8.680   6.086  66.034  1.00  0.00    -0.152 C  
ENDBRANCH  36  37
ENDBRANCH  35  36
ENDBRANCH  19  32
BRANCH  24  42
HETATM   42  N   UNL     1      -8.560  14.425  64.423  1.00  0.00     5.812 NA 
HETATM   43  C   UNL     1      -8.175  15.457  65.394  1.00  0.00     3.307 C  
HETATM   44  C   UNL     1      -9.420  14.990  63.407  1.00  0.00    10.863 C  
ENDBRANCH  24  42
TORSDOF 4
ENDMDL
MODEL      116
REMARK 921   NORMALIZED FREE ENERGY PREDICTED BY IDOCK:   36.77 KCAL/MOL
REMARK 922        TOTAL FREE ENERGY PREDICTED BY IDOCK:   44.79 KCAL/MOL
REMARK 923 INTER-LIGAND FREE ENERGY PREDICTED BY IDOCK:   38.63 KCAL/MOL
REMARK 924 INTRA-LIGAND FREE ENERGY PREDICTED BY IDOCK:    6.16 KCAL/MOL
REMARK 927      BINDING AFFINITY PREDICTED BY RF-SCORE:    0.00 PKD
ROOT
HETATM    1  C   UNL     1     -11.192   7.193  69.295  1.00  0.00    -0.040 C  
HETATM    2  C   UNL     1     -11.122   8.487  68.510  1.00  0.00     0.297 C  
HETATM    3  C   UNL     1     -11.074   9.756  69.411  1.00  0.00    -0.205 C  
HETATM    4  C   UNL     1     -12.179   9.732  70.440  1.00  0.00    -0.127 C  
HETATM    5  C   UNL     1     -12.861  11.028  70.789  1.00  0.00    -0.266 C  
HETATM    6  C   UNL     1     -12.594   8.572  70.992  1.00  0.00    -0.045 C  
HETATM    7  C   UNL     1     -12.301  12.312  70.283  1.00  0.00    -0.267 A  
HETATM    8  O   UNL     1     -13.875  11.049  71.492  1.00  0.00     0.271 OA 
HETATM    9  O   UNL     1     -13.699   8.512  71.845  1.00  0.00    -0.375 OA 
HETATM   10  C   UNL     1     -12.147   7.177  70.509  1.00  0.00    -0.172 C  
HETATM   11  C   UNL     1     -11.316   6.188  71.496  1.00  0.00    -0.280 C  
HETATM   12  H   UNL     1     -13.991   7.695  72.233  1.00  0.00     0.000 HD 
HETATM   13  O   UNL     1     -13.408   6.617  70.118  1.00  0.00     0.816 OA 
HETATM   14  C   UNL     1     -12.768  13.544  70.783  1.00  0.00    -0.245 A  
HETATM   15  O   UNL     1     -11.333   6.245  72.723  1.00  0.00    -0.254 OA 
HETATM   16  H   UNL     1     -13.995   6.607  70.864  1.00  0.00     0.000 HD 
HETATM   17  C   UNL     1     -12.196  14.749  70.368  1.00  0.00    -0.395 A  
HETATM   18  O   UNL     1     -13.799  13.659  71.673  1.00  0.00    -0.309 OA 
HETATM   19  C   UNL     1     -10.549   5.039  70.803  1.00  0.00    -0.148 C  
HETATM   20  C   UNL     1     -11.976  10.958  67.311  1.00  0.00     0.920 C  
HETATM   21  C   UNL     1     -11.272   4.716  69.705  1.00  0.00     2.975 C  
HETATM   22  C   UNL     1     -11.157  14.738  69.448  1.00  0.00    -0.302 A  
HETATM   23  H   UNL     1     -14.114  14.490  72.011  1.00  0.00     0.000 HD 
HETATM   24  C   UNL     1     -11.252   5.794  68.534  1.00  0.00     0.244 C  
HETATM   25  O   UNL     1      -9.669  11.089  68.021  1.00  0.00    -0.164 OA 
HETATM   26  C   UNL     1     -11.014  11.029  68.517  1.00  0.00    -0.228 C  
HETATM   27  O   UNL     1     -12.495   4.050  69.858  1.00  0.00    13.289 OA 
HETATM   28  C   UNL     1     -10.730  13.530  68.900  1.00  0.00    -0.228 A  
HETATM   29  H   UNL     1      -9.632  11.866  67.475  1.00  0.00     0.000 HD 
HETATM   30  H   UNL     1     -13.003   3.824  69.087  1.00  0.00     0.000 HD 
HETATM   31  C   UNL     1     -11.313  12.302  69.285  1.00  0.00    -0.317 A  
ENDROOT
BRANCH  19  32
HETATM   32  C   UNL     1      -9.087   5.059  70.370  1.00  0.00    -0.129 C  
HETATM   33  H   UNL     1      -9.197   6.746  69.129  1.00  0.00     0.000 HD 
HETATM   34  O   UNL     1      -8.304   4.214  70.814  1.00  0.00    -0.069 OA 
HETATM   35  N   UNL     1      -8.598   6.020  69.521  1.00  0.00    -0.118 N  
BRANCH  35  36
HETATM   36  C   UNL     1      -7.188   5.947  69.214  1.00  0.00    -0.074 C  
BRANCH  36  37
HETATM   37  N   UNL     1      -6.823   4.621  68.743  1.00  0.00    -0.050 NA 
HETATM   38  C   UNL     1      -6.795   3.656  69.862  1.00  0.00    -0.034 C  
HETATM   39  C   UNL     1      -6.767   2.322  69.141  1.00  0.00    -0.033 C  
HETATM   40  C   UNL     1      -7.675   2.544  67.944  1.00  0.00    -0.059 C  
HETATM   41  C   UNL     1      -7.779   4.060  67.787  1.00  0.00    -0.068 C  
ENDBRANCH  36  37
ENDBRANCH  35  36
ENDBRANCH  19  32
BRANCH  24  42
HETATM   42  N   UNL     1     -12.297   5.448  67.546  1.00  0.00     6.516 NA 
HETATM   43  C   UNL     1     -12.225   4.022  67.203  1.00  0.00    13.414 C  
HETATM   44  C   UNL     1     -12.384   6.248  66.344  1.00  0.00     4.892 C  
ENDBRANCH  24  42
TORSDOF 4
ENDMDL
MODEL      117
REMARK 921   NORMALIZED FREE ENERGY PREDICTED BY IDOCK:   41.20 KCAL/MOL
REMARK 922        TOTAL FREE ENERGY PREDICTED BY IDOCK:   50.26 KCAL/MOL
REMARK 923 INTER-LIGAND FREE ENERGY PREDICTED BY IDOCK:   45.39 KCAL/MOL
REMARK 924 INTRA-LIGAND FREE ENERGY PREDICTED BY IDOCK:    4.87 KCAL/MOL
REMARK 927      BINDING AFFINITY PREDICTED BY RF-SCORE:    0.00 PKD
ROOT
HETATM    1  C   UNL     1      -9.748   9.796  71.153  1.00  0.00     0.311 C  
HETATM    2  C   UNL     1      -8.392   9.181  70.871  1.00  0.00    -0.231 C  
HETATM    3  C   UNL     1      -8.323   8.439  69.504  1.00  0.00    -0.120 C  
HETATM    4  C   UNL     1      -9.470   7.469  69.354  1.00  0.00    -0.155 C  
HETATM    5  C   UNL     1      -9.209   6.152  68.673  1.00  0.00    -0.123 C  
HETATM    6  C   UNL     1     -10.687   7.742  69.871  1.00  0.00    -0.245 C  
HETATM    7  C   UNL     1      -7.908   5.925  67.986  1.00  0.00    -0.104 A  
HETATM    8  O   UNL     1     -10.057   5.254  68.669  1.00  0.00    -0.168 OA 
HETATM    9  O   UNL     1     -11.723   6.805  69.858  1.00  0.00    -0.575 OA 
HETATM   10  C   UNL     1     -10.980   8.931  70.807  1.00  0.00    -0.253 C  
HETATM   11  C   UNL     1     -12.016  10.101  70.359  1.00  0.00    -0.267 C  
HETATM   12  H   UNL     1     -12.579   6.997  70.222  1.00  0.00     0.000 HD 
HETATM   13  O   UNL     1     -11.423   8.238  71.983  1.00  0.00    -0.289 OA 
HETATM   14  C   UNL     1      -7.727   4.810  67.144  1.00  0.00    -0.091 A  
HETATM   15  O   UNL     1     -12.908   9.965  69.525  1.00  0.00     0.558 OA 
HETATM   16  H   UNL     1     -12.181   7.706  71.770  1.00  0.00     0.000 HD 
HETATM   17  C   UNL     1      -6.536   4.631  66.436  1.00  0.00    -0.041 A  
HETATM   18  O   UNL     1      -8.667   3.832  66.968  1.00  0.00    -0.104 OA 
HETATM   19  C   UNL     1     -11.906  11.430  71.140  1.00  0.00     0.189 C  
HETATM   20  C   UNL     1      -6.353   7.172  70.593  1.00  0.00    -0.039 C  
HETATM   21  C   UNL     1     -11.507  11.098  72.389  1.00  0.00     5.155 C  
HETATM   22  C   UNL     1      -5.512   5.559  66.566  1.00  0.00    -0.013 A  
HETATM   23  H   UNL     1      -8.545   3.080  66.400  1.00  0.00     0.000 HD 
HETATM   24  C   UNL     1     -10.003  10.591  72.512  1.00  0.00     9.109 C  
HETATM   25  O   UNL     1      -6.053   8.944  68.976  1.00  0.00    -0.042 OA 
HETATM   26  C   UNL     1      -6.900   7.836  69.310  1.00  0.00    -0.048 C  
HETATM   27  O   UNL     1     -12.404  10.456  73.251  1.00  0.00     2.662 OA 
HETATM   28  C   UNL     1      -5.656   6.632  67.444  1.00  0.00    -0.013 A  
HETATM   29  H   UNL     1      -5.185   8.576  68.858  1.00  0.00     0.000 HD 
HETATM   30  H   UNL     1     -12.124  10.222  74.128  1.00  0.00     0.000 HD 
HETATM   31  C   UNL     1      -6.842   6.816  68.189  1.00  0.00    -0.078 A  
ENDROOT
BRANCH  19  32
HETATM   32  C   UNL     1     -11.091  12.654  70.733  1.00  0.00     2.233 C  
HETATM   33  H   UNL     1      -9.367  11.632  70.110  1.00  0.00     0.000 HD 
HETATM   34  O   UNL     1     -11.584  13.780  70.831  1.00  0.00    -0.066 OA 
HETATM   35  N   UNL     1      -9.822  12.538  70.220  1.00  0.00     3.418 N  
BRANCH  35  36
HETATM   36  C   UNL     1      -9.169  13.770  69.844  1.00  0.00     1.963 C  
BRANCH  36  37
HETATM   37  N   UNL     1     -10.091  14.892  69.906  1.00  0.00    -0.024 NA 
HETATM   38  C   UNL     1      -9.891  15.667  71.148  1.00  0.00     1.793 C  
HETATM   39  C   UNL     1     -10.648  16.949  70.859  1.00  0.00     1.172 C  
HETATM   40  C   UNL     1     -10.374  17.200  69.386  1.00  0.00    -0.195 C  
HETATM   41  C   UNL     1      -9.901  15.861  68.826  1.00  0.00    -0.216 C  
ENDBRANCH  36  37
ENDBRANCH  35  36
ENDBRANCH  19  32
BRANCH  24  42
HETATM   42  N   UNL     1      -9.803   9.999  73.852  1.00  0.00     9.443 NA 
HETATM   43  C   UNL     1      -8.376   9.989  74.199  1.00  0.00     6.159 C  
HETATM   44  C   UNL     1     -10.391   8.703  74.115  1.00  0.00     4.724 C  
ENDBRANCH  24  42
TORSDOF 4
ENDMDL
MODEL      118
REMARK 921   NORMALIZED FREE ENERGY PREDICTED BY IDOCK:   47.52 KCAL/MOL
REMARK 922        TOTAL FREE ENERGY PREDICTED BY IDOCK:   58.06 KCAL/MOL
REMARK 923 INTER-LIGAND FREE ENERGY PREDICTED BY IDOCK:   57.29 KCAL/MOL
REMARK 924 INTRA-LIGAND FREE ENERGY PREDICTED BY IDOCK:    0.76 KCAL/MOL
REMARK 927      BINDING AFFINITY PREDICTED BY RF-SCORE:    0.00 PKD
ROOT
HETATM    1  C   UNL     1      -9.197  17.559  67.737  1.00  0.00    -0.253 C  
HETATM    2  C   UNL     1      -8.863  16.891  69.056  1.00  0.00    -0.159 C  
HETATM    3  C   UNL     1     -10.116  16.574  69.924  1.00  0.00     0.111 C  
HETATM    4  C   UNL     1     -10.997  17.791  70.070  1.00  0.00     1.490 C  
HETATM    5  C   UNL     1     -11.679  18.028  71.391  1.00  0.00     5.133 C  
HETATM    6  C   UNL     1     -11.126  18.684  69.065  1.00  0.00     1.671 C  
HETATM    7  C   UNL     1     -11.643  16.968  72.435  1.00  0.00     0.557 A  
HETATM    8  O   UNL     1     -12.272  19.085  71.625  1.00  0.00    10.208 OA 
HETATM    9  O   UNL     1     -11.829  19.881  69.224  1.00  0.00     3.196 OA 
HETATM   10  C   UNL     1     -10.268  18.672  67.784  1.00  0.00    -0.386 C  
HETATM   11  C   UNL     1     -10.958  18.445  66.329  1.00  0.00     0.234 C  
HETATM   12  H   UNL     1     -11.919  20.509  68.517  1.00  0.00     0.000 HD 
HETATM   13  O   UNL     1      -9.625  19.950  67.884  1.00  0.00    -0.349 OA 
HETATM   14  C   UNL     1     -12.465  17.059  73.577  1.00  0.00     0.424 A  
HETATM   15  O   UNL     1     -12.136  18.676  66.069  1.00  0.00     3.175 OA 
HETATM   16  H   UNL     1     -10.283  20.634  67.913  1.00  0.00     0.000 HD 
HETATM   17  C   UNL     1     -12.493  16.032  74.524  1.00  0.00    -0.687 A  
HETATM   18  O   UNL     1     -13.264  18.134  73.853  1.00  0.00     3.488 OA 
HETATM   19  C   UNL     1     -10.003  18.014  65.193  1.00  0.00     1.467 C  
HETATM   20  C   UNL     1      -8.432  16.578  71.881  1.00  0.00    10.687 C  
HETATM   21  C   UNL     1      -8.807  18.581  65.475  1.00  0.00     1.101 C  
HETATM   22  C   UNL     1     -11.698  14.908  74.345  1.00  0.00     0.534 A  
HETATM   23  H   UNL     1     -13.818  18.195  74.622  1.00  0.00     0.000 HD 
HETATM   24  C   UNL     1      -8.036  17.961  66.722  1.00  0.00    -0.233 C  
HETATM   25  O   UNL     1      -9.325  14.552  70.910  1.00  0.00     1.459 OA 
HETATM   26  C   UNL     1      -9.671  15.902  71.256  1.00  0.00     2.744 C  
HETATM   27  O   UNL     1      -8.648  19.964  65.328  1.00  0.00    -0.174 OA 
HETATM   28  C   UNL     1     -10.836  14.836  73.253  1.00  0.00     2.279 A  
HETATM   29  H   UNL     1      -9.053  14.142  71.723  1.00  0.00     0.000 HD 
HETATM   30  H   UNL     1      -7.809  20.362  65.526  1.00  0.00     0.000 HD 
HETATM   31  C   UNL     1     -10.772  15.875  72.298  1.00  0.00     1.451 A  
ENDROOT
BRANCH  19  32
HETATM   32  C   UNL     1      -9.713  16.584  64.750  1.00  0.00     1.973 C  
HETATM   33  H   UNL     1      -8.670  15.977  66.466  1.00  0.00     0.000 HD 
HETATM   34  O   UNL     1     -10.126  16.185  63.658  1.00  0.00     3.185 OA 
HETATM   35  N   UNL     1      -9.030  15.703  65.552  1.00  0.00     0.206 N  
BRANCH  35  36
HETATM   36  C   UNL     1      -8.848  14.369  65.028  1.00  0.00     3.007 C  
BRANCH  36  37
HETATM   37  N   UNL     1      -9.011  13.370  66.071  1.00  0.00     0.237 NA 
HETATM   38  C   UNL     1      -8.434  12.076  65.653  1.00  0.00     0.621 C  
HETATM   39  C   UNL     1      -8.369  11.310  66.961  1.00  0.00    -0.153 C  
HETATM   40  C   UNL     1      -7.988  12.372  67.977  1.00  0.00    -0.155 C  
HETATM   41  C   UNL     1      -8.315  13.708  67.313  1.00  0.00    -0.171 C  
ENDBRANCH  36  37
ENDBRANCH  35  36
ENDBRANCH  19  32
BRANCH  24  42
HETATM   42  N   UNL     1      -6.911  18.851  67.083  1.00  0.00    -0.203 NA 
HETATM   43  C   UNL     1      -5.633  18.249  66.681  1.00  0.00    -0.142 C  
HETATM   44  C   UNL     1      -6.832  19.326  68.446  1.00  0.00    -0.275 C  
ENDBRANCH  24  42
TORSDOF 4
ENDMDL
MODEL      119
REMARK 921   NORMALIZED FREE ENERGY PREDICTED BY IDOCK:   49.23 KCAL/MOL
REMARK 922        TOTAL FREE ENERGY PREDICTED BY IDOCK:   60.16 KCAL/MOL
REMARK 923 INTER-LIGAND FREE ENERGY PREDICTED BY IDOCK:   59.45 KCAL/MOL
REMARK 924 INTRA-LIGAND FREE ENERGY PREDICTED BY IDOCK:    0.71 KCAL/MOL
REMARK 927      BINDING AFFINITY PREDICTED BY RF-SCORE:    0.00 PKD
ROOT
HETATM    1  C   UNL     1     -10.998  15.415  68.573  1.00  0.00    -0.278 C  
HETATM    2  C   UNL     1     -11.917  14.622  69.482  1.00  0.00    -0.361 C  
HETATM    3  C   UNL     1     -11.419  13.172  69.750  1.00  0.00    -0.216 C  
HETATM    4  C   UNL     1     -11.087  12.463  68.459  1.00  0.00    -0.296 C  
HETATM    5  C   UNL     1     -11.418  11.000  68.339  1.00  0.00    -0.308 C  
HETATM    6  C   UNL     1     -10.564  13.134  67.409  1.00  0.00    -0.242 C  
HETATM    7  C   UNL     1     -11.860  10.246  69.544  1.00  0.00    -0.148 A  
HETATM    8  O   UNL     1     -11.327  10.409  67.259  1.00  0.00    -0.327 OA 
HETATM    9  O   UNL     1     -10.372  12.528  66.165  1.00  0.00    -0.244 OA 
HETATM   10  C   UNL     1     -10.439  14.669  67.342  1.00  0.00    -0.255 C  
HETATM   11  C   UNL     1      -8.978  15.376  67.236  1.00  0.00    -0.198 C  
HETATM   12  H   UNL     1     -10.005  12.999  65.427  1.00  0.00     0.000 HD 
HETATM   13  O   UNL     1     -11.259  14.950  66.199  1.00  0.00    -0.335 OA 
HETATM   14  C   UNL     1     -11.944   8.839  69.519  1.00  0.00     1.176 A  
HETATM   15  O   UNL     1      -7.966  14.831  66.804  1.00  0.00    -0.084 OA 
HETATM   16  H   UNL     1     -10.916  14.492  65.442  1.00  0.00     0.000 HD 
HETATM   17  C   UNL     1     -12.284   8.120  70.667  1.00  0.00     0.098 A  
HETATM   18  O   UNL     1     -11.724   8.086  68.398  1.00  0.00     0.696 OA 
HETATM   19  C   UNL     1      -8.929  16.873  67.615  1.00  0.00    -0.219 C  
HETATM   20  C   UNL     1     -13.900  12.705  70.293  1.00  0.00     3.245 C  
HETATM   21  C   UNL     1     -10.134  17.385  67.274  1.00  0.00    -0.310 C  
HETATM   22  C   UNL     1     -12.549   8.796  71.850  1.00  0.00    -0.428 A  
HETATM   23  H   UNL     1     -11.780   7.138  68.381  1.00  0.00     0.000 HD 
HETATM   24  C   UNL     1     -11.354  16.920  68.186  1.00  0.00     0.043 C  
HETATM   25  O   UNL     1     -12.202  12.970  71.993  1.00  0.00     0.207 OA 
HETATM   26  C   UNL     1     -12.429  12.438  70.680  1.00  0.00    -0.234 C  
HETATM   27  O   UNL     1     -10.455  17.551  65.921  1.00  0.00    -0.461 OA 
HETATM   28  C   UNL     1     -12.530  10.190  71.871  1.00  0.00    -0.374 A  
HETATM   29  H   UNL     1     -12.819  12.522  72.560  1.00  0.00     0.000 HD 
HETATM   30  H   UNL     1     -11.302  17.910  65.682  1.00  0.00     0.000 HD 
HETATM   31  C   UNL     1     -12.215  10.937  70.714  1.00  0.00    -0.483 A  
ENDROOT
BRANCH  19  32
HETATM   32  C   UNL     1      -8.582  17.449  68.984  1.00  0.00    -0.053 C  
HETATM   33  H   UNL     1      -9.912  19.072  68.937  1.00  0.00     0.000 HD 
HETATM   34  O   UNL     1      -7.743  16.886  69.691  1.00  0.00     0.139 OA 
HETATM   35  N   UNL     1      -9.207  18.569  69.475  1.00  0.00     0.367 N  
BRANCH  35  36
HETATM   36  C   UNL     1      -8.810  18.994  70.798  1.00  0.00     3.490 C  
BRANCH  36  37
HETATM   37  N   UNL     1      -9.966  19.356  71.601  1.00  0.00     2.759 NA 
HETATM   38  C   UNL     1     -10.860  20.265  70.854  1.00  0.00     3.443 C  
HETATM   39  C   UNL     1     -12.131  20.224  71.681  1.00  0.00    15.641 C  
HETATM   40  C   UNL     1     -12.215  18.777  72.134  1.00  0.00    11.190 C  
HETATM   41  C   UNL     1     -10.807  18.212  71.957  1.00  0.00     3.161 C  
ENDBRANCH  36  37
ENDBRANCH  35  36
ENDBRANCH  19  32
BRANCH  24  42
HETATM   42  N   UNL     1     -12.620  17.314  67.532  1.00  0.00     3.539 NA 
HETATM   43  C   UNL     1     -13.631  17.659  68.540  1.00  0.00     9.785 C  
HETATM   44  C   UNL     1     -13.183  16.417  66.546  1.00  0.00     6.321 C  
ENDBRANCH  24  42
TORSDOF 4
ENDMDL
MODEL      120
REMARK 921   NORMALIZED FREE ENERGY PREDICTED BY IDOCK:   55.03 KCAL/MOL
REMARK 922        TOTAL FREE ENERGY PREDICTED BY IDOCK:   67.33 KCAL/MOL
REMARK 923 INTER-LIGAND FREE ENERGY PREDICTED BY IDOCK:   60.32 KCAL/MOL
REMARK 924 INTRA-LIGAND FREE ENERGY PREDICTED BY IDOCK:    7.01 KCAL/MOL
REMARK 927      BINDING AFFINITY PREDICTED BY RF-SCORE:    0.00 PKD
ROOT
HETATM    1  C   UNL     1     -10.568  14.084  68.555  1.00  0.00    -0.260 C  
HETATM    2  C   UNL     1     -11.464  12.870  68.408  1.00  0.00    -0.347 C  
HETATM    3  C   UNL     1     -11.628  12.060  69.727  1.00  0.00    -0.348 C  
HETATM    4  C   UNL     1     -10.285  11.749  70.345  1.00  0.00     2.789 C  
HETATM    5  C   UNL     1     -10.093  10.410  71.006  1.00  0.00     1.497 C  
HETATM    6  C   UNL     1      -9.257  12.620  70.254  1.00  0.00     4.939 C  
HETATM    7  C   UNL     1     -11.270   9.524  71.223  1.00  0.00    -0.452 A  
HETATM    8  O   UNL     1      -8.978  10.034  71.377  1.00  0.00     0.696 OA 
HETATM    9  O   UNL     1      -7.974  12.299  70.702  1.00  0.00     3.158 OA 
HETATM   10  C   UNL     1      -9.274  13.887  69.376  1.00  0.00     0.695 C  
HETATM   11  C   UNL     1      -9.153  15.362  70.049  1.00  0.00     0.269 C  
HETATM   12  H   UNL     1      -7.250  12.911  70.638  1.00  0.00     0.000 HD 
HETATM   13  O   UNL     1      -8.183  13.607  68.488  1.00  0.00    -0.157 OA 
HETATM   14  C   UNL     1     -11.166   8.384  72.045  1.00  0.00    -0.334 A  
HETATM   15  O   UNL     1      -8.650  15.592  71.147  1.00  0.00     2.419 OA 
HETATM   16  H   UNL     1      -7.387  13.486  68.992  1.00  0.00     0.000 HD 
HETATM   17  C   UNL     1     -12.283   7.589  72.314  1.00  0.00    -0.233 A  
HETATM   18  O   UNL     1      -9.996   7.964  72.615  1.00  0.00    -0.216 OA 
HETATM   19  C   UNL     1      -9.615  16.543  69.166  1.00  0.00    -0.228 C  
HETATM   20  C   UNL     1     -12.239  10.114  68.144  1.00  0.00     2.081 C  
HETATM   21  C   UNL     1      -9.353  16.180  67.890  1.00  0.00    -0.212 C  
HETATM   22  C   UNL     1     -13.512   7.920  71.762  1.00  0.00    -0.379 A  
HETATM   23  H   UNL     1      -9.925   7.196  73.170  1.00  0.00     0.000 HD 
HETATM   24  C   UNL     1     -10.283  15.029  67.303  1.00  0.00    -0.242 C  
HETATM   25  O   UNL     1     -13.884  11.362  69.400  1.00  0.00     2.854 OA 
HETATM   26  C   UNL     1     -12.552  10.833  69.473  1.00  0.00     0.124 C  
HETATM   27  O   UNL     1      -8.025  16.133  67.446  1.00  0.00    -0.142 OA 
HETATM   28  C   UNL     1     -13.613   9.008  70.897  1.00  0.00     0.109 A  
HETATM   29  H   UNL     1     -14.448  10.613  69.245  1.00  0.00     0.000 HD 
HETATM   30  H   UNL     1      -7.841  15.877  66.550  1.00  0.00     0.000 HD 
HETATM   31  C   UNL     1     -12.491   9.809  70.590  1.00  0.00    -0.220 A  
ENDROOT
BRANCH  19  32
HETATM   32  C   UNL     1     -11.001  17.181  69.162  1.00  0.00     0.058 C  
HETATM   33  H   UNL     1     -11.412  16.914  67.122  1.00  0.00     0.000 HD 
HETATM   34  O   UNL     1     -11.481  17.611  70.214  1.00  0.00     1.739 OA 
HETATM   35  N   UNL     1     -11.756  17.259  68.018  1.00  0.00     0.712 N  
BRANCH  35  36
HETATM   36  C   UNL     1     -13.063  17.858  68.154  1.00  0.00     7.754 C  
BRANCH  36  37
HETATM   37  N   UNL     1     -12.980  19.159  68.796  1.00  0.00     9.584 NA 
HETATM   38  C   UNL     1     -11.851  19.204  69.748  1.00  0.00     7.801 C  
HETATM   39  C   UNL     1     -11.709  20.689  70.018  1.00  0.00     4.859 C  
HETATM   40  C   UNL     1     -11.995  21.325  68.668  1.00  0.00     5.026 C  
HETATM   41  C   UNL     1     -12.724  20.254  67.859  1.00  0.00     5.260 C  
ENDBRANCH  36  37
ENDBRANCH  35  36
ENDBRANCH  19  32
BRANCH  24  42
HETATM   42  N   UNL     1      -9.703  14.544  66.033  1.00  0.00    -0.309 NA 
HETATM   43  C   UNL     1     -10.760  14.336  65.034  1.00  0.00    -0.420 C  
HETATM   44  C   UNL     1      -8.829  13.392  66.082  1.00  0.00     0.395 C  
ENDBRANCH  24  42
TORSDOF 4
ENDMDL
MODEL      121
REMARK 921   NORMALIZED FREE ENERGY PREDICTED BY IDOCK:   59.73 KCAL/MOL
REMARK 922        TOTAL FREE ENERGY PREDICTED BY IDOCK:   73.13 KCAL/MOL
REMARK 923 INTER-LIGAND FREE ENERGY PREDICTED BY IDOCK:   62.12 KCAL/MOL
REMARK 924 INTRA-LIGAND FREE ENERGY PREDICTED BY IDOCK:   11.01 KCAL/MOL
REMARK 927      BINDING AFFINITY PREDICTED BY RF-SCORE:    0.00 PKD
ROOT
HETATM    1  C   UNL     1     -10.326  12.351  67.323  1.00  0.00    -0.227 C  
HETATM    2  C   UNL     1     -10.832  10.927  67.437  1.00  0.00    -0.333 C  
HETATM    3  C   UNL     1      -9.762   9.859  67.065  1.00  0.00    -0.230 C  
HETATM    4  C   UNL     1      -9.126  10.169  65.731  1.00  0.00    -0.206 C  
HETATM    5  C   UNL     1      -8.788   9.024  64.815  1.00  0.00    -0.122 C  
HETATM    6  C   UNL     1      -8.920  11.444  65.336  1.00  0.00    -0.047 C  
HETATM    7  C   UNL     1      -8.889   7.627  65.319  1.00  0.00     0.103 A  
HETATM    8  O   UNL     1      -8.425   9.220  63.652  1.00  0.00    -0.179 OA 
HETATM    9  O   UNL     1      -8.455  11.756  64.056  1.00  0.00     0.230 OA 
HETATM   10  C   UNL     1      -9.470  12.678  66.080  1.00  0.00    -0.135 C  
HETATM   11  C   UNL     1      -8.457  13.773  66.727  1.00  0.00     0.032 C  
HETATM   12  H   UNL     1      -8.310  12.653  63.778  1.00  0.00     0.000 HD 
HETATM   13  O   UNL     1     -10.304  13.249  65.061  1.00  0.00    -0.325 OA 
HETATM   14  C   UNL     1      -8.355   6.556  64.573  1.00  0.00     0.039 A  
HETATM   15  O   UNL     1      -7.298  13.957  66.362  1.00  0.00     1.155 OA 
HETATM   16  H   UNL     1      -9.778  13.450  64.297  1.00  0.00     0.000 HD 
HETATM   17  C   UNL     1      -8.378   5.252  65.074  1.00  0.00    -0.146 A  
HETATM   18  O   UNL     1      -7.805   6.698  63.330  1.00  0.00    -0.111 OA 
HETATM   19  C   UNL     1      -9.069  14.701  67.800  1.00  0.00    -0.191 C  
HETATM   20  C   UNL     1     -11.809   8.346  66.631  1.00  0.00     5.129 C  
HETATM   21  C   UNL     1     -10.369  14.860  67.459  1.00  0.00    -0.239 C  
HETATM   22  C   UNL     1      -8.937   5.002  66.320  1.00  0.00    -0.127 A  
HETATM   23  H   UNL     1      -7.445   5.976  62.827  1.00  0.00     0.000 HD 
HETATM   24  C   UNL     1     -11.288  13.576  67.661  1.00  0.00    -0.296 C  
HETATM   25  O   UNL     1     -10.434   8.174  68.613  1.00  0.00    -0.228 OA 
HETATM   26  C   UNL     1     -10.378   8.436  67.202  1.00  0.00    -0.311 C  
HETATM   27  O   UNL     1     -10.698  15.636  66.341  1.00  0.00    -0.306 OA 
HETATM   28  C   UNL     1      -9.524   6.043  67.037  1.00  0.00    -0.137 A  
HETATM   29  H   UNL     1     -10.810   7.305  68.696  1.00  0.00     0.000 HD 
HETATM   30  H   UNL     1     -11.610  15.747  66.101  1.00  0.00     0.000 HD 
HETATM   31  C   UNL     1      -9.535   7.364  66.538  1.00  0.00    -0.229 A  
ENDROOT
BRANCH  19  32
HETATM   32  C   UNL     1      -9.038  14.482  69.310  1.00  0.00     0.120 C  
HETATM   33  H   UNL     1      -7.259  13.371  69.383  1.00  0.00     0.000 HD 
HETATM   34  O   UNL     1      -9.925  14.965  70.018  1.00  0.00    -0.014 OA 
HETATM   35  N   UNL     1      -8.022  13.787  69.917  1.00  0.00     1.086 N  
BRANCH  35  36
HETATM   36  C   UNL     1      -8.093  13.677  71.356  1.00  0.00     7.670 C  
BRANCH  36  37
HETATM   37  N   UNL     1      -8.931  14.722  71.921  1.00  0.00     4.611 NA 
HETATM   38  C   UNL     1      -8.180  15.516  72.916  1.00  0.00    10.843 C  
HETATM   39  C   UNL     1      -9.068  16.731  73.101  1.00  0.00    15.952 C  
HETATM   40  C   UNL     1      -9.602  16.998  71.704  1.00  0.00     7.282 C  
HETATM   41  C   UNL     1      -9.389  15.698  70.931  1.00  0.00     2.123 C  
ENDBRANCH  36  37
ENDBRANCH  35  36
ENDBRANCH  19  32
BRANCH  24  42
HETATM   42  N   UNL     1     -12.585  13.803  66.987  1.00  0.00    -0.083 NA 
HETATM   43  C   UNL     1     -12.598  15.118  66.332  1.00  0.00     0.984 C  
HETATM   44  C   UNL     1     -13.793  13.617  67.760  1.00  0.00     8.984 C  
ENDBRANCH  24  42
TORSDOF 4
ENDMDL
MODEL      122
REMARK 921   NORMALIZED FREE ENERGY PREDICTED BY IDOCK:   62.82 KCAL/MOL
REMARK 922        TOTAL FREE ENERGY PREDICTED BY IDOCK:   76.94 KCAL/MOL
REMARK 923 INTER-LIGAND FREE ENERGY PREDICTED BY IDOCK:   74.10 KCAL/MOL
REMARK 924 INTRA-LIGAND FREE ENERGY PREDICTED BY IDOCK:    2.84 KCAL/MOL
REMARK 927      BINDING AFFINITY PREDICTED BY RF-SCORE:    0.00 PKD
ROOT
HETATM    1  C   UNL     1     -11.402  13.075  69.199  1.00  0.00    -0.328 C  
HETATM    2  C   UNL     1     -11.338  13.480  67.740  1.00  0.00    -0.327 C  
HETATM    3  C   UNL     1     -10.911  14.962  67.529  1.00  0.00    -0.302 C  
HETATM    4  C   UNL     1     -11.742  15.893  68.379  1.00  0.00    -0.246 C  
HETATM    5  C   UNL     1     -12.141  17.226  67.803  1.00  0.00     2.098 C  
HETATM    6  C   UNL     1     -12.173  15.521  69.604  1.00  0.00    -0.270 C  
HETATM    7  C   UNL     1     -11.543  17.678  66.517  1.00  0.00     1.829 A  
HETATM    8  O   UNL     1     -12.954  17.954  68.378  1.00  0.00     5.020 OA 
HETATM    9  O   UNL     1     -13.050  16.313  70.351  1.00  0.00    -0.281 OA 
HETATM   10  C   UNL     1     -12.045  14.092  70.167  1.00  0.00    -0.346 C  
HETATM   11  C   UNL     1     -11.153  13.804  71.496  1.00  0.00     2.693 C  
HETATM   12  H   UNL     1     -13.354  16.051  71.212  1.00  0.00     0.000 HD 
HETATM   13  O   UNL     1     -13.427  13.760  70.362  1.00  0.00     0.043 OA 
HETATM   14  C   UNL     1     -11.709  19.006  66.077  1.00  0.00     2.423 A  
HETATM   15  O   UNL     1     -10.879  14.643  72.351  1.00  0.00     0.921 OA 
HETATM   16  H   UNL     1     -13.822  14.386  70.957  1.00  0.00     0.000 HD 
HETATM   17  C   UNL     1     -11.088  19.459  64.911  1.00  0.00     1.538 A  
HETATM   18  O   UNL     1     -12.481  19.929  66.727  1.00  0.00     2.625 OA 
HETATM   19  C   UNL     1     -10.731  12.334  71.715  1.00  0.00     8.302 C  
HETATM   20  C   UNL     1     -12.099  14.702  65.251  1.00  0.00    -0.276 C  
HETATM   21  C   UNL     1     -11.724  11.578  71.192  1.00  0.00     0.663 C  
HETATM   22  C   UNL     1     -10.300  18.590  64.168  1.00  0.00     7.243 A  
HETATM   23  H   UNL     1     -12.593  20.825  66.431  1.00  0.00     0.000 HD 
HETATM   24  C   UNL     1     -11.827  11.592  69.603  1.00  0.00    -0.352 C  
HETATM   25  O   UNL     1      -9.694  14.663  65.500  1.00  0.00    -0.465 OA 
HETATM   26  C   UNL     1     -10.885  15.285  66.006  1.00  0.00    -0.330 C  
HETATM   27  O   UNL     1     -12.959  11.512  71.850  1.00  0.00    -0.440 OA 
HETATM   28  C   UNL     1     -10.180  17.257  64.559  1.00  0.00     2.844 A  
HETATM   29  H   UNL     1      -9.679  14.860  64.571  1.00  0.00     0.000 HD 
HETATM   30  H   UNL     1     -13.656  10.982  71.483  1.00  0.00     0.000 HD 
HETATM   31  C   UNL     1     -10.821  16.773  65.721  1.00  0.00    -0.088 A  
ENDROOT
BRANCH  19  32
HETATM   32  C   UNL     1      -9.419  11.694  71.274  1.00  0.00    10.027 C  
HETATM   33  H   UNL     1      -9.877  11.522  69.233  1.00  0.00     0.000 HD 
HETATM   34  O   UNL     1      -8.528  11.488  72.102  1.00  0.00    12.749 OA 
HETATM   35  N   UNL     1      -9.179  11.369  69.961  1.00  0.00     1.683 N  
BRANCH  35  36
HETATM   36  C   UNL     1      -7.885  10.797  69.670  1.00  0.00     0.037 C  
BRANCH  36  37
HETATM   37  N   UNL     1      -7.437  11.168  68.338  1.00  0.00    -0.096 NA 
HETATM   38  C   UNL     1      -7.383   9.985  67.454  1.00  0.00    -0.090 C  
HETATM   39  C   UNL     1      -7.264  10.610  66.078  1.00  0.00    -0.131 C  
HETATM   40  C   UNL     1      -8.154  11.838  66.167  1.00  0.00     0.206 C  
HETATM   41  C   UNL     1      -8.338  12.101  67.660  1.00  0.00    -0.163 C  
ENDBRANCH  36  37
ENDBRANCH  35  36
ENDBRANCH  19  32
BRANCH  24  42
HETATM   42  N   UNL     1     -13.108  10.974  69.200  1.00  0.00     0.681 NA 
HETATM   43  C   UNL     1     -13.320  11.133  67.755  1.00  0.00     8.149 C  
HETATM   44  C   UNL     1     -14.302  11.351  69.924  1.00  0.00     6.854 C  
ENDBRANCH  24  42
TORSDOF 4
ENDMDL
MODEL      123
REMARK 921   NORMALIZED FREE ENERGY PREDICTED BY IDOCK:   64.58 KCAL/MOL
REMARK 922        TOTAL FREE ENERGY PREDICTED BY IDOCK:   79.10 KCAL/MOL
REMARK 923 INTER-LIGAND FREE ENERGY PREDICTED BY IDOCK:   76.66 KCAL/MOL
REMARK 924 INTRA-LIGAND FREE ENERGY PREDICTED BY IDOCK:    2.44 KCAL/MOL
REMARK 927      BINDING AFFINITY PREDICTED BY RF-SCORE:    0.00 PKD
ROOT
HETATM    1  C   UNL     1      -8.524   9.793  67.260  1.00  0.00    -0.125 C  
HETATM    2  C   UNL     1      -7.775   8.988  66.216  1.00  0.00    -0.095 C  
HETATM    3  C   UNL     1      -7.802   7.454  66.482  1.00  0.00    -0.098 C  
HETATM    4  C   UNL     1      -7.387   7.141  67.899  1.00  0.00    -0.097 C  
HETATM    5  C   UNL     1      -6.550   5.914  68.147  1.00  0.00    -0.055 C  
HETATM    6  C   UNL     1      -7.700   7.971  68.918  1.00  0.00    -0.104 C  
HETATM    7  C   UNL     1      -6.335   4.938  67.043  1.00  0.00    -0.037 A  
HETATM    8  O   UNL     1      -6.042   5.697  69.250  1.00  0.00    -0.022 OA 
HETATM    9  O   UNL     1      -7.215   7.769  70.212  1.00  0.00    -0.060 OA 
HETATM   10  C   UNL     1      -8.315   9.373  68.731  1.00  0.00    -0.117 C  
HETATM   11  C   UNL     1      -9.790   9.714  69.324  1.00  0.00    -0.189 C  
HETATM   12  H   UNL     1      -7.435   8.353  70.929  1.00  0.00     0.000 HD 
HETATM   13  O   UNL     1      -7.293  10.189  69.321  1.00  0.00    -0.078 OA 
HETATM   14  C   UNL     1      -5.767   3.675  67.304  1.00  0.00    -0.022 A  
HETATM   15  O   UNL     1     -10.327   9.116  70.253  1.00  0.00    -0.190 OA 
HETATM   16  H   UNL     1      -7.164   9.931  70.226  1.00  0.00     0.000 HD 
HETATM   17  C   UNL     1      -5.631   2.726  66.288  1.00  0.00    -0.017 A  
HETATM   18  O   UNL     1      -5.300   3.292  68.531  1.00  0.00    -0.012 OA 
HETATM   19  C   UNL     1     -10.485  10.955  68.720  1.00  0.00    -0.224 C  
HETATM   20  C   UNL     1      -5.678   7.431  65.013  1.00  0.00    -0.037 C  
HETATM   21  C   UNL     1      -9.493  11.816  68.392  1.00  0.00    -0.188 C  
HETATM   22  C   UNL     1      -6.055   3.029  65.001  1.00  0.00    -0.019 A  
HETATM   23  H   UNL     1      -4.917   2.441  68.707  1.00  0.00     0.000 HD 
HETATM   24  C   UNL     1      -8.597  11.381  67.150  1.00  0.00    -0.151 C  
HETATM   25  O   UNL     1      -7.849   6.733  64.210  1.00  0.00    -0.108 OA 
HETATM   26  C   UNL     1      -7.001   6.719  65.368  1.00  0.00    -0.059 C  
HETATM   27  O   UNL     1      -8.791  12.478  69.407  1.00  0.00     0.218 OA 
HETATM   28  C   UNL     1      -6.560   4.297  64.719  1.00  0.00    -0.044 A  
HETATM   29  H   UNL     1      -7.360   6.284  63.530  1.00  0.00     0.000 HD 
HETATM   30  H   UNL     1      -8.095  13.081  69.177  1.00  0.00     0.000 HD 
HETATM   31  C   UNL     1      -6.681   5.280  65.725  1.00  0.00    -0.053 A  
ENDROOT
BRANCH  19  32
HETATM   32  C   UNL     1     -11.471  10.963  67.557  1.00  0.00    -0.152 C  
HETATM   33  H   UNL     1     -10.119  11.548  66.063  1.00  0.00     0.000 HD 
HETATM   34  O   UNL     1     -12.647  10.645  67.748  1.00  0.00     1.513 OA 
HETATM   35  N   UNL     1     -11.080  11.283  66.280  1.00  0.00    -0.222 N  
BRANCH  35  36
HETATM   36  C   UNL     1     -12.104  11.223  65.263  1.00  0.00     1.262 C  
BRANCH  36  37
HETATM   37  N   UNL     1     -12.869   9.992  65.362  1.00  0.00     9.952 NA 
HETATM   38  C   UNL     1     -13.758   9.830  64.193  1.00  0.00    13.749 C  
HETATM   39  C   UNL     1     -14.170   8.374  64.294  1.00  0.00    18.069 C  
HETATM   40  C   UNL     1     -12.910   7.681  64.782  1.00  0.00    20.567 C  
HETATM   41  C   UNL     1     -12.037   8.788  65.368  1.00  0.00    12.391 C  
ENDBRANCH  36  37
ENDBRANCH  35  36
ENDBRANCH  19  32
BRANCH  24  42
HETATM   42  N   UNL     1      -7.401  12.249  67.094  1.00  0.00    -0.137 NA 
HETATM   43  C   UNL     1      -7.781  13.656  67.275  1.00  0.00    -0.074 C  
HETATM   44  C   UNL     1      -6.517  12.113  65.957  1.00  0.00     1.724 C  
ENDBRANCH  24  42
TORSDOF 4
ENDMDL
MODEL      124
REMARK 921   NORMALIZED FREE ENERGY PREDICTED BY IDOCK:   64.60 KCAL/MOL
REMARK 922        TOTAL FREE ENERGY PREDICTED BY IDOCK:   79.13 KCAL/MOL
REMARK 923 INTER-LIGAND FREE ENERGY PREDICTED BY IDOCK:   78.53 KCAL/MOL
REMARK 924 INTRA-LIGAND FREE ENERGY PREDICTED BY IDOCK:    0.60 KCAL/MOL
REMARK 927      BINDING AFFINITY PREDICTED BY RF-SCORE:    0.00 PKD
ROOT
HETATM    1  C   UNL     1      -9.283   8.040  68.724  1.00  0.00    -0.143 C  
HETATM    2  C   UNL     1      -9.761   9.455  68.471  1.00  0.00    -0.160 C  
HETATM    3  C   UNL     1      -9.089  10.509  69.399  1.00  0.00    -0.123 C  
HETATM    4  C   UNL     1      -9.176  10.092  70.847  1.00  0.00     0.846 C  
HETATM    5  C   UNL     1      -9.414  11.155  71.887  1.00  0.00    11.636 C  
HETATM    6  C   UNL     1      -9.108   8.791  71.204  1.00  0.00    -0.225 C  
HETATM    7  C   UNL     1      -9.345  12.590  71.497  1.00  0.00    15.971 A  
HETATM    8  O   UNL     1      -9.661  10.860  73.059  1.00  0.00    12.085 OA 
HETATM    9  O   UNL     1      -9.317   8.373  72.521  1.00  0.00    -0.250 OA 
HETATM   10  C   UNL     1      -9.134   7.619  70.203  1.00  0.00    -0.150 C  
HETATM   11  C   UNL     1      -7.862   6.614  70.073  1.00  0.00    -0.111 C  
HETATM   12  H   UNL     1      -9.269   7.458  72.771  1.00  0.00     0.000 HD 
HETATM   13  O   UNL     1     -10.322   6.936  70.628  1.00  0.00    -0.198 OA 
HETATM   14  C   UNL     1      -9.323  13.600  72.481  1.00  0.00    13.412 A  
HETATM   15  O   UNL     1      -7.026   6.424  70.953  1.00  0.00    -0.064 OA 
HETATM   16  H   UNL     1     -10.230   6.677  71.537  1.00  0.00     0.000 HD 
HETATM   17  C   UNL     1      -9.183  14.944  72.126  1.00  0.00     5.789 A  
HETATM   18  O   UNL     1      -9.452  13.356  73.820  1.00  0.00     9.935 OA 
HETATM   19  C   UNL     1      -7.800   5.775  68.776  1.00  0.00    -0.097 C  
HETATM   20  C   UNL     1     -11.179  11.926  68.858  1.00  0.00    -0.310 C  
HETATM   21  C   UNL     1      -9.084   5.554  68.412  1.00  0.00    -0.111 C  
HETATM   22  C   UNL     1      -9.069  15.295  70.788  1.00  0.00     1.814 A  
HETATM   23  H   UNL     1      -9.437  14.036  74.483  1.00  0.00     0.000 HD 
HETATM   24  C   UNL     1      -9.868   6.829  67.868  1.00  0.00    -0.129 C  
HETATM   25  O   UNL     1      -9.020  12.315  67.842  1.00  0.00    -0.170 OA 
HETATM   26  C   UNL     1      -9.650  11.925  69.071  1.00  0.00     0.213 C  
HETATM   27  O   UNL     1      -9.870   4.670  69.162  1.00  0.00    -0.183 OA 
HETATM   28  C   UNL     1      -9.152  14.311  69.804  1.00  0.00     0.911 A  
HETATM   29  H   UNL     1      -9.362  13.178  67.643  1.00  0.00     0.000 HD 
HETATM   30  H   UNL     1     -10.772   4.515  68.907  1.00  0.00     0.000 HD 
HETATM   31  C   UNL     1      -9.321  12.950  70.140  1.00  0.00     3.967 A  
ENDROOT
BRANCH  19  32
HETATM   32  C   UNL     1      -7.042   6.134  67.503  1.00  0.00    -0.074 C  
HETATM   33  H   UNL     1      -8.702   6.707  66.355  1.00  0.00     0.000 HD 
HETATM   34  O   UNL     1      -5.813   6.038  67.473  1.00  0.00    -0.015 OA 
HETATM   35  N   UNL     1      -7.688   6.601  66.385  1.00  0.00    -0.100 N  
BRANCH  35  36
HETATM   36  C   UNL     1      -6.853   6.935  65.255  1.00  0.00    -0.051 C  
BRANCH  36  37
HETATM   37  N   UNL     1      -7.444   8.000  64.462  1.00  0.00    -0.095 NA 
HETATM   38  C   UNL     1      -6.417   8.674  63.641  1.00  0.00    -0.084 C  
HETATM   39  C   UNL     1      -7.255   9.462  62.653  1.00  0.00    -0.100 C  
HETATM   40  C   UNL     1      -8.422   8.536  62.356  1.00  0.00    -0.174 C  
HETATM   41  C   UNL     1      -8.440   7.524  63.500  1.00  0.00     0.303 C  
ENDBRANCH  36  37
ENDBRANCH  35  36
ENDBRANCH  19  32
BRANCH  24  42
HETATM   42  N   UNL     1     -11.309   6.509  67.789  1.00  0.00    -0.156 NA 
HETATM   43  C   UNL     1     -11.653   6.025  66.446  1.00  0.00     1.225 C  
HETATM   44  C   UNL     1     -12.253   7.520  68.212  1.00  0.00     3.696 C  
ENDBRANCH  24  42
TORSDOF 4
ENDMDL
MODEL      125
REMARK 921   NORMALIZED FREE ENERGY PREDICTED BY IDOCK:   65.99 KCAL/MOL
REMARK 922        TOTAL FREE ENERGY PREDICTED BY IDOCK:   80.85 KCAL/MOL
REMARK 923 INTER-LIGAND FREE ENERGY PREDICTED BY IDOCK:   79.94 KCAL/MOL
REMARK 924 INTRA-LIGAND FREE ENERGY PREDICTED BY IDOCK:    0.91 KCAL/MOL
REMARK 927      BINDING AFFINITY PREDICTED BY RF-SCORE:    0.00 PKD
ROOT
HETATM    1  C   UNL     1      -9.216  12.297  65.283  1.00  0.00     0.293 C  
HETATM    2  C   UNL     1      -8.367  13.406  64.696  1.00  0.00     5.850 C  
HETATM    3  C   UNL     1      -8.804  14.828  65.156  1.00  0.00     2.463 C  
HETATM    4  C   UNL     1     -10.286  15.032  64.956  1.00  0.00    -0.390 C  
HETATM    5  C   UNL     1     -10.769  16.384  64.503  1.00  0.00     0.351 C  
HETATM    6  C   UNL     1     -11.158  14.013  65.115  1.00  0.00    -0.341 C  
HETATM    7  C   UNL     1      -9.818  17.529  64.470  1.00  0.00     4.506 A  
HETATM    8  O   UNL     1     -11.941  16.564  64.162  1.00  0.00    -0.850 OA 
HETATM    9  O   UNL     1     -12.515  14.146  64.808  1.00  0.00    -0.544 OA 
HETATM   10  C   UNL     1     -10.741  12.542  65.313  1.00  0.00    -0.286 C  
HETATM   11  C   UNL     1     -11.116  11.754  66.685  1.00  0.00    -0.310 C  
HETATM   12  H   UNL     1     -13.128  13.429  64.920  1.00  0.00     0.000 HD 
HETATM   13  O   UNL     1     -11.346  11.939  64.160  1.00  0.00    -0.348 OA 
HETATM   14  C   UNL     1     -10.288  18.845  64.285  1.00  0.00     6.325 A  
HETATM   15  O   UNL     1     -12.040  12.056  67.436  1.00  0.00    -0.566 OA 
HETATM   16  H   UNL     1     -12.283  12.090  64.179  1.00  0.00     0.000 HD 
HETATM   17  C   UNL     1      -9.412  19.933  64.329  1.00  0.00     5.516 A  
HETATM   18  O   UNL     1     -11.597  19.156  64.039  1.00  0.00     3.308 OA 
HETATM   19  C   UNL     1     -10.296  10.475  66.969  1.00  0.00    -0.289 C  
HETATM   20  C   UNL     1      -7.602  15.603  63.006  1.00  0.00    27.423 C  
HETATM   21  C   UNL     1      -9.986   9.953  65.760  1.00  0.00    -0.277 C  
HETATM   22  C   UNL     1      -8.058  19.718  64.551  1.00  0.00     2.795 A  
HETATM   23  H   UNL     1     -11.914  20.043  63.914  1.00  0.00     0.000 HD 
HETATM   24  C   UNL     1      -8.915  10.775  64.917  1.00  0.00    -0.184 C  
HETATM   25  O   UNL     1      -6.641  15.830  65.212  1.00  0.00     4.926 OA 
HETATM   26  C   UNL     1      -7.882  15.895  64.495  1.00  0.00    10.636 C  
HETATM   27  O   UNL     1     -10.992   9.355  64.990  1.00  0.00     1.545 OA 
HETATM   28  C   UNL     1      -7.574  18.416  64.672  1.00  0.00     3.586 A  
HETATM   29  H   UNL     1      -6.078  16.481  64.809  1.00  0.00     0.000 HD 
HETATM   30  H   UNL     1     -10.775   8.989  64.141  1.00  0.00     0.000 HD 
HETATM   31  C   UNL     1      -8.439  17.302  64.604  1.00  0.00     6.099 A  
ENDROOT
BRANCH  19  32
HETATM   32  C   UNL     1      -9.034  10.381  67.821  1.00  0.00    -0.131 C  
HETATM   33  H   UNL     1      -9.773   9.029  69.246  1.00  0.00     0.000 HD 
HETATM   34  O   UNL     1      -8.026  11.012  67.495  1.00  0.00    -0.112 OA 
HETATM   35  N   UNL     1      -8.972   9.578  68.933  1.00  0.00    -0.138 N  
BRANCH  35  36
HETATM   36  C   UNL     1      -7.709   9.553  69.634  1.00  0.00    -0.112 C  
BRANCH  36  37
HETATM   37  N   UNL     1      -7.467   8.251  70.232  1.00  0.00    -0.065 NA 
HETATM   38  C   UNL     1      -6.036   7.892  70.146  1.00  0.00    -0.032 C  
HETATM   39  C   UNL     1      -5.933   6.729  71.114  1.00  0.00    -0.036 C  
HETATM   40  C   UNL     1      -6.870   7.121  72.243  1.00  0.00    -0.060 C  
HETATM   41  C   UNL     1      -7.781   8.199  71.661  1.00  0.00    -0.092 C  
ENDBRANCH  36  37
ENDBRANCH  35  36
ENDBRANCH  19  32
BRANCH  24  42
HETATM   42  N   UNL     1      -8.896  10.259  63.531  1.00  0.00    -0.202 NA 
HETATM   43  C   UNL     1      -7.847   9.243  63.377  1.00  0.00    -0.131 C  
HETATM   44  C   UNL     1      -8.826  11.218  62.451  1.00  0.00    -0.185 C  
ENDBRANCH  24  42
TORSDOF 4
ENDMDL
MODEL      126
REMARK 921   NORMALIZED FREE ENERGY PREDICTED BY IDOCK:   74.54 KCAL/MOL
REMARK 922        TOTAL FREE ENERGY PREDICTED BY IDOCK:   91.39 KCAL/MOL
REMARK 923 INTER-LIGAND FREE ENERGY PREDICTED BY IDOCK:   89.85 KCAL/MOL
REMARK 924 INTRA-LIGAND FREE ENERGY PREDICTED BY IDOCK:    1.54 KCAL/MOL
REMARK 927      BINDING AFFINITY PREDICTED BY RF-SCORE:    0.00 PKD
ROOT
HETATM    1  C   UNL     1      -9.776  16.237  66.674  1.00  0.00    -0.266 C  
HETATM    2  C   UNL     1      -8.863  15.211  67.315  1.00  0.00    -0.216 C  
HETATM    3  C   UNL     1      -9.615  14.199  68.227  1.00  0.00    -0.226 C  
HETATM    4  C   UNL     1     -10.506  14.914  69.213  1.00  0.00    -0.246 C  
HETATM    5  C   UNL     1     -10.626  14.357  70.607  1.00  0.00     0.857 C  
HETATM    6  C   UNL     1     -11.134  16.063  68.880  1.00  0.00    -0.331 C  
HETATM    7  C   UNL     1     -10.046  13.021  70.915  1.00  0.00     6.332 A  
HETATM    8  O   UNL     1     -11.201  14.985  71.500  1.00  0.00    -0.321 OA 
HETATM    9  O   UNL     1     -11.856  16.809  69.815  1.00  0.00     0.018 OA 
HETATM   10  C   UNL     1     -10.866  16.848  67.581  1.00  0.00    -0.244 C  
HETATM   11  C   UNL     1     -12.046  17.059  66.483  1.00  0.00     3.106 C  
HETATM   12  H   UNL     1     -12.297  17.617  69.581  1.00  0.00     0.000 HD 
HETATM   13  O   UNL     1     -10.398  18.094  68.118  1.00  0.00    -0.364 OA 
HETATM   14  C   UNL     1     -10.347  12.372  72.129  1.00  0.00    13.612 A  
HETATM   15  O   UNL     1     -13.249  17.011  66.730  1.00  0.00     6.623 OA 
HETATM   16  H   UNL     1     -11.068  18.470  68.676  1.00  0.00     0.000 HD 
HETATM   17  C   UNL     1      -9.869  11.087  72.394  1.00  0.00    12.781 A  
HETATM   18  O   UNL     1     -11.095  12.936  73.126  1.00  0.00     7.037 OA 
HETATM   19  C   UNL     1     -11.580  17.454  65.064  1.00  0.00     1.617 C  
HETATM   20  C   UNL     1      -7.304  13.885  69.334  1.00  0.00     0.127 C  
HETATM   21  C   UNL     1     -10.450  18.180  65.230  1.00  0.00     0.478 C  
HETATM   22  C   UNL     1      -9.081  10.438  71.453  1.00  0.00     3.986 A  
HETATM   23  H   UNL     1     -11.298  12.499  73.945  1.00  0.00     0.000 HD 
HETATM   24  C   UNL     1      -9.175  17.356  65.711  1.00  0.00     0.209 C  
HETATM   25  O   UNL     1      -8.255  12.291  67.786  1.00  0.00    -0.139 OA 
HETATM   26  C   UNL     1      -8.596  13.197  68.845  1.00  0.00     0.283 C  
HETATM   27  O   UNL     1     -10.535  19.474  65.759  1.00  0.00    -0.486 OA 
HETATM   28  C   UNL     1      -8.725  11.095  70.276  1.00  0.00     2.412 A  
HETATM   29  H   UNL     1      -7.633  11.679  68.163  1.00  0.00     0.000 HD 
HETATM   30  H   UNL     1      -9.742  19.983  65.876  1.00  0.00     0.000 HD 
HETATM   31  C   UNL     1      -9.176  12.404  70.001  1.00  0.00     3.427 A  
ENDROOT
BRANCH  19  32
HETATM   32  C   UNL     1     -11.319  16.502  63.900  1.00  0.00     1.157 C  
HETATM   33  H   UNL     1      -9.413  15.863  64.499  1.00  0.00     0.000 HD 
HETATM   34  O   UNL     1     -12.180  16.346  63.031  1.00  0.00     2.237 OA 
HETATM   35  N   UNL     1     -10.157  15.778  63.807  1.00  0.00     4.309 N  
BRANCH  35  36
HETATM   36  C   UNL     1     -10.046  14.890  62.673  1.00  0.00    13.245 C  
BRANCH  36  37
HETATM   37  N   UNL     1      -9.965  13.503  63.100  1.00  0.00     2.917 NA 
HETATM   38  C   UNL     1      -8.814  12.825  62.468  1.00  0.00     5.427 C  
HETATM   39  C   UNL     1      -8.687  11.559  63.294  1.00  0.00     0.256 C  
HETATM   40  C   UNL     1      -9.013  12.020  64.704  1.00  0.00     0.692 C  
HETATM   41  C   UNL     1      -9.746  13.349  64.539  1.00  0.00     0.376 C  
ENDBRANCH  36  37
ENDBRANCH  35  36
ENDBRANCH  19  32
BRANCH  24  42
HETATM   42  N   UNL     1      -8.119  18.305  66.124  1.00  0.00    -0.462 NA 
HETATM   43  C   UNL     1      -6.813  17.874  65.607  1.00  0.00    -0.125 C  
HETATM   44  C   UNL     1      -8.015  18.635  67.528  1.00  0.00    -0.244 C  
ENDBRANCH  24  42
TORSDOF 4
ENDMDL
MODEL      127
REMARK 921   NORMALIZED FREE ENERGY PREDICTED BY IDOCK:   82.99 KCAL/MOL
REMARK 922        TOTAL FREE ENERGY PREDICTED BY IDOCK:  101.82 KCAL/MOL
REMARK 923 INTER-LIGAND FREE ENERGY PREDICTED BY IDOCK:   94.27 KCAL/MOL
REMARK 924 INTRA-LIGAND FREE ENERGY PREDICTED BY IDOCK:    7.54 KCAL/MOL
REMARK 927      BINDING AFFINITY PREDICTED BY RF-SCORE:    0.00 PKD
ROOT
HETATM    1  C   UNL     1      -9.174   9.357  68.101  1.00  0.00    -0.135 C  
HETATM    2  C   UNL     1      -9.849   9.910  69.340  1.00  0.00    -0.231 C  
HETATM    3  C   UNL     1      -9.195  11.222  69.866  1.00  0.00     1.399 C  
HETATM    4  C   UNL     1      -7.701  11.064  70.011  1.00  0.00     0.698 C  
HETATM    5  C   UNL     1      -7.021  11.725  71.181  1.00  0.00     3.709 C  
HETATM    6  C   UNL     1      -6.994  10.298  69.152  1.00  0.00    -0.066 C  
HETATM    7  C   UNL     1      -7.785  12.677  72.032  1.00  0.00    12.420 A  
HETATM    8  O   UNL     1      -5.837  11.495  71.446  1.00  0.00    -0.346 OA 
HETATM    9  O   UNL     1      -5.635  10.033  69.344  1.00  0.00    -0.038 OA 
HETATM   10  C   UNL     1      -7.630   9.376  68.093  1.00  0.00    -0.083 C  
HETATM   11  C   UNL     1      -7.368   9.632  66.509  1.00  0.00    -0.090 C  
HETATM   12  H   UNL     1      -5.138   9.494  68.741  1.00  0.00     0.000 HD 
HETATM   13  O   UNL     1      -7.134   8.100  68.524  1.00  0.00    -0.073 OA 
HETATM   14  C   UNL     1      -7.121  13.486  72.976  1.00  0.00     5.817 A  
HETATM   15  O   UNL     1      -6.403  10.235  66.047  1.00  0.00    -0.086 OA 
HETATM   16  H   UNL     1      -6.185   8.111  68.519  1.00  0.00     0.000 HD 
HETATM   17  C   UNL     1      -7.821  14.436  73.725  1.00  0.00     7.383 A  
HETATM   18  O   UNL     1      -5.782  13.399  73.241  1.00  0.00    -0.312 OA 
HETATM   19  C   UNL     1      -8.372   8.958  65.546  1.00  0.00    -0.142 C  
HETATM   20  C   UNL     1     -10.282  10.549  72.110  1.00  0.00     6.280 C  
HETATM   21  C   UNL     1      -8.768   7.818  66.157  1.00  0.00    -0.156 C  
HETATM   22  C   UNL     1      -9.189  14.583  73.545  1.00  0.00     9.321 A  
HETATM   23  H   UNL     1      -5.335  13.945  73.877  1.00  0.00     0.000 HD 
HETATM   24  C   UNL     1      -9.708   8.015  67.427  1.00  0.00    -0.166 C  
HETATM   25  O   UNL     1     -11.179  12.272  70.671  1.00  0.00     0.161 OA 
HETATM   26  C   UNL     1      -9.948  11.704  71.141  1.00  0.00     7.330 C  
HETATM   27  O   UNL     1      -7.872   6.746  66.263  1.00  0.00    -0.099 OA 
HETATM   28  C   UNL     1      -9.866  13.746  72.660  1.00  0.00    10.674 A  
HETATM   29  H   UNL     1     -11.639  12.566  71.449  1.00  0.00     0.000 HD 
HETATM   30  H   UNL     1      -8.149   5.946  66.692  1.00  0.00     0.000 HD 
HETATM   31  C   UNL     1      -9.182  12.762  71.912  1.00  0.00    19.490 A  
ENDROOT
BRANCH  19  32
HETATM   32  C   UNL     1      -9.626   9.595  64.957  1.00  0.00    -0.214 C  
HETATM   33  H   UNL     1     -10.967   8.062  65.461  1.00  0.00     0.000 HD 
HETATM   34  O   UNL     1      -9.559  10.707  64.427  1.00  0.00    -0.241 OA 
HETATM   35  N   UNL     1     -10.851   8.978  65.030  1.00  0.00     3.754 N  
BRANCH  35  36
HETATM   36  C   UNL     1     -11.966   9.700  64.461  1.00  0.00     9.544 C  
BRANCH  36  37
HETATM   37  N   UNL     1     -11.523  10.924  63.814  1.00  0.00     0.575 NA 
HETATM   38  C   UNL     1     -12.677  11.760  63.426  1.00  0.00    -0.267 C  
HETATM   39  C   UNL     1     -12.026  13.096  63.125  1.00  0.00    -0.246 C  
HETATM   40  C   UNL     1     -10.934  13.204  64.175  1.00  0.00    -0.418 C  
HETATM   41  C   UNL     1     -10.715  11.781  64.683  1.00  0.00    -0.310 C  
ENDBRANCH  36  37
ENDBRANCH  35  36
ENDBRANCH  19  32
BRANCH  24  42
HETATM   42  N   UNL     1      -9.816   6.729  68.148  1.00  0.00    -0.135 NA 
HETATM   43  C   UNL     1     -10.000   5.623  67.199  1.00  0.00    -0.164 C  
HETATM   44  C   UNL     1     -10.782   6.632  69.221  1.00  0.00    -0.265 C  
ENDBRANCH  24  42
TORSDOF 4
ENDMDL
MODEL      128
REMARK 921   NORMALIZED FREE ENERGY PREDICTED BY IDOCK:  102.30 KCAL/MOL
REMARK 922        TOTAL FREE ENERGY PREDICTED BY IDOCK:  125.65 KCAL/MOL
REMARK 923 INTER-LIGAND FREE ENERGY PREDICTED BY IDOCK:  123.99 KCAL/MOL
REMARK 924 INTRA-LIGAND FREE ENERGY PREDICTED BY IDOCK:    1.66 KCAL/MOL
REMARK 927      BINDING AFFINITY PREDICTED BY RF-SCORE:    0.00 PKD
ROOT
HETATM    1  C   UNL     1     -10.954  15.730  69.449  1.00  0.00    -0.296 C  
HETATM    2  C   UNL     1     -11.190  14.306  68.988  1.00  0.00    -0.294 C  
HETATM    3  C   UNL     1     -10.377  13.926  67.716  1.00  0.00    -0.240 C  
HETATM    4  C   UNL     1     -10.562  14.953  66.625  1.00  0.00    -0.305 C  
HETATM    5  C   UNL     1     -10.646  14.477  65.199  1.00  0.00    -0.410 C  
HETATM    6  C   UNL     1     -10.713  16.263  66.919  1.00  0.00    -0.217 C  
HETATM    7  C   UNL     1     -10.337  13.057  64.880  1.00  0.00    -0.343 A  
HETATM    8  O   UNL     1     -10.963  15.245  64.286  1.00  0.00    -0.135 OA 
HETATM    9  O   UNL     1     -11.016  17.210  65.938  1.00  0.00    -0.076 OA 
HETATM   10  C   UNL     1     -10.907  16.811  68.347  1.00  0.00    -0.355 C  
HETATM   11  C   UNL     1      -9.813  17.820  69.001  1.00  0.00    -0.225 C  
HETATM   12  H   UNL     1     -11.122  18.131  66.144  1.00  0.00     0.000 HD 
HETATM   13  O   UNL     1     -12.199  17.422  68.221  1.00  0.00     1.214 OA 
HETATM   14  C   UNL     1     -10.173  12.642  63.543  1.00  0.00    -0.035 A  
HETATM   15  O   UNL     1      -9.039  18.525  68.359  1.00  0.00    -0.306 OA 
HETATM   16  H   UNL     1     -12.171  18.086  67.543  1.00  0.00     0.000 HD 
HETATM   17  C   UNL     1      -9.808  11.328  63.240  1.00  0.00    -0.418 A  
HETATM   18  O   UNL     1     -10.368  13.461  62.466  1.00  0.00     2.730 OA 
HETATM   19  C   UNL     1      -9.860  17.953  70.540  1.00  0.00     2.518 C  
HETATM   20  C   UNL     1     -12.196  12.118  67.416  1.00  0.00     0.333 C  
HETATM   21  C   UNL     1     -11.155  17.778  70.891  1.00  0.00     2.336 C  
HETATM   22  C   UNL     1      -9.609  10.414  64.265  1.00  0.00    -0.377 A  
HETATM   23  H   UNL     1     -10.258  13.181  61.564  1.00  0.00     0.000 HD 
HETATM   24  C   UNL     1     -11.709  16.294  70.735  1.00  0.00    -0.193 C  
HETATM   25  O   UNL     1      -9.981  11.637  68.256  1.00  0.00    -0.188 OA 
HETATM   26  C   UNL     1     -10.693  12.455  67.316  1.00  0.00    -0.230 C  
HETATM   27  O   UNL     1     -12.090  18.777  70.595  1.00  0.00     8.265 OA 
HETATM   28  C   UNL     1      -9.830  10.796  65.587  1.00  0.00    -0.299 A  
HETATM   29  H   UNL     1     -10.174  10.740  68.012  1.00  0.00     0.000 HD 
HETATM   30  H   UNL     1     -12.999  18.654  70.841  1.00  0.00     0.000 HD 
HETATM   31  C   UNL     1     -10.225  12.112  65.914  1.00  0.00    -0.272 A  
ENDROOT
BRANCH  19  32
HETATM   32  C   UNL     1      -9.026  17.161  71.542  1.00  0.00     9.390 C  
HETATM   33  H   UNL     1     -10.580  15.980  72.310  1.00  0.00     0.000 HD 
HETATM   34  O   UNL     1      -7.812  17.363  71.625  1.00  0.00     8.208 OA 
HETATM   35  N   UNL     1      -9.583  16.193  72.340  1.00  0.00     6.975 N  
BRANCH  35  36
HETATM   36  C   UNL     1      -8.680  15.494  73.224  1.00  0.00    12.049 C  
BRANCH  36  37
HETATM   37  N   UNL     1      -8.817  14.054  73.082  1.00  0.00     9.104 NA 
HETATM   38  C   UNL     1     -10.238  13.673  72.949  1.00  0.00    10.209 C  
HETATM   39  C   UNL     1     -10.147  12.242  72.455  1.00  0.00    18.253 C  
HETATM   40  C   UNL     1      -8.954  12.264  71.515  1.00  0.00    16.138 C  
HETATM   41  C   UNL     1      -8.173  13.525  71.879  1.00  0.00    11.173 C  
ENDBRANCH  36  37
ENDBRANCH  35  36
ENDBRANCH  19  32
BRANCH  24  42
HETATM   42  N   UNL     1     -13.181  16.314  70.871  1.00  0.00     0.685 NA 
HETATM   43  C   UNL     1     -13.698  14.949  71.039  1.00  0.00    -0.306 C  
HETATM   44  C   UNL     1     -13.946  17.018  69.866  1.00  0.00     9.934 C  
ENDBRANCH  24  42
TORSDOF 4
ENDMDL
