MODEL        1
REMARK 921   NORMALIZED FREE ENERGY PREDICTED BY IDOCK:   -5.92 KCAL/MOL
REMARK 922        TOTAL FREE ENERGY PREDICTED BY IDOCK:   -7.83 KCAL/MOL
REMARK 923 INTER-LIGAND FREE ENERGY PREDICTED BY IDOCK:   -7.30 KCAL/MOL
REMARK 924 INTRA-LIGAND FREE ENERGY PREDICTED BY IDOCK:   -0.53 KCAL/MOL
REMARK 927      BINDING AFFINITY PREDICTED BY RF-SCORE:    0.00 PKD
ROOT
HETATM    1  C   UNL     1     -12.830   9.971  71.711  1.00  0.00    -0.546 C  
HETATM    2  C   UNL     1     -13.502  11.329  71.857  1.00  0.00    -0.278 C  
ENDROOT
BRANCH   2   3
HETATM    3  C   UNL     1     -12.553  12.469  71.452  1.00  0.00    -0.194 C  
BRANCH   3   4
HETATM    4  N   UNL     1     -13.250  13.635  70.862  1.00  0.00    -0.119 NA 
HETATM    5  C   UNL     1     -14.068  14.369  71.855  1.00  0.00    -0.508 C  
HETATM    6  C   UNL     1     -13.247  15.068  72.946  1.00  0.00    -0.585 C  
HETATM    7  C   UNL     1     -12.232  16.028  72.338  1.00  0.00    -0.603 C  
HETATM    8  C   UNL     1     -11.410  15.350  71.251  1.00  0.00    -0.441 C  
HETATM    9  C   UNL     1     -12.303  14.617  70.236  1.00  0.00    -0.349 C  
BRANCH   9  10
HETATM   10  C   UNL     1     -11.454  13.989  69.111  1.00  0.00    -0.296 C  
HETATM   11  N   UNL     1     -12.126  12.992  68.418  1.00  0.00    -0.247 N  
HETATM   12  O   UNL     1     -10.311  14.369  68.865  1.00  0.00    -0.236 OA 
HETATM   13  H   UNL     1     -13.057  12.717  68.730  1.00  0.00     0.000 HD 
BRANCH  11  14
HETATM   14  C   UNL     1     -11.565  12.344  67.290  1.00  0.00    -0.365 A  
HETATM   15  C   UNL     1     -10.805  11.166  67.472  1.00  0.00    -0.303 A  
HETATM   16  C   UNL     1     -10.390  10.629  68.815  1.00  0.00    -0.210 C  
HETATM   17  C   UNL     1     -10.283  10.510  66.342  1.00  0.00    -0.296 A  
HETATM   18  C   UNL     1     -10.522  10.987  65.057  1.00  0.00    -0.344 A  
HETATM   19  C   UNL     1     -11.284  12.134  64.878  1.00  0.00    -0.374 A  
HETATM   20  C   UNL     1     -11.822  12.822  65.983  1.00  0.00    -0.495 A  
HETATM   21  C   UNL     1     -12.681  14.026  65.700  1.00  0.00    -0.515 C  
ENDBRANCH  11  14
ENDBRANCH   9  10
ENDBRANCH   3   4
ENDBRANCH   2   3
TORSDOF 4
ENDMDL
MODEL        2
REMARK 921   NORMALIZED FREE ENERGY PREDICTED BY IDOCK:   -5.84 KCAL/MOL
REMARK 922        TOTAL FREE ENERGY PREDICTED BY IDOCK:   -7.74 KCAL/MOL
REMARK 923 INTER-LIGAND FREE ENERGY PREDICTED BY IDOCK:   -7.74 KCAL/MOL
REMARK 924 INTRA-LIGAND FREE ENERGY PREDICTED BY IDOCK:   -0.00 KCAL/MOL
REMARK 927      BINDING AFFINITY PREDICTED BY RF-SCORE:    0.00 PKD
ROOT
HETATM    1  C   UNL     1     -12.488  12.135  63.597  1.00  0.00    -0.658 C  
HETATM    2  C   UNL     1     -11.483  13.001  64.344  1.00  0.00    -0.409 C  
ENDROOT
BRANCH   2   3
HETATM    3  C   UNL     1     -11.748  12.985  65.858  1.00  0.00    -0.394 C  
BRANCH   3   4
HETATM    4  N   UNL     1     -10.532  13.209  66.673  1.00  0.00    -0.274 NA 
HETATM    5  C   UNL     1      -9.842  14.473  66.325  1.00  0.00    -0.304 C  
HETATM    6  C   UNL     1     -10.638  15.736  66.674  1.00  0.00    -0.307 C  
HETATM    7  C   UNL     1     -11.000  15.765  68.153  1.00  0.00    -0.330 C  
HETATM    8  C   UNL     1     -11.646  14.457  68.591  1.00  0.00    -0.347 C  
HETATM    9  C   UNL     1     -10.820  13.238  68.146  1.00  0.00    -0.251 C  
BRANCH   9  10
HETATM   10  C   UNL     1     -11.460  11.929  68.651  1.00  0.00    -0.294 C  
HETATM   11  N   UNL     1     -11.041  11.579  69.928  1.00  0.00    -0.478 N  
HETATM   12  O   UNL     1     -12.271  11.295  67.979  1.00  0.00    -0.621 OA 
HETATM   13  H   UNL     1     -10.328  12.146  70.384  1.00  0.00     0.000 HD 
BRANCH  11  14
HETATM   14  C   UNL     1     -11.570  10.461  70.618  1.00  0.00    -0.349 A  
HETATM   15  C   UNL     1     -12.667  10.638  71.491  1.00  0.00    -0.549 A  
HETATM   16  C   UNL     1     -13.221  11.980  71.889  1.00  0.00    -0.469 C  
HETATM   17  C   UNL     1     -13.209   9.515  72.143  1.00  0.00    -0.539 A  
HETATM   18  C   UNL     1     -12.698   8.239  71.924  1.00  0.00    -0.373 A  
HETATM   19  C   UNL     1     -11.632   8.063  71.052  1.00  0.00    -0.303 A  
HETATM   20  C   UNL     1     -11.060   9.161  70.383  1.00  0.00    -0.293 A  
HETATM   21  C   UNL     1      -9.942   8.879  69.413  1.00  0.00    -0.192 C  
ENDBRANCH  11  14
ENDBRANCH   9  10
ENDBRANCH   3   4
ENDBRANCH   2   3
TORSDOF 4
ENDMDL
MODEL        3
REMARK 921   NORMALIZED FREE ENERGY PREDICTED BY IDOCK:   -5.83 KCAL/MOL
REMARK 922        TOTAL FREE ENERGY PREDICTED BY IDOCK:   -7.72 KCAL/MOL
REMARK 923 INTER-LIGAND FREE ENERGY PREDICTED BY IDOCK:   -7.70 KCAL/MOL
REMARK 924 INTRA-LIGAND FREE ENERGY PREDICTED BY IDOCK:   -0.02 KCAL/MOL
REMARK 927      BINDING AFFINITY PREDICTED BY RF-SCORE:    0.00 PKD
ROOT
HETATM    1  C   UNL     1     -12.439  12.016  63.515  1.00  0.00    -0.654 C  
HETATM    2  C   UNL     1     -12.113  13.444  63.929  1.00  0.00    -0.514 C  
ENDROOT
BRANCH   2   3
HETATM    3  C   UNL     1     -12.076  13.589  65.459  1.00  0.00    -0.419 C  
BRANCH   3   4
HETATM    4  N   UNL     1     -10.705  13.656  66.013  1.00  0.00    -0.278 NA 
HETATM    5  C   UNL     1      -9.948  14.827  65.512  1.00  0.00    -0.356 C  
HETATM    6  C   UNL     1     -10.498  16.176  65.988  1.00  0.00    -0.349 C  
HETATM    7  C   UNL     1     -10.554  16.240  67.509  1.00  0.00    -0.310 C  
HETATM    8  C   UNL     1     -11.255  15.020  68.090  1.00  0.00    -0.316 C  
HETATM    9  C   UNL     1     -10.689  13.711  67.513  1.00  0.00    -0.259 C  
BRANCH   9  10
HETATM   10  C   UNL     1     -11.372  12.487  68.159  1.00  0.00    -0.295 C  
HETATM   11  N   UNL     1     -11.017  12.309  69.489  1.00  0.00    -0.462 N  
HETATM   12  O   UNL     1     -12.161  11.776  67.540  1.00  0.00    -0.599 OA 
HETATM   13  H   UNL     1     -10.316  12.927  69.899  1.00  0.00     0.000 HD 
BRANCH  11  14
HETATM   14  C   UNL     1     -11.594  11.299  70.298  1.00  0.00    -0.275 A  
HETATM   15  C   UNL     1     -11.069   9.988  70.253  1.00  0.00    -0.381 A  
HETATM   16  C   UNL     1     -10.033   9.527  69.263  1.00  0.00    -0.191 C  
HETATM   17  C   UNL     1     -11.625   9.001  71.087  1.00  0.00    -0.372 A  
HETATM   18  C   UNL     1     -12.661   9.302  71.967  1.00  0.00    -0.479 A  
HETATM   19  C   UNL     1     -13.165  10.595  72.023  1.00  0.00    -0.473 A  
HETATM   20  C   UNL     1     -12.637  11.610  71.203  1.00  0.00    -0.439 A  
HETATM   21  C   UNL     1     -13.201  12.997  71.364  1.00  0.00    -0.276 C  
ENDBRANCH  11  14
ENDBRANCH   9  10
ENDBRANCH   3   4
ENDBRANCH   2   3
TORSDOF 4
ENDMDL
MODEL        4
REMARK 921   NORMALIZED FREE ENERGY PREDICTED BY IDOCK:   -5.81 KCAL/MOL
REMARK 922        TOTAL FREE ENERGY PREDICTED BY IDOCK:   -7.70 KCAL/MOL
REMARK 923 INTER-LIGAND FREE ENERGY PREDICTED BY IDOCK:   -7.08 KCAL/MOL
REMARK 924 INTRA-LIGAND FREE ENERGY PREDICTED BY IDOCK:   -0.62 KCAL/MOL
REMARK 927      BINDING AFFINITY PREDICTED BY RF-SCORE:    0.00 PKD
ROOT
HETATM    1  C   UNL     1     -11.458  10.715  70.276  1.00  0.00    -0.422 C  
HETATM    2  C   UNL     1     -12.468  11.755  70.738  1.00  0.00    -0.405 C  
ENDROOT
BRANCH   2   3
HETATM    3  C   UNL     1     -11.916  13.181  70.575  1.00  0.00    -0.222 C  
BRANCH   3   4
HETATM    4  N   UNL     1     -12.970  14.221  70.530  1.00  0.00    -0.282 NA 
HETATM    5  C   UNL     1     -13.832  14.206  71.736  1.00  0.00    -0.414 C  
HETATM    6  C   UNL     1     -13.108  14.610  73.025  1.00  0.00    -0.616 C  
HETATM    7  C   UNL     1     -12.473  15.989  72.889  1.00  0.00    -0.596 C  
HETATM    8  C   UNL     1     -11.634  16.091  71.623  1.00  0.00    -0.538 C  
HETATM    9  C   UNL     1     -12.409  15.606  70.387  1.00  0.00    -0.391 C  
BRANCH   9  10
HETATM   10  C   UNL     1     -11.563  15.774  69.108  1.00  0.00    -0.392 C  
HETATM   11  N   UNL     1     -10.434  16.558  69.305  1.00  0.00    -0.306 N  
HETATM   12  O   UNL     1     -11.869  15.238  68.046  1.00  0.00    -0.314 OA 
HETATM   13  H   UNL     1     -10.293  16.997  70.215  1.00  0.00     0.000 HD 
BRANCH  11  14
HETATM   14  C   UNL     1      -9.472  16.769  68.288  1.00  0.00    -0.240 A  
HETATM   15  C   UNL     1      -8.463  15.804  68.074  1.00  0.00    -0.161 A  
HETATM   16  C   UNL     1      -8.218  14.624  68.977  1.00  0.00    -0.110 C  
HETATM   17  C   UNL     1      -7.534  16.005  67.037  1.00  0.00    -0.264 A  
HETATM   18  C   UNL     1      -7.609  17.121  66.209  1.00  0.00    -0.352 A  
HETATM   19  C   UNL     1      -8.612  18.061  66.408  1.00  0.00    -0.253 A  
HETATM   20  C   UNL     1      -9.559  17.897  67.437  1.00  0.00    -0.271 A  
HETATM   21  C   UNL     1     -10.647  18.933  67.551  1.00  0.00    -0.524 C  
ENDBRANCH  11  14
ENDBRANCH   9  10
ENDBRANCH   3   4
ENDBRANCH   2   3
TORSDOF 4
ENDMDL
MODEL        5
REMARK 921   NORMALIZED FREE ENERGY PREDICTED BY IDOCK:   -5.77 KCAL/MOL
REMARK 922        TOTAL FREE ENERGY PREDICTED BY IDOCK:   -7.65 KCAL/MOL
REMARK 923 INTER-LIGAND FREE ENERGY PREDICTED BY IDOCK:   -7.10 KCAL/MOL
REMARK 924 INTRA-LIGAND FREE ENERGY PREDICTED BY IDOCK:   -0.55 KCAL/MOL
REMARK 927      BINDING AFFINITY PREDICTED BY RF-SCORE:    0.00 PKD
ROOT
HETATM    1  C   UNL     1     -11.491  10.620  70.401  1.00  0.00    -0.422 C  
HETATM    2  C   UNL     1     -12.498  11.709  70.741  1.00  0.00    -0.425 C  
ENDROOT
BRANCH   2   3
HETATM    3  C   UNL     1     -11.938  13.106  70.429  1.00  0.00    -0.266 C  
BRANCH   3   4
HETATM    4  N   UNL     1     -12.960  14.176  70.472  1.00  0.00    -0.251 NA 
HETATM    5  C   UNL     1     -13.779  14.127  71.706  1.00  0.00    -0.408 C  
HETATM    6  C   UNL     1     -12.999  14.447  72.986  1.00  0.00    -0.571 C  
HETATM    7  C   UNL     1     -12.329  15.812  72.894  1.00  0.00    -0.570 C  
HETATM    8  C   UNL     1     -11.532  15.952  71.605  1.00  0.00    -0.473 C  
HETATM    9  C   UNL     1     -12.364  15.550  70.375  1.00  0.00    -0.413 C  
BRANCH   9  10
HETATM   10  C   UNL     1     -11.558  15.757  69.076  1.00  0.00    -0.400 C  
HETATM   11  N   UNL     1     -10.431  16.548  69.258  1.00  0.00    -0.306 N  
HETATM   12  O   UNL     1     -11.892  15.243  68.011  1.00  0.00    -0.314 OA 
HETATM   13  H   UNL     1     -10.266  16.966  70.173  1.00  0.00     0.000 HD 
BRANCH  11  14
HETATM   14  C   UNL     1      -9.502  16.792  68.218  1.00  0.00    -0.240 A  
HETATM   15  C   UNL     1      -9.551  18.016  67.515  1.00  0.00    -0.273 A  
HETATM   16  C   UNL     1     -10.648  19.035  67.670  1.00  0.00    -0.526 C  
HETATM   17  C   UNL     1      -8.600  18.265  66.508  1.00  0.00    -0.283 A  
HETATM   18  C   UNL     1      -7.605  17.338  66.213  1.00  0.00    -0.360 A  
HETATM   19  C   UNL     1      -7.545  16.142  66.916  1.00  0.00    -0.275 A  
HETATM   20  C   UNL     1      -8.480  15.855  67.929  1.00  0.00    -0.164 A  
HETATM   21  C   UNL     1      -8.314  14.561  68.681  1.00  0.00    -0.164 C  
ENDBRANCH  11  14
ENDBRANCH   9  10
ENDBRANCH   3   4
ENDBRANCH   2   3
TORSDOF 4
ENDMDL
MODEL        6
REMARK 921   NORMALIZED FREE ENERGY PREDICTED BY IDOCK:   -5.76 KCAL/MOL
REMARK 922        TOTAL FREE ENERGY PREDICTED BY IDOCK:   -7.64 KCAL/MOL
REMARK 923 INTER-LIGAND FREE ENERGY PREDICTED BY IDOCK:   -7.19 KCAL/MOL
REMARK 924 INTRA-LIGAND FREE ENERGY PREDICTED BY IDOCK:   -0.44 KCAL/MOL
REMARK 927      BINDING AFFINITY PREDICTED BY RF-SCORE:    0.00 PKD
ROOT
HETATM    1  C   UNL     1     -10.167  13.957  65.678  1.00  0.00    -0.344 C  
HETATM    2  C   UNL     1     -10.784  15.265  65.203  1.00  0.00    -0.455 C  
ENDROOT
BRANCH   2   3
HETATM    3  C   UNL     1     -10.446  16.421  66.158  1.00  0.00    -0.314 C  
BRANCH   3   4
HETATM    4  N   UNL     1      -9.345  16.109  67.098  1.00  0.00    -0.212 NA 
HETATM    5  C   UNL     1      -8.058  16.718  66.685  1.00  0.00    -0.265 C  
HETATM    6  C   UNL     1      -8.043  18.249  66.749  1.00  0.00    -0.268 C  
HETATM    7  C   UNL     1      -8.395  18.743  68.147  1.00  0.00    -0.334 C  
HETATM    8  C   UNL     1      -9.672  18.092  68.659  1.00  0.00    -0.367 C  
HETATM    9  C   UNL     1      -9.635  16.563  68.499  1.00  0.00    -0.233 C  
BRANCH   9  10
HETATM   10  C   UNL     1     -10.911  15.920  69.079  1.00  0.00    -0.277 C  
HETATM   11  N   UNL     1     -10.647  15.016  70.100  1.00  0.00    -0.473 N  
HETATM   12  O   UNL     1     -12.034  16.214  68.674  1.00  0.00    -0.254 OA 
HETATM   13  H   UNL     1      -9.676  14.805  70.331  1.00  0.00     0.000 HD 
BRANCH  11  14
HETATM   14  C   UNL     1     -11.678  14.377  70.831  1.00  0.00    -0.221 A  
HETATM   15  C   UNL     1     -12.065  13.063  70.484  1.00  0.00    -0.373 A  
HETATM   16  C   UNL     1     -11.578  12.335  69.260  1.00  0.00    -0.383 C  
HETATM   17  C   UNL     1     -13.064  12.424  71.241  1.00  0.00    -0.218 A  
HETATM   18  C   UNL     1     -13.656  13.054  72.332  1.00  0.00    -0.628 A  
HETATM   19  C   UNL     1     -13.262  14.339  72.683  1.00  0.00    -0.601 A  
HETATM   20  C   UNL     1     -12.268  15.013  71.950  1.00  0.00    -0.427 A  
HETATM   21  C   UNL     1     -11.860  16.382  72.428  1.00  0.00    -0.548 C  
ENDBRANCH  11  14
ENDBRANCH   9  10
ENDBRANCH   3   4
ENDBRANCH   2   3
TORSDOF 4
ENDMDL
MODEL        7
REMARK 921   NORMALIZED FREE ENERGY PREDICTED BY IDOCK:   -5.76 KCAL/MOL
REMARK 922        TOTAL FREE ENERGY PREDICTED BY IDOCK:   -7.63 KCAL/MOL
REMARK 923 INTER-LIGAND FREE ENERGY PREDICTED BY IDOCK:   -7.00 KCAL/MOL
REMARK 924 INTRA-LIGAND FREE ENERGY PREDICTED BY IDOCK:   -0.64 KCAL/MOL
REMARK 927      BINDING AFFINITY PREDICTED BY RF-SCORE:    0.00 PKD
ROOT
HETATM    1  C   UNL     1     -14.328  14.750  71.721  1.00  0.00    -0.656 C  
HETATM    2  C   UNL     1     -13.157  15.438  71.035  1.00  0.00    -0.565 C  
ENDROOT
BRANCH   2   3
HETATM    3  C   UNL     1     -12.196  14.414  70.408  1.00  0.00    -0.338 C  
BRANCH   3   4
HETATM    4  N   UNL     1     -12.016  14.591  68.948  1.00  0.00    -0.310 NA 
HETATM    5  C   UNL     1     -11.569  15.958  68.594  1.00  0.00    -0.380 C  
HETATM    6  C   UNL     1     -10.157  16.301  69.084  1.00  0.00    -0.264 C  
HETATM    7  C   UNL     1      -9.136  15.298  68.561  1.00  0.00    -0.192 C  
HETATM    8  C   UNL     1      -9.579  13.866  68.828  1.00  0.00    -0.073 C  
HETATM    9  C   UNL     1     -11.026  13.623  68.368  1.00  0.00    -0.262 C  
BRANCH   9  10
HETATM   10  C   UNL     1     -11.432  12.152  68.592  1.00  0.00    -0.296 C  
HETATM   11  N   UNL     1     -10.816  11.582  69.698  1.00  0.00    -0.458 N  
HETATM   12  O   UNL     1     -12.239  11.578  67.863  1.00  0.00    -0.586 OA 
HETATM   13  H   UNL     1     -10.125  12.129  70.212  1.00  0.00     0.000 HD 
BRANCH  11  14
HETATM   14  C   UNL     1     -11.113  10.269  70.138  1.00  0.00    -0.319 A  
HETATM   15  C   UNL     1     -10.318   9.190  69.692  1.00  0.00    -0.226 A  
HETATM   16  C   UNL     1      -9.263   9.303  68.624  1.00  0.00    -0.135 C  
HETATM   17  C   UNL     1     -10.599   7.894  70.164  1.00  0.00    -0.237 A  
HETATM   18  C   UNL     1     -11.625   7.666  71.075  1.00  0.00    -0.301 A  
HETATM   19  C   UNL     1     -12.395   8.731  71.527  1.00  0.00    -0.380 A  
HETATM   20  C   UNL     1     -12.148  10.041  71.077  1.00  0.00    -0.469 A  
HETATM   21  C   UNL     1     -12.992  11.146  71.656  1.00  0.00    -0.548 C  
ENDBRANCH  11  14
ENDBRANCH   9  10
ENDBRANCH   3   4
ENDBRANCH   2   3
TORSDOF 4
ENDMDL
MODEL        8
REMARK 921   NORMALIZED FREE ENERGY PREDICTED BY IDOCK:   -5.75 KCAL/MOL
REMARK 922        TOTAL FREE ENERGY PREDICTED BY IDOCK:   -7.62 KCAL/MOL
REMARK 923 INTER-LIGAND FREE ENERGY PREDICTED BY IDOCK:   -7.64 KCAL/MOL
REMARK 924 INTRA-LIGAND FREE ENERGY PREDICTED BY IDOCK:    0.02 KCAL/MOL
REMARK 927      BINDING AFFINITY PREDICTED BY RF-SCORE:    0.00 PKD
ROOT
HETATM    1  C   UNL     1     -12.341  12.232  63.534  1.00  0.00    -0.670 C  
HETATM    2  C   UNL     1     -11.298  12.073  64.630  1.00  0.00    -0.377 C  
ENDROOT
BRANCH   2   3
HETATM    3  C   UNL     1     -11.671  12.887  65.880  1.00  0.00    -0.399 C  
BRANCH   3   4
HETATM    4  N   UNL     1     -10.516  13.181  66.760  1.00  0.00    -0.259 NA 
HETATM    5  C   UNL     1      -9.848  14.456  66.411  1.00  0.00    -0.295 C  
HETATM    6  C   UNL     1     -10.706  15.701  66.667  1.00  0.00    -0.296 C  
HETATM    7  C   UNL     1     -11.161  15.765  68.119  1.00  0.00    -0.344 C  
HETATM    8  C   UNL     1     -11.790  14.450  68.561  1.00  0.00    -0.369 C  
HETATM    9  C   UNL     1     -10.898  13.247  68.210  1.00  0.00    -0.256 C  
BRANCH   9  10
HETATM   10  C   UNL     1     -11.525  11.933  68.720  1.00  0.00    -0.290 C  
HETATM   11  N   UNL     1     -11.204  11.657  70.042  1.00  0.00    -0.489 N  
HETATM   12  O   UNL     1     -12.247  11.235  68.011  1.00  0.00    -0.621 OA 
HETATM   13  H   UNL     1     -10.558  12.276  70.531  1.00  0.00     0.000 HD 
BRANCH  11  14
HETATM   14  C   UNL     1     -11.745  10.547  70.736  1.00  0.00    -0.356 A  
HETATM   15  C   UNL     1     -11.136   9.279  70.602  1.00  0.00    -0.335 A  
HETATM   16  C   UNL     1     -10.038   8.970  69.619  1.00  0.00    -0.202 C  
HETATM   17  C   UNL     1     -11.658   8.191  71.324  1.00  0.00    -0.305 A  
HETATM   18  C   UNL     1     -12.743   8.350  72.182  1.00  0.00    -0.399 A  
HETATM   19  C   UNL     1     -13.329   9.600  72.328  1.00  0.00    -0.498 A  
HETATM   20  C   UNL     1     -12.838  10.713  71.620  1.00  0.00    -0.570 A  
HETATM   21  C   UNL     1     -13.495  12.044  71.876  1.00  0.00    -0.305 C  
ENDBRANCH  11  14
ENDBRANCH   9  10
ENDBRANCH   3   4
ENDBRANCH   2   3
TORSDOF 4
ENDMDL
MODEL        9
REMARK 921   NORMALIZED FREE ENERGY PREDICTED BY IDOCK:   -5.71 KCAL/MOL
REMARK 922        TOTAL FREE ENERGY PREDICTED BY IDOCK:   -7.57 KCAL/MOL
REMARK 923 INTER-LIGAND FREE ENERGY PREDICTED BY IDOCK:   -6.80 KCAL/MOL
REMARK 924 INTRA-LIGAND FREE ENERGY PREDICTED BY IDOCK:   -0.78 KCAL/MOL
REMARK 927      BINDING AFFINITY PREDICTED BY RF-SCORE:    0.00 PKD
ROOT
HETATM    1  C   UNL     1     -11.828  12.701  64.371  1.00  0.00    -0.452 C  
HETATM    2  C   UNL     1     -10.477  13.361  64.601  1.00  0.00    -0.428 C  
ENDROOT
BRANCH   2   3
HETATM    3  C   UNL     1      -9.911  13.010  65.987  1.00  0.00    -0.276 C  
BRANCH   3   4
HETATM    4  N   UNL     1      -9.969  11.564  66.299  1.00  0.00    -0.213 NA 
HETATM    5  C   UNL     1      -8.790  10.826  65.788  1.00  0.00    -0.188 C  
HETATM    6  C   UNL     1      -7.473  11.199  66.478  1.00  0.00    -0.131 C  
HETATM    7  C   UNL     1      -7.566  10.995  67.985  1.00  0.00    -0.092 C  
HETATM    8  C   UNL     1      -8.805  11.668  68.560  1.00  0.00    -0.131 C  
HETATM    9  C   UNL     1     -10.072  11.294  67.772  1.00  0.00    -0.179 C  
BRANCH   9  10
HETATM   10  C   UNL     1     -11.322  11.938  68.407  1.00  0.00    -0.276 C  
HETATM   11  N   UNL     1     -11.070  12.495  69.654  1.00  0.00    -0.472 N  
HETATM   12  O   UNL     1     -12.409  11.959  67.834  1.00  0.00    -0.367 OA 
HETATM   13  H   UNL     1     -10.144  12.384  70.065  1.00  0.00     0.000 HD 
BRANCH  11  14
HETATM   14  C   UNL     1     -12.055  13.214  70.375  1.00  0.00    -0.317 A  
HETATM   15  C   UNL     1     -12.814  12.551  71.365  1.00  0.00    -0.359 A  
HETATM   16  C   UNL     1     -12.780  11.064  71.600  1.00  0.00    -0.483 C  
HETATM   17  C   UNL     1     -13.764  13.283  72.101  1.00  0.00    -0.619 A  
HETATM   18  C   UNL     1     -13.948  14.645  71.885  1.00  0.00    -0.573 A  
HETATM   19  C   UNL     1     -13.189  15.300  70.924  1.00  0.00    -0.506 A  
HETATM   20  C   UNL     1     -12.230  14.603  70.165  1.00  0.00    -0.391 A  
HETATM   21  C   UNL     1     -11.411  15.397  69.182  1.00  0.00    -0.344 C  
ENDBRANCH  11  14
ENDBRANCH   9  10
ENDBRANCH   3   4
ENDBRANCH   2   3
TORSDOF 4
ENDMDL
MODEL       10
REMARK 921   NORMALIZED FREE ENERGY PREDICTED BY IDOCK:   -5.71 KCAL/MOL
REMARK 922        TOTAL FREE ENERGY PREDICTED BY IDOCK:   -7.57 KCAL/MOL
REMARK 923 INTER-LIGAND FREE ENERGY PREDICTED BY IDOCK:   -6.85 KCAL/MOL
REMARK 924 INTRA-LIGAND FREE ENERGY PREDICTED BY IDOCK:   -0.71 KCAL/MOL
REMARK 927      BINDING AFFINITY PREDICTED BY RF-SCORE:    0.00 PKD
ROOT
HETATM    1  C   UNL     1     -11.040   7.868  72.580  1.00  0.00    -0.447 C  
HETATM    2  C   UNL     1      -9.927   8.539  71.788  1.00  0.00    -0.345 C  
ENDROOT
BRANCH   2   3
HETATM    3  C   UNL     1     -10.383   8.874  70.358  1.00  0.00    -0.204 C  
BRANCH   3   4
HETATM    4  N   UNL     1      -9.504   9.849  69.672  1.00  0.00    -0.220 NA 
HETATM    5  C   UNL     1      -8.281   9.219  69.121  1.00  0.00    -0.111 C  
HETATM    6  C   UNL     1      -8.546   8.238  67.973  1.00  0.00    -0.132 C  
HETATM    7  C   UNL     1      -9.306   8.914  66.838  1.00  0.00    -0.213 C  
HETATM    8  C   UNL     1     -10.536   9.647  67.354  1.00  0.00    -0.333 C  
HETATM    9  C   UNL     1     -10.198  10.559  68.545  1.00  0.00    -0.174 C  
BRANCH   9  10
HETATM   10  C   UNL     1     -11.445  11.336  69.013  1.00  0.00    -0.302 C  
HETATM   11  N   UNL     1     -11.206  12.122  70.133  1.00  0.00    -0.406 N  
HETATM   12  O   UNL     1     -12.520  11.264  68.421  1.00  0.00    -0.403 OA 
HETATM   13  H   UNL     1     -10.290  12.076  70.579  1.00  0.00     0.000 HD 
BRANCH  11  14
HETATM   14  C   UNL     1     -12.189  12.985  70.676  1.00  0.00    -0.307 A  
HETATM   15  C   UNL     1     -13.078  12.495  71.659  1.00  0.00    -0.414 A  
HETATM   16  C   UNL     1     -13.180  11.047  72.058  1.00  0.00    -0.447 C  
HETATM   17  C   UNL     1     -14.026  13.370  72.219  1.00  0.00    -0.605 A  
HETATM   18  C   UNL     1     -14.085  14.707  71.839  1.00  0.00    -0.606 A  
HETATM   19  C   UNL     1     -13.199  15.193  70.886  1.00  0.00    -0.488 A  
HETATM   20  C   UNL     1     -12.237  14.349  70.300  1.00  0.00    -0.397 A  
HETATM   21  C   UNL     1     -11.278  14.965  69.315  1.00  0.00    -0.300 C  
ENDBRANCH  11  14
ENDBRANCH   9  10
ENDBRANCH   3   4
ENDBRANCH   2   3
TORSDOF 4
ENDMDL
MODEL       11
REMARK 921   NORMALIZED FREE ENERGY PREDICTED BY IDOCK:   -5.69 KCAL/MOL
REMARK 922        TOTAL FREE ENERGY PREDICTED BY IDOCK:   -7.54 KCAL/MOL
REMARK 923 INTER-LIGAND FREE ENERGY PREDICTED BY IDOCK:   -6.68 KCAL/MOL
REMARK 924 INTRA-LIGAND FREE ENERGY PREDICTED BY IDOCK:   -0.87 KCAL/MOL
REMARK 927      BINDING AFFINITY PREDICTED BY RF-SCORE:    0.00 PKD
ROOT
HETATM    1  C   UNL     1     -10.692  18.638  67.580  1.00  0.00    -0.428 C  
HETATM    2  C   UNL     1     -10.397  17.181  67.255  1.00  0.00    -0.320 C  
ENDROOT
BRANCH   2   3
HETATM    3  C   UNL     1     -11.282  16.233  68.081  1.00  0.00    -0.298 C  
BRANCH   3   4
HETATM    4  N   UNL     1     -10.568  15.589  69.207  1.00  0.00    -0.220 NA 
HETATM    5  C   UNL     1     -11.047  16.062  70.527  1.00  0.00    -0.353 C  
HETATM    6  C   UNL     1     -12.489  15.652  70.851  1.00  0.00    -0.497 C  
HETATM    7  C   UNL     1     -12.659  14.140  70.778  1.00  0.00    -0.432 C  
HETATM    8  C   UNL     1     -12.112  13.583  69.471  1.00  0.00    -0.352 C  
HETATM    9  C   UNL     1     -10.689  14.093  69.187  1.00  0.00    -0.194 C  
BRANCH   9  10
HETATM   10  C   UNL     1     -10.132  13.469  67.891  1.00  0.00    -0.248 C  
HETATM   11  N   UNL     1     -11.075  12.715  67.204  1.00  0.00    -0.268 N  
HETATM   12  O   UNL     1      -8.976  13.657  67.519  1.00  0.00    -0.188 OA 
HETATM   13  H   UNL     1     -11.996  12.581  67.620  1.00  0.00     0.000 HD 
BRANCH  11  14
HETATM   14  C   UNL     1     -10.802  12.127  65.945  1.00  0.00    -0.278 A  
HETATM   15  C   UNL     1     -11.059  12.860  64.764  1.00  0.00    -0.337 A  
HETATM   16  C   UNL     1     -11.780  14.181  64.731  1.00  0.00    -0.416 C  
HETATM   17  C   UNL     1     -10.750  12.280  63.520  1.00  0.00    -0.497 A  
HETATM   18  C   UNL     1     -10.176  11.015  63.437  1.00  0.00    -0.404 A  
HETATM   19  C   UNL     1      -9.906  10.303  64.598  1.00  0.00    -0.396 A  
HETATM   20  C   UNL     1     -10.204  10.847  65.862  1.00  0.00    -0.314 A  
HETATM   21  C   UNL     1      -9.831  10.033  67.074  1.00  0.00    -0.238 C  
ENDBRANCH  11  14
ENDBRANCH   9  10
ENDBRANCH   3   4
ENDBRANCH   2   3
TORSDOF 4
ENDMDL
MODEL       12
REMARK 921   NORMALIZED FREE ENERGY PREDICTED BY IDOCK:   -5.68 KCAL/MOL
REMARK 922        TOTAL FREE ENERGY PREDICTED BY IDOCK:   -7.54 KCAL/MOL
REMARK 923 INTER-LIGAND FREE ENERGY PREDICTED BY IDOCK:   -7.12 KCAL/MOL
REMARK 924 INTRA-LIGAND FREE ENERGY PREDICTED BY IDOCK:   -0.42 KCAL/MOL
REMARK 927      BINDING AFFINITY PREDICTED BY RF-SCORE:    0.00 PKD
ROOT
HETATM    1  C   UNL     1     -12.476  15.853  72.228  1.00  0.00    -0.543 C  
HETATM    2  C   UNL     1     -12.790  15.394  70.812  1.00  0.00    -0.524 C  
ENDROOT
BRANCH   2   3
HETATM    3  C   UNL     1     -11.682  14.483  70.259  1.00  0.00    -0.293 C  
BRANCH   3   4
HETATM    4  N   UNL     1     -11.642  14.432  68.780  1.00  0.00    -0.296 NA 
HETATM    5  C   UNL     1     -11.030  15.645  68.188  1.00  0.00    -0.314 C  
HETATM    6  C   UNL     1      -9.536  15.804  68.494  1.00  0.00    -0.201 C  
HETATM    7  C   UNL     1      -8.749  14.582  68.036  1.00  0.00    -0.167 C  
HETATM    8  C   UNL     1      -9.377  13.294  68.551  1.00  0.00    -0.091 C  
HETATM    9  C   UNL     1     -10.887  13.242  68.263  1.00  0.00    -0.256 C  
BRANCH   9  10
HETATM   10  C   UNL     1     -11.490  11.905  68.738  1.00  0.00    -0.290 C  
HETATM   11  N   UNL     1     -11.062  11.538  70.008  1.00  0.00    -0.469 N  
HETATM   12  O   UNL     1     -12.283  11.264  68.051  1.00  0.00    -0.621 OA 
HETATM   13  H   UNL     1     -10.365  12.115  70.477  1.00  0.00     0.000 HD 
BRANCH  11  14
HETATM   14  C   UNL     1     -11.559  10.391  70.672  1.00  0.00    -0.349 A  
HETATM   15  C   UNL     1     -12.672  10.515  71.534  1.00  0.00    -0.558 A  
HETATM   16  C   UNL     1     -13.277  11.830  71.948  1.00  0.00    -0.468 C  
HETATM   17  C   UNL     1     -13.182   9.363  72.161  1.00  0.00    -0.541 A  
HETATM   18  C   UNL     1     -12.625   8.109  71.927  1.00  0.00    -0.368 A  
HETATM   19  C   UNL     1     -11.543   7.985  71.065  1.00  0.00    -0.303 A  
HETATM   20  C   UNL     1     -11.002   9.114  70.421  1.00  0.00    -0.290 A  
HETATM   21  C   UNL     1      -9.864   8.887  69.461  1.00  0.00    -0.180 C  
ENDBRANCH  11  14
ENDBRANCH   9  10
ENDBRANCH   3   4
ENDBRANCH   2   3
TORSDOF 4
ENDMDL
MODEL       13
REMARK 921   NORMALIZED FREE ENERGY PREDICTED BY IDOCK:   -5.68 KCAL/MOL
REMARK 922        TOTAL FREE ENERGY PREDICTED BY IDOCK:   -7.53 KCAL/MOL
REMARK 923 INTER-LIGAND FREE ENERGY PREDICTED BY IDOCK:   -7.43 KCAL/MOL
REMARK 924 INTRA-LIGAND FREE ENERGY PREDICTED BY IDOCK:   -0.10 KCAL/MOL
REMARK 927      BINDING AFFINITY PREDICTED BY RF-SCORE:    0.00 PKD
ROOT
HETATM    1  C   UNL     1      -6.424  19.872  68.235  1.00  0.00    -0.304 C  
HETATM    2  C   UNL     1      -7.433  19.256  69.193  1.00  0.00    -0.324 C  
ENDROOT
BRANCH   2   3
HETATM    3  C   UNL     1      -8.330  18.231  68.477  1.00  0.00    -0.310 C  
BRANCH   3   4
HETATM    4  N   UNL     1      -9.773  18.556  68.550  1.00  0.00    -0.350 NA 
HETATM    5  C   UNL     1     -10.059  19.955  68.154  1.00  0.00    -0.441 C  
HETATM    6  C   UNL     1      -9.789  20.252  66.674  1.00  0.00    -0.562 C  
HETATM    7  C   UNL     1     -10.581  19.313  65.773  1.00  0.00    -0.450 C  
HETATM    8  C   UNL     1     -10.387  17.859  66.181  1.00  0.00    -0.352 C  
HETATM    9  C   UNL     1     -10.612  17.657  67.689  1.00  0.00    -0.362 C  
BRANCH   9  10
HETATM   10  C   UNL     1     -10.470  16.169  68.070  1.00  0.00    -0.281 C  
HETATM   11  N   UNL     1     -11.693  15.545  68.279  1.00  0.00    -0.422 N  
HETATM   12  O   UNL     1      -9.375  15.616  68.150  1.00  0.00    -0.191 OA 
HETATM   13  H   UNL     1     -12.544  16.104  68.234  1.00  0.00     0.000 HD 
BRANCH  11  14
HETATM   14  C   UNL     1     -11.798  14.159  68.552  1.00  0.00    -0.355 A  
HETATM   15  C   UNL     1     -11.661  13.231  67.496  1.00  0.00    -0.410 A  
HETATM   16  C   UNL     1     -11.584  13.611  66.041  1.00  0.00    -0.358 C  
HETATM   17  C   UNL     1     -11.730  11.855  67.783  1.00  0.00    -0.362 A  
HETATM   18  C   UNL     1     -11.906  11.399  69.086  1.00  0.00    -0.413 A  
HETATM   19  C   UNL     1     -12.023  12.312  70.126  1.00  0.00    -0.377 A  
HETATM   20  C   UNL     1     -11.962  13.697  69.880  1.00  0.00    -0.415 A  
HETATM   21  C   UNL     1     -12.042  14.618  71.068  1.00  0.00    -0.393 C  
ENDBRANCH  11  14
ENDBRANCH   9  10
ENDBRANCH   3   4
ENDBRANCH   2   3
TORSDOF 4
ENDMDL
MODEL       14
REMARK 921   NORMALIZED FREE ENERGY PREDICTED BY IDOCK:   -5.67 KCAL/MOL
REMARK 922        TOTAL FREE ENERGY PREDICTED BY IDOCK:   -7.53 KCAL/MOL
REMARK 923 INTER-LIGAND FREE ENERGY PREDICTED BY IDOCK:   -6.58 KCAL/MOL
REMARK 924 INTRA-LIGAND FREE ENERGY PREDICTED BY IDOCK:   -0.95 KCAL/MOL
REMARK 927      BINDING AFFINITY PREDICTED BY RF-SCORE:    0.00 PKD
ROOT
HETATM    1  C   UNL     1     -10.755   6.932  72.802  1.00  0.00    -0.286 C  
HETATM    2  C   UNL     1     -11.772   6.186  71.951  1.00  0.00    -0.337 C  
ENDROOT
BRANCH   2   3
HETATM    3  C   UNL     1     -11.713   6.640  70.483  1.00  0.00    -0.394 C  
BRANCH   3   4
HETATM    4  N   UNL     1     -10.335   6.738  69.950  1.00  0.00    -0.197 NA 
HETATM    5  C   UNL     1      -9.971   5.579  69.102  1.00  0.00    -0.190 C  
HETATM    6  C   UNL     1     -10.762   5.492  67.792  1.00  0.00    -0.186 C  
HETATM    7  C   UNL     1     -10.610   6.768  66.973  1.00  0.00    -0.405 C  
HETATM    8  C   UNL     1     -10.896   8.004  67.815  1.00  0.00    -0.081 C  
HETATM    9  C   UNL     1     -10.116   7.983  69.140  1.00  0.00    -0.201 C  
BRANCH   9  10
HETATM   10  C   UNL     1     -10.374   9.271  69.948  1.00  0.00    -0.220 C  
HETATM   11  N   UNL     1     -11.525   9.938  69.551  1.00  0.00    -0.435 N  
HETATM   12  O   UNL     1      -9.631   9.631  70.859  1.00  0.00    -0.207 OA 
HETATM   13  H   UNL     1     -12.049   9.582  68.752  1.00  0.00     0.000 HD 
BRANCH  11  14
HETATM   14  C   UNL     1     -11.997  11.095  70.218  1.00  0.00    -0.373 A  
HETATM   15  C   UNL     1     -11.725  12.370  69.674  1.00  0.00    -0.377 A  
HETATM   16  C   UNL     1     -10.803  12.612  68.509  1.00  0.00    -0.279 C  
HETATM   17  C   UNL     1     -12.230  13.511  70.324  1.00  0.00    -0.417 A  
HETATM   18  C   UNL     1     -13.008  13.401  71.472  1.00  0.00    -0.429 A  
HETATM   19  C   UNL     1     -13.290  12.146  71.996  1.00  0.00    -0.470 A  
HETATM   20  C   UNL     1     -12.801  10.981  71.377  1.00  0.00    -0.548 A  
HETATM   21  C   UNL     1     -13.197   9.657  71.977  1.00  0.00    -0.546 C  
ENDBRANCH  11  14
ENDBRANCH   9  10
ENDBRANCH   3   4
ENDBRANCH   2   3
TORSDOF 4
ENDMDL
MODEL       15
REMARK 921   NORMALIZED FREE ENERGY PREDICTED BY IDOCK:   -5.64 KCAL/MOL
REMARK 922        TOTAL FREE ENERGY PREDICTED BY IDOCK:   -7.49 KCAL/MOL
REMARK 923 INTER-LIGAND FREE ENERGY PREDICTED BY IDOCK:   -6.73 KCAL/MOL
REMARK 924 INTRA-LIGAND FREE ENERGY PREDICTED BY IDOCK:   -0.76 KCAL/MOL
REMARK 927      BINDING AFFINITY PREDICTED BY RF-SCORE:    0.00 PKD
ROOT
HETATM    1  C   UNL     1      -6.150  19.141  68.127  1.00  0.00    -0.232 C  
HETATM    2  C   UNL     1      -7.154  18.491  69.069  1.00  0.00    -0.282 C  
ENDROOT
BRANCH   2   3
HETATM    3  C   UNL     1      -8.269  17.775  68.289  1.00  0.00    -0.285 C  
BRANCH   3   4
HETATM    4  N   UNL     1      -9.623  18.305  68.575  1.00  0.00    -0.329 NA 
HETATM    5  C   UNL     1      -9.682  19.783  68.488  1.00  0.00    -0.371 C  
HETATM    6  C   UNL     1      -9.468  20.335  67.074  1.00  0.00    -0.546 C  
HETATM    7  C   UNL     1     -10.475  19.743  66.096  1.00  0.00    -0.613 C  
HETATM    8  C   UNL     1     -10.516  18.224  66.193  1.00  0.00    -0.403 C  
HETATM    9  C   UNL     1     -10.666  17.751  67.648  1.00  0.00    -0.322 C  
BRANCH   9  10
HETATM   10  C   UNL     1     -10.766  16.213  67.718  1.00  0.00    -0.325 C  
HETATM   11  N   UNL     1     -10.335  15.590  66.554  1.00  0.00    -0.280 N  
HETATM   12  O   UNL     1     -11.168  15.629  68.721  1.00  0.00    -0.289 OA 
HETATM   13  H   UNL     1     -10.064  16.167  65.758  1.00  0.00     0.000 HD 
BRANCH  11  14
HETATM   14  C   UNL     1     -10.259  14.181  66.434  1.00  0.00    -0.290 A  
HETATM   15  C   UNL     1      -9.103  13.506  66.888  1.00  0.00    -0.246 A  
HETATM   16  C   UNL     1      -7.845  14.198  67.339  1.00  0.00    -0.195 C  
HETATM   17  C   UNL     1      -9.052  12.103  66.798  1.00  0.00    -0.205 A  
HETATM   18  C   UNL     1     -10.126  11.374  66.295  1.00  0.00    -0.263 A  
HETATM   19  C   UNL     1     -11.269  12.036  65.866  1.00  0.00    -0.385 A  
HETATM   20  C   UNL     1     -11.357  13.440  65.937  1.00  0.00    -0.327 A  
HETATM   21  C   UNL     1     -12.651  14.077  65.502  1.00  0.00    -0.543 C  
ENDBRANCH  11  14
ENDBRANCH   9  10
ENDBRANCH   3   4
ENDBRANCH   2   3
TORSDOF 4
ENDMDL
MODEL       16
REMARK 921   NORMALIZED FREE ENERGY PREDICTED BY IDOCK:   -5.63 KCAL/MOL
REMARK 922        TOTAL FREE ENERGY PREDICTED BY IDOCK:   -7.47 KCAL/MOL
REMARK 923 INTER-LIGAND FREE ENERGY PREDICTED BY IDOCK:   -6.73 KCAL/MOL
REMARK 924 INTRA-LIGAND FREE ENERGY PREDICTED BY IDOCK:   -0.75 KCAL/MOL
REMARK 927      BINDING AFFINITY PREDICTED BY RF-SCORE:    0.00 PKD
ROOT
HETATM    1  C   UNL     1     -11.102   7.325  72.769  1.00  0.00    -0.362 C  
HETATM    2  C   UNL     1     -11.747   6.311  71.836  1.00  0.00    -0.370 C  
ENDROOT
BRANCH   2   3
HETATM    3  C   UNL     1     -11.697   6.785  70.374  1.00  0.00    -0.363 C  
BRANCH   3   4
HETATM    4  N   UNL     1     -10.324   6.877  69.829  1.00  0.00    -0.199 NA 
HETATM    5  C   UNL     1      -9.968   5.709  68.988  1.00  0.00    -0.174 C  
HETATM    6  C   UNL     1     -10.770   5.611  67.686  1.00  0.00    -0.260 C  
HETATM    7  C   UNL     1     -10.624   6.879  66.854  1.00  0.00    -0.372 C  
HETATM    8  C   UNL     1     -10.902   8.123  67.687  1.00  0.00    -0.093 C  
HETATM    9  C   UNL     1     -10.110   8.113  69.005  1.00  0.00    -0.205 C  
BRANCH   9  10
HETATM   10  C   UNL     1     -10.360   9.409  69.804  1.00  0.00    -0.223 C  
HETATM   11  N   UNL     1     -11.553  10.034  69.463  1.00  0.00    -0.446 N  
HETATM   12  O   UNL     1      -9.578   9.809  70.664  1.00  0.00    -0.212 OA 
HETATM   13  H   UNL     1     -12.111   9.647  68.703  1.00  0.00     0.000 HD 
BRANCH  11  14
HETATM   14  C   UNL     1     -12.021  11.189  70.135  1.00  0.00    -0.365 A  
HETATM   15  C   UNL     1     -12.758  11.047  71.332  1.00  0.00    -0.534 A  
HETATM   16  C   UNL     1     -13.248   9.729  71.870  1.00  0.00    -0.545 C  
HETATM   17  C   UNL     1     -13.187  12.202  72.012  1.00  0.00    -0.496 A  
HETATM   18  C   UNL     1     -12.876  13.473  71.539  1.00  0.00    -0.440 A  
HETATM   19  C   UNL     1     -12.135  13.613  70.372  1.00  0.00    -0.421 A  
HETATM   20  C   UNL     1     -11.690  12.482  69.662  1.00  0.00    -0.372 A  
HETATM   21  C   UNL     1     -10.847  12.719  68.436  1.00  0.00    -0.272 C  
ENDBRANCH  11  14
ENDBRANCH   9  10
ENDBRANCH   3   4
ENDBRANCH   2   3
TORSDOF 4
ENDMDL
MODEL       17
REMARK 921   NORMALIZED FREE ENERGY PREDICTED BY IDOCK:   -5.63 KCAL/MOL
REMARK 922        TOTAL FREE ENERGY PREDICTED BY IDOCK:   -7.47 KCAL/MOL
REMARK 923 INTER-LIGAND FREE ENERGY PREDICTED BY IDOCK:   -6.80 KCAL/MOL
REMARK 924 INTRA-LIGAND FREE ENERGY PREDICTED BY IDOCK:   -0.67 KCAL/MOL
REMARK 927      BINDING AFFINITY PREDICTED BY RF-SCORE:    0.00 PKD
ROOT
HETATM    1  C   UNL     1      -9.987   9.808  65.809  1.00  0.00    -0.349 C  
HETATM    2  C   UNL     1      -9.073  11.024  65.762  1.00  0.00    -0.219 C  
ENDROOT
BRANCH   2   3
HETATM    3  C   UNL     1      -9.876  12.332  65.865  1.00  0.00    -0.251 C  
BRANCH   3   4
HETATM    4  N   UNL     1      -9.499  13.166  67.029  1.00  0.00    -0.234 NA 
HETATM    5  C   UNL     1      -8.849  14.436  66.628  1.00  0.00    -0.159 C  
HETATM    6  C   UNL     1      -9.777  15.407  65.889  1.00  0.00    -0.392 C  
HETATM    7  C   UNL     1     -11.012  15.727  66.721  1.00  0.00    -0.192 C  
HETATM    8  C   UNL     1     -11.683  14.458  67.228  1.00  0.00    -0.429 C  
HETATM    9  C   UNL     1     -10.674  13.510  67.898  1.00  0.00    -0.247 C  
BRANCH   9  10
HETATM   10  C   UNL     1     -11.384  12.260  68.457  1.00  0.00    -0.286 C  
HETATM   11  N   UNL     1     -10.931  11.899  69.719  1.00  0.00    -0.462 N  
HETATM   12  O   UNL     1     -12.271  11.679  67.835  1.00  0.00    -0.560 OA 
HETATM   13  H   UNL     1     -10.157  12.418  70.131  1.00  0.00     0.000 HD 
BRANCH  11  14
HETATM   14  C   UNL     1     -11.508  10.834  70.454  1.00  0.00    -0.307 A  
HETATM   15  C   UNL     1     -12.611  11.090  71.299  1.00  0.00    -0.517 A  
HETATM   16  C   UNL     1     -13.124  12.468  71.623  1.00  0.00    -0.414 C  
HETATM   17  C   UNL     1     -13.200  10.020  71.996  1.00  0.00    -0.545 A  
HETATM   18  C   UNL     1     -12.730   8.718  71.848  1.00  0.00    -0.427 A  
HETATM   19  C   UNL     1     -11.658   8.464  71.002  1.00  0.00    -0.307 A  
HETATM   20  C   UNL     1     -11.040   9.509  70.289  1.00  0.00    -0.317 A  
HETATM   21  C   UNL     1      -9.919   9.142  69.353  1.00  0.00    -0.192 C  
ENDBRANCH  11  14
ENDBRANCH   9  10
ENDBRANCH   3   4
ENDBRANCH   2   3
TORSDOF 4
ENDMDL
MODEL       18
REMARK 921   NORMALIZED FREE ENERGY PREDICTED BY IDOCK:   -5.61 KCAL/MOL
REMARK 922        TOTAL FREE ENERGY PREDICTED BY IDOCK:   -7.44 KCAL/MOL
REMARK 923 INTER-LIGAND FREE ENERGY PREDICTED BY IDOCK:   -6.76 KCAL/MOL
REMARK 924 INTRA-LIGAND FREE ENERGY PREDICTED BY IDOCK:   -0.69 KCAL/MOL
REMARK 927      BINDING AFFINITY PREDICTED BY RF-SCORE:    0.00 PKD
ROOT
HETATM    1  C   UNL     1      -6.133  19.079  68.106  1.00  0.00    -0.228 C  
HETATM    2  C   UNL     1      -7.267  18.761  69.070  1.00  0.00    -0.309 C  
ENDROOT
BRANCH   2   3
HETATM    3  C   UNL     1      -8.316  17.846  68.416  1.00  0.00    -0.304 C  
BRANCH   3   4
HETATM    4  N   UNL     1      -9.708  18.314  68.605  1.00  0.00    -0.352 NA 
HETATM    5  C   UNL     1      -9.833  19.786  68.480  1.00  0.00    -0.404 C  
HETATM    6  C   UNL     1      -9.557  20.318  67.069  1.00  0.00    -0.572 C  
HETATM    7  C   UNL     1     -10.472  19.657  66.045  1.00  0.00    -0.622 C  
HETATM    8  C   UNL     1     -10.446  18.141  66.175  1.00  0.00    -0.377 C  
HETATM    9  C   UNL     1     -10.664  17.691  67.630  1.00  0.00    -0.314 C  
BRANCH   9  10
HETATM   10  C   UNL     1     -10.695  16.152  67.730  1.00  0.00    -0.325 C  
HETATM   11  N   UNL     1     -10.396  15.526  66.527  1.00  0.00    -0.280 N  
HETATM   12  O   UNL     1     -10.939  15.570  68.784  1.00  0.00    -0.243 OA 
HETATM   13  H   UNL     1     -10.253  16.099  65.696  1.00  0.00     0.000 HD 
BRANCH  11  14
HETATM   14  C   UNL     1     -10.281  14.119  66.414  1.00  0.00    -0.290 A  
HETATM   15  C   UNL     1     -11.319  13.383  65.800  1.00  0.00    -0.322 A  
HETATM   16  C   UNL     1     -12.648  13.970  65.402  1.00  0.00    -0.529 C  
HETATM   17  C   UNL     1     -11.179  11.990  65.660  1.00  0.00    -0.377 A  
HETATM   18  C   UNL     1     -10.031  11.335  66.093  1.00  0.00    -0.268 A  
HETATM   19  C   UNL     1      -9.003  12.060  66.681  1.00  0.00    -0.204 A  
HETATM   20  C   UNL     1      -9.106  13.455  66.842  1.00  0.00    -0.237 A  
HETATM   21  C   UNL     1      -7.925  14.175  67.438  1.00  0.00    -0.201 C  
ENDBRANCH  11  14
ENDBRANCH   9  10
ENDBRANCH   3   4
ENDBRANCH   2   3
TORSDOF 4
ENDMDL
MODEL       19
REMARK 921   NORMALIZED FREE ENERGY PREDICTED BY IDOCK:   -5.60 KCAL/MOL
REMARK 922        TOTAL FREE ENERGY PREDICTED BY IDOCK:   -7.44 KCAL/MOL
REMARK 923 INTER-LIGAND FREE ENERGY PREDICTED BY IDOCK:   -6.70 KCAL/MOL
REMARK 924 INTRA-LIGAND FREE ENERGY PREDICTED BY IDOCK:   -0.74 KCAL/MOL
REMARK 927      BINDING AFFINITY PREDICTED BY RF-SCORE:    0.00 PKD
ROOT
HETATM    1  C   UNL     1     -10.969  16.673  64.916  1.00  0.00    -0.162 C  
HETATM    2  C   UNL     1     -11.637  15.355  64.549  1.00  0.00    -0.296 C  
ENDROOT
BRANCH   2   3
HETATM    3  C   UNL     1     -10.887  14.160  65.160  1.00  0.00    -0.372 C  
BRANCH   3   4
HETATM    4  N   UNL     1     -11.770  13.020  65.499  1.00  0.00    -0.348 NA 
HETATM    5  C   UNL     1     -12.067  12.165  64.325  1.00  0.00    -0.375 C  
HETATM    6  C   UNL     1     -10.850  11.411  63.778  1.00  0.00    -0.468 C  
HETATM    7  C   UNL     1     -10.203  10.555  64.860  1.00  0.00    -0.371 C  
HETATM    8  C   UNL     1      -9.943  11.362  66.124  1.00  0.00    -0.265 C  
HETATM    9  C   UNL     1     -11.193  12.140  66.569  1.00  0.00    -0.328 C  
BRANCH   9  10
HETATM   10  C   UNL     1     -10.925  12.902  67.883  1.00  0.00    -0.241 C  
HETATM   11  N   UNL     1     -12.083  13.399  68.467  1.00  0.00    -0.318 N  
HETATM   12  O   UNL     1      -9.794  13.022  68.351  1.00  0.00    -0.228 OA 
HETATM   13  H   UNL     1     -12.969  13.287  67.975  1.00  0.00     0.000 HD 
BRANCH  11  14
HETATM   14  C   UNL     1     -12.076  14.054  69.723  1.00  0.00    -0.348 A  
HETATM   15  C   UNL     1     -11.807  15.440  69.783  1.00  0.00    -0.367 A  
HETATM   16  C   UNL     1     -11.345  16.261  68.609  1.00  0.00    -0.333 C  
HETATM   17  C   UNL     1     -11.839  16.088  71.031  1.00  0.00    -0.435 A  
HETATM   18  C   UNL     1     -12.154  15.394  72.195  1.00  0.00    -0.489 A  
HETATM   19  C   UNL     1     -12.436  14.036  72.134  1.00  0.00    -0.217 A  
HETATM   20  C   UNL     1     -12.411  13.350  70.904  1.00  0.00    -0.439 A  
HETATM   21  C   UNL     1     -12.782  11.890  70.916  1.00  0.00    -0.301 C  
ENDBRANCH  11  14
ENDBRANCH   9  10
ENDBRANCH   3   4
ENDBRANCH   2   3
TORSDOF 4
ENDMDL
MODEL       20
REMARK 921   NORMALIZED FREE ENERGY PREDICTED BY IDOCK:   -5.55 KCAL/MOL
REMARK 922        TOTAL FREE ENERGY PREDICTED BY IDOCK:   -7.38 KCAL/MOL
REMARK 923 INTER-LIGAND FREE ENERGY PREDICTED BY IDOCK:   -6.44 KCAL/MOL
REMARK 924 INTRA-LIGAND FREE ENERGY PREDICTED BY IDOCK:   -0.94 KCAL/MOL
REMARK 927      BINDING AFFINITY PREDICTED BY RF-SCORE:    0.00 PKD
ROOT
HETATM    1  C   UNL     1      -9.139  17.447  68.188  1.00  0.00    -0.267 C  
HETATM    2  C   UNL     1     -10.445  17.227  67.439  1.00  0.00    -0.338 C  
ENDROOT
BRANCH   2   3
HETATM    3  C   UNL     1     -11.380  16.280  68.209  1.00  0.00    -0.280 C  
BRANCH   3   4
HETATM    4  N   UNL     1     -10.730  15.622  69.367  1.00  0.00    -0.232 NA 
HETATM    5  C   UNL     1     -11.304  16.059  70.661  1.00  0.00    -0.399 C  
HETATM    6  C   UNL     1     -12.757  15.619  70.880  1.00  0.00    -0.500 C  
HETATM    7  C   UNL     1     -12.896  14.107  70.765  1.00  0.00    -0.378 C  
HETATM    8  C   UNL     1     -12.254  13.587  69.486  1.00  0.00    -0.289 C  
HETATM    9  C   UNL     1     -10.824  14.125  69.308  1.00  0.00    -0.190 C  
BRANCH   9  10
HETATM   10  C   UNL     1     -10.172  13.539  68.039  1.00  0.00    -0.243 C  
HETATM   11  N   UNL     1     -11.063  12.819  67.255  1.00  0.00    -0.265 N  
HETATM   12  O   UNL     1      -8.988  13.727  67.766  1.00  0.00    -0.175 OA 
HETATM   13  H   UNL     1     -12.015  12.681  67.593  1.00  0.00     0.000 HD 
BRANCH  11  14
HETATM   14  C   UNL     1     -10.696  12.269  66.002  1.00  0.00    -0.261 A  
HETATM   15  C   UNL     1     -10.348  10.903  65.917  1.00  0.00    -0.310 A  
HETATM   16  C   UNL     1     -10.162  10.003  67.110  1.00  0.00    -0.284 C  
HETATM   17  C   UNL     1     -10.021  10.358  64.662  1.00  0.00    -0.408 A  
HETATM   18  C   UNL     1     -10.059  11.135  63.508  1.00  0.00    -0.437 A  
HETATM   19  C   UNL     1     -10.420  12.474  63.589  1.00  0.00    -0.418 A  
HETATM   20  C   UNL     1     -10.751  13.057  64.827  1.00  0.00    -0.370 A  
HETATM   21  C   UNL     1     -11.183  14.499  64.822  1.00  0.00    -0.395 C  
ENDBRANCH  11  14
ENDBRANCH   9  10
ENDBRANCH   3   4
ENDBRANCH   2   3
TORSDOF 4
ENDMDL
MODEL       21
REMARK 921   NORMALIZED FREE ENERGY PREDICTED BY IDOCK:   -5.55 KCAL/MOL
REMARK 922        TOTAL FREE ENERGY PREDICTED BY IDOCK:   -7.37 KCAL/MOL
REMARK 923 INTER-LIGAND FREE ENERGY PREDICTED BY IDOCK:   -6.78 KCAL/MOL
REMARK 924 INTRA-LIGAND FREE ENERGY PREDICTED BY IDOCK:   -0.59 KCAL/MOL
REMARK 927      BINDING AFFINITY PREDICTED BY RF-SCORE:    0.00 PKD
ROOT
HETATM    1  C   UNL     1     -11.700  15.410  68.472  1.00  0.00    -0.355 C  
HETATM    2  C   UNL     1     -11.966  13.956  68.111  1.00  0.00    -0.385 C  
ENDROOT
BRANCH   2   3
HETATM    3  C   UNL     1     -11.434  13.622  66.708  1.00  0.00    -0.346 C  
BRANCH   3   4
HETATM    4  N   UNL     1     -12.066  12.426  66.106  1.00  0.00    -0.641 NA 
HETATM    5  C   UNL     1     -12.641  12.702  64.768  1.00  0.00    -0.454 C  
HETATM    6  C   UNL     1     -11.596  13.025  63.694  1.00  0.00    -0.507 C  
HETATM    7  C   UNL     1     -10.573  11.904  63.568  1.00  0.00    -0.507 C  
HETATM    8  C   UNL     1     -10.000  11.521  64.926  1.00  0.00    -0.303 C  
HETATM    9  C   UNL     1     -11.110  11.278  65.963  1.00  0.00    -0.116 C  
BRANCH   9  10
HETATM   10  C   UNL     1     -10.510  10.833  67.313  1.00  0.00    -0.237 C  
HETATM   11  N   UNL     1     -11.345   9.979  68.021  1.00  0.00    -0.521 N  
HETATM   12  O   UNL     1      -9.397  11.196  67.685  1.00  0.00    -0.162 OA 
HETATM   13  H   UNL     1     -12.272   9.775  67.647  1.00  0.00     0.000 HD 
BRANCH  11  14
HETATM   14  C   UNL     1     -10.955   9.381  69.244  1.00  0.00    -0.117 A  
HETATM   15  C   UNL     1     -11.423   9.922  70.463  1.00  0.00    -0.391 A  
HETATM   16  C   UNL     1     -12.181  11.218  70.576  1.00  0.00    -0.474 C  
HETATM   17  C   UNL     1     -11.059   9.298  71.671  1.00  0.00    -0.438 A  
HETATM   18  C   UNL     1     -10.271   8.152  71.681  1.00  0.00    -0.266 A  
HETATM   19  C   UNL     1      -9.826   7.610  70.482  1.00  0.00    -0.183 A  
HETATM   20  C   UNL     1     -10.166   8.206  69.252  1.00  0.00    -0.216 A  
HETATM   21  C   UNL     1      -9.689   7.526  67.996  1.00  0.00    -0.165 C  
ENDBRANCH  11  14
ENDBRANCH   9  10
ENDBRANCH   3   4
ENDBRANCH   2   3
TORSDOF 4
ENDMDL
MODEL       22
REMARK 921   NORMALIZED FREE ENERGY PREDICTED BY IDOCK:   -5.55 KCAL/MOL
REMARK 922        TOTAL FREE ENERGY PREDICTED BY IDOCK:   -7.37 KCAL/MOL
REMARK 923 INTER-LIGAND FREE ENERGY PREDICTED BY IDOCK:   -7.33 KCAL/MOL
REMARK 924 INTRA-LIGAND FREE ENERGY PREDICTED BY IDOCK:   -0.04 KCAL/MOL
REMARK 927      BINDING AFFINITY PREDICTED BY RF-SCORE:    0.00 PKD
ROOT
HETATM    1  C   UNL     1      -6.348  19.597  68.073  1.00  0.00    -0.254 C  
HETATM    2  C   UNL     1      -7.491  19.388  69.055  1.00  0.00    -0.385 C  
ENDROOT
BRANCH   2   3
HETATM    3  C   UNL     1      -8.394  18.221  68.623  1.00  0.00    -0.287 C  
BRANCH   3   4
HETATM    4  N   UNL     1      -9.839  18.533  68.697  1.00  0.00    -0.373 NA 
HETATM    5  C   UNL     1     -10.146  19.911  68.246  1.00  0.00    -0.447 C  
HETATM    6  C   UNL     1      -9.894  20.149  66.752  1.00  0.00    -0.591 C  
HETATM    7  C   UNL     1     -10.684  19.164  65.899  1.00  0.00    -0.435 C  
HETATM    8  C   UNL     1     -10.471  17.731  66.366  1.00  0.00    -0.297 C  
HETATM    9  C   UNL     1     -10.677  17.590  67.884  1.00  0.00    -0.339 C  
BRANCH   9  10
HETATM   10  C   UNL     1     -10.515  16.121  68.325  1.00  0.00    -0.276 C  
HETATM   11  N   UNL     1     -11.729  15.469  68.496  1.00  0.00    -0.439 N  
HETATM   12  O   UNL     1      -9.411  15.603  68.480  1.00  0.00    -0.187 OA 
HETATM   13  H   UNL     1     -12.592  16.001  68.389  1.00  0.00     0.000 HD 
BRANCH  11  14
HETATM   14  C   UNL     1     -11.810  14.091  68.813  1.00  0.00    -0.361 A  
HETATM   15  C   UNL     1     -12.097  13.699  70.139  1.00  0.00    -0.431 A  
HETATM   16  C   UNL     1     -12.153  14.647  71.307  1.00  0.00    -0.410 C  
HETATM   17  C   UNL     1     -12.213  12.328  70.436  1.00  0.00    -0.371 A  
HETATM   18  C   UNL     1     -12.073  11.362  69.444  1.00  0.00    -0.358 A  
HETATM   19  C   UNL     1     -11.809  11.749  68.137  1.00  0.00    -0.324 A  
HETATM   20  C   UNL     1     -11.684  13.110  67.800  1.00  0.00    -0.401 A  
HETATM   21  C   UNL     1     -11.451  13.449  66.351  1.00  0.00    -0.359 C  
ENDBRANCH  11  14
ENDBRANCH   9  10
ENDBRANCH   3   4
ENDBRANCH   2   3
TORSDOF 4
ENDMDL
MODEL       23
REMARK 921   NORMALIZED FREE ENERGY PREDICTED BY IDOCK:   -5.50 KCAL/MOL
REMARK 922        TOTAL FREE ENERGY PREDICTED BY IDOCK:   -7.32 KCAL/MOL
REMARK 923 INTER-LIGAND FREE ENERGY PREDICTED BY IDOCK:   -6.59 KCAL/MOL
REMARK 924 INTRA-LIGAND FREE ENERGY PREDICTED BY IDOCK:   -0.73 KCAL/MOL
REMARK 927      BINDING AFFINITY PREDICTED BY RF-SCORE:    0.00 PKD
ROOT
HETATM    1  C   UNL     1     -10.878  14.364  68.910  1.00  0.00    -0.266 C  
HETATM    2  C   UNL     1     -11.969  14.038  67.900  1.00  0.00    -0.387 C  
ENDROOT
BRANCH   2   3
HETATM    3  C   UNL     1     -11.373  13.541  66.573  1.00  0.00    -0.319 C  
BRANCH   3   4
HETATM    4  N   UNL     1     -12.038  12.327  66.046  1.00  0.00    -0.630 NA 
HETATM    5  C   UNL     1     -12.623  12.541  64.701  1.00  0.00    -0.426 C  
HETATM    6  C   UNL     1     -11.585  12.782  63.599  1.00  0.00    -0.572 C  
HETATM    7  C   UNL     1     -10.588  11.632  63.525  1.00  0.00    -0.496 C  
HETATM    8  C   UNL     1     -10.007  11.312  64.895  1.00  0.00    -0.323 C  
HETATM    9  C   UNL     1     -11.109  11.152  65.956  1.00  0.00    -0.048 C  
BRANCH   9  10
HETATM   10  C   UNL     1     -10.503  10.769  67.322  1.00  0.00    -0.237 C  
HETATM   11  N   UNL     1     -11.266   9.835  68.011  1.00  0.00    -0.521 N  
HETATM   12  O   UNL     1      -9.442  11.243  67.722  1.00  0.00    -0.164 OA 
HETATM   13  H   UNL     1     -12.157   9.538  67.614  1.00  0.00     0.000 HD 
BRANCH  11  14
HETATM   14  C   UNL     1     -10.849   9.279  69.245  1.00  0.00    -0.152 A  
HETATM   15  C   UNL     1      -9.976   8.168  69.248  1.00  0.00    -0.188 A  
HETATM   16  C   UNL     1      -9.583   7.400  68.014  1.00  0.00    -0.152 C  
HETATM   17  C   UNL     1      -9.539   7.647  70.479  1.00  0.00    -0.167 A  
HETATM   18  C   UNL     1      -9.931   8.221  71.685  1.00  0.00    -0.277 A  
HETATM   19  C   UNL     1     -10.774   9.324  71.681  1.00  0.00    -0.393 A  
HETATM   20  C   UNL     1     -11.236   9.874  70.470  1.00  0.00    -0.399 A  
HETATM   21  C   UNL     1     -12.103  11.103  70.551  1.00  0.00    -0.474 C  
ENDBRANCH  11  14
ENDBRANCH   9  10
ENDBRANCH   3   4
ENDBRANCH   2   3
TORSDOF 4
ENDMDL
MODEL       24
REMARK 921   NORMALIZED FREE ENERGY PREDICTED BY IDOCK:   -5.50 KCAL/MOL
REMARK 922        TOTAL FREE ENERGY PREDICTED BY IDOCK:   -7.31 KCAL/MOL
REMARK 923 INTER-LIGAND FREE ENERGY PREDICTED BY IDOCK:   -6.64 KCAL/MOL
REMARK 924 INTRA-LIGAND FREE ENERGY PREDICTED BY IDOCK:   -0.67 KCAL/MOL
REMARK 927      BINDING AFFINITY PREDICTED BY RF-SCORE:    0.00 PKD
ROOT
HETATM    1  C   UNL     1     -10.623   7.170  67.161  1.00  0.00    -0.417 C  
HETATM    2  C   UNL     1      -9.650   8.261  66.738  1.00  0.00    -0.288 C  
ENDROOT
BRANCH   2   3
HETATM    3  C   UNL     1     -10.388   9.562  66.384  1.00  0.00    -0.173 C  
BRANCH   3   4
HETATM    4  N   UNL     1      -9.483  10.669  65.998  1.00  0.00    -0.185 NA 
HETATM    5  C   UNL     1      -8.511  10.268  64.953  1.00  0.00    -0.177 C  
HETATM    6  C   UNL     1      -9.149   9.954  63.595  1.00  0.00    -0.294 C  
HETATM    7  C   UNL     1      -9.961  11.138  63.084  1.00  0.00    -0.393 C  
HETATM    8  C   UNL     1     -10.928  11.646  64.145  1.00  0.00    -0.442 C  
HETATM    9  C   UNL     1     -10.224  11.872  65.494  1.00  0.00    -0.254 C  
BRANCH   9  10
HETATM   10  C   UNL     1     -11.207  12.444  66.536  1.00  0.00    -0.319 C  
HETATM   11  N   UNL     1     -10.583  12.829  67.715  1.00  0.00    -0.218 N  
HETATM   12  O   UNL     1     -12.410  12.555  66.308  1.00  0.00    -0.570 OA 
HETATM   13  H   UNL     1      -9.585  12.651  67.824  1.00  0.00     0.000 HD 
BRANCH  11  14
HETATM   14  C   UNL     1     -11.285  13.459  68.772  1.00  0.00    -0.275 A  
HETATM   15  C   UNL     1     -11.795  12.678  69.832  1.00  0.00    -0.364 A  
HETATM   16  C   UNL     1     -11.805  11.172  69.842  1.00  0.00    -0.439 C  
HETATM   17  C   UNL     1     -12.458  13.318  70.895  1.00  0.00    -0.424 A  
HETATM   18  C   UNL     1     -12.596  14.702  70.929  1.00  0.00    -0.410 A  
HETATM   19  C   UNL     1     -12.078  15.472  69.895  1.00  0.00    -0.378 A  
HETATM   20  C   UNL     1     -11.410  14.869  68.812  1.00  0.00    -0.304 A  
HETATM   21  C   UNL     1     -10.830  15.778  67.760  1.00  0.00    -0.316 C  
ENDBRANCH  11  14
ENDBRANCH   9  10
ENDBRANCH   3   4
ENDBRANCH   2   3
TORSDOF 4
ENDMDL
MODEL       25
REMARK 921   NORMALIZED FREE ENERGY PREDICTED BY IDOCK:   -5.49 KCAL/MOL
REMARK 922        TOTAL FREE ENERGY PREDICTED BY IDOCK:   -7.30 KCAL/MOL
REMARK 923 INTER-LIGAND FREE ENERGY PREDICTED BY IDOCK:   -6.79 KCAL/MOL
REMARK 924 INTRA-LIGAND FREE ENERGY PREDICTED BY IDOCK:   -0.51 KCAL/MOL
REMARK 927      BINDING AFFINITY PREDICTED BY RF-SCORE:    0.00 PKD
ROOT
HETATM    1  C   UNL     1     -10.323  14.281  65.332  1.00  0.00    -0.391 C  
HETATM    2  C   UNL     1     -10.559  15.782  65.253  1.00  0.00    -0.446 C  
ENDROOT
BRANCH   2   3
HETATM    3  C   UNL     1     -10.730  16.396  66.652  1.00  0.00    -0.173 C  
BRANCH   3   4
HETATM    4  N   UNL     1      -9.475  16.947  67.213  1.00  0.00    -0.239 NA 
HETATM    5  C   UNL     1      -9.001  18.141  66.474  1.00  0.00    -0.275 C  
HETATM    6  C   UNL     1      -9.916  19.363  66.609  1.00  0.00    -0.484 C  
HETATM    7  C   UNL     1     -10.120  19.738  68.072  1.00  0.00    -0.571 C  
HETATM    8  C   UNL     1     -10.535  18.530  68.900  1.00  0.00     0.021 C  
HETATM    9  C   UNL     1      -9.607  17.328  68.659  1.00  0.00    -0.284 C  
BRANCH   9  10
HETATM   10  C   UNL     1     -10.009  16.136  69.552  1.00  0.00    -0.222 C  
HETATM   11  N   UNL     1     -11.314  16.225  70.018  1.00  0.00    -0.378 N  
HETATM   12  O   UNL     1      -9.238  15.208  69.790  1.00  0.00    -0.152 OA 
HETATM   13  H   UNL     1     -11.857  17.060  69.803  1.00  0.00     0.000 HD 
BRANCH  11  14
HETATM   14  C   UNL     1     -11.916  15.196  70.782  1.00  0.00    -0.327 A  
HETATM   15  C   UNL     1     -12.242  15.434  72.136  1.00  0.00    -0.465 A  
HETATM   16  C   UNL     1     -11.832  16.665  72.898  1.00  0.00    -0.297 C  
HETATM   17  C   UNL     1     -12.874  14.417  72.875  1.00  0.00    -0.512 A  
HETATM   18  C   UNL     1     -13.202  13.198  72.290  1.00  0.00    -0.555 A  
HETATM   19  C   UNL     1     -12.897  12.971  70.954  1.00  0.00    -0.222 A  
HETATM   20  C   UNL     1     -12.263  13.962  70.181  1.00  0.00    -0.425 A  
HETATM   21  C   UNL     1     -12.017  13.656  68.727  1.00  0.00    -0.394 C  
ENDBRANCH  11  14
ENDBRANCH   9  10
ENDBRANCH   3   4
ENDBRANCH   2   3
TORSDOF 4
ENDMDL
MODEL       26
REMARK 921   NORMALIZED FREE ENERGY PREDICTED BY IDOCK:   -5.48 KCAL/MOL
REMARK 922        TOTAL FREE ENERGY PREDICTED BY IDOCK:   -7.29 KCAL/MOL
REMARK 923 INTER-LIGAND FREE ENERGY PREDICTED BY IDOCK:   -6.48 KCAL/MOL
REMARK 924 INTRA-LIGAND FREE ENERGY PREDICTED BY IDOCK:   -0.81 KCAL/MOL
REMARK 927      BINDING AFFINITY PREDICTED BY RF-SCORE:    0.00 PKD
ROOT
HETATM    1  C   UNL     1     -10.604   7.691  67.058  1.00  0.00    -0.406 C  
HETATM    2  C   UNL     1      -9.591   8.726  66.591  1.00  0.00    -0.283 C  
ENDROOT
BRANCH   2   3
HETATM    3  C   UNL     1     -10.171  10.148  66.663  1.00  0.00    -0.224 C  
BRANCH   3   4
HETATM    4  N   UNL     1      -9.327  11.165  65.995  1.00  0.00    -0.199 NA 
HETATM    5  C   UNL     1      -9.114  10.870  64.559  1.00  0.00    -0.163 C  
HETATM    6  C   UNL     1     -10.384  10.970  63.706  1.00  0.00    -0.427 C  
HETATM    7  C   UNL     1     -11.025  12.346  63.836  1.00  0.00    -0.467 C  
HETATM    8  C   UNL     1     -11.200  12.740  65.296  1.00  0.00    -0.328 C  
HETATM    9  C   UNL     1      -9.901  12.549  66.096  1.00  0.00    -0.258 C  
BRANCH   9  10
HETATM   10  C   UNL     1     -10.083  13.011  67.557  1.00  0.00    -0.218 C  
HETATM   11  N   UNL     1     -11.414  13.202  67.902  1.00  0.00    -0.288 N  
HETATM   12  O   UNL     1      -9.130  13.163  68.318  1.00  0.00    -0.196 OA 
HETATM   13  H   UNL     1     -12.129  13.094  67.183  1.00  0.00     0.000 HD 
BRANCH  11  14
HETATM   14  C   UNL     1     -11.814  13.540  69.218  1.00  0.00    -0.341 A  
HETATM   15  C   UNL     1     -11.985  14.899  69.565  1.00  0.00    -0.347 A  
HETATM   16  C   UNL     1     -11.600  16.052  68.677  1.00  0.00    -0.343 C  
HETATM   17  C   UNL     1     -12.418  15.222  70.864  1.00  0.00    -0.446 A  
HETATM   18  C   UNL     1     -12.701  14.230  71.797  1.00  0.00    -0.428 A  
HETATM   19  C   UNL     1     -12.550  12.893  71.450  1.00  0.00    -0.319 A  
HETATM   20  C   UNL     1     -12.116  12.529  70.161  1.00  0.00    -0.368 A  
HETATM   21  C   UNL     1     -12.030  11.058  69.848  1.00  0.00    -0.427 C  
ENDBRANCH  11  14
ENDBRANCH   9  10
ENDBRANCH   3   4
ENDBRANCH   2   3
TORSDOF 4
ENDMDL
MODEL       27
REMARK 921   NORMALIZED FREE ENERGY PREDICTED BY IDOCK:   -5.48 KCAL/MOL
REMARK 922        TOTAL FREE ENERGY PREDICTED BY IDOCK:   -7.28 KCAL/MOL
REMARK 923 INTER-LIGAND FREE ENERGY PREDICTED BY IDOCK:   -6.42 KCAL/MOL
REMARK 924 INTRA-LIGAND FREE ENERGY PREDICTED BY IDOCK:   -0.86 KCAL/MOL
REMARK 927      BINDING AFFINITY PREDICTED BY RF-SCORE:    0.00 PKD
ROOT
HETATM    1  C   UNL     1      -7.258  11.816  68.613  1.00  0.00    -0.112 C  
HETATM    2  C   UNL     1      -7.625  11.673  67.143  1.00  0.00    -0.152 C  
ENDROOT
BRANCH   2   3
HETATM    3  C   UNL     1      -9.018  12.256  66.855  1.00  0.00    -0.207 C  
BRANCH   3   4
HETATM    4  N   UNL     1      -9.451  13.268  67.846  1.00  0.00    -0.207 NA 
HETATM    5  C   UNL     1      -9.092  14.648  67.441  1.00  0.00    -0.197 C  
HETATM    6  C   UNL     1      -9.838  15.149  66.199  1.00  0.00    -0.325 C  
HETATM    7  C   UNL     1     -11.347  15.071  66.397  1.00  0.00    -0.275 C  
HETATM    8  C   UNL     1     -11.771  13.694  66.889  1.00  0.00    -0.423 C  
HETATM    9  C   UNL     1     -10.932  13.237  68.094  1.00  0.00    -0.255 C  
BRANCH   9  10
HETATM   10  C   UNL     1     -11.418  11.868  68.613  1.00  0.00    -0.294 C  
HETATM   11  N   UNL     1     -10.952  11.576  69.888  1.00  0.00    -0.458 N  
HETATM   12  O   UNL     1     -12.158  11.143  67.951  1.00  0.00    -0.627 OA 
HETATM   13  H   UNL     1     -10.303  12.223  70.335  1.00  0.00     0.000 HD 
BRANCH  11  14
HETATM   14  C   UNL     1     -11.348  10.411  70.590  1.00  0.00    -0.325 A  
HETATM   15  C   UNL     1     -10.585   9.229  70.462  1.00  0.00    -0.309 A  
HETATM   16  C   UNL     1      -9.457   9.055  69.480  1.00  0.00    -0.164 C  
HETATM   17  C   UNL     1     -10.965   8.088  71.192  1.00  0.00    -0.271 A  
HETATM   18  C   UNL     1     -12.060   8.114  72.050  1.00  0.00    -0.388 A  
HETATM   19  C   UNL     1     -12.800   9.282  72.189  1.00  0.00    -0.485 A  
HETATM   20  C   UNL     1     -12.453  10.443  71.474  1.00  0.00    -0.508 A  
HETATM   21  C   UNL     1     -13.273  11.683  71.722  1.00  0.00    -0.438 C  
ENDBRANCH  11  14
ENDBRANCH   9  10
ENDBRANCH   3   4
ENDBRANCH   2   3
TORSDOF 4
ENDMDL
MODEL       28
REMARK 921   NORMALIZED FREE ENERGY PREDICTED BY IDOCK:   -5.46 KCAL/MOL
REMARK 922        TOTAL FREE ENERGY PREDICTED BY IDOCK:   -7.27 KCAL/MOL
REMARK 923 INTER-LIGAND FREE ENERGY PREDICTED BY IDOCK:   -6.48 KCAL/MOL
REMARK 924 INTRA-LIGAND FREE ENERGY PREDICTED BY IDOCK:   -0.79 KCAL/MOL
REMARK 927      BINDING AFFINITY PREDICTED BY RF-SCORE:    0.00 PKD
ROOT
HETATM    1  C   UNL     1     -10.630  14.161  64.793  1.00  0.00    -0.439 C  
HETATM    2  C   UNL     1      -9.908  14.578  66.066  1.00  0.00    -0.342 C  
ENDROOT
BRANCH   2   3
HETATM    3  C   UNL     1      -9.172  13.390  66.707  1.00  0.00    -0.236 C  
BRANCH   3   4
HETATM    4  N   UNL     1      -9.735  12.073  66.328  1.00  0.00    -0.230 NA 
HETATM    5  C   UNL     1      -8.741  11.207  65.651  1.00  0.00    -0.122 C  
HETATM    6  C   UNL     1      -7.586  10.758  66.553  1.00  0.00    -0.139 C  
HETATM    7  C   UNL     1      -8.104  10.038  67.791  1.00  0.00    -0.109 C  
HETATM    8  C   UNL     1      -9.188  10.847  68.490  1.00  0.00    -0.181 C  
HETATM    9  C   UNL     1     -10.273  11.315  67.506  1.00  0.00    -0.189 C  
BRANCH   9  10
HETATM   10  C   UNL     1     -11.390  12.080  68.244  1.00  0.00    -0.286 C  
HETATM   11  N   UNL     1     -11.123  12.258  69.595  1.00  0.00    -0.474 N  
HETATM   12  O   UNL     1     -12.391  12.497  67.664  1.00  0.00    -0.295 OA 
HETATM   13  H   UNL     1     -10.285  11.833  69.991  1.00  0.00     0.000 HD 
BRANCH  11  14
HETATM   14  C   UNL     1     -11.973  13.010  70.442  1.00  0.00    -0.258 A  
HETATM   15  C   UNL     1     -11.991  14.419  70.336  1.00  0.00    -0.395 A  
HETATM   16  C   UNL     1     -11.028  15.214  69.495  1.00  0.00    -0.279 C  
HETATM   17  C   UNL     1     -12.866  15.155  71.156  1.00  0.00    -0.469 A  
HETATM   18  C   UNL     1     -13.725  14.518  72.047  1.00  0.00    -0.528 A  
HETATM   19  C   UNL     1     -13.720  13.132  72.138  1.00  0.00    -0.588 A  
HETATM   20  C   UNL     1     -12.857  12.361  71.336  1.00  0.00    -0.360 A  
HETATM   21  C   UNL     1     -12.952  10.862  71.457  1.00  0.00    -0.556 C  
ENDBRANCH  11  14
ENDBRANCH   9  10
ENDBRANCH   3   4
ENDBRANCH   2   3
TORSDOF 4
ENDMDL
MODEL       29
REMARK 921   NORMALIZED FREE ENERGY PREDICTED BY IDOCK:   -5.45 KCAL/MOL
REMARK 922        TOTAL FREE ENERGY PREDICTED BY IDOCK:   -7.25 KCAL/MOL
REMARK 923 INTER-LIGAND FREE ENERGY PREDICTED BY IDOCK:   -6.46 KCAL/MOL
REMARK 924 INTRA-LIGAND FREE ENERGY PREDICTED BY IDOCK:   -0.79 KCAL/MOL
REMARK 927      BINDING AFFINITY PREDICTED BY RF-SCORE:    0.00 PKD
ROOT
HETATM    1  C   UNL     1      -9.583   9.365  70.690  1.00  0.00    -0.331 C  
HETATM    2  C   UNL     1     -10.348   8.636  69.596  1.00  0.00    -0.213 C  
ENDROOT
BRANCH   2   3
HETATM    3  C   UNL     1     -10.659   9.569  68.414  1.00  0.00    -0.219 C  
BRANCH   3   4
HETATM    4  N   UNL     1      -9.667  10.655  68.242  1.00  0.00    -0.156 NA 
HETATM    5  C   UNL     1      -8.481  10.221  67.466  1.00  0.00    -0.118 C  
HETATM    6  C   UNL     1      -8.780   9.894  65.999  1.00  0.00    -0.152 C  
HETATM    7  C   UNL     1      -9.424  11.080  65.292  1.00  0.00    -0.259 C  
HETATM    8  C   UNL     1     -10.606  11.621  66.083  1.00  0.00    -0.306 C  
HETATM    9  C   UNL     1     -10.243  11.861  67.559  1.00  0.00    -0.196 C  
BRANCH   9  10
HETATM   10  C   UNL     1     -11.436  12.464  68.327  1.00  0.00    -0.310 C  
HETATM   11  N   UNL     1     -11.144  12.733  69.657  1.00  0.00    -0.466 N  
HETATM   12  O   UNL     1     -12.515  12.693  67.783  1.00  0.00    -0.085 OA 
HETATM   13  H   UNL     1     -10.232  12.462  70.025  1.00  0.00     0.000 HD 
BRANCH  11  14
HETATM   14  C   UNL     1     -12.068  13.371  70.521  1.00  0.00    -0.323 A  
HETATM   15  C   UNL     1     -12.205  14.776  70.478  1.00  0.00    -0.385 A  
HETATM   16  C   UNL     1     -11.301  15.688  69.691  1.00  0.00    -0.331 C  
HETATM   17  C   UNL     1     -13.151  15.396  71.313  1.00  0.00    -0.564 A  
HETATM   18  C   UNL     1     -13.966  14.648  72.159  1.00  0.00    -0.591 A  
HETATM   19  C   UNL     1     -13.843  13.265  72.188  1.00  0.00    -0.555 A  
HETATM   20  C   UNL     1     -12.906  12.607  71.369  1.00  0.00    -0.358 A  
HETATM   21  C   UNL     1     -12.874  11.102  71.420  1.00  0.00    -0.544 C  
ENDBRANCH  11  14
ENDBRANCH   9  10
ENDBRANCH   3   4
ENDBRANCH   2   3
TORSDOF 4
ENDMDL
MODEL       30
REMARK 921   NORMALIZED FREE ENERGY PREDICTED BY IDOCK:   -5.44 KCAL/MOL
REMARK 922        TOTAL FREE ENERGY PREDICTED BY IDOCK:   -7.24 KCAL/MOL
REMARK 923 INTER-LIGAND FREE ENERGY PREDICTED BY IDOCK:   -6.51 KCAL/MOL
REMARK 924 INTRA-LIGAND FREE ENERGY PREDICTED BY IDOCK:   -0.73 KCAL/MOL
REMARK 927      BINDING AFFINITY PREDICTED BY RF-SCORE:    0.00 PKD
ROOT
HETATM    1  C   UNL     1      -5.665  18.460  65.315  1.00  0.00    -0.234 C  
HETATM    2  C   UNL     1      -6.265  17.501  66.333  1.00  0.00    -0.262 C  
ENDROOT
BRANCH   2   3
HETATM    3  C   UNL     1      -7.768  17.761  66.528  1.00  0.00    -0.263 C  
BRANCH   3   4
HETATM    4  N   UNL     1      -8.116  18.216  67.893  1.00  0.00    -0.242 NA 
HETATM    5  C   UNL     1      -8.091  19.692  68.022  1.00  0.00    -0.308 C  
HETATM    6  C   UNL     1      -9.178  20.408  67.212  1.00  0.00    -0.525 C  
HETATM    7  C   UNL     1     -10.565  19.905  67.591  1.00  0.00    -0.483 C  
HETATM    8  C   UNL     1     -10.633  18.385  67.552  1.00  0.00    -0.447 C  
HETATM    9  C   UNL     1      -9.472  17.744  68.332  1.00  0.00    -0.297 C  
BRANCH   9  10
HETATM   10  C   UNL     1      -9.594  16.206  68.331  1.00  0.00    -0.209 C  
HETATM   11  N   UNL     1     -10.798  15.758  67.804  1.00  0.00    -0.310 N  
HETATM   12  O   UNL     1      -8.691  15.479  68.740  1.00  0.00    -0.166 OA 
HETATM   13  H   UNL     1     -11.502  16.445  67.534  1.00  0.00     0.000 HD 
BRANCH  11  14
HETATM   14  C   UNL     1     -11.082  14.382  67.627  1.00  0.00    -0.300 A  
HETATM   15  C   UNL     1     -10.733  13.751  66.412  1.00  0.00    -0.281 A  
HETATM   16  C   UNL     1     -10.231  14.481  65.195  1.00  0.00    -0.420 C  
HETATM   17  C   UNL     1     -10.986  12.375  66.260  1.00  0.00    -0.323 A  
HETATM   18  C   UNL     1     -11.547  11.628  67.291  1.00  0.00    -0.316 A  
HETATM   19  C   UNL     1     -11.873  12.245  68.492  1.00  0.00    -0.359 A  
HETATM   20  C   UNL     1     -11.638  13.620  68.682  1.00  0.00    -0.364 A  
HETATM   21  C   UNL     1     -11.969  14.201  70.031  1.00  0.00    -0.404 C  
ENDBRANCH  11  14
ENDBRANCH   9  10
ENDBRANCH   3   4
ENDBRANCH   2   3
TORSDOF 4
ENDMDL
MODEL       31
REMARK 921   NORMALIZED FREE ENERGY PREDICTED BY IDOCK:   -5.39 KCAL/MOL
REMARK 922        TOTAL FREE ENERGY PREDICTED BY IDOCK:   -7.17 KCAL/MOL
REMARK 923 INTER-LIGAND FREE ENERGY PREDICTED BY IDOCK:   -6.56 KCAL/MOL
REMARK 924 INTRA-LIGAND FREE ENERGY PREDICTED BY IDOCK:   -0.62 KCAL/MOL
REMARK 927      BINDING AFFINITY PREDICTED BY RF-SCORE:    0.00 PKD
ROOT
HETATM    1  C   UNL     1      -5.661  17.809  65.736  1.00  0.00    -0.174 C  
HETATM    2  C   UNL     1      -6.255  17.268  67.029  1.00  0.00    -0.203 C  
ENDROOT
BRANCH   2   3
HETATM    3  C   UNL     1      -7.787  17.390  67.036  1.00  0.00    -0.210 C  
BRANCH   3   4
HETATM    4  N   UNL     1      -8.312  18.176  68.175  1.00  0.00    -0.269 NA 
HETATM    5  C   UNL     1      -8.316  19.633  67.904  1.00  0.00    -0.313 C  
HETATM    6  C   UNL     1      -9.296  20.062  66.806  1.00  0.00    -0.510 C  
HETATM    7  C   UNL     1     -10.716  19.618  67.134  1.00  0.00    -0.587 C  
HETATM    8  C   UNL     1     -10.765  18.141  67.498  1.00  0.00    -0.365 C  
HETATM    9  C   UNL     1      -9.709  17.780  68.556  1.00  0.00    -0.343 C  
BRANCH   9  10
HETATM   10  C   UNL     1      -9.816  16.293  68.953  1.00  0.00    -0.246 C  
HETATM   11  N   UNL     1     -11.054  15.740  68.651  1.00  0.00    -0.306 N  
HETATM   12  O   UNL     1      -8.878  15.683  69.462  1.00  0.00    -0.264 OA 
HETATM   13  H   UNL     1     -11.783  16.343  68.272  1.00  0.00     0.000 HD 
BRANCH  11  14
HETATM   14  C   UNL     1     -11.338  14.367  68.851  1.00  0.00    -0.274 A  
HETATM   15  C   UNL     1     -11.930  13.948  70.063  1.00  0.00    -0.404 A  
HETATM   16  C   UNL     1     -12.129  14.842  71.258  1.00  0.00    -0.399 C  
HETATM   17  C   UNL     1     -12.242  12.587  70.236  1.00  0.00    -0.345 A  
HETATM   18  C   UNL     1     -12.000  11.659  69.229  1.00  0.00    -0.382 A  
HETATM   19  C   UNL     1     -11.434  12.074  68.030  1.00  0.00    -0.392 A  
HETATM   20  C   UNL     1     -11.105  13.426  67.819  1.00  0.00    -0.292 A  
HETATM   21  C   UNL     1     -10.546  13.803  66.472  1.00  0.00    -0.279 C  
ENDBRANCH  11  14
ENDBRANCH   9  10
ENDBRANCH   3   4
ENDBRANCH   2   3
TORSDOF 4
ENDMDL
MODEL       32
REMARK 921   NORMALIZED FREE ENERGY PREDICTED BY IDOCK:   -5.36 KCAL/MOL
REMARK 922        TOTAL FREE ENERGY PREDICTED BY IDOCK:   -7.14 KCAL/MOL
REMARK 923 INTER-LIGAND FREE ENERGY PREDICTED BY IDOCK:   -6.65 KCAL/MOL
REMARK 924 INTRA-LIGAND FREE ENERGY PREDICTED BY IDOCK:   -0.49 KCAL/MOL
REMARK 927      BINDING AFFINITY PREDICTED BY RF-SCORE:    0.00 PKD
ROOT
HETATM    1  C   UNL     1     -11.072  15.682  70.476  1.00  0.00    -0.375 C  
HETATM    2  C   UNL     1     -10.359  15.500  69.143  1.00  0.00    -0.237 C  
ENDROOT
BRANCH   2   3
HETATM    3  C   UNL     1     -10.459  14.048  68.649  1.00  0.00    -0.247 C  
BRANCH   3   4
HETATM    4  N   UNL     1     -11.816  13.673  68.188  1.00  0.00    -0.361 NA 
HETATM    5  C   UNL     1     -12.110  14.173  66.824  1.00  0.00    -0.442 C  
HETATM    6  C   UNL     1     -11.262  13.524  65.725  1.00  0.00    -0.308 C  
HETATM    7  C   UNL     1     -11.415  12.008  65.737  1.00  0.00    -0.377 C  
HETATM    8  C   UNL     1     -11.201  11.440  67.133  1.00  0.00    -0.363 C  
HETATM    9  C   UNL     1     -12.036  12.188  68.186  1.00  0.00    -0.178 C  
BRANCH   9  10
HETATM   10  C   UNL     1     -11.850  11.559  69.582  1.00  0.00    -0.354 C  
HETATM   11  N   UNL     1     -11.504  10.215  69.529  1.00  0.00    -0.395 N  
HETATM   12  O   UNL     1     -11.978  12.212  70.616  1.00  0.00    -0.322 OA 
HETATM   13  H   UNL     1     -11.468   9.752  68.621  1.00  0.00     0.000 HD 
BRANCH  11  14
HETATM   14  C   UNL     1     -11.199   9.466  70.691  1.00  0.00    -0.284 A  
HETATM   15  C   UNL     1     -12.250   8.916  71.460  1.00  0.00    -0.388 A  
HETATM   16  C   UNL     1     -13.707   9.218  71.234  1.00  0.00    -0.250 C  
HETATM   17  C   UNL     1     -11.935   8.142  72.591  1.00  0.00    -0.353 A  
HETATM   18  C   UNL     1     -10.614   7.891  72.948  1.00  0.00    -0.434 A  
HETATM   19  C   UNL     1      -9.581   8.416  72.182  1.00  0.00    -0.367 A  
HETATM   20  C   UNL     1      -9.854   9.198  71.044  1.00  0.00    -0.366 A  
HETATM   21  C   UNL     1      -8.679   9.685  70.236  1.00  0.00    -0.248 C  
ENDBRANCH  11  14
ENDBRANCH   9  10
ENDBRANCH   3   4
ENDBRANCH   2   3
TORSDOF 4
ENDMDL
MODEL       33
REMARK 921   NORMALIZED FREE ENERGY PREDICTED BY IDOCK:   -5.35 KCAL/MOL
REMARK 922        TOTAL FREE ENERGY PREDICTED BY IDOCK:   -7.13 KCAL/MOL
REMARK 923 INTER-LIGAND FREE ENERGY PREDICTED BY IDOCK:   -6.18 KCAL/MOL
REMARK 924 INTRA-LIGAND FREE ENERGY PREDICTED BY IDOCK:   -0.95 KCAL/MOL
REMARK 927      BINDING AFFINITY PREDICTED BY RF-SCORE:    0.00 PKD
ROOT
HETATM    1  C   UNL     1     -10.001  12.984  65.810  1.00  0.00    -0.260 C  
HETATM    2  C   UNL     1      -9.243  12.842  67.122  1.00  0.00    -0.225 C  
ENDROOT
BRANCH   2   3
HETATM    3  C   UNL     1      -9.794  13.799  68.192  1.00  0.00    -0.239 C  
BRANCH   3   4
HETATM    4  N   UNL     1     -11.191  14.222  67.944  1.00  0.00    -0.274 NA 
HETATM    5  C   UNL     1     -12.149  13.597  68.886  1.00  0.00    -0.300 C  
HETATM    6  C   UNL     1     -11.982  14.055  70.340  1.00  0.00    -0.398 C  
HETATM    7  C   UNL     1     -12.095  15.570  70.455  1.00  0.00    -0.426 C  
HETATM    8  C   UNL     1     -11.188  16.271  69.453  1.00  0.00    -0.311 C  
HETATM    9  C   UNL     1     -11.369  15.710  68.033  1.00  0.00    -0.324 C  
BRANCH   9  10
HETATM   10  C   UNL     1     -10.485  16.474  67.025  1.00  0.00    -0.289 C  
HETATM   11  N   UNL     1      -9.592  17.343  67.638  1.00  0.00    -0.257 N  
HETATM   12  O   UNL     1     -10.571  16.295  65.812  1.00  0.00    -0.345 OA 
HETATM   13  H   UNL     1      -9.631  17.455  68.651  1.00  0.00     0.000 HD 
BRANCH  11  14
HETATM   14  C   UNL     1      -8.628  18.078  66.906  1.00  0.00    -0.250 A  
HETATM   15  C   UNL     1      -7.411  17.459  66.542  1.00  0.00    -0.312 A  
HETATM   16  C   UNL     1      -6.974  16.104  67.031  1.00  0.00    -0.234 C  
HETATM   17  C   UNL     1      -6.475  18.185  65.783  1.00  0.00    -0.311 A  
HETATM   18  C   UNL     1      -6.740  19.487  65.368  1.00  0.00    -0.309 A  
HETATM   19  C   UNL     1      -7.944  20.089  65.711  1.00  0.00    -0.176 A  
HETATM   20  C   UNL     1      -8.904  19.396  66.472  1.00  0.00    -0.382 A  
HETATM   21  C   UNL     1     -10.206  20.100  66.754  1.00  0.00    -0.562 C  
ENDBRANCH  11  14
ENDBRANCH   9  10
ENDBRANCH   3   4
ENDBRANCH   2   3
TORSDOF 4
ENDMDL
MODEL       34
REMARK 921   NORMALIZED FREE ENERGY PREDICTED BY IDOCK:   -5.34 KCAL/MOL
REMARK 922        TOTAL FREE ENERGY PREDICTED BY IDOCK:   -7.12 KCAL/MOL
REMARK 923 INTER-LIGAND FREE ENERGY PREDICTED BY IDOCK:   -6.60 KCAL/MOL
REMARK 924 INTRA-LIGAND FREE ENERGY PREDICTED BY IDOCK:   -0.52 KCAL/MOL
REMARK 927      BINDING AFFINITY PREDICTED BY RF-SCORE:    0.00 PKD
ROOT
HETATM    1  C   UNL     1     -12.705  15.354  70.494  1.00  0.00    -0.455 C  
HETATM    2  C   UNL     1     -11.583  15.841  69.588  1.00  0.00    -0.363 C  
ENDROOT
BRANCH   2   3
HETATM    3  C   UNL     1     -11.745  15.302  68.158  1.00  0.00    -0.279 C  
BRANCH   3   4
HETATM    4  N   UNL     1     -10.578  14.521  67.686  1.00  0.00    -0.250 NA 
HETATM    5  C   UNL     1     -10.792  13.059  67.798  1.00  0.00    -0.240 C  
HETATM    6  C   UNL     1     -11.879  12.513  66.864  1.00  0.00    -0.404 C  
HETATM    7  C   UNL     1     -11.576  12.856  65.411  1.00  0.00    -0.386 C  
HETATM    8  C   UNL     1     -11.271  14.338  65.243  1.00  0.00    -0.337 C  
HETATM    9  C   UNL     1     -10.221  14.821  66.259  1.00  0.00    -0.298 C  
BRANCH   9  10
HETATM   10  C   UNL     1      -9.883  16.309  66.032  1.00  0.00    -0.343 C  
HETATM   11  N   UNL     1      -9.069  16.837  67.026  1.00  0.00    -0.218 N  
HETATM   12  O   UNL     1     -10.288  16.929  65.051  1.00  0.00    -0.596 OA 
HETATM   13  H   UNL     1      -8.826  16.252  67.824  1.00  0.00     0.000 HD 
BRANCH  11  14
HETATM   14  C   UNL     1      -8.566  18.159  66.969  1.00  0.00    -0.254 A  
HETATM   15  C   UNL     1      -9.403  19.238  67.334  1.00  0.00    -0.368 A  
HETATM   16  C   UNL     1     -10.875  19.105  67.618  1.00  0.00    -0.467 C  
HETATM   17  C   UNL     1      -8.882  20.545  67.309  1.00  0.00    -0.404 A  
HETATM   18  C   UNL     1      -7.558  20.786  66.956  1.00  0.00    -0.298 A  
HETATM   19  C   UNL     1      -6.730  19.723  66.615  1.00  0.00    -0.207 A  
HETATM   20  C   UNL     1      -7.215  18.402  66.625  1.00  0.00    -0.240 A  
HETATM   21  C   UNL     1      -6.239  17.302  66.295  1.00  0.00    -0.197 C  
ENDBRANCH  11  14
ENDBRANCH   9  10
ENDBRANCH   3   4
ENDBRANCH   2   3
TORSDOF 4
ENDMDL
MODEL       35
REMARK 921   NORMALIZED FREE ENERGY PREDICTED BY IDOCK:   -5.34 KCAL/MOL
REMARK 922        TOTAL FREE ENERGY PREDICTED BY IDOCK:   -7.12 KCAL/MOL
REMARK 923 INTER-LIGAND FREE ENERGY PREDICTED BY IDOCK:   -6.17 KCAL/MOL
REMARK 924 INTRA-LIGAND FREE ENERGY PREDICTED BY IDOCK:   -0.95 KCAL/MOL
REMARK 927      BINDING AFFINITY PREDICTED BY RF-SCORE:    0.00 PKD
ROOT
HETATM    1  C   UNL     1     -11.873  14.358  70.223  1.00  0.00    -0.382 C  
HETATM    2  C   UNL     1     -10.965  15.569  70.380  1.00  0.00    -0.360 C  
ENDROOT
BRANCH   2   3
HETATM    3  C   UNL     1     -10.078  15.767  69.140  1.00  0.00    -0.238 C  
BRANCH   3   4
HETATM    4  N   UNL     1     -10.746  16.513  68.049  1.00  0.00    -0.333 NA 
HETATM    5  C   UNL     1     -10.426  17.959  68.073  1.00  0.00    -0.382 C  
HETATM    6  C   UNL     1      -8.960  18.280  67.761  1.00  0.00    -0.273 C  
HETATM    7  C   UNL     1      -8.548  17.707  66.411  1.00  0.00    -0.269 C  
HETATM    8  C   UNL     1      -8.922  16.235  66.296  1.00  0.00    -0.366 C  
HETATM    9  C   UNL     1     -10.388  15.989  66.688  1.00  0.00    -0.298 C  
BRANCH   9  10
HETATM   10  C   UNL     1     -10.762  14.503  66.507  1.00  0.00    -0.312 C  
HETATM   11  N   UNL     1      -9.689  13.721  66.101  1.00  0.00    -0.382 N  
HETATM   12  O   UNL     1     -11.895  14.083  66.729  1.00  0.00    -0.380 OA 
HETATM   13  H   UNL     1      -8.799  14.174  65.897  1.00  0.00     0.000 HD 
BRANCH  11  14
HETATM   14  C   UNL     1      -9.789  12.315  65.959  1.00  0.00    -0.248 A  
HETATM   15  C   UNL     1     -10.054  11.761  64.687  1.00  0.00    -0.310 A  
HETATM   16  C   UNL     1     -10.421  12.572  63.473  1.00  0.00    -0.360 C  
HETATM   17  C   UNL     1     -10.114  10.362  64.550  1.00  0.00    -0.365 A  
HETATM   18  C   UNL     1      -9.893   9.522  65.638  1.00  0.00    -0.343 A  
HETATM   19  C   UNL     1      -9.615  10.067  66.885  1.00  0.00    -0.219 A  
HETATM   20  C   UNL     1      -9.549  11.461  67.063  1.00  0.00    -0.192 A  
HETATM   21  C   UNL     1      -9.187  11.970  68.434  1.00  0.00    -0.160 C  
ENDBRANCH  11  14
ENDBRANCH   9  10
ENDBRANCH   3   4
ENDBRANCH   2   3
TORSDOF 4
ENDMDL
MODEL       36
REMARK 921   NORMALIZED FREE ENERGY PREDICTED BY IDOCK:   -5.33 KCAL/MOL
REMARK 922        TOTAL FREE ENERGY PREDICTED BY IDOCK:   -7.11 KCAL/MOL
REMARK 923 INTER-LIGAND FREE ENERGY PREDICTED BY IDOCK:   -6.38 KCAL/MOL
REMARK 924 INTRA-LIGAND FREE ENERGY PREDICTED BY IDOCK:   -0.73 KCAL/MOL
REMARK 927      BINDING AFFINITY PREDICTED BY RF-SCORE:    0.00 PKD
ROOT
HETATM    1  C   UNL     1     -10.086   7.889  68.180  1.00  0.00    -0.228 C  
HETATM    2  C   UNL     1      -9.675   8.242  66.758  1.00  0.00    -0.307 C  
ENDROOT
BRANCH   2   3
HETATM    3  C   UNL     1     -10.383   9.516  66.271  1.00  0.00    -0.156 C  
BRANCH   3   4
HETATM    4  N   UNL     1      -9.451  10.600  65.885  1.00  0.00    -0.187 NA 
HETATM    5  C   UNL     1      -8.484  10.171  64.847  1.00  0.00    -0.172 C  
HETATM    6  C   UNL     1      -9.122   9.866  63.487  1.00  0.00    -0.289 C  
HETATM    7  C   UNL     1      -9.904  11.065  62.966  1.00  0.00    -0.370 C  
HETATM    8  C   UNL     1     -10.863  11.601  64.019  1.00  0.00    -0.455 C  
HETATM    9  C   UNL     1     -10.161  11.818  65.370  1.00  0.00    -0.254 C  
BRANCH   9  10
HETATM   10  C   UNL     1     -11.136  12.417  66.405  1.00  0.00    -0.301 C  
HETATM   11  N   UNL     1     -10.498  12.865  67.554  1.00  0.00    -0.222 N  
HETATM   12  O   UNL     1     -12.344  12.497  66.195  1.00  0.00    -0.596 OA 
HETATM   13  H   UNL     1      -9.495  12.711  67.652  1.00  0.00     0.000 HD 
BRANCH  11  14
HETATM   14  C   UNL     1     -11.191  13.530  68.595  1.00  0.00    -0.278 A  
HETATM   15  C   UNL     1     -11.403  14.924  68.510  1.00  0.00    -0.314 A  
HETATM   16  C   UNL     1     -10.785  15.809  67.461  1.00  0.00    -0.317 C  
HETATM   17  C   UNL     1     -12.126  15.568  69.530  1.00  0.00    -0.326 A  
HETATM   18  C   UNL     1     -12.652  14.854  70.602  1.00  0.00    -0.420 A  
HETATM   19  C   UNL     1     -12.458  13.480  70.677  1.00  0.00    -0.405 A  
HETATM   20  C   UNL     1     -11.739  12.799  69.677  1.00  0.00    -0.372 A  
HETATM   21  C   UNL     1     -11.621  11.303  69.803  1.00  0.00    -0.408 C  
ENDBRANCH  11  14
ENDBRANCH   9  10
ENDBRANCH   3   4
ENDBRANCH   2   3
TORSDOF 4
ENDMDL
MODEL       37
REMARK 921   NORMALIZED FREE ENERGY PREDICTED BY IDOCK:   -5.32 KCAL/MOL
REMARK 922        TOTAL FREE ENERGY PREDICTED BY IDOCK:   -7.09 KCAL/MOL
REMARK 923 INTER-LIGAND FREE ENERGY PREDICTED BY IDOCK:   -6.37 KCAL/MOL
REMARK 924 INTRA-LIGAND FREE ENERGY PREDICTED BY IDOCK:   -0.73 KCAL/MOL
REMARK 927      BINDING AFFINITY PREDICTED BY RF-SCORE:    0.00 PKD
ROOT
HETATM    1  C   UNL     1     -10.058   5.686  67.659  1.00  0.00    -0.208 C  
HETATM    2  C   UNL     1     -11.160   6.206  68.571  1.00  0.00    -0.352 C  
ENDROOT
BRANCH   2   3
HETATM    3  C   UNL     1     -10.603   6.614  69.945  1.00  0.00    -0.226 C  
BRANCH   3   4
HETATM    4  N   UNL     1     -11.608   7.256  70.823  1.00  0.00    -0.298 NA 
HETATM    5  C   UNL     1     -12.103   6.343  71.880  1.00  0.00    -0.310 C  
HETATM    6  C   UNL     1     -11.044   5.957  72.918  1.00  0.00    -0.306 C  
HETATM    7  C   UNL     1     -10.446   7.194  73.577  1.00  0.00    -0.422 C  
HETATM    8  C   UNL     1      -9.987   8.208  72.538  1.00  0.00    -0.372 C  
HETATM    9  C   UNL     1     -11.083   8.490  71.496  1.00  0.00    -0.275 C  
BRANCH   9  10
HETATM   10  C   UNL     1     -10.620   9.564  70.490  1.00  0.00    -0.297 C  
HETATM   11  N   UNL     1     -11.665  10.098  69.748  1.00  0.00    -0.425 N  
HETATM   12  O   UNL     1      -9.443   9.905  70.394  1.00  0.00    -0.205 OA 
HETATM   13  H   UNL     1     -12.601   9.713  69.869  1.00  0.00     0.000 HD 
BRANCH  11  14
HETATM   14  C   UNL     1     -11.476  11.159  68.829  1.00  0.00    -0.299 A  
HETATM   15  C   UNL     1     -11.041  10.873  67.516  1.00  0.00    -0.375 A  
HETATM   16  C   UNL     1     -10.584   9.514  67.055  1.00  0.00    -0.271 C  
HETATM   17  C   UNL     1     -10.892  11.931  66.600  1.00  0.00    -0.315 A  
HETATM   18  C   UNL     1     -11.188  13.242  66.960  1.00  0.00    -0.319 A  
HETATM   19  C   UNL     1     -11.633  13.521  68.246  1.00  0.00    -0.381 A  
HETATM   20  C   UNL     1     -11.792  12.490  69.192  1.00  0.00    -0.348 A  
HETATM   21  C   UNL     1     -12.330  12.869  70.547  1.00  0.00    -0.362 C  
ENDBRANCH  11  14
ENDBRANCH   9  10
ENDBRANCH   3   4
ENDBRANCH   2   3
TORSDOF 4
ENDMDL
MODEL       38
REMARK 921   NORMALIZED FREE ENERGY PREDICTED BY IDOCK:   -5.32 KCAL/MOL
REMARK 922        TOTAL FREE ENERGY PREDICTED BY IDOCK:   -7.09 KCAL/MOL
REMARK 923 INTER-LIGAND FREE ENERGY PREDICTED BY IDOCK:   -6.72 KCAL/MOL
REMARK 924 INTRA-LIGAND FREE ENERGY PREDICTED BY IDOCK:   -0.38 KCAL/MOL
REMARK 927      BINDING AFFINITY PREDICTED BY RF-SCORE:    0.00 PKD
ROOT
HETATM    1  C   UNL     1     -11.879  12.816  63.558  1.00  0.00    -0.618 C  
HETATM    2  C   UNL     1     -12.221  14.099  64.301  1.00  0.00    -0.449 C  
ENDROOT
BRANCH   2   3
HETATM    3  C   UNL     1     -11.040  14.579  65.161  1.00  0.00    -0.370 C  
BRANCH   3   4
HETATM    4  N   UNL     1     -11.386  14.762  66.589  1.00  0.00    -0.351 NA 
HETATM    5  C   UNL     1     -12.187  13.637  67.127  1.00  0.00    -0.297 C  
HETATM    6  C   UNL     1     -11.427  12.308  67.199  1.00  0.00    -0.419 C  
HETATM    7  C   UNL     1     -10.156  12.447  68.028  1.00  0.00    -0.214 C  
HETATM    8  C   UNL     1      -9.324  13.638  67.572  1.00  0.00    -0.223 C  
HETATM    9  C   UNL     1     -10.174  14.916  67.461  1.00  0.00    -0.233 C  
BRANCH   9  10
HETATM   10  C   UNL     1      -9.300  16.121  67.056  1.00  0.00    -0.218 C  
HETATM   11  N   UNL     1      -9.472  17.218  67.890  1.00  0.00    -0.261 N  
HETATM   12  O   UNL     1      -8.526  16.076  66.103  1.00  0.00    -0.323 OA 
HETATM   13  H   UNL     1     -10.175  17.171  68.627  1.00  0.00     0.000 HD 
BRANCH  11  14
HETATM   14  C   UNL     1      -8.704  18.400  67.752  1.00  0.00    -0.267 A  
HETATM   15  C   UNL     1      -9.252  19.511  67.072  1.00  0.00    -0.404 A  
HETATM   16  C   UNL     1     -10.551  19.478  66.312  1.00  0.00    -0.580 C  
HETATM   17  C   UNL     1      -8.495  20.693  66.973  1.00  0.00    -0.256 A  
HETATM   18  C   UNL     1      -7.234  20.791  67.553  1.00  0.00    -0.377 A  
HETATM   19  C   UNL     1      -6.702  19.705  68.237  1.00  0.00    -0.313 A  
HETATM   20  C   UNL     1      -7.427  18.504  68.355  1.00  0.00    -0.315 A  
HETATM   21  C   UNL     1      -6.804  17.393  69.159  1.00  0.00    -0.228 C  
ENDBRANCH  11  14
ENDBRANCH   9  10
ENDBRANCH   3   4
ENDBRANCH   2   3
TORSDOF 4
ENDMDL
MODEL       39
REMARK 921   NORMALIZED FREE ENERGY PREDICTED BY IDOCK:   -5.30 KCAL/MOL
REMARK 922        TOTAL FREE ENERGY PREDICTED BY IDOCK:   -7.07 KCAL/MOL
REMARK 923 INTER-LIGAND FREE ENERGY PREDICTED BY IDOCK:   -6.29 KCAL/MOL
REMARK 924 INTRA-LIGAND FREE ENERGY PREDICTED BY IDOCK:   -0.77 KCAL/MOL
REMARK 927      BINDING AFFINITY PREDICTED BY RF-SCORE:    0.00 PKD
ROOT
HETATM    1  C   UNL     1     -10.316  10.803  65.311  1.00  0.00    -0.327 C  
HETATM    2  C   UNL     1      -9.446   9.570  65.510  1.00  0.00    -0.334 C  
ENDROOT
BRANCH   2   3
HETATM    3  C   UNL     1      -9.346   9.189  66.996  1.00  0.00    -0.148 C  
BRANCH   3   4
HETATM    4  N   UNL     1     -10.415   8.267  67.442  1.00  0.00    -0.280 NA 
HETATM    5  C   UNL     1     -10.333   6.942  66.783  1.00  0.00    -0.217 C  
HETATM    6  C   UNL     1      -9.093   6.128  67.171  1.00  0.00    -0.114 C  
HETATM    7  C   UNL     1      -9.015   5.932  68.680  1.00  0.00    -0.116 C  
HETATM    8  C   UNL     1      -9.172   7.254  69.419  1.00  0.00    -0.148 C  
HETATM    9  C   UNL     1     -10.399   8.039  68.926  1.00  0.00    -0.209 C  
BRANCH   9  10
HETATM   10  C   UNL     1     -10.573   9.345  69.729  1.00  0.00    -0.231 C  
HETATM   11  N   UNL     1     -11.767   9.997  69.451  1.00  0.00    -0.471 N  
HETATM   12  O   UNL     1      -9.733   9.731  70.540  1.00  0.00    -0.249 OA 
HETATM   13  H   UNL     1     -12.376   9.619  68.726  1.00  0.00     0.000 HD 
BRANCH  11  14
HETATM   14  C   UNL     1     -12.169  11.167  70.141  1.00  0.00    -0.337 A  
HETATM   15  C   UNL     1     -12.854  11.048  71.371  1.00  0.00    -0.548 A  
HETATM   16  C   UNL     1     -13.356   9.746  71.935  1.00  0.00    -0.530 C  
HETATM   17  C   UNL     1     -13.216  12.217  72.066  1.00  0.00    -0.496 A  
HETATM   18  C   UNL     1     -12.890  13.478  71.574  1.00  0.00    -0.440 A  
HETATM   19  C   UNL     1     -12.201  13.593  70.374  1.00  0.00    -0.434 A  
HETATM   20  C   UNL     1     -11.823  12.448  69.647  1.00  0.00    -0.380 A  
HETATM   21  C   UNL     1     -11.031  12.657  68.383  1.00  0.00    -0.284 C  
ENDBRANCH  11  14
ENDBRANCH   9  10
ENDBRANCH   3   4
ENDBRANCH   2   3
TORSDOF 4
ENDMDL
MODEL       40
REMARK 921   NORMALIZED FREE ENERGY PREDICTED BY IDOCK:   -5.29 KCAL/MOL
REMARK 922        TOTAL FREE ENERGY PREDICTED BY IDOCK:   -7.06 KCAL/MOL
REMARK 923 INTER-LIGAND FREE ENERGY PREDICTED BY IDOCK:   -6.56 KCAL/MOL
REMARK 924 INTRA-LIGAND FREE ENERGY PREDICTED BY IDOCK:   -0.50 KCAL/MOL
REMARK 927      BINDING AFFINITY PREDICTED BY RF-SCORE:    0.00 PKD
ROOT
HETATM    1  C   UNL     1     -11.037  15.698  70.525  1.00  0.00    -0.375 C  
HETATM    2  C   UNL     1     -10.295  15.475  69.215  1.00  0.00    -0.252 C  
ENDROOT
BRANCH   2   3
HETATM    3  C   UNL     1     -10.409  14.014  68.750  1.00  0.00    -0.222 C  
BRANCH   3   4
HETATM    4  N   UNL     1     -11.775  13.635  68.322  1.00  0.00    -0.343 NA 
HETATM    5  C   UNL     1     -12.110  14.150  66.974  1.00  0.00    -0.414 C  
HETATM    6  C   UNL     1     -11.288  13.521  65.843  1.00  0.00    -0.321 C  
HETATM    7  C   UNL     1     -11.430  12.004  65.839  1.00  0.00    -0.392 C  
HETATM    8  C   UNL     1     -11.172  11.421  67.222  1.00  0.00    -0.370 C  
HETATM    9  C   UNL     1     -11.984  12.149  68.307  1.00  0.00    -0.187 C  
BRANCH   9  10
HETATM   10  C   UNL     1     -11.754  11.503  69.689  1.00  0.00    -0.351 C  
HETATM   11  N   UNL     1     -11.458  10.148  69.611  1.00  0.00    -0.373 N  
HETATM   12  O   UNL     1     -11.811  12.152  70.731  1.00  0.00    -0.166 OA 
HETATM   13  H   UNL     1     -11.481   9.691  68.700  1.00  0.00     0.000 HD 
BRANCH  11  14
HETATM   14  C   UNL     1     -11.125   9.380  70.753  1.00  0.00    -0.300 A  
HETATM   15  C   UNL     1      -9.766   9.182  71.087  1.00  0.00    -0.360 A  
HETATM   16  C   UNL     1      -8.614   9.587  70.207  1.00  0.00    -0.258 C  
HETATM   17  C   UNL     1      -9.447   8.449  72.244  1.00  0.00    -0.367 A  
HETATM   18  C   UNL     1     -10.442   7.939  73.072  1.00  0.00    -0.410 A  
HETATM   19  C   UNL     1     -11.778   8.149  72.753  1.00  0.00    -0.334 A  
HETATM   20  C   UNL     1     -12.139   8.875  71.603  1.00  0.00    -0.415 A  
HETATM   21  C   UNL     1     -13.607   9.105  71.358  1.00  0.00    -0.348 C  
ENDBRANCH  11  14
ENDBRANCH   9  10
ENDBRANCH   3   4
ENDBRANCH   2   3
TORSDOF 4
ENDMDL
MODEL       41
REMARK 921   NORMALIZED FREE ENERGY PREDICTED BY IDOCK:   -5.29 KCAL/MOL
REMARK 922        TOTAL FREE ENERGY PREDICTED BY IDOCK:   -7.05 KCAL/MOL
REMARK 923 INTER-LIGAND FREE ENERGY PREDICTED BY IDOCK:   -6.60 KCAL/MOL
REMARK 924 INTRA-LIGAND FREE ENERGY PREDICTED BY IDOCK:   -0.45 KCAL/MOL
REMARK 927      BINDING AFFINITY PREDICTED BY RF-SCORE:    0.00 PKD
ROOT
HETATM    1  C   UNL     1     -12.055  12.991  63.459  1.00  0.00    -0.617 C  
HETATM    2  C   UNL     1     -12.266  14.172  64.396  1.00  0.00    -0.466 C  
ENDROOT
BRANCH   2   3
HETATM    3  C   UNL     1     -10.992  14.486  65.196  1.00  0.00    -0.379 C  
BRANCH   3   4
HETATM    4  N   UNL     1     -11.207  14.518  66.661  1.00  0.00    -0.337 NA 
HETATM    5  C   UNL     1     -11.899  13.305  67.158  1.00  0.00    -0.374 C  
HETATM    6  C   UNL     1     -11.073  12.020  67.034  1.00  0.00    -0.351 C  
HETATM    7  C   UNL     1      -9.736  12.154  67.753  1.00  0.00    -0.197 C  
HETATM    8  C   UNL     1      -9.010  13.427  67.340  1.00  0.00    -0.215 C  
HETATM    9  C   UNL     1      -9.926  14.659  67.430  1.00  0.00    -0.231 C  
BRANCH   9  10
HETATM   10  C   UNL     1      -9.154  15.944  67.065  1.00  0.00    -0.217 C  
HETATM   11  N   UNL     1      -9.371  16.980  67.964  1.00  0.00    -0.240 N  
HETATM   12  O   UNL     1      -8.413  16.006  66.087  1.00  0.00    -0.323 OA 
HETATM   13  H   UNL     1     -10.042  16.844  68.719  1.00  0.00     0.000 HD 
BRANCH  11  14
HETATM   14  C   UNL     1      -8.692  18.220  67.868  1.00  0.00    -0.265 A  
HETATM   15  C   UNL     1      -7.364  18.323  68.337  1.00  0.00    -0.285 A  
HETATM   16  C   UNL     1      -6.654  17.242  69.108  1.00  0.00    -0.239 C  
HETATM   17  C   UNL     1      -6.686  19.549  68.204  1.00  0.00    -0.301 A  
HETATM   18  C   UNL     1      -7.293  20.645  67.599  1.00  0.00    -0.330 A  
HETATM   19  C   UNL     1      -8.593  20.538  67.121  1.00  0.00    -0.364 A  
HETATM   20  C   UNL     1      -9.305  19.330  67.239  1.00  0.00    -0.366 A  
HETATM   21  C   UNL     1     -10.690  19.279  66.647  1.00  0.00    -0.504 C  
ENDBRANCH  11  14
ENDBRANCH   9  10
ENDBRANCH   3   4
ENDBRANCH   2   3
TORSDOF 4
ENDMDL
MODEL       42
REMARK 921   NORMALIZED FREE ENERGY PREDICTED BY IDOCK:   -5.28 KCAL/MOL
REMARK 922        TOTAL FREE ENERGY PREDICTED BY IDOCK:   -7.04 KCAL/MOL
REMARK 923 INTER-LIGAND FREE ENERGY PREDICTED BY IDOCK:   -6.31 KCAL/MOL
REMARK 924 INTRA-LIGAND FREE ENERGY PREDICTED BY IDOCK:   -0.72 KCAL/MOL
REMARK 927      BINDING AFFINITY PREDICTED BY RF-SCORE:    0.00 PKD
ROOT
HETATM    1  C   UNL     1     -10.011   9.875  65.663  1.00  0.00    -0.353 C  
HETATM    2  C   UNL     1      -9.515   8.482  66.024  1.00  0.00    -0.256 C  
ENDROOT
BRANCH   2   3
HETATM    3  C   UNL     1      -9.494   8.273  67.547  1.00  0.00    -0.149 C  
BRANCH   3   4
HETATM    4  N   UNL     1     -10.664   7.521  68.056  1.00  0.00    -0.152 NA 
HETATM    5  C   UNL     1     -10.708   6.130  67.548  1.00  0.00    -0.313 C  
HETATM    6  C   UNL     1      -9.570   5.241  68.063  1.00  0.00    -0.163 C  
HETATM    7  C   UNL     1      -9.545   5.208  69.585  1.00  0.00    -0.234 C  
HETATM    8  C   UNL     1      -9.577   6.613  70.171  1.00  0.00    -0.168 C  
HETATM    9  C   UNL     1     -10.703   7.460  69.555  1.00  0.00    -0.224 C  
BRANCH   9  10
HETATM   10  C   UNL     1     -10.754   8.859  70.205  1.00  0.00    -0.225 C  
HETATM   11  N   UNL     1     -11.841   9.613  69.781  1.00  0.00    -0.447 N  
HETATM   12  O   UNL     1      -9.918   9.229  71.026  1.00  0.00    -0.270 OA 
HETATM   13  H   UNL     1     -12.453   9.233  69.060  1.00  0.00     0.000 HD 
BRANCH  11  14
HETATM   14  C   UNL     1     -12.129  10.892  70.317  1.00  0.00    -0.355 A  
HETATM   15  C   UNL     1     -11.718  12.048  69.616  1.00  0.00    -0.405 A  
HETATM   16  C   UNL     1     -10.826  12.028  68.404  1.00  0.00    -0.266 C  
HETATM   17  C   UNL     1     -12.042  13.314  70.138  1.00  0.00    -0.403 A  
HETATM   18  C   UNL     1     -12.776  13.443  71.313  1.00  0.00    -0.424 A  
HETATM   19  C   UNL     1     -13.195  12.306  71.992  1.00  0.00    -0.508 A  
HETATM   20  C   UNL     1     -12.889  11.021  71.504  1.00  0.00    -0.555 A  
HETATM   21  C   UNL     1     -13.426   9.841  72.270  1.00  0.00    -0.443 C  
ENDBRANCH  11  14
ENDBRANCH   9  10
ENDBRANCH   3   4
ENDBRANCH   2   3
TORSDOF 4
ENDMDL
MODEL       43
REMARK 921   NORMALIZED FREE ENERGY PREDICTED BY IDOCK:   -5.27 KCAL/MOL
REMARK 922        TOTAL FREE ENERGY PREDICTED BY IDOCK:   -7.03 KCAL/MOL
REMARK 923 INTER-LIGAND FREE ENERGY PREDICTED BY IDOCK:   -6.30 KCAL/MOL
REMARK 924 INTRA-LIGAND FREE ENERGY PREDICTED BY IDOCK:   -0.73 KCAL/MOL
REMARK 927      BINDING AFFINITY PREDICTED BY RF-SCORE:    0.00 PKD
ROOT
HETATM    1  C   UNL     1     -12.666   9.215  72.058  1.00  0.00    -0.473 C  
HETATM    2  C   UNL     1     -11.205   9.138  71.636  1.00  0.00    -0.447 C  
ENDROOT
BRANCH   2   3
HETATM    3  C   UNL     1     -11.064   9.138  70.106  1.00  0.00    -0.222 C  
BRANCH   3   4
HETATM    4  N   UNL     1      -9.847   8.444  69.625  1.00  0.00    -0.181 NA 
HETATM    5  C   UNL     1      -9.809   7.019  70.030  1.00  0.00    -0.177 C  
HETATM    6  C   UNL     1     -10.891   6.154  69.373  1.00  0.00    -0.420 C  
HETATM    7  C   UNL     1     -10.811   6.236  67.854  1.00  0.00    -0.417 C  
HETATM    8  C   UNL     1     -10.768   7.682  67.378  1.00  0.00    -0.318 C  
HETATM    9  C   UNL     1      -9.703   8.497  68.132  1.00  0.00    -0.155 C  
BRANCH   9  10
HETATM   10  C   UNL     1      -9.636   9.941  67.593  1.00  0.00    -0.148 C  
HETATM   11  N   UNL     1     -10.822  10.353  66.999  1.00  0.00    -0.240 N  
HETATM   12  O   UNL     1      -8.630  10.637  67.712  1.00  0.00    -0.121 OA 
HETATM   13  H   UNL     1     -11.585   9.684  66.908  1.00  0.00     0.000 HD 
BRANCH  11  14
HETATM   14  C   UNL     1     -11.008  11.672  66.517  1.00  0.00    -0.299 A  
HETATM   15  C   UNL     1     -10.812  11.945  65.145  1.00  0.00    -0.350 A  
HETATM   16  C   UNL     1     -10.238  10.959  64.162  1.00  0.00    -0.424 C  
HETATM   17  C   UNL     1     -11.035  13.250  64.669  1.00  0.00    -0.384 A  
HETATM   18  C   UNL     1     -11.467  14.263  65.520  1.00  0.00    -0.329 A  
HETATM   19  C   UNL     1     -11.677  13.990  66.866  1.00  0.00    -0.435 A  
HETATM   20  C   UNL     1     -11.461  12.698  67.381  1.00  0.00    -0.397 A  
HETATM   21  C   UNL     1     -11.764  12.472  68.839  1.00  0.00    -0.367 C  
ENDBRANCH  11  14
ENDBRANCH   9  10
ENDBRANCH   3   4
ENDBRANCH   2   3
TORSDOF 4
ENDMDL
MODEL       44
REMARK 921   NORMALIZED FREE ENERGY PREDICTED BY IDOCK:   -5.27 KCAL/MOL
REMARK 922        TOTAL FREE ENERGY PREDICTED BY IDOCK:   -7.03 KCAL/MOL
REMARK 923 INTER-LIGAND FREE ENERGY PREDICTED BY IDOCK:   -6.28 KCAL/MOL
REMARK 924 INTRA-LIGAND FREE ENERGY PREDICTED BY IDOCK:   -0.75 KCAL/MOL
REMARK 927      BINDING AFFINITY PREDICTED BY RF-SCORE:    0.00 PKD
ROOT
HETATM    1  C   UNL     1     -10.347   7.888  67.506  1.00  0.00    -0.329 C  
HETATM    2  C   UNL     1      -9.911   8.799  66.368  1.00  0.00    -0.352 C  
ENDROOT
BRANCH   2   3
HETATM    3  C   UNL     1     -10.277  10.265  66.653  1.00  0.00    -0.233 C  
BRANCH   3   4
HETATM    4  N   UNL     1      -9.386  11.238  65.981  1.00  0.00    -0.208 NA 
HETATM    5  C   UNL     1      -9.168  10.913  64.552  1.00  0.00    -0.201 C  
HETATM    6  C   UNL     1     -10.422  11.050  63.682  1.00  0.00    -0.388 C  
HETATM    7  C   UNL     1     -11.011  12.451  63.783  1.00  0.00    -0.501 C  
HETATM    8  C   UNL     1     -11.188  12.874  65.235  1.00  0.00    -0.319 C  
HETATM    9  C   UNL     1      -9.906  12.644  66.054  1.00  0.00    -0.254 C  
BRANCH   9  10
HETATM   10  C   UNL     1     -10.088  13.135  67.505  1.00  0.00    -0.222 C  
HETATM   11  N   UNL     1     -11.406  13.451  67.809  1.00  0.00    -0.278 N  
HETATM   12  O   UNL     1      -9.148  13.206  68.294  1.00  0.00    -0.196 OA 
HETATM   13  H   UNL     1     -12.106  13.403  67.070  1.00  0.00     0.000 HD 
BRANCH  11  14
HETATM   14  C   UNL     1     -11.811  13.837  69.110  1.00  0.00    -0.354 A  
HETATM   15  C   UNL     1     -12.175  12.846  70.048  1.00  0.00    -0.292 A  
HETATM   16  C   UNL     1     -12.338  11.387  69.714  1.00  0.00    -0.250 C  
HETATM   17  C   UNL     1     -12.540  13.237  71.349  1.00  0.00    -0.365 A  
HETATM   18  C   UNL     1     -12.525  14.576  71.729  1.00  0.00    -0.420 A  
HETATM   19  C   UNL     1     -12.149  15.549  70.812  1.00  0.00    -0.435 A  
HETATM   20  C   UNL     1     -11.780  15.198  69.500  1.00  0.00    -0.351 A  
HETATM   21  C   UNL     1     -11.334  16.307  68.584  1.00  0.00    -0.333 C  
ENDBRANCH  11  14
ENDBRANCH   9  10
ENDBRANCH   3   4
ENDBRANCH   2   3
TORSDOF 4
ENDMDL
MODEL       45
REMARK 921   NORMALIZED FREE ENERGY PREDICTED BY IDOCK:   -5.27 KCAL/MOL
REMARK 922        TOTAL FREE ENERGY PREDICTED BY IDOCK:   -7.03 KCAL/MOL
REMARK 923 INTER-LIGAND FREE ENERGY PREDICTED BY IDOCK:   -6.37 KCAL/MOL
REMARK 924 INTRA-LIGAND FREE ENERGY PREDICTED BY IDOCK:   -0.65 KCAL/MOL
REMARK 927      BINDING AFFINITY PREDICTED BY RF-SCORE:    0.00 PKD
ROOT
HETATM    1  C   UNL     1     -12.994  12.306  71.740  1.00  0.00    -0.431 C  
HETATM    2  C   UNL     1     -13.087  10.797  71.916  1.00  0.00    -0.557 C  
ENDROOT
BRANCH   2   3
HETATM    3  C   UNL     1     -12.348  10.057  70.789  1.00  0.00    -0.303 C  
BRANCH   3   4
HETATM    4  N   UNL     1     -11.131   9.348  71.246  1.00  0.00    -0.348 NA 
HETATM    5  C   UNL     1     -11.426   8.317  72.269  1.00  0.00    -0.384 C  
HETATM    6  C   UNL     1     -12.247   7.134  71.743  1.00  0.00    -0.379 C  
HETATM    7  C   UNL     1     -11.557   6.469  70.559  1.00  0.00    -0.455 C  
HETATM    8  C   UNL     1     -11.158   7.492  69.505  1.00  0.00    -0.063 C  
HETATM    9  C   UNL     1     -10.396   8.678  70.122  1.00  0.00    -0.207 C  
BRANCH   9  10
HETATM   10  C   UNL     1      -9.950   9.671  69.029  1.00  0.00    -0.185 C  
HETATM   11  N   UNL     1     -10.808   9.696  67.937  1.00  0.00    -0.426 N  
HETATM   12  O   UNL     1      -8.947  10.370  69.151  1.00  0.00    -0.169 OA 
HETATM   13  H   UNL     1     -11.589   9.041  67.910  1.00  0.00     0.000 HD 
BRANCH  11  14
HETATM   14  C   UNL     1     -10.635  10.599  66.859  1.00  0.00    -0.254 A  
HETATM   15  C   UNL     1     -10.035  10.147  65.663  1.00  0.00    -0.348 A  
HETATM   16  C   UNL     1      -9.391   8.796  65.499  1.00  0.00    -0.165 C  
HETATM   17  C   UNL     1      -9.902  11.042  64.586  1.00  0.00    -0.338 A  
HETATM   18  C   UNL     1     -10.371  12.349  64.673  1.00  0.00    -0.332 A  
HETATM   19  C   UNL     1     -10.977  12.788  65.843  1.00  0.00    -0.303 A  
HETATM   20  C   UNL     1     -11.126  11.924  66.944  1.00  0.00    -0.356 A  
HETATM   21  C   UNL     1     -11.843  12.460  68.156  1.00  0.00    -0.372 C  
ENDBRANCH  11  14
ENDBRANCH   9  10
ENDBRANCH   3   4
ENDBRANCH   2   3
TORSDOF 4
ENDMDL
MODEL       46
REMARK 921   NORMALIZED FREE ENERGY PREDICTED BY IDOCK:   -5.25 KCAL/MOL
REMARK 922        TOTAL FREE ENERGY PREDICTED BY IDOCK:   -7.00 KCAL/MOL
REMARK 923 INTER-LIGAND FREE ENERGY PREDICTED BY IDOCK:   -6.28 KCAL/MOL
REMARK 924 INTRA-LIGAND FREE ENERGY PREDICTED BY IDOCK:   -0.73 KCAL/MOL
REMARK 927      BINDING AFFINITY PREDICTED BY RF-SCORE:    0.00 PKD
ROOT
HETATM    1  C   UNL     1     -12.990   9.314  71.956  1.00  0.00    -0.504 C  
HETATM    2  C   UNL     1     -11.506   9.325  71.621  1.00  0.00    -0.468 C  
ENDROOT
BRANCH   2   3
HETATM    3  C   UNL     1     -11.274   9.258  70.103  1.00  0.00    -0.208 C  
BRANCH   3   4
HETATM    4  N   UNL     1     -10.040   8.532  69.726  1.00  0.00    -0.192 NA 
HETATM    5  C   UNL     1     -10.050   7.122  70.183  1.00  0.00    -0.188 C  
HETATM    6  C   UNL     1     -11.101   6.248  69.490  1.00  0.00    -0.476 C  
HETATM    7  C   UNL     1     -10.924   6.274  67.977  1.00  0.00    -0.418 C  
HETATM    8  C   UNL     1     -10.829   7.700  67.453  1.00  0.00    -0.240 C  
HETATM    9  C   UNL     1      -9.802   8.528  68.243  1.00  0.00    -0.169 C  
BRANCH   9  10
HETATM   10  C   UNL     1      -9.678   9.951  67.659  1.00  0.00    -0.155 C  
HETATM   11  N   UNL     1     -10.809  10.348  66.958  1.00  0.00    -0.240 N  
HETATM   12  O   UNL     1      -8.678  10.644  67.832  1.00  0.00    -0.125 OA 
HETATM   13  H   UNL     1     -11.569   9.680  66.831  1.00  0.00     0.000 HD 
BRANCH  11  14
HETATM   14  C   UNL     1     -10.944  11.649  66.414  1.00  0.00    -0.295 A  
HETATM   15  C   UNL     1     -11.363  12.711  67.247  1.00  0.00    -0.372 A  
HETATM   16  C   UNL     1     -11.857  12.532  68.658  1.00  0.00    -0.340 C  
HETATM   17  C   UNL     1     -11.458  14.006  66.706  1.00  0.00    -0.379 A  
HETATM   18  C   UNL     1     -11.125  14.259  65.379  1.00  0.00    -0.327 A  
HETATM   19  C   UNL     1     -10.695  13.218  64.565  1.00  0.00    -0.428 A  
HETATM   20  C   UNL     1     -10.590  11.907  65.068  1.00  0.00    -0.335 A  
HETATM   21  C   UNL     1     -10.064  10.846  64.137  1.00  0.00    -0.416 C  
ENDBRANCH  11  14
ENDBRANCH   9  10
ENDBRANCH   3   4
ENDBRANCH   2   3
TORSDOF 4
ENDMDL
MODEL       47
REMARK 921   NORMALIZED FREE ENERGY PREDICTED BY IDOCK:   -5.24 KCAL/MOL
REMARK 922        TOTAL FREE ENERGY PREDICTED BY IDOCK:   -6.99 KCAL/MOL
REMARK 923 INTER-LIGAND FREE ENERGY PREDICTED BY IDOCK:   -7.00 KCAL/MOL
REMARK 924 INTRA-LIGAND FREE ENERGY PREDICTED BY IDOCK:    0.01 KCAL/MOL
REMARK 927      BINDING AFFINITY PREDICTED BY RF-SCORE:    0.00 PKD
ROOT
HETATM    1  C   UNL     1      -6.271  18.553  67.801  1.00  0.00    -0.189 C  
HETATM    2  C   UNL     1      -7.240  18.533  68.974  1.00  0.00    -0.262 C  
ENDROOT
BRANCH   2   3
HETATM    3  C   UNL     1      -8.340  17.478  68.774  1.00  0.00    -0.219 C  
BRANCH   3   4
HETATM    4  N   UNL     1      -9.692  18.058  68.604  1.00  0.00    -0.342 NA 
HETATM    5  C   UNL     1      -9.730  19.110  67.561  1.00  0.00    -0.316 C  
HETATM    6  C   UNL     1      -9.479  18.591  66.141  1.00  0.00    -0.175 C  
HETATM    7  C   UNL     1     -10.473  17.497  65.773  1.00  0.00    -0.212 C  
HETATM    8  C   UNL     1     -10.536  16.421  66.848  1.00  0.00    -0.289 C  
HETATM    9  C   UNL     1     -10.723  17.027  68.249  1.00  0.00    -0.372 C  
BRANCH   9  10
HETATM   10  C   UNL     1     -10.845  15.918  69.314  1.00  0.00    -0.276 C  
HETATM   11  N   UNL     1     -12.077  15.278  69.292  1.00  0.00    -0.524 N  
HETATM   12  O   UNL     1      -9.921  15.638  70.075  1.00  0.00    -0.290 OA 
HETATM   13  H   UNL     1     -12.795  15.616  68.652  1.00  0.00     0.000 HD 
BRANCH  11  14
HETATM   14  C   UNL     1     -12.370  14.171  70.125  1.00  0.00    -0.351 A  
HETATM   15  C   UNL     1     -13.136  14.366  71.296  1.00  0.00    -0.421 A  
HETATM   16  C   UNL     1     -13.528  15.717  71.834  1.00  0.00    -0.537 C  
HETATM   17  C   UNL     1     -13.453  13.254  72.098  1.00  0.00    -0.655 A  
HETATM   18  C   UNL     1     -13.047  11.971  71.744  1.00  0.00    -0.460 A  
HETATM   19  C   UNL     1     -12.309  11.777  70.583  1.00  0.00    -0.421 A  
HETATM   20  C   UNL     1     -11.969  12.865  69.756  1.00  0.00    -0.365 A  
HETATM   21  C   UNL     1     -11.214  12.563  68.488  1.00  0.00    -0.322 C  
ENDBRANCH  11  14
ENDBRANCH   9  10
ENDBRANCH   3   4
ENDBRANCH   2   3
TORSDOF 4
ENDMDL
MODEL       48
REMARK 921   NORMALIZED FREE ENERGY PREDICTED BY IDOCK:   -5.23 KCAL/MOL
REMARK 922        TOTAL FREE ENERGY PREDICTED BY IDOCK:   -6.99 KCAL/MOL
REMARK 923 INTER-LIGAND FREE ENERGY PREDICTED BY IDOCK:   -6.53 KCAL/MOL
REMARK 924 INTRA-LIGAND FREE ENERGY PREDICTED BY IDOCK:   -0.46 KCAL/MOL
REMARK 927      BINDING AFFINITY PREDICTED BY RF-SCORE:    0.00 PKD
ROOT
HETATM    1  C   UNL     1     -11.706  11.232  68.731  1.00  0.00    -0.405 C  
HETATM    2  C   UNL     1     -10.604  12.243  68.450  1.00  0.00    -0.250 C  
ENDROOT
BRANCH   2   3
HETATM    3  C   UNL     1     -10.928  13.095  67.212  1.00  0.00    -0.268 C  
BRANCH   3   4
HETATM    4  N   UNL     1      -9.862  13.076  66.185  1.00  0.00    -0.277 NA 
HETATM    5  C   UNL     1      -9.708  11.744  65.553  1.00  0.00    -0.224 C  
HETATM    6  C   UNL     1     -10.909  11.314  64.703  1.00  0.00    -0.335 C  
HETATM    7  C   UNL     1     -11.211  12.342  63.620  1.00  0.00    -0.544 C  
HETATM    8  C   UNL     1     -11.304  13.747  64.199  1.00  0.00    -0.277 C  
HETATM    9  C   UNL     1     -10.095  14.076  65.091  1.00  0.00    -0.314 C  
BRANCH   9  10
HETATM   10  C   UNL     1     -10.181  15.523  65.618  1.00  0.00    -0.376 C  
HETATM   11  N   UNL     1      -9.447  15.721  66.780  1.00  0.00    -0.229 N  
HETATM   12  O   UNL     1     -10.822  16.395  65.034  1.00  0.00    -0.591 OA 
HETATM   13  H   UNL     1      -8.986  14.921  67.213  1.00  0.00     0.000 HD 
BRANCH  11  14
HETATM   14  C   UNL     1      -9.315  16.995  67.384  1.00  0.00    -0.239 A  
HETATM   15  C   UNL     1      -8.301  17.873  66.941  1.00  0.00    -0.260 A  
HETATM   16  C   UNL     1      -7.214  17.488  65.974  1.00  0.00    -0.298 C  
HETATM   17  C   UNL     1      -8.203  19.151  67.522  1.00  0.00    -0.310 A  
HETATM   18  C   UNL     1      -9.097  19.567  68.504  1.00  0.00    -0.406 A  
HETATM   19  C   UNL     1     -10.105  18.709  68.927  1.00  0.00    -0.357 A  
HETATM   20  C   UNL     1     -10.235  17.422  68.372  1.00  0.00    -0.362 A  
HETATM   21  C   UNL     1     -11.387  16.575  68.846  1.00  0.00    -0.206 C  
ENDBRANCH  11  14
ENDBRANCH   9  10
ENDBRANCH   3   4
ENDBRANCH   2   3
TORSDOF 4
ENDMDL
MODEL       49
REMARK 921   NORMALIZED FREE ENERGY PREDICTED BY IDOCK:   -5.22 KCAL/MOL
REMARK 922        TOTAL FREE ENERGY PREDICTED BY IDOCK:   -6.96 KCAL/MOL
REMARK 923 INTER-LIGAND FREE ENERGY PREDICTED BY IDOCK:   -6.66 KCAL/MOL
REMARK 924 INTRA-LIGAND FREE ENERGY PREDICTED BY IDOCK:   -0.31 KCAL/MOL
REMARK 927      BINDING AFFINITY PREDICTED BY RF-SCORE:    0.00 PKD
ROOT
HETATM    1  C   UNL     1     -11.059  10.279  68.010  1.00  0.00    -0.336 C  
HETATM    2  C   UNL     1     -10.274  10.844  66.835  1.00  0.00    -0.272 C  
ENDROOT
BRANCH   2   3
HETATM    3  C   UNL     1     -10.740  12.266  66.483  1.00  0.00    -0.246 C  
BRANCH   3   4
HETATM    4  N   UNL     1     -10.071  12.829  65.288  1.00  0.00    -0.274 NA 
HETATM    5  C   UNL     1     -10.307  12.016  64.072  1.00  0.00    -0.373 C  
HETATM    6  C   UNL     1     -11.763  12.017  63.593  1.00  0.00    -0.587 C  
HETATM    7  C   UNL     1     -12.256  13.437  63.340  1.00  0.00    -0.419 C  
HETATM    8  C   UNL     1     -11.970  14.343  64.529  1.00  0.00    -0.487 C  
HETATM    9  C   UNL     1     -10.507  14.234  64.989  1.00  0.00    -0.435 C  
BRANCH   9  10
HETATM   10  C   UNL     1     -10.225  15.203  66.155  1.00  0.00    -0.295 C  
HETATM   11  N   UNL     1      -9.145  16.042  65.913  1.00  0.00    -0.315 N  
HETATM   12  O   UNL     1     -10.916  15.223  67.171  1.00  0.00    -0.324 OA 
HETATM   13  H   UNL     1      -8.606  15.915  65.057  1.00  0.00     0.000 HD 
BRANCH  11  14
HETATM   14  C   UNL     1      -8.767  17.068  66.812  1.00  0.00    -0.245 A  
HETATM   15  C   UNL     1      -9.497  18.278  66.835  1.00  0.00    -0.290 A  
HETATM   16  C   UNL     1     -10.562  18.639  65.834  1.00  0.00    -0.365 C  
HETATM   17  C   UNL     1      -9.137  19.276  67.758  1.00  0.00    -0.359 A  
HETATM   18  C   UNL     1      -8.094  19.082  68.659  1.00  0.00    -0.397 A  
HETATM   19  C   UNL     1      -7.388  17.886  68.649  1.00  0.00    -0.271 A  
HETATM   20  C   UNL     1      -7.716  16.863  67.739  1.00  0.00    -0.184 A  
HETATM   21  C   UNL     1      -6.938  15.577  67.829  1.00  0.00    -0.185 C  
ENDBRANCH  11  14
ENDBRANCH   9  10
ENDBRANCH   3   4
ENDBRANCH   2   3
TORSDOF 4
ENDMDL
MODEL       50
REMARK 921   NORMALIZED FREE ENERGY PREDICTED BY IDOCK:   -5.21 KCAL/MOL
REMARK 922        TOTAL FREE ENERGY PREDICTED BY IDOCK:   -6.96 KCAL/MOL
REMARK 923 INTER-LIGAND FREE ENERGY PREDICTED BY IDOCK:   -6.20 KCAL/MOL
REMARK 924 INTRA-LIGAND FREE ENERGY PREDICTED BY IDOCK:   -0.76 KCAL/MOL
REMARK 927      BINDING AFFINITY PREDICTED BY RF-SCORE:    0.00 PKD
ROOT
HETATM    1  C   UNL     1      -7.268  13.145  67.677  1.00  0.00    -0.160 C  
HETATM    2  C   UNL     1      -8.726  13.337  67.283  1.00  0.00    -0.214 C  
ENDROOT
BRANCH   2   3
HETATM    3  C   UNL     1      -9.533  13.981  68.422  1.00  0.00    -0.213 C  
BRANCH   3   4
HETATM    4  N   UNL     1     -10.850  14.503  67.990  1.00  0.00    -0.241 NA 
HETATM    5  C   UNL     1     -11.980  13.746  68.579  1.00  0.00    -0.367 C  
HETATM    6  C   UNL     1     -12.112  13.902  70.098  1.00  0.00    -0.418 C  
HETATM    7  C   UNL     1     -12.244  15.369  70.490  1.00  0.00    -0.436 C  
HETATM    8  C   UNL     1     -11.152  16.214  69.850  1.00  0.00    -0.357 C  
HETATM    9  C   UNL     1     -11.040  15.950  68.339  1.00  0.00    -0.345 C  
BRANCH   9  10
HETATM   10  C   UNL     1      -9.970  16.860  67.701  1.00  0.00    -0.271 C  
HETATM   11  N   UNL     1      -9.427  17.769  68.599  1.00  0.00    -0.291 N  
HETATM   12  O   UNL     1      -9.637  16.750  66.523  1.00  0.00    -0.241 OA 
HETATM   13  H   UNL     1      -9.805  17.812  69.545  1.00  0.00     0.000 HD 
BRANCH  11  14
HETATM   14  C   UNL     1      -8.367  18.639  68.247  1.00  0.00    -0.324 A  
HETATM   15  C   UNL     1      -8.659  19.887  67.651  1.00  0.00    -0.385 A  
HETATM   16  C   UNL     1     -10.031  20.301  67.191  1.00  0.00    -0.593 C  
HETATM   17  C   UNL     1      -7.601  20.760  67.339  1.00  0.00    -0.349 A  
HETATM   18  C   UNL     1      -6.281  20.424  67.629  1.00  0.00    -0.277 A  
HETATM   19  C   UNL     1      -5.996  19.205  68.231  1.00  0.00    -0.228 A  
HETATM   20  C   UNL     1      -7.027  18.304  68.556  1.00  0.00    -0.261 A  
HETATM   21  C   UNL     1      -6.638  17.028  69.256  1.00  0.00    -0.233 C  
ENDBRANCH  11  14
ENDBRANCH   9  10
ENDBRANCH   3   4
ENDBRANCH   2   3
TORSDOF 4
ENDMDL
MODEL       51
REMARK 921   NORMALIZED FREE ENERGY PREDICTED BY IDOCK:   -5.18 KCAL/MOL
REMARK 922        TOTAL FREE ENERGY PREDICTED BY IDOCK:   -6.92 KCAL/MOL
REMARK 923 INTER-LIGAND FREE ENERGY PREDICTED BY IDOCK:   -6.29 KCAL/MOL
REMARK 924 INTRA-LIGAND FREE ENERGY PREDICTED BY IDOCK:   -0.62 KCAL/MOL
REMARK 927      BINDING AFFINITY PREDICTED BY RF-SCORE:    0.00 PKD
ROOT
HETATM    1  C   UNL     1     -12.481  12.405  64.459  1.00  0.00    -0.519 C  
HETATM    2  C   UNL     1     -11.807  13.686  64.928  1.00  0.00    -0.398 C  
ENDROOT
BRANCH   2   3
HETATM    3  C   UNL     1     -12.036  13.921  66.430  1.00  0.00    -0.438 C  
BRANCH   3   4
HETATM    4  N   UNL     1     -10.783  13.968  67.218  1.00  0.00    -0.276 NA 
HETATM    5  C   UNL     1     -10.355  15.355  67.519  1.00  0.00    -0.264 C  
HETATM    6  C   UNL     1     -11.298  16.108  68.464  1.00  0.00    -0.359 C  
HETATM    7  C   UNL     1     -11.479  15.353  69.775  1.00  0.00    -0.338 C  
HETATM    8  C   UNL     1     -11.845  13.896  69.530  1.00  0.00    -0.383 C  
HETATM    9  C   UNL     1     -10.892  13.232  68.522  1.00  0.00    -0.265 C  
BRANCH   9  10
HETATM   10  C   UNL     1     -11.244  11.742  68.334  1.00  0.00    -0.251 C  
HETATM   11  N   UNL     1     -10.123  10.924  68.277  1.00  0.00    -0.168 N  
HETATM   12  O   UNL     1     -12.406  11.348  68.267  1.00  0.00    -0.506 OA 
HETATM   13  H   UNL     1      -9.199  11.353  68.294  1.00  0.00     0.000 HD 
BRANCH  11  14
HETATM   14  C   UNL     1     -10.220   9.513  68.196  1.00  0.00    -0.193 A  
HETATM   15  C   UNL     1     -10.105   8.879  66.939  1.00  0.00    -0.343 A  
HETATM   16  C   UNL     1     -10.061   9.611  65.625  1.00  0.00    -0.231 C  
HETATM   17  C   UNL     1     -10.165   7.474  66.875  1.00  0.00    -0.359 A  
HETATM   18  C   UNL     1     -10.310   6.706  68.026  1.00  0.00    -0.226 A  
HETATM   19  C   UNL     1     -10.405   7.329  69.264  1.00  0.00    -0.208 A  
HETATM   20  C   UNL     1     -10.352   8.732  69.370  1.00  0.00    -0.217 A  
HETATM   21  C   UNL     1     -10.407   9.326  70.753  1.00  0.00    -0.348 C  
ENDBRANCH  11  14
ENDBRANCH   9  10
ENDBRANCH   3   4
ENDBRANCH   2   3
TORSDOF 4
ENDMDL
MODEL       52
REMARK 921   NORMALIZED FREE ENERGY PREDICTED BY IDOCK:   -5.18 KCAL/MOL
REMARK 922        TOTAL FREE ENERGY PREDICTED BY IDOCK:   -6.91 KCAL/MOL
REMARK 923 INTER-LIGAND FREE ENERGY PREDICTED BY IDOCK:   -6.37 KCAL/MOL
REMARK 924 INTRA-LIGAND FREE ENERGY PREDICTED BY IDOCK:   -0.54 KCAL/MOL
REMARK 927      BINDING AFFINITY PREDICTED BY RF-SCORE:    0.00 PKD
ROOT
HETATM    1  C   UNL     1     -14.398   8.001  71.990  1.00  0.00    -0.511 C  
HETATM    2  C   UNL     1     -13.554   9.233  72.280  1.00  0.00    -0.544 C  
ENDROOT
BRANCH   2   3
HETATM    3  C   UNL     1     -12.827   9.723  71.017  1.00  0.00    -0.291 C  
BRANCH   3   4
HETATM    4  N   UNL     1     -11.363   9.864  71.195  1.00  0.00    -0.376 NA 
HETATM    5  C   UNL     1     -10.776   8.743  71.967  1.00  0.00    -0.347 C  
HETATM    6  C   UNL     1     -10.832   7.392  71.245  1.00  0.00    -0.258 C  
HETATM    7  C   UNL     1     -10.147   7.466  69.887  1.00  0.00    -0.195 C  
HETATM    8  C   UNL     1     -10.655   8.649  69.074  1.00  0.00    -0.179 C  
HETATM    9  C   UNL     1     -10.628   9.953  69.890  1.00  0.00    -0.273 C  
BRANCH   9  10
HETATM   10  C   UNL     1     -11.090  11.147  69.029  1.00  0.00    -0.242 C  
HETATM   11  N   UNL     1     -10.464  12.338  69.375  1.00  0.00    -0.390 N  
HETATM   12  O   UNL     1     -11.911  11.022  68.123  1.00  0.00    -0.573 OA 
HETATM   13  H   UNL     1      -9.831  12.346  70.174  1.00  0.00     0.000 HD 
BRANCH  11  14
HETATM   14  C   UNL     1     -10.674  13.540  68.656  1.00  0.00    -0.253 A  
HETATM   15  C   UNL     1     -11.588  14.496  69.152  1.00  0.00    -0.331 A  
HETATM   16  C   UNL     1     -12.508  14.257  70.320  1.00  0.00    -0.422 C  
HETATM   17  C   UNL     1     -11.762  15.703  68.451  1.00  0.00    -0.301 A  
HETATM   18  C   UNL     1     -11.034  15.976  67.297  1.00  0.00    -0.207 A  
HETATM   19  C   UNL     1     -10.122  15.044  66.819  1.00  0.00    -0.257 A  
HETATM   20  C   UNL     1      -9.922  13.823  67.491  1.00  0.00    -0.233 A  
HETATM   21  C   UNL     1      -8.876  12.890  66.939  1.00  0.00    -0.188 C  
ENDBRANCH  11  14
ENDBRANCH   9  10
ENDBRANCH   3   4
ENDBRANCH   2   3
TORSDOF 4
ENDMDL
MODEL       53
REMARK 921   NORMALIZED FREE ENERGY PREDICTED BY IDOCK:   -5.17 KCAL/MOL
REMARK 922        TOTAL FREE ENERGY PREDICTED BY IDOCK:   -6.91 KCAL/MOL
REMARK 923 INTER-LIGAND FREE ENERGY PREDICTED BY IDOCK:   -6.54 KCAL/MOL
REMARK 924 INTRA-LIGAND FREE ENERGY PREDICTED BY IDOCK:   -0.37 KCAL/MOL
REMARK 927      BINDING AFFINITY PREDICTED BY RF-SCORE:    0.00 PKD
ROOT
HETATM    1  C   UNL     1     -12.767  14.450  70.434  1.00  0.00    -0.362 C  
HETATM    2  C   UNL     1     -12.038  13.606  69.398  1.00  0.00    -0.364 C  
ENDROOT
BRANCH   2   3
HETATM    3  C   UNL     1     -11.840  14.380  68.085  1.00  0.00    -0.327 C  
BRANCH   3   4
HETATM    4  N   UNL     1     -10.868  13.744  67.166  1.00  0.00    -0.281 NA 
HETATM    5  C   UNL     1     -11.474  12.653  66.367  1.00  0.00    -0.356 C  
HETATM    6  C   UNL     1     -12.528  13.127  65.360  1.00  0.00    -0.535 C  
HETATM    7  C   UNL     1     -11.951  14.169  64.411  1.00  0.00    -0.478 C  
HETATM    8  C   UNL     1     -11.245  15.282  65.173  1.00  0.00    -0.374 C  
HETATM    9  C   UNL     1     -10.253  14.723  66.208  1.00  0.00    -0.298 C  
BRANCH   9  10
HETATM   10  C   UNL     1      -9.506  15.866  66.925  1.00  0.00    -0.227 C  
HETATM   11  N   UNL     1      -9.254  16.952  66.096  1.00  0.00    -0.262 N  
HETATM   12  O   UNL     1      -9.201  15.803  68.114  1.00  0.00    -0.187 OA 
HETATM   13  H   UNL     1      -9.506  16.888  65.111  1.00  0.00     0.000 HD 
BRANCH  11  14
HETATM   14  C   UNL     1      -8.657  18.145  66.573  1.00  0.00    -0.263 A  
HETATM   15  C   UNL     1      -7.249  18.250  66.616  1.00  0.00    -0.244 A  
HETATM   16  C   UNL     1      -6.309  17.103  66.353  1.00  0.00    -0.217 C  
HETATM   17  C   UNL     1      -6.667  19.452  67.055  1.00  0.00    -0.203 A  
HETATM   18  C   UNL     1      -7.452  20.541  67.423  1.00  0.00    -0.374 A  
HETATM   19  C   UNL     1      -8.837  20.443  67.364  1.00  0.00    -0.430 A  
HETATM   20  C   UNL     1      -9.457  19.256  66.932  1.00  0.00    -0.386 A  
HETATM   21  C   UNL     1     -10.961  19.251  66.845  1.00  0.00    -0.373 C  
ENDBRANCH  11  14
ENDBRANCH   9  10
ENDBRANCH   3   4
ENDBRANCH   2   3
TORSDOF 4
ENDMDL
MODEL       54
REMARK 921   NORMALIZED FREE ENERGY PREDICTED BY IDOCK:   -5.17 KCAL/MOL
REMARK 922        TOTAL FREE ENERGY PREDICTED BY IDOCK:   -6.91 KCAL/MOL
REMARK 923 INTER-LIGAND FREE ENERGY PREDICTED BY IDOCK:   -6.50 KCAL/MOL
REMARK 924 INTRA-LIGAND FREE ENERGY PREDICTED BY IDOCK:   -0.41 KCAL/MOL
REMARK 927      BINDING AFFINITY PREDICTED BY RF-SCORE:    0.00 PKD
ROOT
HETATM    1  C   UNL     1     -12.022  12.996  64.141  1.00  0.00    -0.494 C  
HETATM    2  C   UNL     1     -11.979  14.275  64.965  1.00  0.00    -0.412 C  
ENDROOT
BRANCH   2   3
HETATM    3  C   UNL     1     -12.099  13.976  66.468  1.00  0.00    -0.459 C  
BRANCH   3   4
HETATM    4  N   UNL     1     -10.800  13.986  67.178  1.00  0.00    -0.283 NA 
HETATM    5  C   UNL     1     -10.341  15.357  67.502  1.00  0.00    -0.264 C  
HETATM    6  C   UNL     1     -11.216  16.081  68.532  1.00  0.00    -0.374 C  
HETATM    7  C   UNL     1     -11.323  15.279  69.823  1.00  0.00    -0.306 C  
HETATM    8  C   UNL     1     -11.717  13.835  69.547  1.00  0.00    -0.380 C  
HETATM    9  C   UNL     1     -10.835  13.202  68.458  1.00  0.00    -0.262 C  
BRANCH   9  10
HETATM   10  C   UNL     1     -11.212  11.722  68.237  1.00  0.00    -0.255 C  
HETATM   11  N   UNL     1     -10.127  10.864  68.354  1.00  0.00    -0.176 N  
HETATM   12  O   UNL     1     -12.366  11.369  68.007  1.00  0.00    -0.444 OA 
HETATM   13  H   UNL     1      -9.199  11.261  68.501  1.00  0.00     0.000 HD 
BRANCH  11  14
HETATM   14  C   UNL     1     -10.264   9.456  68.276  1.00  0.00    -0.196 A  
HETATM   15  C   UNL     1     -10.577   8.723  69.442  1.00  0.00    -0.218 A  
HETATM   16  C   UNL     1     -10.605   9.312  70.828  1.00  0.00    -0.351 C  
HETATM   17  C   UNL     1     -10.747   7.329  69.348  1.00  0.00    -0.236 A  
HETATM   18  C   UNL     1     -10.637   6.672  68.126  1.00  0.00    -0.294 A  
HETATM   19  C   UNL     1     -10.347   7.396  66.977  1.00  0.00    -0.384 A  
HETATM   20  C   UNL     1     -10.166   8.791  67.031  1.00  0.00    -0.351 A  
HETATM   21  C   UNL     1      -9.909   9.508  65.732  1.00  0.00    -0.363 C  
ENDBRANCH  11  14
ENDBRANCH   9  10
ENDBRANCH   3   4
ENDBRANCH   2   3
TORSDOF 4
ENDMDL
MODEL       55
REMARK 921   NORMALIZED FREE ENERGY PREDICTED BY IDOCK:   -5.16 KCAL/MOL
REMARK 922        TOTAL FREE ENERGY PREDICTED BY IDOCK:   -6.89 KCAL/MOL
REMARK 923 INTER-LIGAND FREE ENERGY PREDICTED BY IDOCK:   -6.47 KCAL/MOL
REMARK 924 INTRA-LIGAND FREE ENERGY PREDICTED BY IDOCK:   -0.42 KCAL/MOL
REMARK 927      BINDING AFFINITY PREDICTED BY RF-SCORE:    0.00 PKD
ROOT
HETATM    1  C   UNL     1     -12.540  10.109  70.832  1.00  0.00    -0.454 C  
HETATM    2  C   UNL     1     -12.718  11.557  71.266  1.00  0.00    -0.469 C  
ENDROOT
BRANCH   2   3
HETATM    3  C   UNL     1     -11.871  12.508  70.404  1.00  0.00    -0.160 C  
BRANCH   3   4
HETATM    4  N   UNL     1     -12.668  13.546  69.712  1.00  0.00     0.052 NA 
HETATM    5  C   UNL     1     -12.957  14.711  70.581  1.00  0.00    -0.313 C  
HETATM    6  C   UNL     1     -11.717  15.530  70.960  1.00  0.00    -0.423 C  
HETATM    7  C   UNL     1     -10.978  16.013  69.718  1.00  0.00    -0.334 C  
HETATM    8  C   UNL     1     -10.720  14.869  68.747  1.00  0.00    -0.252 C  
HETATM    9  C   UNL     1     -11.998  14.058  68.471  1.00  0.00    -0.348 C  
BRANCH   9  10
HETATM   10  C   UNL     1     -11.727  12.944  67.439  1.00  0.00    -0.372 C  
HETATM   11  N   UNL     1     -10.810  13.317  66.466  1.00  0.00    -0.280 N  
HETATM   12  O   UNL     1     -12.267  11.842  67.511  1.00  0.00    -0.526 OA 
HETATM   13  H   UNL     1     -10.454  14.273  66.467  1.00  0.00     0.000 HD 
BRANCH  11  14
HETATM   14  C   UNL     1     -10.351  12.417  65.474  1.00  0.00    -0.271 A  
HETATM   15  C   UNL     1      -9.319  11.505  65.786  1.00  0.00    -0.238 A  
HETATM   16  C   UNL     1      -8.529  11.530  67.068  1.00  0.00    -0.164 C  
HETATM   17  C   UNL     1      -8.896  10.590  64.805  1.00  0.00    -0.211 A  
HETATM   18  C   UNL     1      -9.491  10.555  63.548  1.00  0.00    -0.352 A  
HETATM   19  C   UNL     1     -10.518  11.440  63.246  1.00  0.00    -0.397 A  
HETATM   20  C   UNL     1     -10.968  12.373  64.200  1.00  0.00    -0.416 A  
HETATM   21  C   UNL     1     -12.122  13.260  63.814  1.00  0.00    -0.546 C  
ENDBRANCH  11  14
ENDBRANCH   9  10
ENDBRANCH   3   4
ENDBRANCH   2   3
TORSDOF 4
ENDMDL
MODEL       56
REMARK 921   NORMALIZED FREE ENERGY PREDICTED BY IDOCK:   -5.15 KCAL/MOL
REMARK 922        TOTAL FREE ENERGY PREDICTED BY IDOCK:   -6.88 KCAL/MOL
REMARK 923 INTER-LIGAND FREE ENERGY PREDICTED BY IDOCK:   -6.17 KCAL/MOL
REMARK 924 INTRA-LIGAND FREE ENERGY PREDICTED BY IDOCK:   -0.72 KCAL/MOL
REMARK 927      BINDING AFFINITY PREDICTED BY RF-SCORE:    0.00 PKD
ROOT
HETATM    1  C   UNL     1      -9.807   8.552  72.119  1.00  0.00    -0.388 C  
HETATM    2  C   UNL     1     -10.594   8.610  70.818  1.00  0.00    -0.254 C  
ENDROOT
BRANCH   2   3
HETATM    3  C   UNL     1     -10.763  10.058  70.330  1.00  0.00    -0.307 C  
BRANCH   3   4
HETATM    4  N   UNL     1     -12.135  10.370  69.870  1.00  0.00    -0.222 NA 
HETATM    5  C   UNL     1     -13.133  10.283  70.963  1.00  0.00    -0.373 C  
HETATM    6  C   UNL     1     -12.963  11.349  72.051  1.00  0.00    -0.378 C  
HETATM    7  C   UNL     1     -13.006  12.751  71.456  1.00  0.00    -0.388 C  
HETATM    8  C   UNL     1     -12.055  12.882  70.274  1.00  0.00    -0.377 C  
HETATM    9  C   UNL     1     -12.244  11.739  69.263  1.00  0.00    -0.140 C  
BRANCH   9  10
HETATM   10  C   UNL     1     -11.313  11.924  68.047  1.00  0.00    -0.288 C  
HETATM   11  N   UNL     1     -11.653  11.108  66.976  1.00  0.00    -0.033 N  
HETATM   12  O   UNL     1     -10.389  12.734  68.048  1.00  0.00    -0.216 OA 
HETATM   13  H   UNL     1     -12.410  10.434  67.091  1.00  0.00     0.000 HD 
BRANCH  11  14
HETATM   14  C   UNL     1     -10.986  11.179  65.729  1.00  0.00    -0.091 A  
HETATM   15  C   UNL     1     -11.348  12.182  64.802  1.00  0.00    -0.378 A  
HETATM   16  C   UNL     1     -12.533  13.096  64.968  1.00  0.00    -0.516 C  
HETATM   17  C   UNL     1     -10.653  12.268  63.582  1.00  0.00    -0.501 A  
HETATM   18  C   UNL     1      -9.607  11.399  63.286  1.00  0.00    -0.373 A  
HETATM   19  C   UNL     1      -9.240  10.424  64.204  1.00  0.00    -0.298 A  
HETATM   20  C   UNL     1      -9.912  10.305  65.435  1.00  0.00    -0.371 A  
HETATM   21  C   UNL     1      -9.417   9.257  66.398  1.00  0.00    -0.277 C  
ENDBRANCH  11  14
ENDBRANCH   9  10
ENDBRANCH   3   4
ENDBRANCH   2   3
TORSDOF 4
ENDMDL
MODEL       57
REMARK 921   NORMALIZED FREE ENERGY PREDICTED BY IDOCK:   -5.14 KCAL/MOL
REMARK 922        TOTAL FREE ENERGY PREDICTED BY IDOCK:   -6.87 KCAL/MOL
REMARK 923 INTER-LIGAND FREE ENERGY PREDICTED BY IDOCK:   -6.67 KCAL/MOL
REMARK 924 INTRA-LIGAND FREE ENERGY PREDICTED BY IDOCK:   -0.21 KCAL/MOL
REMARK 927      BINDING AFFINITY PREDICTED BY RF-SCORE:    0.00 PKD
ROOT
HETATM    1  C   UNL     1     -11.799  11.127  69.000  1.00  0.00    -0.418 C  
HETATM    2  C   UNL     1     -11.228  11.144  67.590  1.00  0.00    -0.364 C  
ENDROOT
BRANCH   2   3
HETATM    3  C   UNL     1     -11.521  12.478  66.884  1.00  0.00    -0.353 C  
BRANCH   3   4
HETATM    4  N   UNL     1     -10.570  12.789  65.792  1.00  0.00    -0.269 NA 
HETATM    5  C   UNL     1     -10.714  11.872  64.637  1.00  0.00    -0.307 C  
HETATM    6  C   UNL     1     -12.044  12.015  63.888  1.00  0.00    -0.557 C  
HETATM    7  C   UNL     1     -12.252  13.446  63.408  1.00  0.00    -0.419 C  
HETATM    8  C   UNL     1     -12.040  14.445  64.538  1.00  0.00    -0.498 C  
HETATM    9  C   UNL     1     -10.717  14.192  65.280  1.00  0.00    -0.364 C  
BRANCH   9  10
HETATM   10  C   UNL     1     -10.495  15.251  66.380  1.00  0.00    -0.303 C  
HETATM   11  N   UNL     1      -9.394  16.062  66.136  1.00  0.00    -0.316 N  
HETATM   12  O   UNL     1     -11.246  15.356  67.348  1.00  0.00    -0.328 OA 
HETATM   13  H   UNL     1      -8.806  15.863  65.327  1.00  0.00     0.000 HD 
BRANCH  11  14
HETATM   14  C   UNL     1      -9.060  17.155  66.972  1.00  0.00    -0.230 A  
HETATM   15  C   UNL     1      -8.040  17.005  67.939  1.00  0.00    -0.196 A  
HETATM   16  C   UNL     1      -7.385  15.693  68.277  1.00  0.00    -0.117 C  
HETATM   17  C   UNL     1      -7.690  18.108  68.739  1.00  0.00    -0.277 A  
HETATM   18  C   UNL     1      -8.313  19.342  68.577  1.00  0.00    -0.399 A  
HETATM   19  C   UNL     1      -9.303  19.494  67.614  1.00  0.00    -0.399 A  
HETATM   20  C   UNL     1      -9.683  18.414  66.796  1.00  0.00    -0.331 A  
HETATM   21  C   UNL     1     -10.725  18.676  65.740  1.00  0.00    -0.224 C  
ENDBRANCH  11  14
ENDBRANCH   9  10
ENDBRANCH   3   4
ENDBRANCH   2   3
TORSDOF 4
ENDMDL
MODEL       58
REMARK 921   NORMALIZED FREE ENERGY PREDICTED BY IDOCK:   -5.14 KCAL/MOL
REMARK 922        TOTAL FREE ENERGY PREDICTED BY IDOCK:   -6.87 KCAL/MOL
REMARK 923 INTER-LIGAND FREE ENERGY PREDICTED BY IDOCK:   -6.64 KCAL/MOL
REMARK 924 INTRA-LIGAND FREE ENERGY PREDICTED BY IDOCK:   -0.23 KCAL/MOL
REMARK 927      BINDING AFFINITY PREDICTED BY RF-SCORE:    0.00 PKD
ROOT
HETATM    1  C   UNL     1     -11.665  13.084  63.935  1.00  0.00    -0.531 C  
HETATM    2  C   UNL     1     -10.431  13.325  64.793  1.00  0.00    -0.402 C  
ENDROOT
BRANCH   2   3
HETATM    3  C   UNL     1     -10.538  14.647  65.569  1.00  0.00    -0.355 C  
BRANCH   3   4
HETATM    4  N   UNL     1      -9.507  14.800  66.621  1.00  0.00    -0.259 NA 
HETATM    5  C   UNL     1      -8.420  15.725  66.219  1.00  0.00    -0.210 C  
HETATM    6  C   UNL     1      -8.867  17.183  66.064  1.00  0.00    -0.142 C  
HETATM    7  C   UNL     1      -9.505  17.701  67.346  1.00  0.00    -0.256 C  
HETATM    8  C   UNL     1     -10.581  16.751  67.853  1.00  0.00    -0.350 C  
HETATM    9  C   UNL     1     -10.074  15.300  67.917  1.00  0.00    -0.233 C  
BRANCH   9  10
HETATM   10  C   UNL     1     -11.159  14.365  68.490  1.00  0.00    -0.253 C  
HETATM   11  N   UNL     1     -10.795  13.788  69.699  1.00  0.00    -0.449 N  
HETATM   12  O   UNL     1     -12.235  14.187  67.922  1.00  0.00    -0.319 OA 
HETATM   13  H   UNL     1      -9.859  13.963  70.065  1.00  0.00     0.000 HD 
BRANCH  11  14
HETATM   14  C   UNL     1     -11.677  12.967  70.442  1.00  0.00    -0.026 A  
HETATM   15  C   UNL     1     -12.485  13.544  71.447  1.00  0.00    -0.347 A  
HETATM   16  C   UNL     1     -12.355  14.967  71.921  1.00  0.00    -0.413 C  
HETATM   17  C   UNL     1     -13.385  12.726  72.154  1.00  0.00    -0.593 A  
HETATM   18  C   UNL     1     -13.507  11.370  71.864  1.00  0.00    -0.280 A  
HETATM   19  C   UNL     1     -12.725  10.806  70.864  1.00  0.00    -0.478 A  
HETATM   20  C   UNL     1     -11.811  11.591  70.135  1.00  0.00    -0.440 A  
HETATM   21  C   UNL     1     -11.040  10.915  69.031  1.00  0.00    -0.302 C  
ENDBRANCH  11  14
ENDBRANCH   9  10
ENDBRANCH   3   4
ENDBRANCH   2   3
TORSDOF 4
ENDMDL
MODEL       59
REMARK 921   NORMALIZED FREE ENERGY PREDICTED BY IDOCK:   -5.13 KCAL/MOL
REMARK 922        TOTAL FREE ENERGY PREDICTED BY IDOCK:   -6.86 KCAL/MOL
REMARK 923 INTER-LIGAND FREE ENERGY PREDICTED BY IDOCK:   -6.15 KCAL/MOL
REMARK 924 INTRA-LIGAND FREE ENERGY PREDICTED BY IDOCK:   -0.71 KCAL/MOL
REMARK 927      BINDING AFFINITY PREDICTED BY RF-SCORE:    0.00 PKD
ROOT
HETATM    1  C   UNL     1     -11.100   6.232  67.520  1.00  0.00    -0.379 C  
HETATM    2  C   UNL     1     -10.288   5.738  68.709  1.00  0.00    -0.289 C  
ENDROOT
BRANCH   2   3
HETATM    3  C   UNL     1     -10.072   6.856  69.742  1.00  0.00    -0.184 C  
BRANCH   3   4
HETATM    4  N   UNL     1     -11.303   7.230  70.475  1.00  0.00    -0.279 NA 
HETATM    5  C   UNL     1     -11.746   6.173  71.414  1.00  0.00    -0.171 C  
HETATM    6  C   UNL     1     -10.791   5.941  72.590  1.00  0.00    -0.290 C  
HETATM    7  C   UNL     1     -10.561   7.229  73.371  1.00  0.00    -0.435 C  
HETATM    8  C   UNL     1     -10.176   8.376  72.448  1.00  0.00    -0.399 C  
HETATM    9  C   UNL     1     -11.145   8.500  71.260  1.00  0.00    -0.262 C  
BRANCH   9  10
HETATM   10  C   UNL     1     -10.772   9.704  70.371  1.00  0.00    -0.298 C  
HETATM   11  N   UNL     1     -11.862  10.239  69.698  1.00  0.00    -0.456 N  
HETATM   12  O   UNL     1      -9.623  10.137  70.305  1.00  0.00    -0.118 OA 
HETATM   13  H   UNL     1     -12.768   9.777  69.783  1.00  0.00     0.000 HD 
BRANCH  11  14
HETATM   14  C   UNL     1     -11.761  11.403  68.897  1.00  0.00    -0.343 A  
HETATM   15  C   UNL     1     -12.007  12.668  69.476  1.00  0.00    -0.332 A  
HETATM   16  C   UNL     1     -12.550  12.870  70.865  1.00  0.00    -0.355 C  
HETATM   17  C   UNL     1     -11.868  13.821  68.681  1.00  0.00    -0.409 A  
HETATM   18  C   UNL     1     -11.471  13.734  67.350  1.00  0.00    -0.372 A  
HETATM   19  C   UNL     1     -11.212  12.491  66.787  1.00  0.00    -0.347 A  
HETATM   20  C   UNL     1     -11.343  11.314  67.548  1.00  0.00    -0.360 A  
HETATM   21  C   UNL     1     -10.991  10.012  66.879  1.00  0.00    -0.070 C  
ENDBRANCH  11  14
ENDBRANCH   9  10
ENDBRANCH   3   4
ENDBRANCH   2   3
TORSDOF 4
ENDMDL
MODEL       60
REMARK 921   NORMALIZED FREE ENERGY PREDICTED BY IDOCK:   -5.13 KCAL/MOL
REMARK 922        TOTAL FREE ENERGY PREDICTED BY IDOCK:   -6.85 KCAL/MOL
REMARK 923 INTER-LIGAND FREE ENERGY PREDICTED BY IDOCK:   -6.26 KCAL/MOL
REMARK 924 INTRA-LIGAND FREE ENERGY PREDICTED BY IDOCK:   -0.59 KCAL/MOL
REMARK 927      BINDING AFFINITY PREDICTED BY RF-SCORE:    0.00 PKD
ROOT
HETATM    1  C   UNL     1     -11.887  13.164  69.533  1.00  0.00    -0.383 C  
HETATM    2  C   UNL     1     -10.901  12.582  68.530  1.00  0.00    -0.271 C  
ENDROOT
BRANCH   2   3
HETATM    3  C   UNL     1     -11.170  13.110  67.111  1.00  0.00    -0.294 C  
BRANCH   3   4
HETATM    4  N   UNL     1      -9.990  13.034  66.220  1.00  0.00    -0.278 NA 
HETATM    5  C   UNL     1      -9.793  11.678  65.655  1.00  0.00    -0.240 C  
HETATM    6  C   UNL     1     -10.895  11.240  64.683  1.00  0.00    -0.335 C  
HETATM    7  C   UNL     1     -11.043  12.234  63.538  1.00  0.00    -0.533 C  
HETATM    8  C   UNL     1     -11.172  13.660  64.054  1.00  0.00    -0.189 C  
HETATM    9  C   UNL     1     -10.069  13.998  65.072  1.00  0.00    -0.292 C  
BRANCH   9  10
HETATM   10  C   UNL     1     -10.183  15.465  65.536  1.00  0.00    -0.382 C  
HETATM   11  N   UNL     1      -9.436  15.732  66.676  1.00  0.00    -0.240 N  
HETATM   12  O   UNL     1     -10.856  16.293  64.927  1.00  0.00    -0.625 OA 
HETATM   13  H   UNL     1      -8.948  14.963  67.135  1.00  0.00     0.000 HD 
BRANCH  11  14
HETATM   14  C   UNL     1      -9.327  17.034  67.222  1.00  0.00    -0.237 A  
HETATM   15  C   UNL     1     -10.252  17.456  68.202  1.00  0.00    -0.350 A  
HETATM   16  C   UNL     1     -11.479  16.678  68.597  1.00  0.00    -0.046 C  
HETATM   17  C   UNL     1     -10.113  18.738  68.765  1.00  0.00    -0.407 A  
HETATM   18  C   UNL     1      -9.071  19.581  68.390  1.00  0.00    -0.410 A  
HETATM   19  C   UNL     1      -8.151  19.158  67.439  1.00  0.00    -0.296 A  
HETATM   20  C   UNL     1      -8.258  17.884  66.850  1.00  0.00    -0.256 A  
HETATM   21  C   UNL     1      -7.189  17.481  65.868  1.00  0.00    -0.195 C  
ENDBRANCH  11  14
ENDBRANCH   9  10
ENDBRANCH   3   4
ENDBRANCH   2   3
TORSDOF 4
ENDMDL
MODEL       61
REMARK 921   NORMALIZED FREE ENERGY PREDICTED BY IDOCK:   -5.12 KCAL/MOL
REMARK 922        TOTAL FREE ENERGY PREDICTED BY IDOCK:   -6.85 KCAL/MOL
REMARK 923 INTER-LIGAND FREE ENERGY PREDICTED BY IDOCK:   -6.09 KCAL/MOL
REMARK 924 INTRA-LIGAND FREE ENERGY PREDICTED BY IDOCK:   -0.76 KCAL/MOL
REMARK 927      BINDING AFFINITY PREDICTED BY RF-SCORE:    0.00 PKD
ROOT
HETATM    1  C   UNL     1     -11.010   6.428  67.379  1.00  0.00    -0.463 C  
HETATM    2  C   UNL     1      -9.760   6.133  68.197  1.00  0.00    -0.125 C  
ENDROOT
BRANCH   2   3
HETATM    3  C   UNL     1      -9.797   6.856  69.554  1.00  0.00    -0.159 C  
BRANCH   3   4
HETATM    4  N   UNL     1     -11.140   7.361  69.918  1.00  0.00    -0.229 NA 
HETATM    5  C   UNL     1     -11.840   6.472  70.876  1.00  0.00    -0.331 C  
HETATM    6  C   UNL     1     -11.188   6.412  72.262  1.00  0.00    -0.314 C  
HETATM    7  C   UNL     1     -11.073   7.803  72.875  1.00  0.00    -0.457 C  
HETATM    8  C   UNL     1     -10.430   8.784  71.905  1.00  0.00    -0.423 C  
HETATM    9  C   UNL     1     -11.097   8.735  70.520  1.00  0.00    -0.246 C  
BRANCH   9  10
HETATM   10  C   UNL     1     -10.470   9.779  69.572  1.00  0.00    -0.232 C  
HETATM   11  N   UNL     1     -11.342  10.197  68.575  1.00  0.00    -0.491 N  
HETATM   12  O   UNL     1      -9.324  10.194  69.724  1.00  0.00    -0.211 OA 
HETATM   13  H   UNL     1     -12.258   9.757  68.506  1.00  0.00     0.000 HD 
BRANCH  11  14
HETATM   14  C   UNL     1     -11.001  11.215  67.651  1.00  0.00    -0.269 A  
HETATM   15  C   UNL     1     -11.250  12.566  67.981  1.00  0.00    -0.316 A  
HETATM   16  C   UNL     1     -12.026  13.009  69.193  1.00  0.00    -0.320 C  
HETATM   17  C   UNL     1     -10.874  13.572  67.072  1.00  0.00    -0.287 A  
HETATM   18  C   UNL     1     -10.244  13.259  65.872  1.00  0.00    -0.295 A  
HETATM   19  C   UNL     1      -9.983  11.931  65.555  1.00  0.00    -0.266 A  
HETATM   20  C   UNL     1     -10.346  10.896  66.437  1.00  0.00    -0.306 A  
HETATM   21  C   UNL     1      -9.979   9.489  66.045  1.00  0.00    -0.348 C  
ENDBRANCH  11  14
ENDBRANCH   9  10
ENDBRANCH   3   4
ENDBRANCH   2   3
TORSDOF 4
ENDMDL
MODEL       62
REMARK 921   NORMALIZED FREE ENERGY PREDICTED BY IDOCK:   -5.11 KCAL/MOL
REMARK 922        TOTAL FREE ENERGY PREDICTED BY IDOCK:   -6.83 KCAL/MOL
REMARK 923 INTER-LIGAND FREE ENERGY PREDICTED BY IDOCK:   -6.18 KCAL/MOL
REMARK 924 INTRA-LIGAND FREE ENERGY PREDICTED BY IDOCK:   -0.65 KCAL/MOL
REMARK 927      BINDING AFFINITY PREDICTED BY RF-SCORE:    0.00 PKD
ROOT
HETATM    1  C   UNL     1     -11.066   6.321  67.086  1.00  0.00    -0.389 C  
HETATM    2  C   UNL     1     -10.613   6.926  68.407  1.00  0.00    -0.249 C  
ENDROOT
BRANCH   2   3
HETATM    3  C   UNL     1     -10.039   8.338  68.207  1.00  0.00    -0.198 C  
BRANCH   3   4
HETATM    4  N   UNL     1     -10.192   9.212  69.393  1.00  0.00    -0.203 NA 
HETATM    5  C   UNL     1      -9.292   8.821  70.504  1.00  0.00    -0.187 C  
HETATM    6  C   UNL     1      -7.803   9.030  70.204  1.00  0.00    -0.100 C  
HETATM    7  C   UNL     1      -7.518  10.478  69.825  1.00  0.00    -0.127 C  
HETATM    8  C   UNL     1      -8.466  10.963  68.737  1.00  0.00    -0.150 C  
HETATM    9  C   UNL     1      -9.933  10.657  69.083  1.00  0.00    -0.211 C  
BRANCH   9  10
HETATM   10  C   UNL     1     -10.879  11.210  67.997  1.00  0.00    -0.225 C  
HETATM   11  N   UNL     1     -10.216  11.948  67.025  1.00  0.00    -0.208 N  
HETATM   12  O   UNL     1     -12.087  10.985  68.006  1.00  0.00    -0.615 OA 
HETATM   13  H   UNL     1      -9.216  12.117  67.133  1.00  0.00     0.000 HD 
BRANCH  11  14
HETATM   14  C   UNL     1     -10.879  12.472  65.889  1.00  0.00    -0.269 A  
HETATM   15  C   UNL     1     -10.896  11.728  64.689  1.00  0.00    -0.363 A  
HETATM   16  C   UNL     1     -10.098  10.471  64.463  1.00  0.00    -0.402 C  
HETATM   17  C   UNL     1     -11.589  12.241  63.577  1.00  0.00    -0.570 A  
HETATM   18  C   UNL     1     -12.274  13.450  63.650  1.00  0.00    -0.480 A  
HETATM   19  C   UNL     1     -12.272  14.173  64.836  1.00  0.00    -0.451 A  
HETATM   20  C   UNL     1     -11.587  13.695  65.970  1.00  0.00    -0.358 A  
HETATM   21  C   UNL     1     -11.680  14.512  67.232  1.00  0.00    -0.429 C  
ENDBRANCH  11  14
ENDBRANCH   9  10
ENDBRANCH   3   4
ENDBRANCH   2   3
TORSDOF 4
ENDMDL
MODEL       63
REMARK 921   NORMALIZED FREE ENERGY PREDICTED BY IDOCK:   -5.10 KCAL/MOL
REMARK 922        TOTAL FREE ENERGY PREDICTED BY IDOCK:   -6.83 KCAL/MOL
REMARK 923 INTER-LIGAND FREE ENERGY PREDICTED BY IDOCK:   -6.44 KCAL/MOL
REMARK 924 INTRA-LIGAND FREE ENERGY PREDICTED BY IDOCK:   -0.39 KCAL/MOL
REMARK 927      BINDING AFFINITY PREDICTED BY RF-SCORE:    0.00 PKD
ROOT
HETATM    1  C   UNL     1     -10.675  16.608  68.399  1.00  0.00    -0.353 C  
HETATM    2  C   UNL     1     -10.361  16.168  66.977  1.00  0.00    -0.290 C  
ENDROOT
BRANCH   2   3
HETATM    3  C   UNL     1     -10.477  14.643  66.824  1.00  0.00    -0.277 C  
BRANCH   3   4
HETATM    4  N   UNL     1     -11.875  14.163  66.738  1.00  0.00    -0.407 NA 
HETATM    5  C   UNL     1     -12.511  14.500  65.443  1.00  0.00    -0.260 C  
HETATM    6  C   UNL     1     -11.901  13.773  64.240  1.00  0.00    -0.451 C  
HETATM    7  C   UNL     1     -11.945  12.262  64.431  1.00  0.00    -0.473 C  
HETATM    8  C   UNL     1     -11.373  11.858  65.783  1.00  0.00    -0.354 C  
HETATM    9  C   UNL     1     -11.989  12.678  66.929  1.00  0.00    -0.275 C  
BRANCH   9  10
HETATM   10  C   UNL     1     -11.441  12.212  68.293  1.00  0.00    -0.305 C  
HETATM   11  N   UNL     1     -11.331  10.831  68.390  1.00  0.00    -0.288 N  
HETATM   12  O   UNL     1     -11.121  13.005  69.176  1.00  0.00    -0.244 OA 
HETATM   13  H   UNL     1     -11.667  10.256  67.618  1.00  0.00     0.000 HD 
BRANCH  11  14
HETATM   14  C   UNL     1     -10.768  10.193  69.522  1.00  0.00    -0.249 A  
HETATM   15  C   UNL     1     -11.599   9.847  70.610  1.00  0.00    -0.413 A  
HETATM   16  C   UNL     1     -13.039  10.269  70.740  1.00  0.00    -0.360 C  
HETATM   17  C   UNL     1     -11.037   9.181  71.715  1.00  0.00    -0.437 A  
HETATM   18  C   UNL     1      -9.689   8.839  71.739  1.00  0.00    -0.380 A  
HETATM   19  C   UNL     1      -8.875   9.163  70.661  1.00  0.00    -0.278 A  
HETATM   20  C   UNL     1      -9.399   9.832  69.539  1.00  0.00    -0.226 A  
HETATM   21  C   UNL     1      -8.463  10.098  68.389  1.00  0.00    -0.118 C  
ENDBRANCH  11  14
ENDBRANCH   9  10
ENDBRANCH   3   4
ENDBRANCH   2   3
TORSDOF 4
ENDMDL
MODEL       64
REMARK 921   NORMALIZED FREE ENERGY PREDICTED BY IDOCK:   -5.07 KCAL/MOL
REMARK 922        TOTAL FREE ENERGY PREDICTED BY IDOCK:   -6.78 KCAL/MOL
REMARK 923 INTER-LIGAND FREE ENERGY PREDICTED BY IDOCK:   -5.99 KCAL/MOL
REMARK 924 INTRA-LIGAND FREE ENERGY PREDICTED BY IDOCK:   -0.79 KCAL/MOL
REMARK 927      BINDING AFFINITY PREDICTED BY RF-SCORE:    0.00 PKD
ROOT
HETATM    1  C   UNL     1     -10.890   6.509  68.197  1.00  0.00    -0.370 C  
HETATM    2  C   UNL     1     -10.545   7.626  67.222  1.00  0.00    -0.388 C  
ENDROOT
BRANCH   2   3
HETATM    3  C   UNL     1      -9.376   8.480  67.740  1.00  0.00    -0.137 C  
BRANCH   3   4
HETATM    4  N   UNL     1      -9.679   9.191  69.003  1.00  0.00    -0.163 NA 
HETATM    5  C   UNL     1      -8.735   8.841  70.091  1.00  0.00    -0.149 C  
HETATM    6  C   UNL     1      -7.299   9.317  69.849  1.00  0.00    -0.074 C  
HETATM    7  C   UNL     1      -7.251  10.823  69.623  1.00  0.00    -0.127 C  
HETATM    8  C   UNL     1      -8.257  11.257  68.566  1.00  0.00    -0.150 C  
HETATM    9  C   UNL     1      -9.657  10.684  68.845  1.00  0.00    -0.196 C  
BRANCH   9  10
HETATM   10  C   UNL     1     -10.673  11.184  67.797  1.00  0.00    -0.222 C  
HETATM   11  N   UNL     1     -10.085  11.941  66.792  1.00  0.00    -0.200 N  
HETATM   12  O   UNL     1     -11.868  10.906  67.860  1.00  0.00    -0.590 OA 
HETATM   13  H   UNL     1      -9.091  12.156  66.855  1.00  0.00     0.000 HD 
BRANCH  11  14
HETATM   14  C   UNL     1     -10.820  12.425  65.682  1.00  0.00    -0.277 A  
HETATM   15  C   UNL     1     -11.512  13.652  65.787  1.00  0.00    -0.326 A  
HETATM   16  C   UNL     1     -11.678  14.420  67.072  1.00  0.00    -0.420 C  
HETATM   17  C   UNL     1     -12.207  14.143  64.667  1.00  0.00    -0.465 A  
HETATM   18  C   UNL     1     -12.204  13.453  63.459  1.00  0.00    -0.468 A  
HETATM   19  C   UNL     1     -11.509  12.255  63.350  1.00  0.00    -0.512 A  
HETATM   20  C   UNL     1     -10.803  11.730  64.449  1.00  0.00    -0.389 A  
HETATM   21  C   UNL     1     -10.030  10.455  64.233  1.00  0.00    -0.368 C  
ENDBRANCH  11  14
ENDBRANCH   9  10
ENDBRANCH   3   4
ENDBRANCH   2   3
TORSDOF 4
ENDMDL
MODEL       65
REMARK 921   NORMALIZED FREE ENERGY PREDICTED BY IDOCK:   -5.07 KCAL/MOL
REMARK 922        TOTAL FREE ENERGY PREDICTED BY IDOCK:   -6.78 KCAL/MOL
REMARK 923 INTER-LIGAND FREE ENERGY PREDICTED BY IDOCK:   -5.90 KCAL/MOL
REMARK 924 INTRA-LIGAND FREE ENERGY PREDICTED BY IDOCK:   -0.88 KCAL/MOL
REMARK 927      BINDING AFFINITY PREDICTED BY RF-SCORE:    0.00 PKD
ROOT
HETATM    1  C   UNL     1      -7.700  10.097  64.989  1.00  0.00    -0.141 C  
HETATM    2  C   UNL     1      -8.980   9.790  64.226  1.00  0.00    -0.276 C  
ENDROOT
BRANCH   2   3
HETATM    3  C   UNL     1     -10.194  10.481  64.869  1.00  0.00    -0.300 C  
BRANCH   3   4
HETATM    4  N   UNL     1     -10.002  11.934  65.081  1.00  0.00    -0.250 NA 
HETATM    5  C   UNL     1     -10.421  12.738  63.909  1.00  0.00    -0.372 C  
HETATM    6  C   UNL     1     -11.929  12.701  63.634  1.00  0.00    -0.615 C  
HETATM    7  C   UNL     1     -12.721  13.158  64.853  1.00  0.00    -0.421 C  
HETATM    8  C   UNL     1     -12.280  12.419  66.109  1.00  0.00    -0.119 C  
HETATM    9  C   UNL     1     -10.751  12.446  66.277  1.00  0.00    -0.256 C  
BRANCH   9  10
HETATM   10  C   UNL     1     -10.331  11.745  67.586  1.00  0.00    -0.200 C  
HETATM   11  N   UNL     1     -11.297  10.871  68.065  1.00  0.00    -0.310 N  
HETATM   12  O   UNL     1      -9.239  11.944  68.112  1.00  0.00    -0.176 OA 
HETATM   13  H   UNL     1     -12.192  10.812  67.580  1.00  0.00     0.000 HD 
BRANCH  11  14
HETATM   14  C   UNL     1     -11.083  10.058  69.205  1.00  0.00    -0.206 A  
HETATM   15  C   UNL     1     -11.627  10.447  70.449  1.00  0.00    -0.423 A  
HETATM   16  C   UNL     1     -12.284  11.778  70.704  1.00  0.00    -0.443 C  
HETATM   17  C   UNL     1     -11.440   9.614  71.567  1.00  0.00    -0.439 A  
HETATM   18  C   UNL     1     -10.752   8.409  71.460  1.00  0.00    -0.313 A  
HETATM   19  C   UNL     1     -10.234   8.017  70.233  1.00  0.00    -0.200 A  
HETATM   20  C   UNL     1     -10.397   8.825  69.091  1.00  0.00    -0.227 A  
HETATM   21  C   UNL     1      -9.852   8.303  67.788  1.00  0.00    -0.214 C  
ENDBRANCH  11  14
ENDBRANCH   9  10
ENDBRANCH   3   4
ENDBRANCH   2   3
TORSDOF 4
ENDMDL
MODEL       66
REMARK 921   NORMALIZED FREE ENERGY PREDICTED BY IDOCK:   -5.04 KCAL/MOL
REMARK 922        TOTAL FREE ENERGY PREDICTED BY IDOCK:   -6.75 KCAL/MOL
REMARK 923 INTER-LIGAND FREE ENERGY PREDICTED BY IDOCK:   -6.12 KCAL/MOL
REMARK 924 INTRA-LIGAND FREE ENERGY PREDICTED BY IDOCK:   -0.63 KCAL/MOL
REMARK 927      BINDING AFFINITY PREDICTED BY RF-SCORE:    0.00 PKD
ROOT
HETATM    1  C   UNL     1     -14.295   8.389  72.113  1.00  0.00    -0.520 C  
HETATM    2  C   UNL     1     -13.383   9.603  72.211  1.00  0.00    -0.498 C  
ENDROOT
BRANCH   2   3
HETATM    3  C   UNL     1     -12.651   9.861  70.884  1.00  0.00    -0.302 C  
BRANCH   3   4
HETATM    4  N   UNL     1     -11.178   9.929  71.025  1.00  0.00    -0.363 NA 
HETATM    5  C   UNL     1     -10.633   8.801  71.818  1.00  0.00    -0.347 C  
HETATM    6  C   UNL     1     -10.776   7.434  71.139  1.00  0.00    -0.246 C  
HETATM    7  C   UNL     1     -10.120   7.433  69.764  1.00  0.00    -0.193 C  
HETATM    8  C   UNL     1     -10.584   8.617  68.927  1.00  0.00    -0.166 C  
HETATM    9  C   UNL     1     -10.470   9.940  69.702  1.00  0.00    -0.249 C  
BRANCH   9  10
HETATM   10  C   UNL     1     -10.888  11.132  68.816  1.00  0.00    -0.213 C  
HETATM   11  N   UNL     1     -10.225  12.308  69.142  1.00  0.00    -0.418 N  
HETATM   12  O   UNL     1     -11.709  11.016  67.908  1.00  0.00    -0.551 OA 
HETATM   13  H   UNL     1      -9.596  12.312  69.944  1.00  0.00     0.000 HD 
BRANCH  11  14
HETATM   14  C   UNL     1     -10.393  13.502  68.398  1.00  0.00    -0.248 A  
HETATM   15  C   UNL     1      -9.574  13.740  67.272  1.00  0.00    -0.237 A  
HETATM   16  C   UNL     1      -8.392  12.888  66.892  1.00  0.00    -0.047 C  
HETATM   17  C   UNL     1      -9.773  14.912  66.519  1.00  0.00    -0.294 A  
HETATM   18  C   UNL     1     -10.774  15.820  66.851  1.00  0.00    -0.299 A  
HETATM   19  C   UNL     1     -11.591  15.576  67.947  1.00  0.00    -0.231 A  
HETATM   20  C   UNL     1     -11.421  14.417  68.728  1.00  0.00    -0.319 A  
HETATM   21  C   UNL     1     -12.383  14.200  69.867  1.00  0.00    -0.382 C  
ENDBRANCH  11  14
ENDBRANCH   9  10
ENDBRANCH   3   4
ENDBRANCH   2   3
TORSDOF 4
ENDMDL
MODEL       67
REMARK 921   NORMALIZED FREE ENERGY PREDICTED BY IDOCK:   -5.02 KCAL/MOL
REMARK 922        TOTAL FREE ENERGY PREDICTED BY IDOCK:   -6.72 KCAL/MOL
REMARK 923 INTER-LIGAND FREE ENERGY PREDICTED BY IDOCK:   -6.20 KCAL/MOL
REMARK 924 INTRA-LIGAND FREE ENERGY PREDICTED BY IDOCK:   -0.51 KCAL/MOL
REMARK 927      BINDING AFFINITY PREDICTED BY RF-SCORE:    0.00 PKD
ROOT
HETATM    1  C   UNL     1     -13.087  12.023  71.897  1.00  0.00    -0.475 C  
HETATM    2  C   UNL     1     -13.265  10.513  71.949  1.00  0.00    -0.526 C  
ENDROOT
BRANCH   2   3
HETATM    3  C   UNL     1     -12.426   9.813  70.868  1.00  0.00    -0.277 C  
BRANCH   3   4
HETATM    4  N   UNL     1     -11.184   9.198  71.390  1.00  0.00    -0.320 NA 
HETATM    5  C   UNL     1     -11.452   8.171  72.425  1.00  0.00    -0.397 C  
HETATM    6  C   UNL     1     -12.170   6.924  71.895  1.00  0.00    -0.370 C  
HETATM    7  C   UNL     1     -11.388   6.283  70.756  1.00  0.00    -0.397 C  
HETATM    8  C   UNL     1     -11.014   7.308  69.694  1.00  0.00    -0.204 C  
HETATM    9  C   UNL     1     -10.360   8.555  70.313  1.00  0.00    -0.205 C  
BRANCH   9  10
HETATM   10  C   UNL     1      -9.936   9.553  69.216  1.00  0.00    -0.187 C  
HETATM   11  N   UNL     1     -10.825   9.597  68.151  1.00  0.00    -0.413 N  
HETATM   12  O   UNL     1      -8.921  10.240  69.314  1.00  0.00    -0.168 OA 
HETATM   13  H   UNL     1     -11.615   8.952  68.142  1.00  0.00     0.000 HD 
BRANCH  11  14
HETATM   14  C   UNL     1     -10.675  10.508  67.077  1.00  0.00    -0.250 A  
HETATM   15  C   UNL     1     -11.028  11.864  67.260  1.00  0.00    -0.319 A  
HETATM   16  C   UNL     1     -11.733  12.395  68.480  1.00  0.00    -0.373 C  
HETATM   17  C   UNL     1     -10.840  12.768  66.198  1.00  0.00    -0.303 A  
HETATM   18  C   UNL     1     -10.293  12.354  64.988  1.00  0.00    -0.319 A  
HETATM   19  C   UNL     1      -9.928  11.025  64.814  1.00  0.00    -0.350 A  
HETATM   20  C   UNL     1     -10.103  10.089  65.851  1.00  0.00    -0.319 A  
HETATM   21  C   UNL     1      -9.633   8.680  65.602  1.00  0.00    -0.032 C  
ENDBRANCH  11  14
ENDBRANCH   9  10
ENDBRANCH   3   4
ENDBRANCH   2   3
TORSDOF 4
ENDMDL
MODEL       68
REMARK 921   NORMALIZED FREE ENERGY PREDICTED BY IDOCK:   -4.97 KCAL/MOL
REMARK 922        TOTAL FREE ENERGY PREDICTED BY IDOCK:   -6.66 KCAL/MOL
REMARK 923 INTER-LIGAND FREE ENERGY PREDICTED BY IDOCK:   -6.18 KCAL/MOL
REMARK 924 INTRA-LIGAND FREE ENERGY PREDICTED BY IDOCK:   -0.48 KCAL/MOL
REMARK 927      BINDING AFFINITY PREDICTED BY RF-SCORE:    0.00 PKD
ROOT
HETATM    1  C   UNL     1     -14.401   8.579  72.421  1.00  0.00    -0.412 C  
HETATM    2  C   UNL     1     -13.054   9.285  72.377  1.00  0.00    -0.481 C  
ENDROOT
BRANCH   2   3
HETATM    3  C   UNL     1     -12.145   8.689  71.290  1.00  0.00    -0.290 C  
BRANCH   3   4
HETATM    4  N   UNL     1     -10.803   8.305  71.787  1.00  0.00    -0.249 NA 
HETATM    5  C   UNL     1     -10.859   7.209  72.782  1.00  0.00    -0.300 C  
HETATM    6  C   UNL     1     -11.329   5.867  72.207  1.00  0.00    -0.351 C  
HETATM    7  C   UNL     1     -10.447   5.431  71.043  1.00  0.00    -0.302 C  
HETATM    8  C   UNL     1     -10.288   6.547  70.020  1.00  0.00    -0.238 C  
HETATM    9  C   UNL     1      -9.880   7.873  70.684  1.00  0.00    -0.185 C  
BRANCH   9  10
HETATM   10  C   UNL     1      -9.666   8.974  69.625  1.00  0.00    -0.172 C  
HETATM   11  N   UNL     1     -10.664   8.999  68.660  1.00  0.00    -0.391 N  
HETATM   12  O   UNL     1      -8.712   9.748  69.670  1.00  0.00    -0.167 OA 
HETATM   13  H   UNL     1     -11.389   8.283  68.684  1.00  0.00     0.000 HD 
BRANCH  11  14
HETATM   14  C   UNL     1     -10.711   9.985  67.645  1.00  0.00    -0.284 A  
HETATM   15  C   UNL     1     -10.108   9.724  66.394  1.00  0.00    -0.313 A  
HETATM   16  C   UNL     1      -9.249   8.522  66.105  1.00  0.00    -0.269 C  
HETATM   17  C   UNL     1     -10.192  10.696  65.379  1.00  0.00    -0.341 A  
HETATM   18  C   UNL     1     -10.876  11.891  65.581  1.00  0.00    -0.333 A  
HETATM   19  C   UNL     1     -11.483  12.140  66.806  1.00  0.00    -0.418 A  
HETATM   20  C   UNL     1     -11.419  11.194  67.846  1.00  0.00    -0.359 A  
HETATM   21  C   UNL     1     -12.150  11.517  69.123  1.00  0.00    -0.329 C  
ENDBRANCH  11  14
ENDBRANCH   9  10
ENDBRANCH   3   4
ENDBRANCH   2   3
TORSDOF 4
ENDMDL
MODEL       69
REMARK 921   NORMALIZED FREE ENERGY PREDICTED BY IDOCK:   -4.89 KCAL/MOL
REMARK 922        TOTAL FREE ENERGY PREDICTED BY IDOCK:   -6.56 KCAL/MOL
REMARK 923 INTER-LIGAND FREE ENERGY PREDICTED BY IDOCK:   -6.30 KCAL/MOL
REMARK 924 INTRA-LIGAND FREE ENERGY PREDICTED BY IDOCK:   -0.26 KCAL/MOL
REMARK 927      BINDING AFFINITY PREDICTED BY RF-SCORE:    0.00 PKD
ROOT
HETATM    1  C   UNL     1      -7.091   9.385  70.467  1.00  0.00    -0.113 C  
HETATM    2  C   UNL     1      -8.472   8.867  70.091  1.00  0.00    -0.150 C  
ENDROOT
BRANCH   2   3
HETATM    3  C   UNL     1      -9.472  10.021  69.910  1.00  0.00    -0.181 C  
BRANCH   3   4
HETATM    4  N   UNL     1     -10.794   9.583  69.407  1.00  0.00    -0.225 NA 
HETATM    5  C   UNL     1     -11.504   8.705  70.367  1.00  0.00    -0.136 C  
HETATM    6  C   UNL     1     -11.926   9.408  71.662  1.00  0.00    -0.465 C  
HETATM    7  C   UNL     1     -12.799  10.622  71.367  1.00  0.00    -0.556 C  
HETATM    8  C   UNL     1     -12.157  11.527  70.325  1.00  0.00    -0.444 C  
HETATM    9  C   UNL     1     -11.702  10.735  69.087  1.00  0.00    -0.296 C  
BRANCH   9  10
HETATM   10  C   UNL     1     -11.109  11.679  68.021  1.00  0.00    -0.242 C  
HETATM   11  N   UNL     1     -11.890  12.806  67.801  1.00  0.00    -0.351 N  
HETATM   12  O   UNL     1     -10.042  11.442  67.458  1.00  0.00    -0.180 OA 
HETATM   13  H   UNL     1     -12.783  12.888  68.285  1.00  0.00     0.000 HD 
BRANCH  11  14
HETATM   14  C   UNL     1     -11.488  13.846  66.927  1.00  0.00    -0.351 A  
HETATM   15  C   UNL     1     -11.846  13.785  65.562  1.00  0.00    -0.378 A  
HETATM   16  C   UNL     1     -12.486  12.588  64.910  1.00  0.00    -0.524 C  
HETATM   17  C   UNL     1     -11.475  14.841  64.710  1.00  0.00    -0.410 A  
HETATM   18  C   UNL     1     -10.786  15.949  65.195  1.00  0.00    -0.449 A  
HETATM   19  C   UNL     1     -10.450  16.017  66.541  1.00  0.00    -0.303 A  
HETATM   20  C   UNL     1     -10.801  14.979  67.425  1.00  0.00    -0.305 A  
HETATM   21  C   UNL     1     -10.448  15.155  68.878  1.00  0.00    -0.241 C  
ENDBRANCH  11  14
ENDBRANCH   9  10
ENDBRANCH   3   4
ENDBRANCH   2   3
TORSDOF 4
ENDMDL
MODEL       70
REMARK 921   NORMALIZED FREE ENERGY PREDICTED BY IDOCK:   -4.89 KCAL/MOL
REMARK 922        TOTAL FREE ENERGY PREDICTED BY IDOCK:   -6.56 KCAL/MOL
REMARK 923 INTER-LIGAND FREE ENERGY PREDICTED BY IDOCK:   -6.54 KCAL/MOL
REMARK 924 INTRA-LIGAND FREE ENERGY PREDICTED BY IDOCK:   -0.02 KCAL/MOL
REMARK 927      BINDING AFFINITY PREDICTED BY RF-SCORE:    0.00 PKD
ROOT
HETATM    1  C   UNL     1      -5.854  18.023  69.374  1.00  0.00    -0.229 C  
HETATM    2  C   UNL     1      -7.189  18.728  69.184  1.00  0.00    -0.253 C  
ENDROOT
BRANCH   2   3
HETATM    3  C   UNL     1      -8.266  17.757  68.673  1.00  0.00    -0.271 C  
BRANCH   3   4
HETATM    4  N   UNL     1      -9.620  18.354  68.617  1.00  0.00    -0.336 NA 
HETATM    5  C   UNL     1      -9.701  19.487  67.664  1.00  0.00    -0.344 C  
HETATM    6  C   UNL     1      -9.521  19.082  66.197  1.00  0.00    -0.260 C  
HETATM    7  C   UNL     1     -10.540  18.025  65.790  1.00  0.00    -0.174 C  
HETATM    8  C   UNL     1     -10.559  16.866  66.777  1.00  0.00    -0.201 C  
HETATM    9  C   UNL     1     -10.675  17.358  68.230  1.00  0.00    -0.327 C  
BRANCH   9  10
HETATM   10  C   UNL     1     -10.754  16.167  69.208  1.00  0.00    -0.295 C  
HETATM   11  N   UNL     1     -11.928  15.437  69.079  1.00  0.00    -0.525 N  
HETATM   12  O   UNL     1      -9.845  15.904  69.992  1.00  0.00    -0.185 OA 
HETATM   13  H   UNL     1     -12.642  15.765  68.429  1.00  0.00     0.000 HD 
BRANCH  11  14
HETATM   14  C   UNL     1     -12.167  14.253  69.817  1.00  0.00    -0.339 A  
HETATM   15  C   UNL     1     -11.543  13.049  69.421  1.00  0.00    -0.360 A  
HETATM   16  C   UNL     1     -10.762  12.882  68.145  1.00  0.00    -0.258 C  
HETATM   17  C   UNL     1     -11.758  11.886  70.183  1.00  0.00    -0.337 A  
HETATM   18  C   UNL     1     -12.552  11.909  71.326  1.00  0.00    -0.383 A  
HETATM   19  C   UNL     1     -13.151  13.097  71.724  1.00  0.00    -0.478 A  
HETATM   20  C   UNL     1     -12.963  14.282  70.988  1.00  0.00    -0.411 A  
HETATM   21  C   UNL     1     -13.602  15.538  71.517  1.00  0.00    -0.571 C  
ENDBRANCH  11  14
ENDBRANCH   9  10
ENDBRANCH   3   4
ENDBRANCH   2   3
TORSDOF 4
ENDMDL
MODEL       71
REMARK 921   NORMALIZED FREE ENERGY PREDICTED BY IDOCK:   -4.88 KCAL/MOL
REMARK 922        TOTAL FREE ENERGY PREDICTED BY IDOCK:   -6.55 KCAL/MOL
REMARK 923 INTER-LIGAND FREE ENERGY PREDICTED BY IDOCK:   -6.34 KCAL/MOL
REMARK 924 INTRA-LIGAND FREE ENERGY PREDICTED BY IDOCK:   -0.20 KCAL/MOL
REMARK 927      BINDING AFFINITY PREDICTED BY RF-SCORE:    0.00 PKD
ROOT
HETATM    1  C   UNL     1     -14.154   8.769  72.309  1.00  0.00    -0.511 C  
HETATM    2  C   UNL     1     -13.242   9.956  72.034  1.00  0.00    -0.555 C  
ENDROOT
BRANCH   2   3
HETATM    3  C   UNL     1     -12.535   9.816  70.675  1.00  0.00    -0.142 C  
BRANCH   3   4
HETATM    4  N   UNL     1     -11.080  10.084  70.736  1.00  0.00    -0.330 NA 
HETATM    5  C   UNL     1     -10.363   9.121  71.605  1.00  0.00    -0.318 C  
HETATM    6  C   UNL     1     -10.352   7.685  71.070  1.00  0.00    -0.208 C  
HETATM    7  C   UNL     1      -9.753   7.625  69.670  1.00  0.00    -0.171 C  
HETATM    8  C   UNL     1     -10.398   8.650  68.747  1.00  0.00    -0.228 C  
HETATM    9  C   UNL     1     -10.429  10.049  69.384  1.00  0.00    -0.232 C  
BRANCH   9  10
HETATM   10  C   UNL     1     -11.032  11.082  68.409  1.00  0.00    -0.230 C  
HETATM   11  N   UNL     1     -10.074  11.901  67.827  1.00  0.00    -0.187 N  
HETATM   12  O   UNL     1     -12.238  11.134  68.175  1.00  0.00    -0.612 OA 
HETATM   13  H   UNL     1      -9.103  11.809  68.124  1.00  0.00     0.000 HD 
BRANCH  11  14
HETATM   14  C   UNL     1     -10.398  12.859  66.836  1.00  0.00    -0.243 A  
HETATM   15  C   UNL     1     -10.723  14.178  67.224  1.00  0.00    -0.279 A  
HETATM   16  C   UNL     1     -10.926  14.613  68.651  1.00  0.00    -0.266 C  
HETATM   17  C   UNL     1     -11.007  15.132  66.230  1.00  0.00    -0.335 A  
HETATM   18  C   UNL     1     -10.950  14.804  64.879  1.00  0.00    -0.425 A  
HETATM   19  C   UNL     1     -10.614  13.511  64.497  1.00  0.00    -0.439 A  
HETATM   20  C   UNL     1     -10.325  12.528  65.462  1.00  0.00    -0.303 A  
HETATM   21  C   UNL     1      -9.915  11.166  64.965  1.00  0.00    -0.325 C  
ENDBRANCH  11  14
ENDBRANCH   9  10
ENDBRANCH   3   4
ENDBRANCH   2   3
TORSDOF 4
ENDMDL
MODEL       72
REMARK 921   NORMALIZED FREE ENERGY PREDICTED BY IDOCK:   -4.88 KCAL/MOL
REMARK 922        TOTAL FREE ENERGY PREDICTED BY IDOCK:   -6.54 KCAL/MOL
REMARK 923 INTER-LIGAND FREE ENERGY PREDICTED BY IDOCK:   -5.55 KCAL/MOL
REMARK 924 INTRA-LIGAND FREE ENERGY PREDICTED BY IDOCK:   -0.99 KCAL/MOL
REMARK 927      BINDING AFFINITY PREDICTED BY RF-SCORE:    0.00 PKD
ROOT
HETATM    1  C   UNL     1      -9.623   4.782  68.671  1.00  0.00    -0.223 C  
HETATM    2  C   UNL     1      -8.471   5.253  69.547  1.00  0.00    -0.094 C  
ENDROOT
BRANCH   2   3
HETATM    3  C   UNL     1      -8.923   5.458  71.002  1.00  0.00    -0.139 C  
BRANCH   3   4
HETATM    4  N   UNL     1     -10.122   4.669  71.365  1.00  0.00    -0.193 NA 
HETATM    5  C   UNL     1      -9.790   3.476  72.179  1.00  0.00    -0.168 C  
HETATM    6  C   UNL     1      -9.248   3.803  73.575  1.00  0.00    -0.105 C  
HETATM    7  C   UNL     1     -10.228   4.673  74.354  1.00  0.00    -0.288 C  
HETATM    8  C   UNL     1     -10.668   5.880  73.537  1.00  0.00    -0.284 C  
HETATM    9  C   UNL     1     -11.134   5.474  72.128  1.00  0.00    -0.210 C  
BRANCH   9  10
HETATM   10  C   UNL     1     -11.631   6.703  71.340  1.00  0.00    -0.313 C  
HETATM   11  N   UNL     1     -11.292   7.907  71.944  1.00  0.00    -0.262 N  
HETATM   12  O   UNL     1     -12.242   6.596  70.279  1.00  0.00    -0.294 OA 
HETATM   13  H   UNL     1     -10.824   7.888  72.849  1.00  0.00     0.000 HD 
BRANCH  11  14
HETATM   14  C   UNL     1     -11.573   9.159  71.345  1.00  0.00    -0.341 A  
HETATM   15  C   UNL     1     -12.752   9.851  71.701  1.00  0.00    -0.527 A  
HETATM   16  C   UNL     1     -13.846   9.271  72.557  1.00  0.00    -0.453 C  
HETATM   17  C   UNL     1     -13.003  11.112  71.128  1.00  0.00    -0.393 A  
HETATM   18  C   UNL     1     -12.102  11.692  70.241  1.00  0.00    -0.443 A  
HETATM   19  C   UNL     1     -10.935  11.019  69.905  1.00  0.00    -0.218 A  
HETATM   20  C   UNL     1     -10.648   9.755  70.454  1.00  0.00    -0.365 A  
HETATM   21  C   UNL     1      -9.336   9.117  70.081  1.00  0.00    -0.235 C  
ENDBRANCH  11  14
ENDBRANCH   9  10
ENDBRANCH   3   4
ENDBRANCH   2   3
TORSDOF 4
ENDMDL
MODEL       73
REMARK 921   NORMALIZED FREE ENERGY PREDICTED BY IDOCK:   -4.86 KCAL/MOL
REMARK 922        TOTAL FREE ENERGY PREDICTED BY IDOCK:   -6.52 KCAL/MOL
REMARK 923 INTER-LIGAND FREE ENERGY PREDICTED BY IDOCK:   -5.79 KCAL/MOL
REMARK 924 INTRA-LIGAND FREE ENERGY PREDICTED BY IDOCK:   -0.73 KCAL/MOL
REMARK 927      BINDING AFFINITY PREDICTED BY RF-SCORE:    0.00 PKD
ROOT
HETATM    1  C   UNL     1      -9.092  10.760  64.793  1.00  0.00    -0.222 C  
HETATM    2  C   UNL     1      -9.882   9.654  65.478  1.00  0.00    -0.352 C  
ENDROOT
BRANCH   2   3
HETATM    3  C   UNL     1      -9.459   9.491  66.947  1.00  0.00    -0.158 C  
BRANCH   3   4
HETATM    4  N   UNL     1     -10.531   8.950  67.814  1.00  0.00    -0.246 NA 
HETATM    5  C   UNL     1     -10.193   7.617  68.367  1.00  0.00    -0.198 C  
HETATM    6  C   UNL     1      -9.024   7.631  69.358  1.00  0.00    -0.139 C  
HETATM    7  C   UNL     1      -9.294   8.588  70.512  1.00  0.00    -0.192 C  
HETATM    8  C   UNL     1      -9.722   9.959  70.006  1.00  0.00    -0.274 C  
HETATM    9  C   UNL     1     -10.852   9.854  68.968  1.00  0.00    -0.215 C  
BRANCH   9  10
HETATM   10  C   UNL     1     -11.311  11.255  68.514  1.00  0.00    -0.276 C  
HETATM   11  N   UNL     1     -10.705  12.281  69.228  1.00  0.00    -0.442 N  
HETATM   12  O   UNL     1     -12.114  11.415  67.598  1.00  0.00    -0.630 OA 
HETATM   13  H   UNL     1     -10.087  12.043  70.003  1.00  0.00     0.000 HD 
BRANCH  11  14
HETATM   14  C   UNL     1     -10.916  13.647  68.916  1.00  0.00    -0.249 A  
HETATM   15  C   UNL     1     -11.775  14.421  69.728  1.00  0.00    -0.361 A  
HETATM   16  C   UNL     1     -12.641  13.854  70.821  1.00  0.00    -0.424 C  
HETATM   17  C   UNL     1     -11.948  15.785  69.432  1.00  0.00    -0.321 A  
HETATM   18  C   UNL     1     -11.272  16.384  68.374  1.00  0.00    -0.324 A  
HETATM   19  C   UNL     1     -10.414  15.627  67.587  1.00  0.00    -0.283 A  
HETATM   20  C   UNL     1     -10.215  14.258  67.849  1.00  0.00    -0.237 A  
HETATM   21  C   UNL     1      -9.227  13.521  66.983  1.00  0.00    -0.248 C  
ENDBRANCH  11  14
ENDBRANCH   9  10
ENDBRANCH   3   4
ENDBRANCH   2   3
TORSDOF 4
ENDMDL
MODEL       74
REMARK 921   NORMALIZED FREE ENERGY PREDICTED BY IDOCK:   -4.86 KCAL/MOL
REMARK 922        TOTAL FREE ENERGY PREDICTED BY IDOCK:   -6.52 KCAL/MOL
REMARK 923 INTER-LIGAND FREE ENERGY PREDICTED BY IDOCK:   -6.24 KCAL/MOL
REMARK 924 INTRA-LIGAND FREE ENERGY PREDICTED BY IDOCK:   -0.27 KCAL/MOL
REMARK 927      BINDING AFFINITY PREDICTED BY RF-SCORE:    0.00 PKD
ROOT
HETATM    1  C   UNL     1      -7.250   9.315  70.470  1.00  0.00    -0.111 C  
HETATM    2  C   UNL     1      -8.717   8.909  70.484  1.00  0.00    -0.213 C  
ENDROOT
BRANCH   2   3
HETATM    3  C   UNL     1      -9.623  10.073  70.052  1.00  0.00    -0.156 C  
BRANCH   3   4
HETATM    4  N   UNL     1     -10.949   9.637  69.557  1.00  0.00    -0.229 NA 
HETATM    5  C   UNL     1     -11.660   8.772  70.527  1.00  0.00    -0.147 C  
HETATM    6  C   UNL     1     -12.074   9.489  71.817  1.00  0.00    -0.459 C  
HETATM    7  C   UNL     1     -12.942  10.704  71.514  1.00  0.00    -0.566 C  
HETATM    8  C   UNL     1     -12.299  11.596  70.462  1.00  0.00    -0.410 C  
HETATM    9  C   UNL     1     -11.852  10.791  69.230  1.00  0.00    -0.288 C  
BRANCH   9  10
HETATM   10  C   UNL     1     -11.258  11.722  68.152  1.00  0.00    -0.260 C  
HETATM   11  N   UNL     1     -11.951  12.920  68.030  1.00  0.00    -0.328 N  
HETATM   12  O   UNL     1     -10.261  11.417  67.502  1.00  0.00    -0.181 OA 
HETATM   13  H   UNL     1     -12.795  13.058  68.584  1.00  0.00     0.000 HD 
BRANCH  11  14
HETATM   14  C   UNL     1     -11.524  13.955  67.163  1.00  0.00    -0.347 A  
HETATM   15  C   UNL     1     -10.720  15.000  67.671  1.00  0.00    -0.274 A  
HETATM   16  C   UNL     1     -10.418  15.198  69.133  1.00  0.00    -0.252 C  
HETATM   17  C   UNL     1     -10.271  16.004  66.794  1.00  0.00    -0.275 A  
HETATM   18  C   UNL     1     -10.585  15.970  65.439  1.00  0.00    -0.428 A  
HETATM   19  C   UNL     1     -11.360  14.933  64.936  1.00  0.00    -0.415 A  
HETATM   20  C   UNL     1     -11.831  13.911  65.782  1.00  0.00    -0.393 A  
HETATM   21  C   UNL     1     -12.620  12.794  65.150  1.00  0.00    -0.513 C  
ENDBRANCH  11  14
ENDBRANCH   9  10
ENDBRANCH   3   4
ENDBRANCH   2   3
TORSDOF 4
ENDMDL
MODEL       75
REMARK 921   NORMALIZED FREE ENERGY PREDICTED BY IDOCK:   -4.85 KCAL/MOL
REMARK 922        TOTAL FREE ENERGY PREDICTED BY IDOCK:   -6.51 KCAL/MOL
REMARK 923 INTER-LIGAND FREE ENERGY PREDICTED BY IDOCK:   -5.81 KCAL/MOL
REMARK 924 INTRA-LIGAND FREE ENERGY PREDICTED BY IDOCK:   -0.70 KCAL/MOL
REMARK 927      BINDING AFFINITY PREDICTED BY RF-SCORE:    0.00 PKD
ROOT
HETATM    1  C   UNL     1      -9.238   8.242  70.543  1.00  0.00    -0.160 C  
HETATM    2  C   UNL     1     -10.446   9.053  70.987  1.00  0.00    -0.339 C  
ENDROOT
BRANCH   2   3
HETATM    3  C   UNL     1     -10.553  10.372  70.204  1.00  0.00    -0.188 C  
BRANCH   3   4
HETATM    4  N   UNL     1     -11.932  10.689  69.766  1.00  0.00    -0.299 NA 
HETATM    5  C   UNL     1     -12.903  10.656  70.885  1.00  0.00    -0.382 C  
HETATM    6  C   UNL     1     -12.691  11.758  71.929  1.00  0.00    -0.215 C  
HETATM    7  C   UNL     1     -12.728  13.138  71.285  1.00  0.00    -0.396 C  
HETATM    8  C   UNL     1     -11.805  13.212  70.077  1.00  0.00    -0.360 C  
HETATM    9  C   UNL     1     -12.035  12.036  69.112  1.00  0.00    -0.268 C  
BRANCH   9  10
HETATM   10  C   UNL     1     -11.132  12.163  67.868  1.00  0.00    -0.245 C  
HETATM   11  N   UNL     1     -11.373  11.176  66.921  1.00  0.00    -0.190 N  
HETATM   12  O   UNL     1     -10.310  13.068  67.747  1.00  0.00    -0.219 OA 
HETATM   13  H   UNL     1     -12.046  10.441  67.137  1.00  0.00     0.000 HD 
BRANCH  11  14
HETATM   14  C   UNL     1     -10.718  11.156  65.666  1.00  0.00    -0.185 A  
HETATM   15  C   UNL     1      -9.537  10.398  65.510  1.00  0.00    -0.290 A  
HETATM   16  C   UNL     1      -8.804   9.734  66.645  1.00  0.00    -0.153 C  
HETATM   17  C   UNL     1      -8.914  10.355  64.249  1.00  0.00    -0.249 A  
HETATM   18  C   UNL     1      -9.455  11.024  63.155  1.00  0.00    -0.363 A  
HETATM   19  C   UNL     1     -10.627  11.754  63.304  1.00  0.00    -0.427 A  
HETATM   20  C   UNL     1     -11.279  11.824  64.550  1.00  0.00    -0.368 A  
HETATM   21  C   UNL     1     -12.573  12.592  64.615  1.00  0.00    -0.517 C  
ENDBRANCH  11  14
ENDBRANCH   9  10
ENDBRANCH   3   4
ENDBRANCH   2   3
TORSDOF 4
ENDMDL
MODEL       76
REMARK 921   NORMALIZED FREE ENERGY PREDICTED BY IDOCK:   -4.83 KCAL/MOL
REMARK 922        TOTAL FREE ENERGY PREDICTED BY IDOCK:   -6.49 KCAL/MOL
REMARK 923 INTER-LIGAND FREE ENERGY PREDICTED BY IDOCK:   -5.61 KCAL/MOL
REMARK 924 INTRA-LIGAND FREE ENERGY PREDICTED BY IDOCK:   -0.88 KCAL/MOL
REMARK 927      BINDING AFFINITY PREDICTED BY RF-SCORE:    0.00 PKD
ROOT
HETATM    1  C   UNL     1      -9.024  10.793  64.794  1.00  0.00    -0.194 C  
HETATM    2  C   UNL     1      -9.871   9.737  65.490  1.00  0.00    -0.378 C  
ENDROOT
BRANCH   2   3
HETATM    3  C   UNL     1      -9.398   9.503  66.934  1.00  0.00    -0.146 C  
BRANCH   3   4
HETATM    4  N   UNL     1     -10.403   8.822  67.781  1.00  0.00    -0.228 NA 
HETATM    5  C   UNL     1      -9.967   7.470  68.202  1.00  0.00    -0.172 C  
HETATM    6  C   UNL     1      -8.765   7.469  69.154  1.00  0.00    -0.136 C  
HETATM    7  C   UNL     1      -9.049   8.303  70.397  1.00  0.00    -0.148 C  
HETATM    8  C   UNL     1      -9.577   9.683  70.029  1.00  0.00    -0.281 C  
HETATM    9  C   UNL     1     -10.736   9.599  69.022  1.00  0.00    -0.211 C  
BRANCH   9  10
HETATM   10  C   UNL     1     -11.294  11.004  68.710  1.00  0.00    -0.283 C  
HETATM   11  N   UNL     1     -10.582  12.020  69.334  1.00  0.00    -0.439 N  
HETATM   12  O   UNL     1     -12.256  11.174  67.965  1.00  0.00    -0.584 OA 
HETATM   13  H   UNL     1      -9.826  11.771  69.972  1.00  0.00     0.000 HD 
BRANCH  11  14
HETATM   14  C   UNL     1     -10.869  13.389  69.114  1.00  0.00    -0.114 A  
HETATM   15  C   UNL     1     -10.247  14.067  68.041  1.00  0.00    -0.238 A  
HETATM   16  C   UNL     1      -9.146  13.481  67.198  1.00  0.00    -0.232 C  
HETATM   17  C   UNL     1     -10.567  15.417  67.809  1.00  0.00    -0.274 A  
HETATM   18  C   UNL     1     -11.498  16.083  68.601  1.00  0.00    -0.377 A  
HETATM   19  C   UNL     1     -12.122  15.412  69.645  1.00  0.00    -0.354 A  
HETATM   20  C   UNL     1     -11.827  14.061  69.911  1.00  0.00    -0.393 A  
HETATM   21  C   UNL     1     -12.587  13.391  71.025  1.00  0.00    -0.425 C  
ENDBRANCH  11  14
ENDBRANCH   9  10
ENDBRANCH   3   4
ENDBRANCH   2   3
TORSDOF 4
ENDMDL
MODEL       77
REMARK 921   NORMALIZED FREE ENERGY PREDICTED BY IDOCK:   -4.82 KCAL/MOL
REMARK 922        TOTAL FREE ENERGY PREDICTED BY IDOCK:   -6.48 KCAL/MOL
REMARK 923 INTER-LIGAND FREE ENERGY PREDICTED BY IDOCK:   -5.52 KCAL/MOL
REMARK 924 INTRA-LIGAND FREE ENERGY PREDICTED BY IDOCK:   -0.96 KCAL/MOL
REMARK 927      BINDING AFFINITY PREDICTED BY RF-SCORE:    0.00 PKD
ROOT
HETATM    1  C   UNL     1      -9.298   4.397  68.801  1.00  0.00    -0.213 C  
HETATM    2  C   UNL     1      -8.213   4.776  69.799  1.00  0.00    -0.068 C  
ENDROOT
BRANCH   2   3
HETATM    3  C   UNL     1      -8.816   5.169  71.157  1.00  0.00    -0.134 C  
BRANCH   3   4
HETATM    4  N   UNL     1     -10.095   4.483  71.457  1.00  0.00    -0.188 NA 
HETATM    5  C   UNL     1      -9.914   3.311  72.344  1.00  0.00    -0.162 C  
HETATM    6  C   UNL     1      -9.459   3.667  73.764  1.00  0.00    -0.121 C  
HETATM    7  C   UNL     1     -10.429   4.639  74.424  1.00  0.00    -0.330 C  
HETATM    8  C   UNL     1     -10.716   5.832  73.524  1.00  0.00    -0.300 C  
HETATM    9  C   UNL     1     -11.101   5.392  72.101  1.00  0.00    -0.168 C  
BRANCH   9  10
HETATM   10  C   UNL     1     -11.445   6.614  71.224  1.00  0.00    -0.311 C  
HETATM   11  N   UNL     1     -11.095   7.821  71.814  1.00  0.00    -0.239 N  
HETATM   12  O   UNL     1     -11.955   6.497  70.111  1.00  0.00    -0.383 OA 
HETATM   13  H   UNL     1     -10.719   7.814  72.762  1.00  0.00     0.000 HD 
BRANCH  11  14
HETATM   14  C   UNL     1     -11.241   9.061  71.146  1.00  0.00    -0.305 A  
HETATM   15  C   UNL     1     -10.261   9.467  70.213  1.00  0.00    -0.295 A  
HETATM   16  C   UNL     1      -8.955   8.751  69.994  1.00  0.00    -0.162 C  
HETATM   17  C   UNL     1     -10.434  10.683  69.527  1.00  0.00    -0.236 A  
HETATM   18  C   UNL     1     -11.560  11.474  69.735  1.00  0.00    -0.401 A  
HETATM   19  C   UNL     1     -12.532  11.065  70.640  1.00  0.00    -0.465 A  
HETATM   20  C   UNL     1     -12.394   9.856  71.348  1.00  0.00    -0.498 A  
HETATM   21  C   UNL     1     -13.518   9.459  72.269  1.00  0.00    -0.539 C  
ENDBRANCH  11  14
ENDBRANCH   9  10
ENDBRANCH   3   4
ENDBRANCH   2   3
TORSDOF 4
ENDMDL
MODEL       78
REMARK 921   NORMALIZED FREE ENERGY PREDICTED BY IDOCK:   -4.80 KCAL/MOL
REMARK 922        TOTAL FREE ENERGY PREDICTED BY IDOCK:   -6.45 KCAL/MOL
REMARK 923 INTER-LIGAND FREE ENERGY PREDICTED BY IDOCK:   -6.16 KCAL/MOL
REMARK 924 INTRA-LIGAND FREE ENERGY PREDICTED BY IDOCK:   -0.29 KCAL/MOL
REMARK 927      BINDING AFFINITY PREDICTED BY RF-SCORE:    0.00 PKD
ROOT
HETATM    1  C   UNL     1     -13.587   9.151  71.636  1.00  0.00    -0.451 C  
HETATM    2  C   UNL     1     -12.587  10.298  71.643  1.00  0.00    -0.534 C  
ENDROOT
BRANCH   2   3
HETATM    3  C   UNL     1     -12.074  10.601  70.226  1.00  0.00    -0.338 C  
BRANCH   3   4
HETATM    4  N   UNL     1     -10.616  10.397  70.070  1.00  0.00    -0.262 NA 
HETATM    5  C   UNL     1     -10.194   9.024  70.436  1.00  0.00    -0.209 C  
HETATM    6  C   UNL     1     -10.722   7.936  69.494  1.00  0.00    -0.195 C  
HETATM    7  C   UNL     1     -10.309   8.210  68.054  1.00  0.00    -0.267 C  
HETATM    8  C   UNL     1     -10.648   9.635  67.641  1.00  0.00    -0.334 C  
HETATM    9  C   UNL     1     -10.142  10.661  68.670  1.00  0.00    -0.183 C  
BRANCH   9  10
HETATM   10  C   UNL     1     -10.443  12.100  68.203  1.00  0.00    -0.211 C  
HETATM   11  N   UNL     1     -10.054  12.336  66.891  1.00  0.00    -0.209 N  
HETATM   12  O   UNL     1     -10.991  12.923  68.934  1.00  0.00    -0.243 OA 
HETATM   13  H   UNL     1      -9.563  11.601  66.384  1.00  0.00     0.000 HD 
BRANCH  11  14
HETATM   14  C   UNL     1     -10.316  13.563  66.234  1.00  0.00    -0.293 A  
HETATM   15  C   UNL     1     -11.532  13.730  65.533  1.00  0.00    -0.319 A  
HETATM   16  C   UNL     1     -12.519  12.622  65.278  1.00  0.00    -0.483 C  
HETATM   17  C   UNL     1     -11.799  14.965  64.915  1.00  0.00    -0.337 A  
HETATM   18  C   UNL     1     -10.900  16.024  65.002  1.00  0.00    -0.421 A  
HETATM   19  C   UNL     1      -9.713  15.865  65.706  1.00  0.00    -0.360 A  
HETATM   20  C   UNL     1      -9.408  14.644  66.337  1.00  0.00    -0.313 A  
HETATM   21  C   UNL     1      -8.127  14.570  67.125  1.00  0.00    -0.196 C  
ENDBRANCH  11  14
ENDBRANCH   9  10
ENDBRANCH   3   4
ENDBRANCH   2   3
TORSDOF 4
ENDMDL
MODEL       79
REMARK 921   NORMALIZED FREE ENERGY PREDICTED BY IDOCK:   -4.80 KCAL/MOL
REMARK 922        TOTAL FREE ENERGY PREDICTED BY IDOCK:   -6.45 KCAL/MOL
REMARK 923 INTER-LIGAND FREE ENERGY PREDICTED BY IDOCK:   -5.80 KCAL/MOL
REMARK 924 INTRA-LIGAND FREE ENERGY PREDICTED BY IDOCK:   -0.65 KCAL/MOL
REMARK 927      BINDING AFFINITY PREDICTED BY RF-SCORE:    0.00 PKD
ROOT
HETATM    1  C   UNL     1     -12.978   9.821  71.830  1.00  0.00    -0.536 C  
HETATM    2  C   UNL     1     -11.591   9.593  71.246  1.00  0.00    -0.466 C  
ENDROOT
BRANCH   2   3
HETATM    3  C   UNL     1     -11.440   8.161  70.707  1.00  0.00    -0.261 C  
BRANCH   3   4
HETATM    4  N   UNL     1     -10.037   7.784  70.416  1.00  0.00    -0.193 NA 
HETATM    5  C   UNL     1      -9.429   6.981  71.503  1.00  0.00    -0.154 C  
HETATM    6  C   UNL     1     -10.052   5.591  71.676  1.00  0.00    -0.249 C  
HETATM    7  C   UNL     1      -9.985   4.795  70.379  1.00  0.00    -0.315 C  
HETATM    8  C   UNL     1     -10.527   5.600  69.206  1.00  0.00    -0.356 C  
HETATM    9  C   UNL     1      -9.901   7.003  69.142  1.00  0.00    -0.158 C  
BRANCH   9  10
HETATM   10  C   UNL     1     -10.418   7.779  67.913  1.00  0.00    -0.201 C  
HETATM   11  N   UNL     1      -9.809   9.016  67.757  1.00  0.00    -0.160 N  
HETATM   12  O   UNL     1     -11.267   7.312  67.155  1.00  0.00    -0.215 OA 
HETATM   13  H   UNL     1      -9.149   9.333  68.467  1.00  0.00     0.000 HD 
BRANCH  11  14
HETATM   14  C   UNL     1     -10.071   9.855  66.646  1.00  0.00    -0.233 A  
HETATM   15  C   UNL     1     -10.879  11.001  66.815  1.00  0.00    -0.307 A  
HETATM   16  C   UNL     1     -11.646  11.315  68.071  1.00  0.00    -0.343 C  
HETATM   17  C   UNL     1     -11.103  11.847  65.713  1.00  0.00    -0.367 A  
HETATM   18  C   UNL     1     -10.523  11.586  64.475  1.00  0.00    -0.369 A  
HETATM   19  C   UNL     1      -9.714  10.469  64.314  1.00  0.00    -0.391 A  
HETATM   20  C   UNL     1      -9.468   9.597  65.391  1.00  0.00    -0.343 A  
HETATM   21  C   UNL     1      -8.535   8.439  65.148  1.00  0.00    -0.179 C  
ENDBRANCH  11  14
ENDBRANCH   9  10
ENDBRANCH   3   4
ENDBRANCH   2   3
TORSDOF 4
ENDMDL
MODEL       80
REMARK 921   NORMALIZED FREE ENERGY PREDICTED BY IDOCK:   -4.76 KCAL/MOL
REMARK 922        TOTAL FREE ENERGY PREDICTED BY IDOCK:   -6.40 KCAL/MOL
REMARK 923 INTER-LIGAND FREE ENERGY PREDICTED BY IDOCK:   -5.68 KCAL/MOL
REMARK 924 INTRA-LIGAND FREE ENERGY PREDICTED BY IDOCK:   -0.72 KCAL/MOL
REMARK 927      BINDING AFFINITY PREDICTED BY RF-SCORE:    0.00 PKD
ROOT
HETATM    1  C   UNL     1     -12.618   7.235  71.766  1.00  0.00    -0.376 C  
HETATM    2  C   UNL     1     -11.683   8.435  71.812  1.00  0.00    -0.371 C  
ENDROOT
BRANCH   2   3
HETATM    3  C   UNL     1     -11.606   9.137  70.446  1.00  0.00    -0.146 C  
BRANCH   3   4
HETATM    4  N   UNL     1     -10.223   9.300  69.943  1.00  0.00    -0.201 NA 
HETATM    5  C   UNL     1      -9.433   8.050  70.041  1.00  0.00    -0.160 C  
HETATM    6  C   UNL     1      -9.925   6.927  69.121  1.00  0.00    -0.166 C  
HETATM    7  C   UNL     1      -9.950   7.381  67.667  1.00  0.00    -0.213 C  
HETATM    8  C   UNL     1     -10.684   8.705  67.512  1.00  0.00    -0.209 C  
HETATM    9  C   UNL     1     -10.178   9.757  68.514  1.00  0.00    -0.186 C  
BRANCH   9  10
HETATM   10  C   UNL     1     -10.893  11.107  68.299  1.00  0.00    -0.212 C  
HETATM   11  N   UNL     1     -10.273  12.159  68.961  1.00  0.00    -0.425 N  
HETATM   12  O   UNL     1     -11.892  11.212  67.592  1.00  0.00    -0.612 OA 
HETATM   13  H   UNL     1      -9.474  11.959  69.562  1.00  0.00     0.000 HD 
BRANCH  11  14
HETATM   14  C   UNL     1     -10.711  13.499  68.829  1.00  0.00    -0.238 A  
HETATM   15  C   UNL     1     -10.202  14.297  67.780  1.00  0.00    -0.235 A  
HETATM   16  C   UNL     1      -9.074  13.881  66.874  1.00  0.00    -0.257 C  
HETATM   17  C   UNL     1     -10.672  15.615  67.635  1.00  0.00    -0.302 A  
HETATM   18  C   UNL     1     -11.641  16.133  68.490  1.00  0.00    -0.265 A  
HETATM   19  C   UNL     1     -12.154  15.342  69.510  1.00  0.00    -0.332 A  
HETATM   20  C   UNL     1     -11.708  14.019  69.689  1.00  0.00    -0.368 A  
HETATM   21  C   UNL     1     -12.354  13.211  70.784  1.00  0.00    -0.404 C  
ENDBRANCH  11  14
ENDBRANCH   9  10
ENDBRANCH   3   4
ENDBRANCH   2   3
TORSDOF 4
ENDMDL
MODEL       81
REMARK 921   NORMALIZED FREE ENERGY PREDICTED BY IDOCK:   -4.74 KCAL/MOL
REMARK 922        TOTAL FREE ENERGY PREDICTED BY IDOCK:   -6.38 KCAL/MOL
REMARK 923 INTER-LIGAND FREE ENERGY PREDICTED BY IDOCK:   -5.50 KCAL/MOL
REMARK 924 INTRA-LIGAND FREE ENERGY PREDICTED BY IDOCK:   -0.88 KCAL/MOL
REMARK 927      BINDING AFFINITY PREDICTED BY RF-SCORE:    0.00 PKD
ROOT
HETATM    1  C   UNL     1     -11.091  12.148  63.430  1.00  0.00    -0.495 C  
HETATM    2  C   UNL     1      -9.918  11.181  63.357  1.00  0.00    -0.430 C  
ENDROOT
BRANCH   2   3
HETATM    3  C   UNL     1      -9.280  10.970  64.740  1.00  0.00    -0.176 C  
BRANCH   3   4
HETATM    4  N   UNL     1      -9.883   9.854  65.504  1.00  0.00    -0.302 NA 
HETATM    5  C   UNL     1      -9.115   8.594  65.368  1.00  0.00    -0.090 C  
HETATM    6  C   UNL     1      -7.723   8.639  66.007  1.00  0.00    -0.100 C  
HETATM    7  C   UNL     1      -7.808   9.006  67.483  1.00  0.00    -0.100 C  
HETATM    8  C   UNL     1      -8.653  10.254  67.696  1.00  0.00    -0.118 C  
HETATM    9  C   UNL     1     -10.005  10.157  66.970  1.00  0.00    -0.199 C  
BRANCH   9  10
HETATM   10  C   UNL     1     -10.868  11.405  67.248  1.00  0.00    -0.263 C  
HETATM   11  N   UNL     1     -10.246  12.317  68.091  1.00  0.00    -0.206 N  
HETATM   12  O   UNL     1     -11.978  11.558  66.743  1.00  0.00    -0.470 OA 
HETATM   13  H   UNL     1      -9.342  12.075  68.495  1.00  0.00     0.000 HD 
BRANCH  11  14
HETATM   14  C   UNL     1     -10.823  13.571  68.407  1.00  0.00    -0.267 A  
HETATM   15  C   UNL     1     -11.665  13.684  69.536  1.00  0.00    -0.380 A  
HETATM   16  C   UNL     1     -12.148  12.513  70.349  1.00  0.00    -0.380 C  
HETATM   17  C   UNL     1     -12.203  14.942  69.863  1.00  0.00    -0.354 A  
HETATM   18  C   UNL     1     -11.901  16.073  69.109  1.00  0.00    -0.268 A  
HETATM   19  C   UNL     1     -11.059  15.964  68.010  1.00  0.00    -0.334 A  
HETATM   20  C   UNL     1     -10.503  14.723  67.649  1.00  0.00    -0.254 A  
HETATM   21  C   UNL     1      -9.557  14.700  66.477  1.00  0.00    -0.308 C  
ENDBRANCH  11  14
ENDBRANCH   9  10
ENDBRANCH   3   4
ENDBRANCH   2   3
TORSDOF 4
ENDMDL
MODEL       82
REMARK 921   NORMALIZED FREE ENERGY PREDICTED BY IDOCK:   -4.69 KCAL/MOL
REMARK 922        TOTAL FREE ENERGY PREDICTED BY IDOCK:   -6.32 KCAL/MOL
REMARK 923 INTER-LIGAND FREE ENERGY PREDICTED BY IDOCK:   -5.56 KCAL/MOL
REMARK 924 INTRA-LIGAND FREE ENERGY PREDICTED BY IDOCK:   -0.75 KCAL/MOL
REMARK 927      BINDING AFFINITY PREDICTED BY RF-SCORE:    0.00 PKD
ROOT
HETATM    1  C   UNL     1     -13.101  11.029  71.746  1.00  0.00    -0.554 C  
HETATM    2  C   UNL     1     -12.181   9.983  71.133  1.00  0.00    -0.477 C  
ENDROOT
BRANCH   2   3
HETATM    3  C   UNL     1     -11.808  10.345  69.686  1.00  0.00    -0.180 C  
BRANCH   3   4
HETATM    4  N   UNL     1     -10.357  10.240  69.406  1.00  0.00    -0.221 NA 
HETATM    5  C   UNL     1      -9.852   8.854  69.545  1.00  0.00    -0.180 C  
HETATM    6  C   UNL     1     -10.401   7.881  68.495  1.00  0.00    -0.229 C  
HETATM    7  C   UNL     1     -10.107   8.374  67.084  1.00  0.00    -0.335 C  
HETATM    8  C   UNL     1     -10.535   9.823  66.902  1.00  0.00    -0.281 C  
HETATM    9  C   UNL     1      -9.998  10.720  68.030  1.00  0.00    -0.164 C  
BRANCH   9  10
HETATM   10  C   UNL     1     -10.393  12.193  67.794  1.00  0.00    -0.206 C  
HETATM   11  N   UNL     1      -9.811  13.063  68.706  1.00  0.00    -0.421 N  
HETATM   12  O   UNL     1     -11.130  12.532  66.870  1.00  0.00    -0.255 OA 
HETATM   13  H   UNL     1      -9.251  12.676  69.466  1.00  0.00     0.000 HD 
BRANCH  11  14
HETATM   14  C   UNL     1      -9.968  14.468  68.619  1.00  0.00    -0.237 A  
HETATM   15  C   UNL     1     -11.027  15.094  69.314  1.00  0.00    -0.260 A  
HETATM   16  C   UNL     1     -12.132  14.350  70.015  1.00  0.00    -0.401 C  
HETATM   17  C   UNL     1     -11.151  16.494  69.251  1.00  0.00    -0.260 A  
HETATM   18  C   UNL     1     -10.239  17.267  68.538  1.00  0.00    -0.358 A  
HETATM   19  C   UNL     1      -9.188  16.652  67.870  1.00  0.00    -0.219 A  
HETATM   20  C   UNL     1      -9.030  15.254  67.907  1.00  0.00    -0.170 A  
HETATM   21  C   UNL     1      -7.834  14.671  67.202  1.00  0.00    -0.155 C  
ENDBRANCH  11  14
ENDBRANCH   9  10
ENDBRANCH   3   4
ENDBRANCH   2   3
TORSDOF 4
ENDMDL
MODEL       83
REMARK 921   NORMALIZED FREE ENERGY PREDICTED BY IDOCK:   -4.65 KCAL/MOL
REMARK 922        TOTAL FREE ENERGY PREDICTED BY IDOCK:   -6.27 KCAL/MOL
REMARK 923 INTER-LIGAND FREE ENERGY PREDICTED BY IDOCK:   -5.38 KCAL/MOL
REMARK 924 INTRA-LIGAND FREE ENERGY PREDICTED BY IDOCK:   -0.88 KCAL/MOL
REMARK 927      BINDING AFFINITY PREDICTED BY RF-SCORE:    0.00 PKD
ROOT
HETATM    1  C   UNL     1      -7.728   8.793  66.186  1.00  0.00    -0.101 C  
HETATM    2  C   UNL     1      -8.924   9.049  65.280  1.00  0.00    -0.233 C  
ENDROOT
BRANCH   2   3
HETATM    3  C   UNL     1     -10.001   9.879  65.997  1.00  0.00    -0.268 C  
BRANCH   3   4
HETATM    4  N   UNL     1      -9.466  11.084  66.671  1.00  0.00    -0.181 NA 
HETATM    5  C   UNL     1      -9.550  12.294  65.819  1.00  0.00    -0.176 C  
HETATM    6  C   UNL     1     -10.982  12.758  65.533  1.00  0.00    -0.310 C  
HETATM    7  C   UNL     1     -11.746  13.013  66.826  1.00  0.00    -0.440 C  
HETATM    8  C   UNL     1     -11.632  11.831  67.779  1.00  0.00    -0.374 C  
HETATM    9  C   UNL     1     -10.171  11.386  67.961  1.00  0.00    -0.185 C  
BRANCH   9  10
HETATM   10  C   UNL     1     -10.074  10.227  68.975  1.00  0.00    -0.213 C  
HETATM   11  N   UNL     1     -11.274   9.549  69.140  1.00  0.00    -0.447 N  
HETATM   12  O   UNL     1      -9.022   9.945  69.546  1.00  0.00    -0.182 OA 
HETATM   13  H   UNL     1     -12.103   9.891  68.655  1.00  0.00     0.000 HD 
BRANCH  11  14
HETATM   14  C   UNL     1     -11.386   8.397  69.956  1.00  0.00    -0.001 A  
HETATM   15  C   UNL     1     -10.930   7.152  69.469  1.00  0.00    -0.214 A  
HETATM   16  C   UNL     1     -10.483   6.913  68.052  1.00  0.00    -0.255 C  
HETATM   17  C   UNL     1     -11.012   6.021  70.302  1.00  0.00    -0.412 A  
HETATM   18  C   UNL     1     -11.511   6.116  71.598  1.00  0.00    -0.331 A  
HETATM   19  C   UNL     1     -11.943   7.344  72.083  1.00  0.00    -0.307 A  
HETATM   20  C   UNL     1     -11.879   8.498  71.280  1.00  0.00    -0.335 A  
HETATM   21  C   UNL     1     -12.316   9.800  71.898  1.00  0.00    -0.417 C  
ENDBRANCH  11  14
ENDBRANCH   9  10
ENDBRANCH   3   4
ENDBRANCH   2   3
TORSDOF 4
ENDMDL
MODEL       84
REMARK 921   NORMALIZED FREE ENERGY PREDICTED BY IDOCK:   -4.65 KCAL/MOL
REMARK 922        TOTAL FREE ENERGY PREDICTED BY IDOCK:   -6.26 KCAL/MOL
REMARK 923 INTER-LIGAND FREE ENERGY PREDICTED BY IDOCK:   -5.49 KCAL/MOL
REMARK 924 INTRA-LIGAND FREE ENERGY PREDICTED BY IDOCK:   -0.77 KCAL/MOL
REMARK 927      BINDING AFFINITY PREDICTED BY RF-SCORE:    0.00 PKD
ROOT
HETATM    1  C   UNL     1     -11.745  13.017  63.698  1.00  0.00    -0.550 C  
HETATM    2  C   UNL     1     -11.027  11.729  64.075  1.00  0.00    -0.451 C  
ENDROOT
BRANCH   2   3
HETATM    3  C   UNL     1     -10.318  11.861  65.432  1.00  0.00    -0.267 C  
BRANCH   3   4
HETATM    4  N   UNL     1     -11.136  11.392  66.574  1.00  0.00    -0.281 NA 
HETATM    5  C   UNL     1     -10.858   9.981  66.929  1.00  0.00    -0.082 C  
HETATM    6  C   UNL     1      -9.451   9.743  67.488  1.00  0.00    -0.170 C  
HETATM    7  C   UNL     1      -9.191  10.617  68.709  1.00  0.00    -0.182 C  
HETATM    8  C   UNL     1      -9.533  12.074  68.430  1.00  0.00    -0.181 C  
HETATM    9  C   UNL     1     -10.932  12.221  67.809  1.00  0.00    -0.232 C  
BRANCH   9  10
HETATM   10  C   UNL     1     -11.282  13.708  67.591  1.00  0.00    -0.279 C  
HETATM   11  N   UNL     1     -10.291  14.569  68.043  1.00  0.00    -0.227 N  
HETATM   12  O   UNL     1     -12.327  14.061  67.049  1.00  0.00    -0.397 OA 
HETATM   13  H   UNL     1      -9.480  14.178  68.523  1.00  0.00     0.000 HD 
BRANCH  11  14
HETATM   14  C   UNL     1     -10.367  15.971  67.862  1.00  0.00    -0.269 A  
HETATM   15  C   UNL     1     -10.619  16.804  68.975  1.00  0.00    -0.343 A  
HETATM   16  C   UNL     1     -10.994  16.295  70.342  1.00  0.00    -0.282 C  
HETATM   17  C   UNL     1     -10.655  18.198  68.791  1.00  0.00     0.009 A  
HETATM   18  C   UNL     1     -10.425  18.766  67.542  1.00  0.00    -0.495 A  
HETATM   19  C   UNL     1     -10.159  17.948  66.451  1.00  0.00    -0.369 A  
HETATM   20  C   UNL     1     -10.117  16.548  66.594  1.00  0.00    -0.299 A  
HETATM   21  C   UNL     1      -9.769  15.736  65.374  1.00  0.00    -0.146 C  
ENDBRANCH  11  14
ENDBRANCH   9  10
ENDBRANCH   3   4
ENDBRANCH   2   3
TORSDOF 4
ENDMDL
MODEL       85
REMARK 921   NORMALIZED FREE ENERGY PREDICTED BY IDOCK:   -4.64 KCAL/MOL
REMARK 922        TOTAL FREE ENERGY PREDICTED BY IDOCK:   -6.26 KCAL/MOL
REMARK 923 INTER-LIGAND FREE ENERGY PREDICTED BY IDOCK:   -5.56 KCAL/MOL
REMARK 924 INTRA-LIGAND FREE ENERGY PREDICTED BY IDOCK:   -0.70 KCAL/MOL
REMARK 927      BINDING AFFINITY PREDICTED BY RF-SCORE:    0.00 PKD
ROOT
HETATM    1  C   UNL     1      -8.200   8.098  65.202  1.00  0.00    -0.156 C  
HETATM    2  C   UNL     1      -9.163   9.235  64.892  1.00  0.00    -0.206 C  
ENDROOT
BRANCH   2   3
HETATM    3  C   UNL     1      -9.935   9.673  66.147  1.00  0.00    -0.276 C  
BRANCH   3   4
HETATM    4  N   UNL     1      -9.461  10.956  66.715  1.00  0.00    -0.175 NA 
HETATM    5  C   UNL     1      -9.539  12.070  65.741  1.00  0.00    -0.213 C  
HETATM    6  C   UNL     1     -10.970  12.459  65.351  1.00  0.00    -0.335 C  
HETATM    7  C   UNL     1     -11.794  12.821  66.580  1.00  0.00    -0.471 C  
HETATM    8  C   UNL     1     -11.692  11.746  67.652  1.00  0.00    -0.320 C  
HETATM    9  C   UNL     1     -10.229  11.365  67.938  1.00  0.00    -0.182 C  
BRANCH   9  10
HETATM   10  C   UNL     1     -10.145  10.319  69.069  1.00  0.00    -0.213 C  
HETATM   11  N   UNL     1     -11.288   9.537  69.168  1.00  0.00    -0.449 N  
HETATM   12  O   UNL     1      -9.148  10.200  69.777  1.00  0.00    -0.203 OA 
HETATM   13  H   UNL     1     -12.082   9.746  68.563  1.00  0.00     0.000 HD 
BRANCH  11  14
HETATM   14  C   UNL     1     -11.389   8.458  70.080  1.00  0.00    -0.065 A  
HETATM   15  C   UNL     1     -12.048   8.651  71.315  1.00  0.00    -0.333 A  
HETATM   16  C   UNL     1     -12.509   9.990  71.826  1.00  0.00    -0.475 C  
HETATM   17  C   UNL     1     -12.176   7.563  72.198  1.00  0.00    -0.283 A  
HETATM   18  C   UNL     1     -11.688   6.303  71.864  1.00  0.00    -0.370 A  
HETATM   19  C   UNL     1     -11.056   6.109  70.642  1.00  0.00    -0.384 A  
HETATM   20  C   UNL     1     -10.906   7.173  69.733  1.00  0.00    -0.261 A  
HETATM   21  C   UNL     1     -10.259   6.868  68.407  1.00  0.00    -0.191 C  
ENDBRANCH  11  14
ENDBRANCH   9  10
ENDBRANCH   3   4
ENDBRANCH   2   3
TORSDOF 4
ENDMDL
MODEL       86
REMARK 921   NORMALIZED FREE ENERGY PREDICTED BY IDOCK:   -4.64 KCAL/MOL
REMARK 922        TOTAL FREE ENERGY PREDICTED BY IDOCK:   -6.25 KCAL/MOL
REMARK 923 INTER-LIGAND FREE ENERGY PREDICTED BY IDOCK:   -5.31 KCAL/MOL
REMARK 924 INTRA-LIGAND FREE ENERGY PREDICTED BY IDOCK:   -0.95 KCAL/MOL
REMARK 927      BINDING AFFINITY PREDICTED BY RF-SCORE:    0.00 PKD
ROOT
HETATM    1  C   UNL     1     -13.654   9.311  71.527  1.00  0.00    -0.412 C  
HETATM    2  C   UNL     1     -12.536  10.344  71.561  1.00  0.00    -0.544 C  
ENDROOT
BRANCH   2   3
HETATM    3  C   UNL     1     -11.219   9.760  71.023  1.00  0.00    -0.381 C  
BRANCH   3   4
HETATM    4  N   UNL     1     -11.285   9.371  69.596  1.00  0.00    -0.139 NA 
HETATM    5  C   UNL     1     -10.866  10.467  68.691  1.00  0.00    -0.232 C  
HETATM    6  C   UNL     1      -9.382  10.836  68.803  1.00  0.00    -0.186 C  
HETATM    7  C   UNL     1      -8.494   9.624  68.552  1.00  0.00    -0.118 C  
HETATM    8  C   UNL     1      -8.926   8.436  69.401  1.00  0.00    -0.153 C  
HETATM    9  C   UNL     1     -10.437   8.173  69.284  1.00  0.00    -0.214 C  
BRANCH   9  10
HETATM   10  C   UNL     1     -10.841   6.930  70.103  1.00  0.00    -0.263 C  
HETATM   11  N   UNL     1      -9.815   6.455  70.909  1.00  0.00    -0.183 N  
HETATM   12  O   UNL     1     -11.970   6.447  70.044  1.00  0.00    -0.333 OA 
HETATM   13  H   UNL     1      -8.899   6.898  70.851  1.00  0.00     0.000 HD 
BRANCH  11  14
HETATM   14  C   UNL     1      -9.997   5.377  71.810  1.00  0.00    -0.183 A  
HETATM   15  C   UNL     1     -10.481   5.633  73.112  1.00  0.00    -0.248 A  
HETATM   16  C   UNL     1     -10.659   7.011  73.691  1.00  0.00    -0.383 C  
HETATM   17  C   UNL     1     -10.694   4.551  73.986  1.00  0.00    -0.340 A  
HETATM   18  C   UNL     1     -10.458   3.240  73.581  1.00  0.00    -0.255 A  
HETATM   19  C   UNL     1      -9.999   2.988  72.295  1.00  0.00    -0.237 A  
HETATM   20  C   UNL     1      -9.772   4.043  71.391  1.00  0.00    -0.253 A  
HETATM   21  C   UNL     1      -9.326   3.681  69.999  1.00  0.00    -0.248 C  
ENDBRANCH  11  14
ENDBRANCH   9  10
ENDBRANCH   3   4
ENDBRANCH   2   3
TORSDOF 4
ENDMDL
MODEL       87
REMARK 921   NORMALIZED FREE ENERGY PREDICTED BY IDOCK:   -4.63 KCAL/MOL
REMARK 922        TOTAL FREE ENERGY PREDICTED BY IDOCK:   -6.24 KCAL/MOL
REMARK 923 INTER-LIGAND FREE ENERGY PREDICTED BY IDOCK:   -5.29 KCAL/MOL
REMARK 924 INTRA-LIGAND FREE ENERGY PREDICTED BY IDOCK:   -0.95 KCAL/MOL
REMARK 927      BINDING AFFINITY PREDICTED BY RF-SCORE:    0.00 PKD
ROOT
HETATM    1  C   UNL     1      -5.916  10.142  65.143  1.00  0.00    -0.119 C  
HETATM    2  C   UNL     1      -6.329  10.561  66.546  1.00  0.00    -0.094 C  
ENDROOT
BRANCH   2   3
HETATM    3  C   UNL     1      -7.591   9.813  67.005  1.00  0.00    -0.092 C  
BRANCH   3   4
HETATM    4  N   UNL     1      -8.108   8.855  66.001  1.00  0.00    -0.109 NA 
HETATM    5  C   UNL     1      -8.063   7.453  66.480  1.00  0.00    -0.117 C  
HETATM    6  C   UNL     1      -9.014   7.161  67.647  1.00  0.00    -0.125 C  
HETATM    7  C   UNL     1     -10.451   7.512  67.284  1.00  0.00    -0.391 C  
HETATM    8  C   UNL     1     -10.551   8.919  66.711  1.00  0.00    -0.212 C  
HETATM    9  C   UNL     1      -9.521   9.152  65.592  1.00  0.00    -0.240 C  
BRANCH   9  10
HETATM   10  C   UNL     1      -9.680  10.561  64.986  1.00  0.00    -0.292 C  
HETATM   11  N   UNL     1     -10.601  11.344  65.669  1.00  0.00    -0.260 N  
HETATM   12  O   UNL     1      -9.027  10.931  64.012  1.00  0.00    -0.173 OA 
HETATM   13  H   UNL     1     -11.126  10.928  66.438  1.00  0.00     0.000 HD 
BRANCH  11  14
HETATM   14  C   UNL     1     -10.837  12.700  65.336  1.00  0.00    -0.287 A  
HETATM   15  C   UNL     1     -11.866  13.023  64.423  1.00  0.00    -0.443 A  
HETATM   16  C   UNL     1     -12.636  12.005  63.624  1.00  0.00    -0.605 C  
HETATM   17  C   UNL     1     -12.116  14.376  64.127  1.00  0.00    -0.405 A  
HETATM   18  C   UNL     1     -11.386  15.393  64.734  1.00  0.00    -0.381 A  
HETATM   19  C   UNL     1     -10.386  15.076  65.644  1.00  0.00    -0.374 A  
HETATM   20  C   UNL     1     -10.104  13.735  65.965  1.00  0.00    -0.320 A  
HETATM   21  C   UNL     1      -9.042  13.477  67.003  1.00  0.00    -0.248 C  
ENDBRANCH  11  14
ENDBRANCH   9  10
ENDBRANCH   3   4
ENDBRANCH   2   3
TORSDOF 4
ENDMDL
MODEL       88
REMARK 921   NORMALIZED FREE ENERGY PREDICTED BY IDOCK:   -4.58 KCAL/MOL
REMARK 922        TOTAL FREE ENERGY PREDICTED BY IDOCK:   -6.18 KCAL/MOL
REMARK 923 INTER-LIGAND FREE ENERGY PREDICTED BY IDOCK:   -5.21 KCAL/MOL
REMARK 924 INTRA-LIGAND FREE ENERGY PREDICTED BY IDOCK:   -0.97 KCAL/MOL
REMARK 927      BINDING AFFINITY PREDICTED BY RF-SCORE:    0.00 PKD
ROOT
HETATM    1  C   UNL     1     -11.406  12.035  65.627  1.00  0.00    -0.381 C  
HETATM    2  C   UNL     1     -10.061  12.737  65.737  1.00  0.00    -0.296 C  
ENDROOT
BRANCH   2   3
HETATM    3  C   UNL     1      -9.140  12.028  66.744  1.00  0.00    -0.197 C  
BRANCH   3   4
HETATM    4  N   UNL     1      -8.715  10.679  66.307  1.00  0.00    -0.151 NA 
HETATM    5  C   UNL     1      -7.413  10.697  65.599  1.00  0.00    -0.093 C  
HETATM    6  C   UNL     1      -6.225  11.080  66.488  1.00  0.00    -0.133 C  
HETATM    7  C   UNL     1      -6.118  10.152  67.692  1.00  0.00    -0.057 C  
HETATM    8  C   UNL     1      -7.451  10.031  68.418  1.00  0.00    -0.082 C  
HETATM    9  C   UNL     1      -8.600   9.711  67.448  1.00  0.00    -0.125 C  
BRANCH   9  10
HETATM   10  C   UNL     1      -9.929   9.534  68.212  1.00  0.00    -0.161 C  
HETATM   11  N   UNL     1      -9.846   9.928  69.541  1.00  0.00    -0.210 N  
HETATM   12  O   UNL     1     -10.945   9.107  67.667  1.00  0.00    -0.173 OA 
HETATM   13  H   UNL     1      -8.944  10.225  69.911  1.00  0.00     0.000 HD 
BRANCH  11  14
HETATM   14  C   UNL     1     -10.972   9.932  70.400  1.00  0.00    -0.318 A  
HETATM   15  C   UNL     1     -11.858  11.032  70.380  1.00  0.00    -0.460 A  
HETATM   16  C   UNL     1     -11.601  12.310  69.626  1.00  0.00    -0.348 C  
HETATM   17  C   UNL     1     -12.993  11.010  71.211  1.00  0.00    -0.472 A  
HETATM   18  C   UNL     1     -13.267   9.918  72.028  1.00  0.00    -0.555 A  
HETATM   19  C   UNL     1     -12.405   8.829  72.035  1.00  0.00    -0.444 A  
HETATM   20  C   UNL     1     -11.257   8.814  71.220  1.00  0.00    -0.352 A  
HETATM   21  C   UNL     1     -10.404   7.573  71.245  1.00  0.00    -0.203 C  
ENDBRANCH  11  14
ENDBRANCH   9  10
ENDBRANCH   3   4
ENDBRANCH   2   3
TORSDOF 4
ENDMDL
MODEL       89
REMARK 921   NORMALIZED FREE ENERGY PREDICTED BY IDOCK:   -4.58 KCAL/MOL
REMARK 922        TOTAL FREE ENERGY PREDICTED BY IDOCK:   -6.18 KCAL/MOL
REMARK 923 INTER-LIGAND FREE ENERGY PREDICTED BY IDOCK:   -5.23 KCAL/MOL
REMARK 924 INTRA-LIGAND FREE ENERGY PREDICTED BY IDOCK:   -0.95 KCAL/MOL
REMARK 927      BINDING AFFINITY PREDICTED BY RF-SCORE:    0.00 PKD
ROOT
HETATM    1  C   UNL     1     -10.188   8.688  68.264  1.00  0.00    -0.237 C  
HETATM    2  C   UNL     1      -8.719   8.570  68.646  1.00  0.00    -0.139 C  
ENDROOT
BRANCH   2   3
HETATM    3  C   UNL     1      -7.912   9.777  68.142  1.00  0.00    -0.100 C  
BRANCH   3   4
HETATM    4  N   UNL     1      -7.896  10.914  69.090  1.00  0.00    -0.138 NA 
HETATM    5  C   UNL     1      -6.658  10.957  69.903  1.00  0.00    -0.148 C  
HETATM    6  C   UNL     1      -5.391  11.260  69.095  1.00  0.00    -0.040 C  
HETATM    7  C   UNL     1      -5.526  12.574  68.335  1.00  0.00    -0.055 C  
HETATM    8  C   UNL     1      -6.822  12.622  67.538  1.00  0.00    -0.151 C  
HETATM    9  C   UNL     1      -8.036  12.241  68.402  1.00  0.00    -0.152 C  
BRANCH   9  10
HETATM   10  C   UNL     1      -9.343  12.355  67.591  1.00  0.00    -0.188 C  
HETATM   11  N   UNL     1      -9.128  12.685  66.260  1.00  0.00    -0.423 N  
HETATM   12  O   UNL     1     -10.445  12.146  68.095  1.00  0.00    -0.198 OA 
HETATM   13  H   UNL     1      -8.177  12.884  65.950  1.00  0.00     0.000 HD 
BRANCH  11  14
HETATM   14  C   UNL     1     -10.183  12.754  65.317  1.00  0.00    -0.279 A  
HETATM   15  C   UNL     1     -10.829  13.989  65.086  1.00  0.00    -0.376 A  
HETATM   16  C   UNL     1     -10.597  15.230  65.907  1.00  0.00    -0.345 C  
HETATM   17  C   UNL     1     -11.850  14.055  64.121  1.00  0.00    -0.393 A  
HETATM   18  C   UNL     1     -12.214  12.935  63.379  1.00  0.00    -0.574 A  
HETATM   19  C   UNL     1     -11.566  11.725  63.594  1.00  0.00    -0.521 A  
HETATM   20  C   UNL     1     -10.541  11.618  64.553  1.00  0.00    -0.373 A  
HETATM   21  C   UNL     1      -9.852  10.285  64.686  1.00  0.00    -0.396 C  
ENDBRANCH  11  14
ENDBRANCH   9  10
ENDBRANCH   3   4
ENDBRANCH   2   3
TORSDOF 4
ENDMDL
MODEL       90
REMARK 921   NORMALIZED FREE ENERGY PREDICTED BY IDOCK:   -4.57 KCAL/MOL
REMARK 922        TOTAL FREE ENERGY PREDICTED BY IDOCK:   -6.17 KCAL/MOL
REMARK 923 INTER-LIGAND FREE ENERGY PREDICTED BY IDOCK:   -5.85 KCAL/MOL
REMARK 924 INTRA-LIGAND FREE ENERGY PREDICTED BY IDOCK:   -0.32 KCAL/MOL
REMARK 927      BINDING AFFINITY PREDICTED BY RF-SCORE:    0.00 PKD
ROOT
HETATM    1  C   UNL     1      -6.200  12.717  68.297  1.00  0.00    -0.071 C  
HETATM    2  C   UNL     1      -7.381  13.391  67.612  1.00  0.00    -0.173 C  
ENDROOT
BRANCH   2   3
HETATM    3  C   UNL     1      -8.711  12.738  68.020  1.00  0.00    -0.194 C  
BRANCH   3   4
HETATM    4  N   UNL     1      -9.606  12.455  66.874  1.00  0.00    -0.213 NA 
HETATM    5  C   UNL     1      -9.032  11.456  65.941  1.00  0.00    -0.177 C  
HETATM    6  C   UNL     1      -8.901  10.049  66.536  1.00  0.00    -0.154 C  
HETATM    7  C   UNL     1     -10.245   9.538  67.039  1.00  0.00    -0.321 C  
HETATM    8  C   UNL     1     -10.922  10.558  67.945  1.00  0.00    -0.352 C  
HETATM    9  C   UNL     1     -10.955  11.955  67.304  1.00  0.00    -0.268 C  
BRANCH   9  10
HETATM   10  C   UNL     1     -11.697  12.958  68.212  1.00  0.00    -0.350 C  
HETATM   11  N   UNL     1     -11.307  12.875  69.542  1.00  0.00    -0.447 N  
HETATM   12  O   UNL     1     -12.526  13.750  67.770  1.00  0.00    -0.126 OA 
HETATM   13  H   UNL     1     -10.644  12.151  69.816  1.00  0.00     0.000 HD 
BRANCH  11  14
HETATM   14  C   UNL     1     -11.797  13.763  70.531  1.00  0.00    -0.223 A  
HETATM   15  C   UNL     1     -12.711  13.290  71.498  1.00  0.00    -0.376 A  
HETATM   16  C   UNL     1     -13.354  11.930  71.458  1.00  0.00    -0.129 C  
HETATM   17  C   UNL     1     -13.163  14.170  72.499  1.00  0.00    -0.596 A  
HETATM   18  C   UNL     1     -12.708  15.484  72.562  1.00  0.00    -0.502 A  
HETATM   19  C   UNL     1     -11.796  15.944  71.620  1.00  0.00    -0.565 A  
HETATM   20  C   UNL     1     -11.321  15.095  70.603  1.00  0.00    -0.330 A  
HETATM   21  C   UNL     1     -10.293  15.654  69.655  1.00  0.00    -0.287 C  
ENDBRANCH  11  14
ENDBRANCH   9  10
ENDBRANCH   3   4
ENDBRANCH   2   3
TORSDOF 4
ENDMDL
MODEL       91
REMARK 921   NORMALIZED FREE ENERGY PREDICTED BY IDOCK:   -4.55 KCAL/MOL
REMARK 922        TOTAL FREE ENERGY PREDICTED BY IDOCK:   -6.15 KCAL/MOL
REMARK 923 INTER-LIGAND FREE ENERGY PREDICTED BY IDOCK:   -5.35 KCAL/MOL
REMARK 924 INTRA-LIGAND FREE ENERGY PREDICTED BY IDOCK:   -0.80 KCAL/MOL
REMARK 927      BINDING AFFINITY PREDICTED BY RF-SCORE:    0.00 PKD
ROOT
HETATM    1  C   UNL     1     -11.598  12.206  64.383  1.00  0.00    -0.422 C  
HETATM    2  C   UNL     1     -11.709  12.309  65.897  1.00  0.00    -0.451 C  
ENDROOT
BRANCH   2   3
HETATM    3  C   UNL     1     -10.536  13.105  66.491  1.00  0.00    -0.279 C  
BRANCH   3   4
HETATM    4  N   UNL     1     -10.350  12.888  67.944  1.00  0.00    -0.225 NA 
HETATM    5  C   UNL     1      -9.820  11.539  68.252  1.00  0.00    -0.203 C  
HETATM    6  C   UNL     1      -8.388  11.303  67.758  1.00  0.00    -0.125 C  
HETATM    7  C   UNL     1      -7.434  12.348  68.323  1.00  0.00    -0.124 C  
HETATM    8  C   UNL     1      -7.964  13.759  68.105  1.00  0.00    -0.150 C  
HETATM    9  C   UNL     1      -9.426  13.894  68.565  1.00  0.00    -0.174 C  
BRANCH   9  10
HETATM   10  C   UNL     1      -9.923  15.344  68.391  1.00  0.00    -0.215 C  
HETATM   11  N   UNL     1      -9.120  16.094  67.541  1.00  0.00    -0.201 N  
HETATM   12  O   UNL     1     -10.940  15.757  68.944  1.00  0.00    -0.248 OA 
HETATM   13  H   UNL     1      -8.269  15.672  67.169  1.00  0.00     0.000 HD 
BRANCH  11  14
HETATM   14  C   UNL     1      -9.442  17.422  67.173  1.00  0.00    -0.257 A  
HETATM   15  C   UNL     1     -10.283  17.651  66.061  1.00  0.00    -0.301 A  
HETATM   16  C   UNL     1     -10.734  16.576  65.108  1.00  0.00    -0.261 C  
HETATM   17  C   UNL     1     -10.627  18.973  65.725  1.00  0.00    -0.388 A  
HETATM   18  C   UNL     1     -10.174  20.050  66.482  1.00  0.00    -0.598 A  
HETATM   19  C   UNL     1      -9.362  19.823  67.586  1.00  0.00    -0.445 A  
HETATM   20  C   UNL     1      -8.993  18.515  67.952  1.00  0.00    -0.300 A  
HETATM   21  C   UNL     1      -8.156  18.352  69.193  1.00  0.00     0.019 C  
ENDBRANCH  11  14
ENDBRANCH   9  10
ENDBRANCH   3   4
ENDBRANCH   2   3
TORSDOF 4
ENDMDL
MODEL       92
REMARK 921   NORMALIZED FREE ENERGY PREDICTED BY IDOCK:   -4.55 KCAL/MOL
REMARK 922        TOTAL FREE ENERGY PREDICTED BY IDOCK:   -6.14 KCAL/MOL
REMARK 923 INTER-LIGAND FREE ENERGY PREDICTED BY IDOCK:   -5.74 KCAL/MOL
REMARK 924 INTRA-LIGAND FREE ENERGY PREDICTED BY IDOCK:   -0.40 KCAL/MOL
REMARK 927      BINDING AFFINITY PREDICTED BY RF-SCORE:    0.00 PKD
ROOT
HETATM    1  C   UNL     1      -7.234   9.085  70.331  1.00  0.00    -0.069 C  
HETATM    2  C   UNL     1      -8.475   9.190  69.456  1.00  0.00    -0.128 C  
ENDROOT
BRANCH   2   3
HETATM    3  C   UNL     1      -9.664   9.770  70.240  1.00  0.00    -0.223 C  
BRANCH   3   4
HETATM    4  N   UNL     1     -10.977   9.251  69.793  1.00  0.00    -0.224 NA 
HETATM    5  C   UNL     1     -11.409   8.062  70.565  1.00  0.00    -0.225 C  
HETATM    6  C   UNL     1     -11.720   8.354  72.037  1.00  0.00    -0.417 C  
HETATM    7  C   UNL     1     -12.782   9.439  72.169  1.00  0.00    -0.460 C  
HETATM    8  C   UNL     1     -12.431  10.661  71.332  1.00  0.00    -0.496 C  
HETATM    9  C   UNL     1     -12.068  10.277  69.888  1.00  0.00    -0.108 C  
BRANCH   9  10
HETATM   10  C   UNL     1     -11.775  11.535  69.044  1.00  0.00    -0.335 C  
HETATM   11  N   UNL     1     -11.141  12.537  69.766  1.00  0.00    -0.471 N  
HETATM   12  O   UNL     1     -12.065  11.603  67.851  1.00  0.00    -0.613 OA 
HETATM   13  H   UNL     1     -10.986  12.400  70.765  1.00  0.00     0.000 HD 
BRANCH  11  14
HETATM   14  C   UNL     1     -10.701  13.741  69.164  1.00  0.00    -0.123 A  
HETATM   15  C   UNL     1      -9.584  13.719  68.300  1.00  0.00    -0.219 A  
HETATM   16  C   UNL     1      -8.695  12.521  68.100  1.00  0.00    -0.190 C  
HETATM   17  C   UNL     1      -9.178  14.914  67.679  1.00  0.00    -0.187 A  
HETATM   18  C   UNL     1      -9.871  16.104  67.882  1.00  0.00    -0.235 A  
HETATM   19  C   UNL     1     -10.981  16.121  68.718  1.00  0.00    -0.330 A  
HETATM   20  C   UNL     1     -11.417  14.947  69.360  1.00  0.00    -0.324 A  
HETATM   21  C   UNL     1     -12.659  15.039  70.206  1.00  0.00    -0.363 C  
ENDBRANCH  11  14
ENDBRANCH   9  10
ENDBRANCH   3   4
ENDBRANCH   2   3
TORSDOF 4
ENDMDL
MODEL       93
REMARK 921   NORMALIZED FREE ENERGY PREDICTED BY IDOCK:   -4.53 KCAL/MOL
REMARK 922        TOTAL FREE ENERGY PREDICTED BY IDOCK:   -6.12 KCAL/MOL
REMARK 923 INTER-LIGAND FREE ENERGY PREDICTED BY IDOCK:   -5.18 KCAL/MOL
REMARK 924 INTRA-LIGAND FREE ENERGY PREDICTED BY IDOCK:   -0.94 KCAL/MOL
REMARK 927      BINDING AFFINITY PREDICTED BY RF-SCORE:    0.00 PKD
ROOT
HETATM    1  C   UNL     1     -12.111  12.548  64.056  1.00  0.00    -0.557 C  
HETATM    2  C   UNL     1     -12.850  13.293  65.159  1.00  0.00    -0.376 C  
ENDROOT
BRANCH   2   3
HETATM    3  C   UNL     1     -11.869  13.966  66.133  1.00  0.00    -0.400 C  
BRANCH   3   4
HETATM    4  N   UNL     1     -10.547  14.258  65.533  1.00  0.00    -0.321 NA 
HETATM    5  C   UNL     1     -10.434  15.659  65.065  1.00  0.00    -0.333 C  
HETATM    6  C   UNL     1     -10.455  16.698  66.192  1.00  0.00    -0.291 C  
HETATM    7  C   UNL     1      -9.351  16.428  67.207  1.00  0.00    -0.227 C  
HETATM    8  C   UNL     1      -9.367  14.977  67.670  1.00  0.00    -0.194 C  
HETATM    9  C   UNL     1      -9.412  14.002  66.482  1.00  0.00    -0.279 C  
BRANCH   9  10
HETATM   10  C   UNL     1      -9.367  12.539  66.972  1.00  0.00    -0.210 C  
HETATM   11  N   UNL     1      -9.457  12.428  68.353  1.00  0.00    -0.309 N  
HETATM   12  O   UNL     1      -9.283  11.592  66.194  1.00  0.00    -0.211 OA 
HETATM   13  H   UNL     1      -9.476  13.278  68.915  1.00  0.00     0.000 HD 
BRANCH  11  14
HETATM   14  C   UNL     1      -9.523  11.174  69.008  1.00  0.00    -0.058 A  
HETATM   15  C   UNL     1      -8.334  10.570  69.476  1.00  0.00    -0.075 A  
HETATM   16  C   UNL     1      -6.951  11.082  69.172  1.00  0.00    -0.104 C  
HETATM   17  C   UNL     1      -8.415   9.342  70.158  1.00  0.00    -0.224 A  
HETATM   18  C   UNL     1      -9.641   8.731  70.398  1.00  0.00    -0.210 A  
HETATM   19  C   UNL     1     -10.811   9.334  69.955  1.00  0.00    -0.252 A  
HETATM   20  C   UNL     1     -10.773  10.561  69.266  1.00  0.00    -0.269 A  
HETATM   21  C   UNL     1     -12.089  11.175  68.866  1.00  0.00    -0.276 C  
ENDBRANCH  11  14
ENDBRANCH   9  10
ENDBRANCH   3   4
ENDBRANCH   2   3
TORSDOF 4
ENDMDL
MODEL       94
REMARK 921   NORMALIZED FREE ENERGY PREDICTED BY IDOCK:   -4.52 KCAL/MOL
REMARK 922        TOTAL FREE ENERGY PREDICTED BY IDOCK:   -6.11 KCAL/MOL
REMARK 923 INTER-LIGAND FREE ENERGY PREDICTED BY IDOCK:   -5.54 KCAL/MOL
REMARK 924 INTRA-LIGAND FREE ENERGY PREDICTED BY IDOCK:   -0.57 KCAL/MOL
REMARK 927      BINDING AFFINITY PREDICTED BY RF-SCORE:    0.00 PKD
ROOT
HETATM    1  C   UNL     1     -11.458  15.614  64.510  1.00  0.00    -0.304 C  
HETATM    2  C   UNL     1     -11.937  14.200  64.808  1.00  0.00    -0.441 C  
ENDROOT
BRANCH   2   3
HETATM    3  C   UNL     1     -12.212  14.007  66.308  1.00  0.00    -0.462 C  
BRANCH   3   4
HETATM    4  N   UNL     1     -10.999  14.119  67.150  1.00  0.00    -0.294 NA 
HETATM    5  C   UNL     1     -11.085  15.234  68.123  1.00  0.00    -0.308 C  
HETATM    6  C   UNL     1     -12.150  15.034  69.208  1.00  0.00    -0.282 C  
HETATM    7  C   UNL     1     -11.922  13.734  69.968  1.00  0.00    -0.407 C  
HETATM    8  C   UNL     1     -11.747  12.559  69.016  1.00  0.00    -0.368 C  
HETATM    9  C   UNL     1     -10.712  12.863  67.920  1.00  0.00    -0.220 C  
BRANCH   9  10
HETATM   10  C   UNL     1     -10.507  11.639  67.004  1.00  0.00    -0.224 C  
HETATM   11  N   UNL     1      -9.430  11.784  66.140  1.00  0.00    -0.223 N  
HETATM   12  O   UNL     1     -11.226  10.644  67.072  1.00  0.00    -0.266 OA 
HETATM   13  H   UNL     1      -8.924  12.669  66.128  1.00  0.00     0.000 HD 
BRANCH  11  14
HETATM   14  C   UNL     1      -9.010  10.745  65.274  1.00  0.00    -0.194 A  
HETATM   15  C   UNL     1      -9.548  10.666  63.970  1.00  0.00    -0.351 A  
HETATM   16  C   UNL     1     -10.689  11.515  63.475  1.00  0.00    -0.483 C  
HETATM   17  C   UNL     1      -9.097   9.652  63.105  1.00  0.00    -0.228 A  
HETATM   18  C   UNL     1      -8.117   8.748  63.504  1.00  0.00    -0.170 A  
HETATM   19  C   UNL     1      -7.575   8.837  64.780  1.00  0.00    -0.107 A  
HETATM   20  C   UNL     1      -8.003   9.835  65.676  1.00  0.00    -0.117 A  
HETATM   21  C   UNL     1      -7.326   9.897  67.020  1.00  0.00    -0.091 C  
ENDBRANCH  11  14
ENDBRANCH   9  10
ENDBRANCH   3   4
ENDBRANCH   2   3
TORSDOF 4
ENDMDL
MODEL       95
REMARK 921   NORMALIZED FREE ENERGY PREDICTED BY IDOCK:   -4.50 KCAL/MOL
REMARK 922        TOTAL FREE ENERGY PREDICTED BY IDOCK:   -6.07 KCAL/MOL
REMARK 923 INTER-LIGAND FREE ENERGY PREDICTED BY IDOCK:   -5.49 KCAL/MOL
REMARK 924 INTRA-LIGAND FREE ENERGY PREDICTED BY IDOCK:   -0.59 KCAL/MOL
REMARK 927      BINDING AFFINITY PREDICTED BY RF-SCORE:    0.00 PKD
ROOT
HETATM    1  C   UNL     1      -8.395   4.495  70.172  1.00  0.00    -0.080 C  
HETATM    2  C   UNL     1      -9.799   5.049  69.976  1.00  0.00    -0.298 C  
ENDROOT
BRANCH   2   3
HETATM    3  C   UNL     1      -9.801   6.586  69.986  1.00  0.00    -0.165 C  
BRANCH   3   4
HETATM    4  N   UNL     1     -11.155   7.175  70.100  1.00  0.00    -0.270 NA 
HETATM    5  C   UNL     1     -11.961   6.539  71.168  1.00  0.00    -0.306 C  
HETATM    6  C   UNL     1     -11.434   6.796  72.585  1.00  0.00    -0.218 C  
HETATM    7  C   UNL     1     -11.331   8.289  72.870  1.00  0.00    -0.193 C  
HETATM    8  C   UNL     1     -10.576   9.013  71.763  1.00  0.00    -0.426 C  
HETATM    9  C   UNL     1     -11.122   8.651  70.371  1.00  0.00    -0.230 C  
BRANCH   9  10
HETATM   10  C   UNL     1     -10.384   9.440  69.271  1.00  0.00    -0.208 C  
HETATM   11  N   UNL     1     -10.989   9.330  68.026  1.00  0.00    -0.499 N  
HETATM   12  O   UNL     1      -9.378  10.107  69.507  1.00  0.00    -0.210 OA 
HETATM   13  H   UNL     1     -11.795   8.713  67.924  1.00  0.00     0.000 HD 
BRANCH  11  14
HETATM   14  C   UNL     1     -10.528  10.045  66.894  1.00  0.00    -0.218 A  
HETATM   15  C   UNL     1      -9.768   9.373  65.910  1.00  0.00    -0.355 A  
HETATM   16  C   UNL     1      -9.249   7.968  66.058  1.00  0.00    -0.179 C  
HETATM   17  C   UNL     1      -9.346  10.083  64.771  1.00  0.00    -0.330 A  
HETATM   18  C   UNL     1      -9.684  11.421  64.589  1.00  0.00    -0.275 A  
HETATM   19  C   UNL     1     -10.447  12.076  65.548  1.00  0.00    -0.307 A  
HETATM   20  C   UNL     1     -10.886  11.401  66.703  1.00  0.00    -0.339 A  
HETATM   21  C   UNL     1     -11.754  12.167  67.667  1.00  0.00    -0.386 C  
ENDBRANCH  11  14
ENDBRANCH   9  10
ENDBRANCH   3   4
ENDBRANCH   2   3
TORSDOF 4
ENDMDL
MODEL       96
REMARK 921   NORMALIZED FREE ENERGY PREDICTED BY IDOCK:   -4.49 KCAL/MOL
REMARK 922        TOTAL FREE ENERGY PREDICTED BY IDOCK:   -6.06 KCAL/MOL
REMARK 923 INTER-LIGAND FREE ENERGY PREDICTED BY IDOCK:   -5.88 KCAL/MOL
REMARK 924 INTRA-LIGAND FREE ENERGY PREDICTED BY IDOCK:   -0.19 KCAL/MOL
REMARK 927      BINDING AFFINITY PREDICTED BY RF-SCORE:    0.00 PKD
ROOT
HETATM    1  C   UNL     1      -6.200  12.716  68.296  1.00  0.00    -0.071 C  
HETATM    2  C   UNL     1      -7.376  13.382  67.596  1.00  0.00    -0.173 C  
ENDROOT
BRANCH   2   3
HETATM    3  C   UNL     1      -8.706  12.713  67.978  1.00  0.00    -0.190 C  
BRANCH   3   4
HETATM    4  N   UNL     1      -9.578  12.425  66.816  1.00  0.00    -0.219 NA 
HETATM    5  C   UNL     1      -8.977  11.437  65.889  1.00  0.00    -0.177 C  
HETATM    6  C   UNL     1      -8.840  10.029  66.480  1.00  0.00    -0.154 C  
HETATM    7  C   UNL     1     -10.187   9.500  66.957  1.00  0.00    -0.321 C  
HETATM    8  C   UNL     1     -10.890  10.508  67.856  1.00  0.00    -0.333 C  
HETATM    9  C   UNL     1     -10.928  11.908  67.220  1.00  0.00    -0.268 C  
BRANCH   9  10
HETATM   10  C   UNL     1     -11.697  12.898  68.119  1.00  0.00    -0.352 C  
HETATM   11  N   UNL     1     -11.330  12.813  69.456  1.00  0.00    -0.448 N  
HETATM   12  O   UNL     1     -12.527  13.684  67.666  1.00  0.00    -0.140 OA 
HETATM   13  H   UNL     1     -10.665  12.094  69.739  1.00  0.00     0.000 HD 
BRANCH  11  14
HETATM   14  C   UNL     1     -11.848  13.690  70.440  1.00  0.00    -0.237 A  
HETATM   15  C   UNL     1     -11.485  15.056  70.414  1.00  0.00    -0.321 A  
HETATM   16  C   UNL     1     -10.431  15.632  69.507  1.00  0.00    -0.270 C  
HETATM   17  C   UNL     1     -12.034  15.926  71.373  1.00  0.00    -0.515 A  
HETATM   18  C   UNL     1     -12.940  15.470  72.326  1.00  0.00    -0.504 A  
HETATM   19  C   UNL     1     -13.310  14.131  72.340  1.00  0.00    -0.591 A  
HETATM   20  C   UNL     1     -12.781  13.228  71.398  1.00  0.00    -0.401 A  
HETATM   21  C   UNL     1     -13.275  11.805  71.447  1.00  0.00    -0.193 C  
ENDBRANCH  11  14
ENDBRANCH   9  10
ENDBRANCH   3   4
ENDBRANCH   2   3
TORSDOF 4
ENDMDL
MODEL       97
REMARK 921   NORMALIZED FREE ENERGY PREDICTED BY IDOCK:   -4.47 KCAL/MOL
REMARK 922        TOTAL FREE ENERGY PREDICTED BY IDOCK:   -6.05 KCAL/MOL
REMARK 923 INTER-LIGAND FREE ENERGY PREDICTED BY IDOCK:   -5.40 KCAL/MOL
REMARK 924 INTRA-LIGAND FREE ENERGY PREDICTED BY IDOCK:   -0.65 KCAL/MOL
REMARK 927      BINDING AFFINITY PREDICTED BY RF-SCORE:    0.00 PKD
ROOT
HETATM    1  C   UNL     1      -7.009   5.694  67.543  1.00  0.00    -0.066 C  
HETATM    2  C   UNL     1      -8.454   6.155  67.413  1.00  0.00    -0.107 C  
ENDROOT
BRANCH   2   3
HETATM    3  C   UNL     1      -8.887   6.986  68.632  1.00  0.00    -0.128 C  
BRANCH   3   4
HETATM    4  N   UNL     1     -10.260   6.682  69.097  1.00  0.00    -0.171 NA 
HETATM    5  C   UNL     1     -10.470   5.234  69.333  1.00  0.00    -0.214 C  
HETATM    6  C   UNL     1      -9.656   4.668  70.502  1.00  0.00    -0.268 C  
HETATM    7  C   UNL     1      -9.949   5.424  71.792  1.00  0.00    -0.235 C  
HETATM    8  C   UNL     1      -9.825   6.929  71.592  1.00  0.00    -0.173 C  
HETATM    9  C   UNL     1     -10.615   7.406  70.362  1.00  0.00    -0.228 C  
BRANCH   9  10
HETATM   10  C   UNL     1     -10.524   8.939  70.214  1.00  0.00    -0.210 C  
HETATM   11  N   UNL     1     -11.604   9.482  69.530  1.00  0.00    -0.433 N  
HETATM   12  O   UNL     1      -9.591   9.587  70.683  1.00  0.00    -0.258 OA 
HETATM   13  H   UNL     1     -12.305   8.853  69.138  1.00  0.00     0.000 HD 
BRANCH  11  14
HETATM   14  C   UNL     1     -11.766  10.878  69.358  1.00  0.00    -0.325 A  
HETATM   15  C   UNL     1     -12.320  11.648  70.406  1.00  0.00    -0.373 A  
HETATM   16  C   UNL     1     -12.926  11.064  71.654  1.00  0.00    -0.561 C  
HETATM   17  C   UNL     1     -12.442  13.040  70.239  1.00  0.00    -0.217 A  
HETATM   18  C   UNL     1     -12.008  13.667  69.075  1.00  0.00    -0.392 A  
HETATM   19  C   UNL     1     -11.447  12.912  68.053  1.00  0.00    -0.361 A  
HETATM   20  C   UNL     1     -11.310  11.517  68.180  1.00  0.00    -0.367 A  
HETATM   21  C   UNL     1     -10.643  10.779  67.049  1.00  0.00    -0.312 C  
ENDBRANCH  11  14
ENDBRANCH   9  10
ENDBRANCH   3   4
ENDBRANCH   2   3
TORSDOF 4
ENDMDL
MODEL       98
REMARK 921   NORMALIZED FREE ENERGY PREDICTED BY IDOCK:   -4.45 KCAL/MOL
REMARK 922        TOTAL FREE ENERGY PREDICTED BY IDOCK:   -6.01 KCAL/MOL
REMARK 923 INTER-LIGAND FREE ENERGY PREDICTED BY IDOCK:   -5.34 KCAL/MOL
REMARK 924 INTRA-LIGAND FREE ENERGY PREDICTED BY IDOCK:   -0.67 KCAL/MOL
REMARK 927      BINDING AFFINITY PREDICTED BY RF-SCORE:    0.00 PKD
ROOT
HETATM    1  C   UNL     1      -9.481  16.913  66.517  1.00  0.00    -0.296 C  
HETATM    2  C   UNL     1     -10.328  16.133  65.522  1.00  0.00    -0.391 C  
ENDROOT
BRANCH   2   3
HETATM    3  C   UNL     1     -10.341  14.632  65.855  1.00  0.00    -0.319 C  
BRANCH   3   4
HETATM    4  N   UNL     1     -11.697  14.093  66.106  1.00  0.00    -0.378 NA 
HETATM    5  C   UNL     1     -12.608  14.294  64.954  1.00  0.00    -0.324 C  
HETATM    6  C   UNL     1     -12.224  13.490  63.707  1.00  0.00    -0.449 C  
HETATM    7  C   UNL     1     -12.144  12.001  64.017  1.00  0.00    -0.506 C  
HETATM    8  C   UNL     1     -11.281  11.736  65.243  1.00  0.00    -0.315 C  
HETATM    9  C   UNL     1     -11.687  12.627  66.428  1.00  0.00    -0.405 C  
BRANCH   9  10
HETATM   10  C   UNL     1     -10.840  12.300  67.675  1.00  0.00    -0.225 C  
HETATM   11  N   UNL     1     -10.027  11.188  67.502  1.00  0.00    -0.180 N  
HETATM   12  O   UNL     1     -10.886  12.986  68.695  1.00  0.00    -0.247 OA 
HETATM   13  H   UNL     1     -10.098  10.658  66.633  1.00  0.00     0.000 HD 
BRANCH  11  14
HETATM   14  C   UNL     1      -9.104  10.764  68.488  1.00  0.00    -0.170 A  
HETATM   15  C   UNL     1      -9.455   9.711  69.362  1.00  0.00    -0.201 A  
HETATM   16  C   UNL     1     -10.831   9.105  69.445  1.00  0.00    -0.165 C  
HETATM   17  C   UNL     1      -8.517   9.272  70.315  1.00  0.00    -0.224 A  
HETATM   18  C   UNL     1      -7.249   9.840  70.391  1.00  0.00    -0.149 A  
HETATM   19  C   UNL     1      -6.898  10.863  69.520  1.00  0.00    -0.125 A  
HETATM   20  C   UNL     1      -7.809  11.332  68.555  1.00  0.00    -0.138 A  
HETATM   21  C   UNL     1      -7.332  12.406  67.613  1.00  0.00    -0.132 C  
ENDBRANCH  11  14
ENDBRANCH   9  10
ENDBRANCH   3   4
ENDBRANCH   2   3
TORSDOF 4
ENDMDL
MODEL       99
REMARK 921   NORMALIZED FREE ENERGY PREDICTED BY IDOCK:   -4.45 KCAL/MOL
REMARK 922        TOTAL FREE ENERGY PREDICTED BY IDOCK:   -6.01 KCAL/MOL
REMARK 923 INTER-LIGAND FREE ENERGY PREDICTED BY IDOCK:   -5.08 KCAL/MOL
REMARK 924 INTRA-LIGAND FREE ENERGY PREDICTED BY IDOCK:   -0.93 KCAL/MOL
REMARK 927      BINDING AFFINITY PREDICTED BY RF-SCORE:    0.00 PKD
ROOT
HETATM    1  C   UNL     1     -12.004  12.998  64.491  1.00  0.00    -0.450 C  
HETATM    2  C   UNL     1     -12.680  13.867  65.542  1.00  0.00    -0.536 C  
ENDROOT
BRANCH   2   3
HETATM    3  C   UNL     1     -11.735  14.159  66.719  1.00  0.00    -0.410 C  
BRANCH   3   4
HETATM    4  N   UNL     1     -10.412  14.676  66.299  1.00  0.00    -0.290 NA 
HETATM    5  C   UNL     1     -10.391  16.153  66.183  1.00  0.00    -0.339 C  
HETATM    6  C   UNL     1     -10.556  16.886  67.519  1.00  0.00    -0.307 C  
HETATM    7  C   UNL     1      -9.488  16.455  68.517  1.00  0.00    -0.227 C  
HETATM    8  C   UNL     1      -9.408  14.939  68.623  1.00  0.00    -0.194 C  
HETATM    9  C   UNL     1      -9.311  14.276  67.238  1.00  0.00    -0.213 C  
BRANCH   9  10
HETATM   10  C   UNL     1      -9.170  12.746  67.371  1.00  0.00    -0.193 C  
HETATM   11  N   UNL     1      -9.343  12.297  68.674  1.00  0.00    -0.393 N  
HETATM   12  O   UNL     1      -8.950  12.023  66.402  1.00  0.00    -0.203 OA 
HETATM   13  H   UNL     1      -9.476  12.983  69.417  1.00  0.00     0.000 HD 
BRANCH  11  14
HETATM   14  C   UNL     1      -9.343  10.921  69.006  1.00  0.00    -0.131 A  
HETATM   15  C   UNL     1     -10.533  10.172  68.870  1.00  0.00    -0.230 A  
HETATM   16  C   UNL     1     -11.878  10.774  68.558  1.00  0.00    -0.168 C  
HETATM   17  C   UNL     1     -10.513   8.797  69.168  1.00  0.00    -0.230 A  
HETATM   18  C   UNL     1      -9.341   8.164  69.568  1.00  0.00    -0.155 A  
HETATM   19  C   UNL     1      -8.166   8.897  69.685  1.00  0.00    -0.114 A  
HETATM   20  C   UNL     1      -8.146  10.275  69.399  1.00  0.00    -0.167 A  
HETATM   21  C   UNL     1      -6.821  10.985  69.497  1.00  0.00    -0.133 C  
ENDBRANCH  11  14
ENDBRANCH   9  10
ENDBRANCH   3   4
ENDBRANCH   2   3
TORSDOF 4
ENDMDL
MODEL      100
REMARK 921   NORMALIZED FREE ENERGY PREDICTED BY IDOCK:   -4.44 KCAL/MOL
REMARK 922        TOTAL FREE ENERGY PREDICTED BY IDOCK:   -6.01 KCAL/MOL
REMARK 923 INTER-LIGAND FREE ENERGY PREDICTED BY IDOCK:   -5.22 KCAL/MOL
REMARK 924 INTRA-LIGAND FREE ENERGY PREDICTED BY IDOCK:   -0.79 KCAL/MOL
REMARK 927      BINDING AFFINITY PREDICTED BY RF-SCORE:    0.00 PKD
ROOT
HETATM    1  C   UNL     1      -8.236   8.813  63.754  1.00  0.00    -0.163 C  
HETATM    2  C   UNL     1      -8.537   8.976  65.237  1.00  0.00    -0.199 C  
ENDROOT
BRANCH   2   3
HETATM    3  C   UNL     1      -9.847   9.749  65.460  1.00  0.00    -0.308 C  
BRANCH   3   4
HETATM    4  N   UNL     1      -9.648  11.203  65.662  1.00  0.00    -0.215 NA 
HETATM    5  C   UNL     1      -9.868  11.982  64.421  1.00  0.00    -0.155 C  
HETATM    6  C   UNL     1     -11.320  11.974  63.928  1.00  0.00    -0.503 C  
HETATM    7  C   UNL     1     -12.268  12.485  65.006  1.00  0.00    -0.519 C  
HETATM    8  C   UNL     1     -12.036  11.773  66.332  1.00  0.00     0.201 C  
HETATM    9  C   UNL     1     -10.548  11.768  66.721  1.00  0.00    -0.238 C  
BRANCH   9  10
HETATM   10  C   UNL     1     -10.343  11.096  68.095  1.00  0.00    -0.187 C  
HETATM   11  N   UNL     1     -11.456  10.382  68.519  1.00  0.00    -0.488 N  
HETATM   12  O   UNL     1      -9.285  11.183  68.714  1.00  0.00    -0.180 OA 
HETATM   13  H   UNL     1     -12.304  10.410  67.953  1.00  0.00     0.000 HD 
BRANCH  11  14
HETATM   14  C   UNL     1     -11.454   9.615  69.710  1.00  0.00    -0.052 A  
HETATM   15  C   UNL     1     -10.855   8.335  69.712  1.00  0.00    -0.186 A  
HETATM   16  C   UNL     1     -10.362   7.632  68.476  1.00  0.00    -0.225 C  
HETATM   17  C   UNL     1     -10.826   7.597  70.910  1.00  0.00    -0.250 A  
HETATM   18  C   UNL     1     -11.352   8.116  72.089  1.00  0.00    -0.399 A  
HETATM   19  C   UNL     1     -11.924   9.382  72.090  1.00  0.00    -0.240 A  
HETATM   20  C   UNL     1     -11.975  10.151  70.912  1.00  0.00    -0.461 A  
HETATM   21  C   UNL     1     -12.563  11.534  71.010  1.00  0.00    -0.457 C  
ENDBRANCH  11  14
ENDBRANCH   9  10
ENDBRANCH   3   4
ENDBRANCH   2   3
TORSDOF 4
ENDMDL
MODEL      101
REMARK 921   NORMALIZED FREE ENERGY PREDICTED BY IDOCK:   -4.44 KCAL/MOL
REMARK 922        TOTAL FREE ENERGY PREDICTED BY IDOCK:   -6.01 KCAL/MOL
REMARK 923 INTER-LIGAND FREE ENERGY PREDICTED BY IDOCK:   -5.17 KCAL/MOL
REMARK 924 INTRA-LIGAND FREE ENERGY PREDICTED BY IDOCK:   -0.84 KCAL/MOL
REMARK 927      BINDING AFFINITY PREDICTED BY RF-SCORE:    0.00 PKD
ROOT
HETATM    1  C   UNL     1     -10.168  12.169  63.542  1.00  0.00    -0.453 C  
HETATM    2  C   UNL     1     -10.573  11.507  64.851  1.00  0.00    -0.360 C  
ENDROOT
BRANCH   2   3
HETATM    3  C   UNL     1      -9.342  11.115  65.685  1.00  0.00    -0.219 C  
BRANCH   3   4
HETATM    4  N   UNL     1      -8.867   9.737  65.425  1.00  0.00    -0.157 NA 
HETATM    5  C   UNL     1      -7.663   9.706  64.561  1.00  0.00    -0.131 C  
HETATM    6  C   UNL     1      -6.411  10.306  65.213  1.00  0.00    -0.122 C  
HETATM    7  C   UNL     1      -6.091   9.608  66.530  1.00  0.00    -0.060 C  
HETATM    8  C   UNL     1      -7.315   9.540  67.433  1.00  0.00    -0.087 C  
HETATM    9  C   UNL     1      -8.542   8.990  66.686  1.00  0.00    -0.127 C  
BRANCH   9  10
HETATM   10  C   UNL     1      -9.753   8.873  67.634  1.00  0.00    -0.161 C  
HETATM   11  N   UNL     1      -9.581   9.572  68.822  1.00  0.00    -0.155 N  
HETATM   12  O   UNL     1     -10.761   8.237  67.332  1.00  0.00    -0.270 OA 
HETATM   13  H   UNL     1      -8.688  10.030  68.998  1.00  0.00     0.000 HD 
BRANCH  11  14
HETATM   14  C   UNL     1     -10.604   9.672  69.796  1.00  0.00    -0.242 A  
HETATM   15  C   UNL     1     -10.600   8.791  70.901  1.00  0.00    -0.276 A  
HETATM   16  C   UNL     1      -9.672   7.614  71.039  1.00  0.00    -0.169 C  
HETATM   17  C   UNL     1     -11.599   8.923  71.883  1.00  0.00    -0.442 A  
HETATM   18  C   UNL     1     -12.570   9.915  71.794  1.00  0.00    -0.506 A  
HETATM   19  C   UNL     1     -12.564  10.792  70.717  1.00  0.00    -0.476 A  
HETATM   20  C   UNL     1     -11.582  10.691  69.712  1.00  0.00    -0.385 A  
HETATM   21  C   UNL     1     -11.613  11.714  68.607  1.00  0.00    -0.373 C  
ENDBRANCH  11  14
ENDBRANCH   9  10
ENDBRANCH   3   4
ENDBRANCH   2   3
TORSDOF 4
ENDMDL
MODEL      102
REMARK 921   NORMALIZED FREE ENERGY PREDICTED BY IDOCK:   -4.42 KCAL/MOL
REMARK 922        TOTAL FREE ENERGY PREDICTED BY IDOCK:   -5.98 KCAL/MOL
REMARK 923 INTER-LIGAND FREE ENERGY PREDICTED BY IDOCK:   -5.17 KCAL/MOL
REMARK 924 INTRA-LIGAND FREE ENERGY PREDICTED BY IDOCK:   -0.81 KCAL/MOL
REMARK 927      BINDING AFFINITY PREDICTED BY RF-SCORE:    0.00 PKD
ROOT
HETATM    1  C   UNL     1      -7.659   6.397  65.845  1.00  0.00    -0.084 C  
HETATM    2  C   UNL     1      -7.707   7.606  64.922  1.00  0.00    -0.107 C  
ENDROOT
BRANCH   2   3
HETATM    3  C   UNL     1      -8.685   8.671  65.446  1.00  0.00    -0.174 C  
BRANCH   3   4
HETATM    4  N   UNL     1      -8.244  10.059  65.180  1.00  0.00    -0.140 NA 
HETATM    5  C   UNL     1      -8.043  10.324  63.736  1.00  0.00    -0.143 C  
HETATM    6  C   UNL     1      -9.333  10.286  62.909  1.00  0.00    -0.336 C  
HETATM    7  C   UNL     1     -10.361  11.272  63.451  1.00  0.00    -0.449 C  
HETATM    8  C   UNL     1     -10.555  11.101  64.951  1.00  0.00    -0.356 C  
HETATM    9  C   UNL     1      -9.212  11.082  65.700  1.00  0.00    -0.210 C  
BRANCH   9  10
HETATM   10  C   UNL     1      -9.435  10.969  67.222  1.00  0.00    -0.164 C  
HETATM   11  N   UNL     1     -10.743  10.643  67.555  1.00  0.00    -0.252 N  
HETATM   12  O   UNL     1      -8.524  11.134  68.031  1.00  0.00    -0.126 OA 
HETATM   13  H   UNL     1     -11.437  10.573  66.812  1.00  0.00     0.000 HD 
BRANCH  11  14
HETATM   14  C   UNL     1     -11.146  10.402  68.891  1.00  0.00    -0.247 A  
HETATM   15  C   UNL     1     -11.759  11.439  69.630  1.00  0.00    -0.415 A  
HETATM   16  C   UNL     1     -11.863  12.865  69.157  1.00  0.00    -0.353 C  
HETATM   17  C   UNL     1     -12.190  11.179  70.944  1.00  0.00    -0.468 A  
HETATM   18  C   UNL     1     -12.043   9.918  71.514  1.00  0.00    -0.496 A  
HETATM   19  C   UNL     1     -11.457   8.894  70.781  1.00  0.00    -0.319 A  
HETATM   20  C   UNL     1     -11.011   9.115  69.464  1.00  0.00    -0.138 A  
HETATM   21  C   UNL     1     -10.436   7.939  68.719  1.00  0.00    -0.198 C  
ENDBRANCH  11  14
ENDBRANCH   9  10
ENDBRANCH   3   4
ENDBRANCH   2   3
TORSDOF 4
ENDMDL
MODEL      103
REMARK 921   NORMALIZED FREE ENERGY PREDICTED BY IDOCK:   -4.42 KCAL/MOL
REMARK 922        TOTAL FREE ENERGY PREDICTED BY IDOCK:   -5.98 KCAL/MOL
REMARK 923 INTER-LIGAND FREE ENERGY PREDICTED BY IDOCK:   -5.32 KCAL/MOL
REMARK 924 INTRA-LIGAND FREE ENERGY PREDICTED BY IDOCK:   -0.66 KCAL/MOL
REMARK 927      BINDING AFFINITY PREDICTED BY RF-SCORE:    0.00 PKD
ROOT
HETATM    1  C   UNL     1     -14.035  15.252  71.412  1.00  0.00    -0.601 C  
HETATM    2  C   UNL     1     -12.897  15.145  70.407  1.00  0.00    -0.346 C  
ENDROOT
BRANCH   2   3
HETATM    3  C   UNL     1     -12.774  13.717  69.851  1.00  0.00     0.061 C  
BRANCH   3   4
HETATM    4  N   UNL     1     -11.800  12.879  70.586  1.00  0.00    -0.111 NA 
HETATM    5  C   UNL     1     -12.305  12.454  71.913  1.00  0.00     0.562 C  
HETATM    6  C   UNL     1     -13.497  11.491  71.848  1.00  0.00    -0.275 C  
HETATM    7  C   UNL     1     -13.156  10.251  71.030  1.00  0.00    -0.458 C  
HETATM    8  C   UNL     1     -12.558  10.624  69.681  1.00  0.00     0.003 C  
HETATM    9  C   UNL     1     -11.414  11.642  69.828  1.00  0.00    -0.264 C  
BRANCH   9  10
HETATM   10  C   UNL     1     -10.784  11.960  68.456  1.00  0.00    -0.224 C  
HETATM   11  N   UNL     1     -11.469  11.378  67.397  1.00  0.00    -0.285 N  
HETATM   12  O   UNL     1      -9.791  12.676  68.343  1.00  0.00    -0.226 OA 
HETATM   13  H   UNL     1     -12.255  10.761  67.600  1.00  0.00     0.000 HD 
BRANCH  11  14
HETATM   14  C   UNL     1     -11.113  11.611  66.046  1.00  0.00    -0.270 A  
HETATM   15  C   UNL     1     -10.251  10.706  65.387  1.00  0.00    -0.341 A  
HETATM   16  C   UNL     1      -9.524   9.581  66.074  1.00  0.00    -0.294 C  
HETATM   17  C   UNL     1      -9.934  10.927  64.035  1.00  0.00    -0.403 A  
HETATM   18  C   UNL     1     -10.473  12.003  63.335  1.00  0.00    -0.474 A  
HETATM   19  C   UNL     1     -11.334  12.882  63.978  1.00  0.00    -0.466 A  
HETATM   20  C   UNL     1     -11.674  12.697  65.332  1.00  0.00    -0.428 A  
HETATM   21  C   UNL     1     -12.657  13.663  65.940  1.00  0.00    -0.478 C  
ENDBRANCH  11  14
ENDBRANCH   9  10
ENDBRANCH   3   4
ENDBRANCH   2   3
TORSDOF 4
ENDMDL
MODEL      104
REMARK 921   NORMALIZED FREE ENERGY PREDICTED BY IDOCK:   -4.41 KCAL/MOL
REMARK 922        TOTAL FREE ENERGY PREDICTED BY IDOCK:   -5.96 KCAL/MOL
REMARK 923 INTER-LIGAND FREE ENERGY PREDICTED BY IDOCK:   -5.24 KCAL/MOL
REMARK 924 INTRA-LIGAND FREE ENERGY PREDICTED BY IDOCK:   -0.72 KCAL/MOL
REMARK 927      BINDING AFFINITY PREDICTED BY RF-SCORE:    0.00 PKD
ROOT
HETATM    1  C   UNL     1      -5.660   9.332  68.495  1.00  0.00    -0.041 C  
HETATM    2  C   UNL     1      -6.478  10.091  67.460  1.00  0.00    -0.067 C  
ENDROOT
BRANCH   2   3
HETATM    3  C   UNL     1      -7.967   9.718  67.541  1.00  0.00    -0.106 C  
BRANCH   3   4
HETATM    4  N   UNL     1      -8.497   9.127  66.290  1.00  0.00    -0.121 NA 
HETATM    5  C   UNL     1      -8.049   7.728  66.090  1.00  0.00    -0.113 C  
HETATM    6  C   UNL     1      -8.612   6.739  67.117  1.00  0.00    -0.120 C  
HETATM    7  C   UNL     1     -10.136   6.771  67.131  1.00  0.00    -0.249 C  
HETATM    8  C   UNL     1     -10.659   8.195  67.257  1.00  0.00    -0.344 C  
HETATM    9  C   UNL     1      -9.997   9.137  66.237  1.00  0.00    -0.282 C  
BRANCH   9  10
HETATM   10  C   UNL     1     -10.585  10.559  66.341  1.00  0.00    -0.149 C  
HETATM   11  N   UNL     1     -10.207  11.380  65.288  1.00  0.00    -0.257 N  
HETATM   12  O   UNL     1     -11.327  10.893  67.263  1.00  0.00    -0.415 OA 
HETATM   13  H   UNL     1      -9.549  11.022  64.596  1.00  0.00     0.000 HD 
BRANCH  11  14
HETATM   14  C   UNL     1     -10.704  12.698  65.139  1.00  0.00    -0.292 A  
HETATM   15  C   UNL     1     -10.064  13.763  65.812  1.00  0.00    -0.322 A  
HETATM   16  C   UNL     1      -8.976  13.581  66.837  1.00  0.00    -0.219 C  
HETATM   17  C   UNL     1     -10.543  15.073  65.629  1.00  0.00    -0.360 A  
HETATM   18  C   UNL     1     -11.615  15.336  64.782  1.00  0.00    -0.322 A  
HETATM   19  C   UNL     1     -12.233  14.291  64.106  1.00  0.00    -0.410 A  
HETATM   20  C   UNL     1     -11.785  12.966  64.265  1.00  0.00    -0.445 A  
HETATM   21  C   UNL     1     -12.474  11.899  63.456  1.00  0.00    -0.609 C  
ENDBRANCH  11  14
ENDBRANCH   9  10
ENDBRANCH   3   4
ENDBRANCH   2   3
TORSDOF 4
ENDMDL
MODEL      105
REMARK 921   NORMALIZED FREE ENERGY PREDICTED BY IDOCK:   -4.41 KCAL/MOL
REMARK 922        TOTAL FREE ENERGY PREDICTED BY IDOCK:   -5.96 KCAL/MOL
REMARK 923 INTER-LIGAND FREE ENERGY PREDICTED BY IDOCK:   -5.18 KCAL/MOL
REMARK 924 INTRA-LIGAND FREE ENERGY PREDICTED BY IDOCK:   -0.78 KCAL/MOL
REMARK 927      BINDING AFFINITY PREDICTED BY RF-SCORE:    0.00 PKD
ROOT
HETATM    1  C   UNL     1     -11.403  12.222  63.523  1.00  0.00    -0.549 C  
HETATM    2  C   UNL     1     -11.618  12.245  65.030  1.00  0.00    -0.394 C  
ENDROOT
BRANCH   2   3
HETATM    3  C   UNL     1     -10.424  12.887  65.755  1.00  0.00    -0.278 C  
BRANCH   3   4
HETATM    4  N   UNL     1     -10.227  12.379  67.133  1.00  0.00    -0.215 NA 
HETATM    5  C   UNL     1      -9.767  10.971  67.157  1.00  0.00    -0.174 C  
HETATM    6  C   UNL     1      -8.358  10.764  66.589  1.00  0.00    -0.141 C  
HETATM    7  C   UNL     1      -7.339  11.628  67.322  1.00  0.00    -0.136 C  
HETATM    8  C   UNL     1      -7.795  13.079  67.398  1.00  0.00    -0.166 C  
HETATM    9  C   UNL     1      -9.239  13.195  67.914  1.00  0.00    -0.207 C  
BRANCH   9  10
HETATM   10  C   UNL     1      -9.658  14.675  68.039  1.00  0.00    -0.212 C  
HETATM   11  N   UNL     1      -8.822  15.536  67.341  1.00  0.00    -0.184 N  
HETATM   12  O   UNL     1     -10.649  15.021  68.680  1.00  0.00    -0.225 OA 
HETATM   13  H   UNL     1      -7.998  15.154  66.878  1.00  0.00     0.000 HD 
BRANCH  11  14
HETATM   14  C   UNL     1      -9.075  16.926  67.249  1.00  0.00    -0.218 A  
HETATM   15  C   UNL     1      -8.382  17.817  68.098  1.00  0.00    -0.264 A  
HETATM   16  C   UNL     1      -7.503  17.382  69.241  1.00  0.00    -0.026 C  
HETATM   17  C   UNL     1      -8.613  19.199  67.973  1.00  0.00    -0.345 A  
HETATM   18  C   UNL     1      -9.489  19.699  67.015  1.00  0.00    -0.450 A  
HETATM   19  C   UNL     1     -10.157  18.824  66.168  1.00  0.00    -0.421 A  
HETATM   20  C   UNL     1      -9.955  17.435  66.263  1.00  0.00    -0.306 A  
HETATM   21  C   UNL     1     -10.676  16.558  65.272  1.00  0.00    -0.269 C  
ENDBRANCH  11  14
ENDBRANCH   9  10
ENDBRANCH   3   4
ENDBRANCH   2   3
TORSDOF 4
ENDMDL
MODEL      106
REMARK 921   NORMALIZED FREE ENERGY PREDICTED BY IDOCK:   -4.40 KCAL/MOL
REMARK 922        TOTAL FREE ENERGY PREDICTED BY IDOCK:   -5.95 KCAL/MOL
REMARK 923 INTER-LIGAND FREE ENERGY PREDICTED BY IDOCK:   -5.24 KCAL/MOL
REMARK 924 INTRA-LIGAND FREE ENERGY PREDICTED BY IDOCK:   -0.72 KCAL/MOL
REMARK 927      BINDING AFFINITY PREDICTED BY RF-SCORE:    0.00 PKD
ROOT
HETATM    1  C   UNL     1     -11.671  11.730  63.639  1.00  0.00    -0.517 C  
HETATM    2  C   UNL     1     -10.297  11.194  64.014  1.00  0.00    -0.437 C  
ENDROOT
BRANCH   2   3
HETATM    3  C   UNL     1      -9.918  11.584  65.452  1.00  0.00    -0.248 C  
BRANCH   3   4
HETATM    4  N   UNL     1     -10.801  10.986  66.479  1.00  0.00    -0.243 NA 
HETATM    5  C   UNL     1     -10.475   9.566  66.750  1.00  0.00    -0.193 C  
HETATM    6  C   UNL     1      -9.109   9.354  67.412  1.00  0.00    -0.141 C  
HETATM    7  C   UNL     1      -9.002  10.141  68.713  1.00  0.00    -0.147 C  
HETATM    8  C   UNL     1      -9.401  11.596  68.515  1.00  0.00    -0.169 C  
HETATM    9  C   UNL     1     -10.749  11.722  67.786  1.00  0.00    -0.205 C  
BRANCH   9  10
HETATM   10  C   UNL     1     -11.163  13.202  67.650  1.00  0.00    -0.282 C  
HETATM   11  N   UNL     1     -10.076  14.063  67.569  1.00  0.00    -0.235 N  
HETATM   12  O   UNL     1     -12.341  13.550  67.598  1.00  0.00    -0.248 OA 
HETATM   13  H   UNL     1      -9.136  13.679  67.668  1.00  0.00     0.000 HD 
BRANCH  11  14
HETATM   14  C   UNL     1     -10.227  15.454  67.351  1.00  0.00    -0.249 A  
HETATM   15  C   UNL     1     -10.446  15.933  66.040  1.00  0.00    -0.357 A  
HETATM   16  C   UNL     1     -10.356  15.080  64.804  1.00  0.00    -0.201 C  
HETATM   17  C   UNL     1     -10.632  17.313  65.840  1.00  0.00    -0.206 A  
HETATM   18  C   UNL     1     -10.627  18.204  66.910  1.00  0.00    -0.326 A  
HETATM   19  C   UNL     1     -10.429  17.730  68.200  1.00  0.00    -0.382 A  
HETATM   20  C   UNL     1     -10.237  16.357  68.442  1.00  0.00    -0.259 A  
HETATM   21  C   UNL     1     -10.084  15.918  69.875  1.00  0.00    -0.191 C  
ENDBRANCH  11  14
ENDBRANCH   9  10
ENDBRANCH   3   4
ENDBRANCH   2   3
TORSDOF 4
ENDMDL
MODEL      107
REMARK 921   NORMALIZED FREE ENERGY PREDICTED BY IDOCK:   -4.39 KCAL/MOL
REMARK 922        TOTAL FREE ENERGY PREDICTED BY IDOCK:   -5.95 KCAL/MOL
REMARK 923 INTER-LIGAND FREE ENERGY PREDICTED BY IDOCK:   -5.09 KCAL/MOL
REMARK 924 INTRA-LIGAND FREE ENERGY PREDICTED BY IDOCK:   -0.86 KCAL/MOL
REMARK 927      BINDING AFFINITY PREDICTED BY RF-SCORE:    0.00 PKD
ROOT
HETATM    1  C   UNL     1      -8.366   9.740  65.293  1.00  0.00    -0.146 C  
HETATM    2  C   UNL     1      -9.886   9.702  65.362  1.00  0.00    -0.322 C  
ENDROOT
BRANCH   2   3
HETATM    3  C   UNL     1     -10.464  11.075  65.743  1.00  0.00    -0.228 C  
BRANCH   3   4
HETATM    4  N   UNL     1     -10.040  12.166  64.836  1.00  0.00    -0.267 NA 
HETATM    5  C   UNL     1     -10.707  12.095  63.514  1.00  0.00    -0.457 C  
HETATM    6  C   UNL     1     -12.217  12.354  63.562  1.00  0.00    -0.661 C  
HETATM    7  C   UNL     1     -12.522  13.706  64.195  1.00  0.00    -0.292 C  
HETATM    8  C   UNL     1     -11.800  13.870  65.526  1.00  0.00    -0.372 C  
HETATM    9  C   UNL     1     -10.305  13.528  65.407  1.00  0.00    -0.319 C  
BRANCH   9  10
HETATM   10  C   UNL     1      -9.582  13.759  66.751  1.00  0.00    -0.279 C  
HETATM   11  N   UNL     1      -8.211  13.555  66.670  1.00  0.00    -0.358 N  
HETATM   12  O   UNL     1     -10.183  14.109  67.764  1.00  0.00    -0.237 OA 
HETATM   13  H   UNL     1      -7.815  13.219  65.793  1.00  0.00     0.000 HD 
BRANCH  11  14
HETATM   14  C   UNL     1      -7.344  13.797  67.763  1.00  0.00    -0.164 A  
HETATM   15  C   UNL     1      -7.022  12.739  68.642  1.00  0.00    -0.101 A  
HETATM   16  C   UNL     1      -7.679  11.385  68.611  1.00  0.00    -0.137 C  
HETATM   17  C   UNL     1      -6.131  12.981  69.704  1.00  0.00    -0.122 A  
HETATM   18  C   UNL     1      -5.548  14.232  69.884  1.00  0.00    -0.104 A  
HETATM   19  C   UNL     1      -5.851  15.267  69.009  1.00  0.00    -0.098 A  
HETATM   20  C   UNL     1      -6.741  15.066  67.937  1.00  0.00    -0.172 A  
HETATM   21  C   UNL     1      -6.975  16.223  67.002  1.00  0.00    -0.250 C  
ENDBRANCH  11  14
ENDBRANCH   9  10
ENDBRANCH   3   4
ENDBRANCH   2   3
TORSDOF 4
ENDMDL
MODEL      108
REMARK 921   NORMALIZED FREE ENERGY PREDICTED BY IDOCK:   -4.36 KCAL/MOL
REMARK 922        TOTAL FREE ENERGY PREDICTED BY IDOCK:   -5.91 KCAL/MOL
REMARK 923 INTER-LIGAND FREE ENERGY PREDICTED BY IDOCK:   -5.11 KCAL/MOL
REMARK 924 INTRA-LIGAND FREE ENERGY PREDICTED BY IDOCK:   -0.80 KCAL/MOL
REMARK 927      BINDING AFFINITY PREDICTED BY RF-SCORE:    0.00 PKD
ROOT
HETATM    1  C   UNL     1      -8.379   6.195  65.095  1.00  0.00    -0.129 C  
HETATM    2  C   UNL     1      -7.743   7.569  65.247  1.00  0.00    -0.112 C  
ENDROOT
BRANCH   2   3
HETATM    3  C   UNL     1      -8.809   8.675  65.313  1.00  0.00    -0.135 C  
BRANCH   3   4
HETATM    4  N   UNL     1      -8.274  10.029  65.040  1.00  0.00    -0.142 NA 
HETATM    5  C   UNL     1      -8.037  10.264  63.596  1.00  0.00    -0.149 C  
HETATM    6  C   UNL     1      -9.315  10.303  62.751  1.00  0.00    -0.340 C  
HETATM    7  C   UNL     1     -10.283  11.359  63.270  1.00  0.00    -0.430 C  
HETATM    8  C   UNL     1     -10.508  11.217  64.769  1.00  0.00    -0.384 C  
HETATM    9  C   UNL     1      -9.179  11.119  65.536  1.00  0.00    -0.216 C  
BRANCH   9  10
HETATM   10  C   UNL     1      -9.429  11.036  67.056  1.00  0.00    -0.173 C  
HETATM   11  N   UNL     1     -10.737  10.693  67.372  1.00  0.00    -0.256 N  
HETATM   12  O   UNL     1      -8.537  11.237  67.877  1.00  0.00    -0.126 OA 
HETATM   13  H   UNL     1     -11.415  10.593  66.618  1.00  0.00     0.000 HD 
BRANCH  11  14
HETATM   14  C   UNL     1     -11.161  10.476  68.706  1.00  0.00    -0.265 A  
HETATM   15  C   UNL     1     -10.973   9.206  69.298  1.00  0.00    -0.081 A  
HETATM   16  C   UNL     1     -10.506   7.987  68.549  1.00  0.00    -0.200 C  
HETATM   17  C   UNL     1     -11.364   9.012  70.635  1.00  0.00    -0.311 A  
HETATM   18  C   UNL     1     -11.907  10.051  71.385  1.00  0.00    -0.447 A  
HETATM   19  C   UNL     1     -12.074  11.303  70.809  1.00  0.00    -0.450 A  
HETATM   20  C   UNL     1     -11.698  11.537  69.473  1.00  0.00    -0.413 A  
HETATM   21  C   UNL     1     -11.862  12.937  68.940  1.00  0.00    -0.352 C  
ENDBRANCH  11  14
ENDBRANCH   9  10
ENDBRANCH   3   4
ENDBRANCH   2   3
TORSDOF 4
ENDMDL
MODEL      109
REMARK 921   NORMALIZED FREE ENERGY PREDICTED BY IDOCK:   -4.35 KCAL/MOL
REMARK 922        TOTAL FREE ENERGY PREDICTED BY IDOCK:   -5.89 KCAL/MOL
REMARK 923 INTER-LIGAND FREE ENERGY PREDICTED BY IDOCK:   -5.01 KCAL/MOL
REMARK 924 INTRA-LIGAND FREE ENERGY PREDICTED BY IDOCK:   -0.88 KCAL/MOL
REMARK 927      BINDING AFFINITY PREDICTED BY RF-SCORE:    0.00 PKD
ROOT
HETATM    1  C   UNL     1     -13.174   7.677  71.700  1.00  0.00    -0.395 C  
HETATM    2  C   UNL     1     -12.127   8.492  72.446  1.00  0.00    -0.436 C  
ENDROOT
BRANCH   2   3
HETATM    3  C   UNL     1     -11.316   9.374  71.484  1.00  0.00    -0.394 C  
BRANCH   3   4
HETATM    4  N   UNL     1     -11.903   9.465  70.127  1.00  0.00    -0.029 NA 
HETATM    5  C   UNL     1     -12.643  10.731  69.914  1.00  0.00    -0.132 C  
HETATM    6  C   UNL     1     -11.754  11.980  69.907  1.00  0.00    -0.374 C  
HETATM    7  C   UNL     1     -10.657  11.867  68.856  1.00  0.00    -0.205 C  
HETATM    8  C   UNL     1      -9.908  10.547  68.975  1.00  0.00    -0.224 C  
HETATM    9  C   UNL     1     -10.873   9.351  69.042  1.00  0.00    -0.136 C  
BRANCH   9  10
HETATM   10  C   UNL     1     -10.093   8.021  69.102  1.00  0.00    -0.201 C  
HETATM   11  N   UNL     1     -10.915   6.906  68.998  1.00  0.00    -0.408 N  
HETATM   12  O   UNL     1      -8.869   7.985  69.209  1.00  0.00    -0.140 OA 
HETATM   13  H   UNL     1     -11.925   7.041  68.960  1.00  0.00     0.000 HD 
BRANCH  11  14
HETATM   14  C   UNL     1     -10.399   5.588  68.941  1.00  0.00    -0.218 A  
HETATM   15  C   UNL     1     -10.086   5.017  67.688  1.00  0.00    -0.192 A  
HETATM   16  C   UNL     1     -10.428   5.648  66.364  1.00  0.00    -0.256 C  
HETATM   17  C   UNL     1      -9.539   3.722  67.645  1.00  0.00    -0.199 A  
HETATM   18  C   UNL     1      -9.282   3.009  68.812  1.00  0.00    -0.229 A  
HETATM   19  C   UNL     1      -9.573   3.578  70.045  1.00  0.00    -0.226 A  
HETATM   20  C   UNL     1     -10.123   4.871  70.130  1.00  0.00    -0.332 A  
HETATM   21  C   UNL     1     -10.359   5.437  71.506  1.00  0.00    -0.289 C  
ENDBRANCH  11  14
ENDBRANCH   9  10
ENDBRANCH   3   4
ENDBRANCH   2   3
TORSDOF 4
ENDMDL
MODEL      110
REMARK 921   NORMALIZED FREE ENERGY PREDICTED BY IDOCK:   -4.32 KCAL/MOL
REMARK 922        TOTAL FREE ENERGY PREDICTED BY IDOCK:   -5.86 KCAL/MOL
REMARK 923 INTER-LIGAND FREE ENERGY PREDICTED BY IDOCK:   -4.90 KCAL/MOL
REMARK 924 INTRA-LIGAND FREE ENERGY PREDICTED BY IDOCK:   -0.96 KCAL/MOL
REMARK 927      BINDING AFFINITY PREDICTED BY RF-SCORE:    0.00 PKD
ROOT
HETATM    1  C   UNL     1     -13.125   9.798  71.141  1.00  0.00    -0.424 C  
HETATM    2  C   UNL     1     -11.880  10.667  71.028  1.00  0.00    -0.396 C  
ENDROOT
BRANCH   2   3
HETATM    3  C   UNL     1     -10.705   9.883  70.420  1.00  0.00    -0.318 C  
BRANCH   3   4
HETATM    4  N   UNL     1     -10.957   9.418  69.037  1.00  0.00    -0.129 NA 
HETATM    5  C   UNL     1     -10.447  10.366  68.018  1.00  0.00    -0.196 C  
HETATM    6  C   UNL     1      -8.919  10.487  67.989  1.00  0.00    -0.135 C  
HETATM    7  C   UNL     1      -8.265   9.128  67.769  1.00  0.00    -0.109 C  
HETATM    8  C   UNL     1      -8.808   8.088  68.739  1.00  0.00    -0.138 C  
HETATM    9  C   UNL     1     -10.346   8.076  68.758  1.00  0.00    -0.206 C  
BRANCH   9  10
HETATM   10  C   UNL     1     -10.873   6.976  69.702  1.00  0.00    -0.247 C  
HETATM   11  N   UNL     1      -9.885   6.443  70.519  1.00  0.00    -0.182 N  
HETATM   12  O   UNL     1     -12.057   6.643  69.722  1.00  0.00    -0.165 OA 
HETATM   13  H   UNL     1      -8.922   6.754  70.393  1.00  0.00     0.000 HD 
BRANCH  11  14
HETATM   14  C   UNL     1     -10.167   5.483  71.521  1.00  0.00    -0.212 A  
HETATM   15  C   UNL     1      -9.903   4.118  71.271  1.00  0.00    -0.249 A  
HETATM   16  C   UNL     1      -9.497   3.569  69.929  1.00  0.00    -0.254 C  
HETATM   17  C   UNL     1     -10.152   3.176  72.286  1.00  0.00    -0.216 A  
HETATM   18  C   UNL     1     -10.629   3.571  73.533  1.00  0.00    -0.286 A  
HETATM   19  C   UNL     1     -10.873   4.915  73.784  1.00  0.00    -0.376 A  
HETATM   20  C   UNL     1     -10.638   5.887  72.793  1.00  0.00    -0.257 A  
HETATM   21  C   UNL     1     -10.875   7.328  73.164  1.00  0.00    -0.401 C  
ENDBRANCH  11  14
ENDBRANCH   9  10
ENDBRANCH   3   4
ENDBRANCH   2   3
TORSDOF 4
ENDMDL
MODEL      111
REMARK 921   NORMALIZED FREE ENERGY PREDICTED BY IDOCK:   -4.31 KCAL/MOL
REMARK 922        TOTAL FREE ENERGY PREDICTED BY IDOCK:   -5.84 KCAL/MOL
REMARK 923 INTER-LIGAND FREE ENERGY PREDICTED BY IDOCK:   -5.19 KCAL/MOL
REMARK 924 INTRA-LIGAND FREE ENERGY PREDICTED BY IDOCK:   -0.65 KCAL/MOL
REMARK 927      BINDING AFFINITY PREDICTED BY RF-SCORE:    0.00 PKD
ROOT
HETATM    1  C   UNL     1      -8.119   6.414  67.315  1.00  0.00    -0.113 C  
HETATM    2  C   UNL     1      -9.396   7.178  66.996  1.00  0.00    -0.181 C  
ENDROOT
BRANCH   2   3
HETATM    3  C   UNL     1      -9.544   8.420  67.890  1.00  0.00    -0.156 C  
BRANCH   3   4
HETATM    4  N   UNL     1     -10.652   8.316  68.867  1.00  0.00    -0.184 NA 
HETATM    5  C   UNL     1     -10.476   7.183  69.806  1.00  0.00    -0.225 C  
HETATM    6  C   UNL     1      -9.288   7.343  70.761  1.00  0.00    -0.159 C  
HETATM    7  C   UNL     1      -9.399   8.634  71.563  1.00  0.00    -0.319 C  
HETATM    8  C   UNL     1      -9.659   9.829  70.656  1.00  0.00    -0.097 C  
HETATM    9  C   UNL     1     -10.821   9.563  69.684  1.00  0.00    -0.235 C  
BRANCH   9  10
HETATM   10  C   UNL     1     -11.106  10.807  68.817  1.00  0.00    -0.259 C  
HETATM   11  N   UNL     1     -10.420  11.935  69.247  1.00  0.00    -0.435 N  
HETATM   12  O   UNL     1     -11.850  10.766  67.840  1.00  0.00    -0.553 OA 
HETATM   13  H   UNL     1      -9.863  11.878  70.099  1.00  0.00     0.000 HD 
BRANCH  11  14
HETATM   14  C   UNL     1     -10.468  13.163  68.543  1.00  0.00    -0.251 A  
HETATM   15  C   UNL     1     -11.310  14.199  69.007  1.00  0.00    -0.310 A  
HETATM   16  C   UNL     1     -12.316  14.036  70.115  1.00  0.00    -0.409 C  
HETATM   17  C   UNL     1     -11.322  15.428  68.322  1.00  0.00    -0.354 A  
HETATM   18  C   UNL     1     -10.504  15.645  67.217  1.00  0.00    -0.292 A  
HETATM   19  C   UNL     1      -9.663  14.633  66.772  1.00  0.00    -0.267 A  
HETATM   20  C   UNL     1      -9.624  13.388  67.429  1.00  0.00    -0.223 A  
HETATM   21  C   UNL     1      -8.645  12.364  66.917  1.00  0.00    -0.171 C  
ENDBRANCH  11  14
ENDBRANCH   9  10
ENDBRANCH   3   4
ENDBRANCH   2   3
TORSDOF 4
ENDMDL
MODEL      112
REMARK 921   NORMALIZED FREE ENERGY PREDICTED BY IDOCK:   -4.27 KCAL/MOL
REMARK 922        TOTAL FREE ENERGY PREDICTED BY IDOCK:   -5.80 KCAL/MOL
REMARK 923 INTER-LIGAND FREE ENERGY PREDICTED BY IDOCK:   -5.05 KCAL/MOL
REMARK 924 INTRA-LIGAND FREE ENERGY PREDICTED BY IDOCK:   -0.74 KCAL/MOL
REMARK 927      BINDING AFFINITY PREDICTED BY RF-SCORE:    0.00 PKD
ROOT
HETATM    1  C   UNL     1     -10.882  14.143  68.074  1.00  0.00    -0.256 C  
HETATM    2  C   UNL     1      -9.763  13.262  67.537  1.00  0.00    -0.224 C  
ENDROOT
BRANCH   2   3
HETATM    3  C   UNL     1      -9.428  12.125  68.516  1.00  0.00    -0.122 C  
BRANCH   3   4
HETATM    4  N   UNL     1      -8.635  11.034  67.904  1.00  0.00    -0.129 NA 
HETATM    5  C   UNL     1      -7.228  11.428  67.655  1.00  0.00    -0.097 C  
HETATM    6  C   UNL     1      -6.413  11.673  68.930  1.00  0.00    -0.071 C  
HETATM    7  C   UNL     1      -6.428  10.448  69.836  1.00  0.00    -0.109 C  
HETATM    8  C   UNL     1      -7.847   9.947  70.067  1.00  0.00    -0.192 C  
HETATM    9  C   UNL     1      -8.618   9.791  68.745  1.00  0.00    -0.127 C  
BRANCH   9  10
HETATM   10  C   UNL     1     -10.031   9.226  68.998  1.00  0.00    -0.182 C  
HETATM   11  N   UNL     1     -10.365   9.186  70.345  1.00  0.00    -0.207 N  
HETATM   12  O   UNL     1     -10.769   8.877  68.079  1.00  0.00    -0.200 OA 
HETATM   13  H   UNL     1      -9.663   9.454  71.034  1.00  0.00     0.000 HD 
BRANCH  11  14
HETATM   14  C   UNL     1     -11.647   8.785  70.795  1.00  0.00    -0.251 A  
HETATM   15  C   UNL     1     -11.919   7.412  70.987  1.00  0.00    -0.337 A  
HETATM   16  C   UNL     1     -10.989   6.302  70.576  1.00  0.00    -0.374 C  
HETATM   17  C   UNL     1     -13.183   7.028  71.470  1.00  0.00    -0.382 A  
HETATM   18  C   UNL     1     -14.154   7.975  71.781  1.00  0.00    -0.517 A  
HETATM   19  C   UNL     1     -13.880   9.326  71.609  1.00  0.00    -0.366 A  
HETATM   20  C   UNL     1     -12.628   9.750  71.126  1.00  0.00    -0.438 A  
HETATM   21  C   UNL     1     -12.392  11.234  71.020  1.00  0.00    -0.472 C  
ENDBRANCH  11  14
ENDBRANCH   9  10
ENDBRANCH   3   4
ENDBRANCH   2   3
TORSDOF 4
ENDMDL
MODEL      113
REMARK 921   NORMALIZED FREE ENERGY PREDICTED BY IDOCK:   -4.27 KCAL/MOL
REMARK 922        TOTAL FREE ENERGY PREDICTED BY IDOCK:   -5.80 KCAL/MOL
REMARK 923 INTER-LIGAND FREE ENERGY PREDICTED BY IDOCK:   -5.12 KCAL/MOL
REMARK 924 INTRA-LIGAND FREE ENERGY PREDICTED BY IDOCK:   -0.67 KCAL/MOL
REMARK 927      BINDING AFFINITY PREDICTED BY RF-SCORE:    0.00 PKD
ROOT
HETATM    1  C   UNL     1      -8.517  15.806  66.866  1.00  0.00    -0.281 C  
HETATM    2  C   UNL     1      -9.006  14.372  67.004  1.00  0.00    -0.257 C  
ENDROOT
BRANCH   2   3
HETATM    3  C   UNL     1      -9.799  13.930  65.763  1.00  0.00    -0.239 C  
BRANCH   3   4
HETATM    4  N   UNL     1     -11.056  13.218  66.088  1.00  0.00    -0.283 NA 
HETATM    5  C   UNL     1     -12.259  13.959  65.642  1.00  0.00    -0.452 C  
HETATM    6  C   UNL     1     -12.396  14.069  64.119  1.00  0.00    -0.374 C  
HETATM    7  C   UNL     1     -12.397  12.691  63.468  1.00  0.00    -0.591 C  
HETATM    8  C   UNL     1     -11.223  11.850  63.948  1.00  0.00    -0.497 C  
HETATM    9  C   UNL     1     -11.116  11.845  65.482  1.00  0.00    -0.304 C  
BRANCH   9  10
HETATM   10  C   UNL     1      -9.957  10.940  65.948  1.00  0.00    -0.243 C  
HETATM   11  N   UNL     1     -10.121  10.475  67.247  1.00  0.00    -0.192 N  
HETATM   12  O   UNL     1      -9.011  10.659  65.215  1.00  0.00    -0.179 OA 
HETATM   13  H   UNL     1     -10.919  10.805  67.790  1.00  0.00     0.000 HD 
BRANCH  11  14
HETATM   14  C   UNL     1      -9.220   9.560  67.842  1.00  0.00    -0.125 A  
HETATM   15  C   UNL     1      -8.113  10.048  68.571  1.00  0.00    -0.103 A  
HETATM   16  C   UNL     1      -7.707  11.497  68.620  1.00  0.00    -0.139 C  
HETATM   17  C   UNL     1      -7.244   9.130  69.190  1.00  0.00    -0.067 A  
HETATM   18  C   UNL     1      -7.472   7.759  69.115  1.00  0.00    -0.094 A  
HETATM   19  C   UNL     1      -8.571   7.280  68.414  1.00  0.00    -0.124 A  
HETATM   20  C   UNL     1      -9.462   8.166  67.779  1.00  0.00    -0.164 A  
HETATM   21  C   UNL     1     -10.659   7.569  67.085  1.00  0.00    -0.415 C  
ENDBRANCH  11  14
ENDBRANCH   9  10
ENDBRANCH   3   4
ENDBRANCH   2   3
TORSDOF 4
ENDMDL
MODEL      114
REMARK 921   NORMALIZED FREE ENERGY PREDICTED BY IDOCK:   -4.26 KCAL/MOL
REMARK 922        TOTAL FREE ENERGY PREDICTED BY IDOCK:   -5.79 KCAL/MOL
REMARK 923 INTER-LIGAND FREE ENERGY PREDICTED BY IDOCK:   -5.68 KCAL/MOL
REMARK 924 INTRA-LIGAND FREE ENERGY PREDICTED BY IDOCK:   -0.11 KCAL/MOL
REMARK 927      BINDING AFFINITY PREDICTED BY RF-SCORE:    0.00 PKD
ROOT
HETATM    1  C   UNL     1     -12.198  13.160  63.488  1.00  0.00    -0.552 C  
HETATM    2  C   UNL     1     -12.415  13.266  64.990  1.00  0.00    -0.498 C  
ENDROOT
BRANCH   2   3
HETATM    3  C   UNL     1     -11.100  13.063  65.761  1.00  0.00    -0.278 C  
BRANCH   3   4
HETATM    4  N   UNL     1     -11.178  13.473  67.181  1.00  0.00    -0.296 NA 
HETATM    5  C   UNL     1     -11.552  12.352  68.075  1.00  0.00    -0.347 C  
HETATM    6  C   UNL     1     -10.491  11.249  68.170  1.00  0.00    -0.215 C  
HETATM    7  C   UNL     1      -9.151  11.814  68.623  1.00  0.00    -0.075 C  
HETATM    8  C   UNL     1      -8.748  13.022  67.789  1.00  0.00    -0.188 C  
HETATM    9  C   UNL     1      -9.888  14.050  67.688  1.00  0.00    -0.233 C  
BRANCH   9  10
HETATM   10  C   UNL     1      -9.438  15.291  66.890  1.00  0.00    -0.234 C  
HETATM   11  N   UNL     1      -9.045  16.345  67.703  1.00  0.00    -0.198 N  
HETATM   12  O   UNL     1      -9.420  15.306  65.661  1.00  0.00    -0.320 OA 
HETATM   13  H   UNL     1      -9.143  16.249  68.714  1.00  0.00     0.000 HD 
BRANCH  11  14
HETATM   14  C   UNL     1      -8.513  17.548  67.179  1.00  0.00    -0.217 A  
HETATM   15  C   UNL     1      -9.359  18.667  67.011  1.00  0.00    -0.301 A  
HETATM   16  C   UNL     1     -10.854  18.630  67.185  1.00  0.00    -0.341 C  
HETATM   17  C   UNL     1      -8.813  19.869  66.524  1.00  0.00    -0.432 A  
HETATM   18  C   UNL     1      -7.457  19.977  66.231  1.00  0.00    -0.323 A  
HETATM   19  C   UNL     1      -6.622  18.882  66.413  1.00  0.00    -0.220 A  
HETATM   20  C   UNL     1      -7.131  17.662  66.896  1.00  0.00    -0.219 A  
HETATM   21  C   UNL     1      -6.151  16.540  67.117  1.00  0.00    -0.196 C  
ENDBRANCH  11  14
ENDBRANCH   9  10
ENDBRANCH   3   4
ENDBRANCH   2   3
TORSDOF 4
ENDMDL
MODEL      115
REMARK 921   NORMALIZED FREE ENERGY PREDICTED BY IDOCK:   -4.26 KCAL/MOL
REMARK 922        TOTAL FREE ENERGY PREDICTED BY IDOCK:   -5.79 KCAL/MOL
REMARK 923 INTER-LIGAND FREE ENERGY PREDICTED BY IDOCK:   -5.18 KCAL/MOL
REMARK 924 INTRA-LIGAND FREE ENERGY PREDICTED BY IDOCK:   -0.61 KCAL/MOL
REMARK 927      BINDING AFFINITY PREDICTED BY RF-SCORE:    0.00 PKD
ROOT
HETATM    1  C   UNL     1     -11.565   9.858  70.919  1.00  0.00    -0.456 C  
HETATM    2  C   UNL     1     -10.754   9.044  69.921  1.00  0.00    -0.240 C  
ENDROOT
BRANCH   2   3
HETATM    3  C   UNL     1     -10.140   9.942  68.834  1.00  0.00    -0.184 C  
BRANCH   3   4
HETATM    4  N   UNL     1      -8.971  10.721  69.303  1.00  0.00    -0.092 NA 
HETATM    5  C   UNL     1      -7.862   9.854  69.768  1.00  0.00    -0.163 C  
HETATM    6  C   UNL     1      -7.208   9.027  68.656  1.00  0.00    -0.072 C  
HETATM    7  C   UNL     1      -6.696   9.922  67.535  1.00  0.00    -0.073 C  
HETATM    8  C   UNL     1      -7.771  10.892  67.065  1.00  0.00    -0.129 C  
HETATM    9  C   UNL     1      -8.423  11.633  68.245  1.00  0.00    -0.160 C  
BRANCH   9  10
HETATM   10  C   UNL     1      -9.465  12.653  67.742  1.00  0.00    -0.198 C  
HETATM   11  N   UNL     1      -9.281  13.005  66.411  1.00  0.00    -0.422 N  
HETATM   12  O   UNL     1     -10.367  13.075  68.463  1.00  0.00    -0.250 OA 
HETATM   13  H   UNL     1      -8.472  12.635  65.912  1.00  0.00     0.000 HD 
BRANCH  11  14
HETATM   14  C   UNL     1     -10.177  13.860  65.724  1.00  0.00    -0.318 A  
HETATM   15  C   UNL     1      -9.922  15.249  65.687  1.00  0.00    -0.397 A  
HETATM   16  C   UNL     1      -8.844  15.931  66.486  1.00  0.00    -0.340 C  
HETATM   17  C   UNL     1     -10.798  16.085  64.970  1.00  0.00    -0.421 A  
HETATM   18  C   UNL     1     -11.889  15.563  64.281  1.00  0.00    -0.179 A  
HETATM   19  C   UNL     1     -12.129  14.195  64.303  1.00  0.00    -0.471 A  
HETATM   20  C   UNL     1     -11.277  13.326  65.011  1.00  0.00    -0.325 A  
HETATM   21  C   UNL     1     -11.575  11.851  64.939  1.00  0.00    -0.290 C  
ENDBRANCH  11  14
ENDBRANCH   9  10
ENDBRANCH   3   4
ENDBRANCH   2   3
TORSDOF 4
ENDMDL
MODEL      116
REMARK 921   NORMALIZED FREE ENERGY PREDICTED BY IDOCK:   -4.26 KCAL/MOL
REMARK 922        TOTAL FREE ENERGY PREDICTED BY IDOCK:   -5.79 KCAL/MOL
REMARK 923 INTER-LIGAND FREE ENERGY PREDICTED BY IDOCK:   -5.20 KCAL/MOL
REMARK 924 INTRA-LIGAND FREE ENERGY PREDICTED BY IDOCK:   -0.59 KCAL/MOL
REMARK 927      BINDING AFFINITY PREDICTED BY RF-SCORE:    0.00 PKD
ROOT
HETATM    1  C   UNL     1      -7.194   5.901  67.446  1.00  0.00    -0.076 C  
HETATM    2  C   UNL     1      -8.318   6.826  67.002  1.00  0.00    -0.114 C  
ENDROOT
BRANCH   2   3
HETATM    3  C   UNL     1      -8.587   7.921  68.046  1.00  0.00    -0.126 C  
BRANCH   3   4
HETATM    4  N   UNL     1      -9.997   7.974  68.498  1.00  0.00    -0.186 NA 
HETATM    5  C   UNL     1     -10.353   6.835  69.377  1.00  0.00    -0.199 C  
HETATM    6  C   UNL     1      -9.634   6.842  70.731  1.00  0.00    -0.167 C  
HETATM    7  C   UNL     1      -9.892   8.142  71.482  1.00  0.00    -0.233 C  
HETATM    8  C   UNL     1      -9.617   9.354  70.602  1.00  0.00    -0.331 C  
HETATM    9  C   UNL     1     -10.319   9.239  69.239  1.00  0.00    -0.215 C  
BRANCH   9  10
HETATM   10  C   UNL     1     -10.076  10.503  68.388  1.00  0.00    -0.164 C  
HETATM   11  N   UNL     1     -11.180  10.863  67.627  1.00  0.00    -0.313 N  
HETATM   12  O   UNL     1      -9.013  11.118  68.420  1.00  0.00    -0.152 OA 
HETATM   13  H   UNL     1     -12.002  10.259  67.634  1.00  0.00     0.000 HD 
BRANCH  11  14
HETATM   14  C   UNL     1     -11.205  12.041  66.841  1.00  0.00    -0.320 A  
HETATM   15  C   UNL     1     -10.912  11.963  65.461  1.00  0.00    -0.347 A  
HETATM   16  C   UNL     1     -10.393  10.726  64.777  1.00  0.00    -0.380 C  
HETATM   17  C   UNL     1     -10.976  13.132  64.682  1.00  0.00    -0.374 A  
HETATM   18  C   UNL     1     -11.344  14.352  65.242  1.00  0.00    -0.346 A  
HETATM   19  C   UNL     1     -11.650  14.425  66.595  1.00  0.00    -0.396 A  
HETATM   20  C   UNL     1     -11.595  13.278  67.408  1.00  0.00    -0.396 A  
HETATM   21  C   UNL     1     -11.994  13.431  68.853  1.00  0.00    -0.362 C  
ENDBRANCH  11  14
ENDBRANCH   9  10
ENDBRANCH   3   4
ENDBRANCH   2   3
TORSDOF 4
ENDMDL
MODEL      117
REMARK 921   NORMALIZED FREE ENERGY PREDICTED BY IDOCK:   -4.26 KCAL/MOL
REMARK 922        TOTAL FREE ENERGY PREDICTED BY IDOCK:   -5.78 KCAL/MOL
REMARK 923 INTER-LIGAND FREE ENERGY PREDICTED BY IDOCK:   -5.04 KCAL/MOL
REMARK 924 INTRA-LIGAND FREE ENERGY PREDICTED BY IDOCK:   -0.74 KCAL/MOL
REMARK 927      BINDING AFFINITY PREDICTED BY RF-SCORE:    0.00 PKD
ROOT
HETATM    1  C   UNL     1      -9.397   4.274  66.873  1.00  0.00    -0.181 C  
HETATM    2  C   UNL     1      -8.625   5.294  67.697  1.00  0.00    -0.104 C  
ENDROOT
BRANCH   2   3
HETATM    3  C   UNL     1      -9.269   6.688  67.607  1.00  0.00    -0.110 C  
BRANCH   3   4
HETATM    4  N   UNL     1      -8.283   7.790  67.528  1.00  0.00    -0.123 NA 
HETATM    5  C   UNL     1      -7.584   7.832  66.222  1.00  0.00    -0.087 C  
HETATM    6  C   UNL     1      -8.490   8.194  65.040  1.00  0.00    -0.117 C  
HETATM    7  C   UNL     1      -9.184   9.530  65.269  1.00  0.00    -0.307 C  
HETATM    8  C   UNL     1      -9.859   9.577  66.633  1.00  0.00    -0.293 C  
HETATM    9  C   UNL     1      -8.904   9.138  67.756  1.00  0.00    -0.124 C  
BRANCH   9  10
HETATM   10  C   UNL     1      -9.589   9.250  69.133  1.00  0.00    -0.161 C  
HETATM   11  N   UNL     1     -10.974   9.196  69.055  1.00  0.00    -0.432 N  
HETATM   12  O   UNL     1      -8.947   9.353  70.176  1.00  0.00    -0.189 OA 
HETATM   13  H   UNL     1     -11.414   9.157  68.136  1.00  0.00     0.000 HD 
BRANCH  11  14
HETATM   14  C   UNL     1     -11.797   9.193  70.208  1.00  0.00     0.064 A  
HETATM   15  C   UNL     1     -12.035   7.979  70.889  1.00  0.00    -0.201 A  
HETATM   16  C   UNL     1     -11.615   6.627  70.376  1.00  0.00    -0.457 C  
HETATM   17  C   UNL     1     -12.824   7.992  72.054  1.00  0.00    -0.313 A  
HETATM   18  C   UNL     1     -13.350   9.180  72.554  1.00  0.00    -0.481 A  
HETATM   19  C   UNL     1     -13.101  10.376  71.894  1.00  0.00    -0.563 A  
HETATM   20  C   UNL     1     -12.319  10.404  70.724  1.00  0.00    -0.463 A  
HETATM   21  C   UNL     1     -12.051  11.748  70.099  1.00  0.00    -0.398 C  
ENDBRANCH  11  14
ENDBRANCH   9  10
ENDBRANCH   3   4
ENDBRANCH   2   3
TORSDOF 4
ENDMDL
MODEL      118
REMARK 921   NORMALIZED FREE ENERGY PREDICTED BY IDOCK:   -4.26 KCAL/MOL
REMARK 922        TOTAL FREE ENERGY PREDICTED BY IDOCK:   -5.78 KCAL/MOL
REMARK 923 INTER-LIGAND FREE ENERGY PREDICTED BY IDOCK:   -5.02 KCAL/MOL
REMARK 924 INTRA-LIGAND FREE ENERGY PREDICTED BY IDOCK:   -0.76 KCAL/MOL
REMARK 927      BINDING AFFINITY PREDICTED BY RF-SCORE:    0.00 PKD
ROOT
HETATM    1  C   UNL     1     -13.739   7.453  71.461  1.00  0.00    -0.467 C  
HETATM    2  C   UNL     1     -12.357   6.877  71.736  1.00  0.00    -0.401 C  
ENDROOT
BRANCH   2   3
HETATM    3  C   UNL     1     -11.650   6.472  70.432  1.00  0.00    -0.407 C  
BRANCH   3   4
HETATM    4  N   UNL     1     -10.179   6.631  70.483  1.00  0.00    -0.187 NA 
HETATM    5  C   UNL     1      -9.491   5.396  70.929  1.00  0.00    -0.167 C  
HETATM    6  C   UNL     1      -9.603   4.229  69.943  1.00  0.00    -0.279 C  
HETATM    7  C   UNL     1      -9.073   4.619  68.568  1.00  0.00    -0.157 C  
HETATM    8  C   UNL     1      -9.687   5.926  68.088  1.00  0.00    -0.143 C  
HETATM    9  C   UNL     1      -9.594   7.026  69.159  1.00  0.00    -0.149 C  
BRANCH   9  10
HETATM   10  C   UNL     1     -10.168   8.356  68.629  1.00  0.00    -0.201 C  
HETATM   11  N   UNL     1      -9.805   9.449  69.405  1.00  0.00    -0.170 N  
HETATM   12  O   UNL     1     -10.853   8.413  67.611  1.00  0.00    -0.169 OA 
HETATM   13  H   UNL     1      -9.272   9.291  70.260  1.00  0.00     0.000 HD 
BRANCH  11  14
HETATM   14  C   UNL     1     -10.150  10.777  69.051  1.00  0.00    -0.211 A  
HETATM   15  C   UNL     1     -11.255  11.398  69.674  1.00  0.00    -0.301 A  
HETATM   16  C   UNL     1     -12.224  10.686  70.580  1.00  0.00    -0.449 C  
HETATM   17  C   UNL     1     -11.566  12.729  69.343  1.00  0.00    -0.361 A  
HETATM   18  C   UNL     1     -10.792  13.445  68.434  1.00  0.00    -0.284 A  
HETATM   19  C   UNL     1      -9.696  12.840  67.834  1.00  0.00    -0.217 A  
HETATM   20  C   UNL     1      -9.353  11.508  68.138  1.00  0.00    -0.185 A  
HETATM   21  C   UNL     1      -8.118  10.943  67.487  1.00  0.00    -0.116 C  
ENDBRANCH  11  14
ENDBRANCH   9  10
ENDBRANCH   3   4
ENDBRANCH   2   3
TORSDOF 4
ENDMDL
MODEL      119
REMARK 921   NORMALIZED FREE ENERGY PREDICTED BY IDOCK:   -4.25 KCAL/MOL
REMARK 922        TOTAL FREE ENERGY PREDICTED BY IDOCK:   -5.78 KCAL/MOL
REMARK 923 INTER-LIGAND FREE ENERGY PREDICTED BY IDOCK:   -4.97 KCAL/MOL
REMARK 924 INTRA-LIGAND FREE ENERGY PREDICTED BY IDOCK:   -0.81 KCAL/MOL
REMARK 927      BINDING AFFINITY PREDICTED BY RF-SCORE:    0.00 PKD
ROOT
HETATM    1  C   UNL     1      -9.877   8.941  71.945  1.00  0.00    -0.364 C  
HETATM    2  C   UNL     1     -10.530   7.567  71.962  1.00  0.00    -0.245 C  
ENDROOT
BRANCH   2   3
HETATM    3  C   UNL     1     -10.631   6.978  70.545  1.00  0.00    -0.224 C  
BRANCH   3   4
HETATM    4  N   UNL     1      -9.315   6.738  69.910  1.00  0.00    -0.157 NA 
HETATM    5  C   UNL     1      -8.511   5.728  70.636  1.00  0.00    -0.128 C  
HETATM    6  C   UNL     1      -9.097   4.312  70.590  1.00  0.00    -0.175 C  
HETATM    7  C   UNL     1      -9.290   3.845  69.152  1.00  0.00    -0.240 C  
HETATM    8  C   UNL     1     -10.047   4.880  68.331  1.00  0.00    -0.148 C  
HETATM    9  C   UNL     1      -9.437   6.284  68.484  1.00  0.00    -0.123 C  
BRANCH   9  10
HETATM   10  C   UNL     1     -10.180   7.305  67.597  1.00  0.00    -0.200 C  
HETATM   11  N   UNL     1      -9.534   8.531  67.525  1.00  0.00    -0.146 N  
HETATM   12  O   UNL     1     -11.223   7.023  67.011  1.00  0.00    -0.328 OA 
HETATM   13  H   UNL     1      -8.697   8.680  68.088  1.00  0.00     0.000 HD 
BRANCH  11  14
HETATM   14  C   UNL     1      -9.996   9.583  66.697  1.00  0.00    -0.247 A  
HETATM   15  C   UNL     1     -10.847  10.572  67.238  1.00  0.00    -0.338 A  
HETATM   16  C   UNL     1     -11.457  10.500  68.613  1.00  0.00    -0.290 C  
HETATM   17  C   UNL     1     -11.271  11.632  66.417  1.00  0.00    -0.349 A  
HETATM   18  C   UNL     1     -10.848  11.733  65.095  1.00  0.00    -0.351 A  
HETATM   19  C   UNL     1      -9.997  10.770  64.568  1.00  0.00    -0.395 A  
HETATM   20  C   UNL     1      -9.553   9.692  65.357  1.00  0.00    -0.361 A  
HETATM   21  C   UNL     1      -8.589   8.722  64.727  1.00  0.00    -0.161 C  
ENDBRANCH  11  14
ENDBRANCH   9  10
ENDBRANCH   3   4
ENDBRANCH   2   3
TORSDOF 4
ENDMDL
MODEL      120
REMARK 921   NORMALIZED FREE ENERGY PREDICTED BY IDOCK:   -4.24 KCAL/MOL
REMARK 922        TOTAL FREE ENERGY PREDICTED BY IDOCK:   -5.76 KCAL/MOL
REMARK 923 INTER-LIGAND FREE ENERGY PREDICTED BY IDOCK:   -5.54 KCAL/MOL
REMARK 924 INTRA-LIGAND FREE ENERGY PREDICTED BY IDOCK:   -0.22 KCAL/MOL
REMARK 927      BINDING AFFINITY PREDICTED BY RF-SCORE:    0.00 PKD
ROOT
HETATM    1  C   UNL     1     -12.466  10.213  70.942  1.00  0.00    -0.455 C  
HETATM    2  C   UNL     1     -11.165   9.505  71.292  1.00  0.00    -0.452 C  
ENDROOT
BRANCH   2   3
HETATM    3  C   UNL     1     -10.476   8.948  70.035  1.00  0.00    -0.213 C  
BRANCH   3   4
HETATM    4  N   UNL     1      -9.272   9.712  69.634  1.00  0.00    -0.196 NA 
HETATM    5  C   UNL     1      -8.059   9.283  70.370  1.00  0.00    -0.160 C  
HETATM    6  C   UNL     1      -7.599   7.859  70.039  1.00  0.00    -0.084 C  
HETATM    7  C   UNL     1      -7.352   7.695  68.544  1.00  0.00    -0.095 C  
HETATM    8  C   UNL     1      -8.537   8.193  67.729  1.00  0.00    -0.131 C  
HETATM    9  C   UNL     1      -8.978   9.600  68.167  1.00  0.00    -0.123 C  
BRANCH   9  10
HETATM   10  C   UNL     1     -10.140  10.108  67.289  1.00  0.00    -0.206 C  
HETATM   11  N   UNL     1      -9.797  11.214  66.522  1.00  0.00    -0.203 N  
HETATM   12  O   UNL     1     -11.239   9.556  67.274  1.00  0.00     0.010 OA 
HETATM   13  H   UNL     1      -8.872  11.627  66.641  1.00  0.00     0.000 HD 
BRANCH  11  14
HETATM   14  C   UNL     1     -10.685  11.787  65.580  1.00  0.00    -0.280 A  
HETATM   15  C   UNL     1     -11.656  12.716  66.016  1.00  0.00    -0.443 A  
HETATM   16  C   UNL     1     -11.942  13.022  67.462  1.00  0.00    -0.360 C  
HETATM   17  C   UNL     1     -12.510  13.308  65.067  1.00  0.00    -0.498 A  
HETATM   18  C   UNL     1     -12.396  13.012  63.712  1.00  0.00    -0.477 A  
HETATM   19  C   UNL     1     -11.430  12.111  63.282  1.00  0.00    -0.410 A  
HETATM   20  C   UNL     1     -10.559  11.496  64.200  1.00  0.00    -0.420 A  
HETATM   21  C   UNL     1      -9.504  10.574  63.647  1.00  0.00    -0.347 C  
ENDBRANCH  11  14
ENDBRANCH   9  10
ENDBRANCH   3   4
ENDBRANCH   2   3
TORSDOF 4
ENDMDL
MODEL      121
REMARK 921   NORMALIZED FREE ENERGY PREDICTED BY IDOCK:   -4.22 KCAL/MOL
REMARK 922        TOTAL FREE ENERGY PREDICTED BY IDOCK:   -5.74 KCAL/MOL
REMARK 923 INTER-LIGAND FREE ENERGY PREDICTED BY IDOCK:   -5.48 KCAL/MOL
REMARK 924 INTRA-LIGAND FREE ENERGY PREDICTED BY IDOCK:   -0.26 KCAL/MOL
REMARK 927      BINDING AFFINITY PREDICTED BY RF-SCORE:    0.00 PKD
ROOT
HETATM    1  C   UNL     1      -7.347   8.560  71.110  1.00  0.00    -0.080 C  
HETATM    2  C   UNL     1      -8.689   8.221  70.478  1.00  0.00    -0.140 C  
ENDROOT
BRANCH   2   3
HETATM    3  C   UNL     1      -9.785   9.198  70.934  1.00  0.00    -0.284 C  
BRANCH   3   4
HETATM    4  N   UNL     1     -11.121   8.891  70.373  1.00  0.00    -0.242 NA 
HETATM    5  C   UNL     1     -12.027   8.276  71.371  1.00  0.00    -0.299 C  
HETATM    6  C   UNL     1     -12.424   9.214  72.516  1.00  0.00    -0.260 C  
HETATM    7  C   UNL     1     -13.070  10.487  71.984  1.00  0.00    -0.511 C  
HETATM    8  C   UNL     1     -12.219  11.127  70.895  1.00  0.00    -0.468 C  
HETATM    9  C   UNL     1     -11.808  10.106  69.821  1.00  0.00    -0.088 C  
BRANCH   9  10
HETATM   10  C   UNL     1     -10.999  10.787  68.698  1.00  0.00    -0.239 C  
HETATM   11  N   UNL     1     -11.467  10.477  67.428  1.00  0.00    -0.173 N  
HETATM   12  O   UNL     1     -10.056  11.539  68.935  1.00  0.00    -0.199 OA 
HETATM   13  H   UNL     1     -12.228   9.804  67.335  1.00  0.00     0.000 HD 
BRANCH  11  14
HETATM   14  C   UNL     1     -10.926  11.063  66.258  1.00  0.00    -0.117 A  
HETATM   15  C   UNL     1     -10.130  10.279  65.392  1.00  0.00    -0.354 A  
HETATM   16  C   UNL     1      -9.656   8.886  65.710  1.00  0.00    -0.245 C  
HETATM   17  C   UNL     1      -9.628  10.861  64.213  1.00  0.00    -0.318 A  
HETATM   18  C   UNL     1      -9.922  12.179  63.878  1.00  0.00    -0.329 A  
HETATM   19  C   UNL     1     -10.719  12.943  64.721  1.00  0.00    -0.354 A  
HETATM   20  C   UNL     1     -11.238  12.399  65.911  1.00  0.00    -0.373 A  
HETATM   21  C   UNL     1     -12.138  13.276  66.741  1.00  0.00    -0.403 C  
ENDBRANCH  11  14
ENDBRANCH   9  10
ENDBRANCH   3   4
ENDBRANCH   2   3
TORSDOF 4
ENDMDL
MODEL      122
REMARK 921   NORMALIZED FREE ENERGY PREDICTED BY IDOCK:   -4.22 KCAL/MOL
REMARK 922        TOTAL FREE ENERGY PREDICTED BY IDOCK:   -5.73 KCAL/MOL
REMARK 923 INTER-LIGAND FREE ENERGY PREDICTED BY IDOCK:   -5.04 KCAL/MOL
REMARK 924 INTRA-LIGAND FREE ENERGY PREDICTED BY IDOCK:   -0.69 KCAL/MOL
REMARK 927      BINDING AFFINITY PREDICTED BY RF-SCORE:    0.00 PKD
ROOT
HETATM    1  C   UNL     1      -7.415   5.167  69.099  1.00  0.00    -0.065 C  
HETATM    2  C   UNL     1      -8.907   5.258  69.386  1.00  0.00    -0.116 C  
ENDROOT
BRANCH   2   3
HETATM    3  C   UNL     1      -9.233   6.477  70.265  1.00  0.00    -0.155 C  
BRANCH   3   4
HETATM    4  N   UNL     1     -10.667   6.845  70.256  1.00  0.00    -0.231 NA 
HETATM    5  C   UNL     1     -11.429   6.182  71.340  1.00  0.00    -0.254 C  
HETATM    6  C   UNL     1     -11.041   6.644  72.749  1.00  0.00    -0.283 C  
HETATM    7  C   UNL     1     -11.192   8.153  72.893  1.00  0.00    -0.312 C  
HETATM    8  C   UNL     1     -10.493   8.891  71.759  1.00  0.00    -0.431 C  
HETATM    9  C   UNL     1     -10.885   8.324  70.384  1.00  0.00    -0.235 C  
BRANCH   9  10
HETATM   10  C   UNL     1     -10.213   9.124  69.250  1.00  0.00    -0.210 C  
HETATM   11  N   UNL     1     -10.787   8.889  68.007  1.00  0.00    -0.477 N  
HETATM   12  O   UNL     1      -9.282   9.899  69.459  1.00  0.00    -0.195 OA 
HETATM   13  H   UNL     1     -11.526   8.190  67.931  1.00  0.00     0.000 HD 
BRANCH  11  14
HETATM   14  C   UNL     1     -10.382   9.585  66.842  1.00  0.00    -0.237 A  
HETATM   15  C   UNL     1     -10.817  10.913  66.639  1.00  0.00    -0.258 A  
HETATM   16  C   UNL     1     -11.843  11.605  67.497  1.00  0.00    -0.196 C  
HETATM   17  C   UNL     1     -10.379  11.609  65.498  1.00  0.00    -0.309 A  
HETATM   18  C   UNL     1      -9.510  11.019  64.584  1.00  0.00    -0.270 A  
HETATM   19  C   UNL     1      -9.068   9.719  64.793  1.00  0.00    -0.290 A  
HETATM   20  C   UNL     1      -9.485   8.989  65.922  1.00  0.00    -0.317 A  
HETATM   21  C   UNL     1      -8.917   7.606  66.104  1.00  0.00    -0.197 C  
ENDBRANCH  11  14
ENDBRANCH   9  10
ENDBRANCH   3   4
ENDBRANCH   2   3
TORSDOF 4
ENDMDL
MODEL      123
REMARK 921   NORMALIZED FREE ENERGY PREDICTED BY IDOCK:   -4.21 KCAL/MOL
REMARK 922        TOTAL FREE ENERGY PREDICTED BY IDOCK:   -5.72 KCAL/MOL
REMARK 923 INTER-LIGAND FREE ENERGY PREDICTED BY IDOCK:   -5.12 KCAL/MOL
REMARK 924 INTRA-LIGAND FREE ENERGY PREDICTED BY IDOCK:   -0.60 KCAL/MOL
REMARK 927      BINDING AFFINITY PREDICTED BY RF-SCORE:    0.00 PKD
ROOT
HETATM    1  C   UNL     1     -10.154   9.350  70.608  1.00  0.00    -0.356 C  
HETATM    2  C   UNL     1     -10.546   8.096  69.840  1.00  0.00    -0.239 C  
ENDROOT
BRANCH   2   3
HETATM    3  C   UNL     1     -10.059   8.156  68.384  1.00  0.00    -0.200 C  
BRANCH   3   4
HETATM    4  N   UNL     1      -8.584   8.194  68.256  1.00  0.00    -0.130 NA 
HETATM    5  C   UNL     1      -7.951   6.901  68.608  1.00  0.00    -0.120 C  
HETATM    6  C   UNL     1      -8.278   5.761  67.636  1.00  0.00    -0.101 C  
HETATM    7  C   UNL     1      -7.889   6.127  66.209  1.00  0.00    -0.104 C  
HETATM    8  C   UNL     1      -8.447   7.487  65.814  1.00  0.00    -0.151 C  
HETATM    9  C   UNL     1      -8.133   8.560  66.871  1.00  0.00    -0.099 C  
BRANCH   9  10
HETATM   10  C   UNL     1      -8.655   9.940  66.423  1.00  0.00    -0.128 C  
HETATM   11  N   UNL     1      -9.854   9.866  65.726  1.00  0.00    -0.272 N  
HETATM   12  O   UNL     1      -8.060  10.982  66.690  1.00  0.00    -0.143 OA 
HETATM   13  H   UNL     1     -10.244   8.948  65.515  1.00  0.00     0.000 HD 
BRANCH  11  14
HETATM   14  C   UNL     1     -10.553  11.021  65.299  1.00  0.00    -0.214 A  
HETATM   15  C   UNL     1     -11.335  11.744  66.228  1.00  0.00    -0.350 A  
HETATM   16  C   UNL     1     -11.630  11.275  67.628  1.00  0.00    -0.290 C  
HETATM   17  C   UNL     1     -11.996  12.910  65.803  1.00  0.00    -0.496 A  
HETATM   18  C   UNL     1     -11.873  13.373  64.496  1.00  0.00    -0.440 A  
HETATM   19  C   UNL     1     -11.090  12.672  63.588  1.00  0.00    -0.496 A  
HETATM   20  C   UNL     1     -10.415  11.499  63.974  1.00  0.00    -0.424 A  
HETATM   21  C   UNL     1      -9.543  10.829  62.944  1.00  0.00    -0.366 C  
ENDBRANCH  11  14
ENDBRANCH   9  10
ENDBRANCH   3   4
ENDBRANCH   2   3
TORSDOF 4
ENDMDL
MODEL      124
REMARK 921   NORMALIZED FREE ENERGY PREDICTED BY IDOCK:   -4.20 KCAL/MOL
REMARK 922        TOTAL FREE ENERGY PREDICTED BY IDOCK:   -5.70 KCAL/MOL
REMARK 923 INTER-LIGAND FREE ENERGY PREDICTED BY IDOCK:   -4.98 KCAL/MOL
REMARK 924 INTRA-LIGAND FREE ENERGY PREDICTED BY IDOCK:   -0.72 KCAL/MOL
REMARK 927      BINDING AFFINITY PREDICTED BY RF-SCORE:    0.00 PKD
ROOT
HETATM    1  C   UNL     1     -10.072   5.516  66.383  1.00  0.00    -0.220 C  
HETATM    2  C   UNL     1      -9.445   6.570  67.283  1.00  0.00    -0.140 C  
ENDROOT
BRANCH   2   3
HETATM    3  C   UNL     1     -10.020   7.966  66.994  1.00  0.00    -0.252 C  
BRANCH   3   4
HETATM    4  N   UNL     1      -8.993   9.033  66.959  1.00  0.00    -0.125 NA 
HETATM    5  C   UNL     1      -7.851   8.691  66.080  1.00  0.00    -0.102 C  
HETATM    6  C   UNL     1      -8.210   8.613  64.592  1.00  0.00    -0.167 C  
HETATM    7  C   UNL     1      -8.831   9.918  64.108  1.00  0.00    -0.251 C  
HETATM    8  C   UNL     1      -9.965  10.363  65.019  1.00  0.00    -0.399 C  
HETATM    9  C   UNL     1      -9.545  10.351  66.499  1.00  0.00    -0.179 C  
BRANCH   9  10
HETATM   10  C   UNL     1     -10.689  10.863  67.398  1.00  0.00    -0.257 C  
HETATM   11  N   UNL     1     -10.258  11.227  68.667  1.00  0.00    -0.198 N  
HETATM   12  O   UNL     1     -11.847  10.949  66.997  1.00  0.00    -0.223 OA 
HETATM   13  H   UNL     1      -9.282  11.073  68.919  1.00  0.00     0.000 HD 
BRANCH  11  14
HETATM   14  C   UNL     1     -11.128  11.805  69.624  1.00  0.00    -0.070 A  
HETATM   15  C   UNL     1     -11.299  13.208  69.650  1.00  0.00    -0.182 A  
HETATM   16  C   UNL     1     -10.480  14.173  68.836  1.00  0.00    -0.229 C  
HETATM   17  C   UNL     1     -12.193  13.769  70.580  1.00  0.00    -0.440 A  
HETATM   18  C   UNL     1     -12.924  12.967  71.452  1.00  0.00    -0.373 A  
HETATM   19  C   UNL     1     -12.768  11.588  71.414  1.00  0.00    -0.469 A  
HETATM   20  C   UNL     1     -11.881  10.988  70.500  1.00  0.00    -0.464 A  
HETATM   21  C   UNL     1     -11.811   9.483  70.486  1.00  0.00    -0.246 C  
ENDBRANCH  11  14
ENDBRANCH   9  10
ENDBRANCH   3   4
ENDBRANCH   2   3
TORSDOF 4
ENDMDL
MODEL      125
REMARK 921   NORMALIZED FREE ENERGY PREDICTED BY IDOCK:   -4.19 KCAL/MOL
REMARK 922        TOTAL FREE ENERGY PREDICTED BY IDOCK:   -5.70 KCAL/MOL
REMARK 923 INTER-LIGAND FREE ENERGY PREDICTED BY IDOCK:   -5.09 KCAL/MOL
REMARK 924 INTRA-LIGAND FREE ENERGY PREDICTED BY IDOCK:   -0.60 KCAL/MOL
REMARK 927      BINDING AFFINITY PREDICTED BY RF-SCORE:    0.00 PKD
ROOT
HETATM    1  C   UNL     1      -6.038  12.749  67.527  1.00  0.00    -0.152 C  
HETATM    2  C   UNL     1      -7.060  12.069  68.427  1.00  0.00    -0.084 C  
ENDROOT
BRANCH   2   3
HETATM    3  C   UNL     1      -8.298  11.624  67.631  1.00  0.00    -0.142 C  
BRANCH   3   4
HETATM    4  N   UNL     1      -9.565  12.200  68.138  1.00  0.00    -0.204 NA 
HETATM    5  C   UNL     1     -10.022  13.359  67.337  1.00  0.00    -0.230 C  
HETATM    6  C   UNL     1     -10.441  13.003  65.906  1.00  0.00    -0.293 C  
HETATM    7  C   UNL     1     -11.533  11.941  65.902  1.00  0.00    -0.340 C  
HETATM    8  C   UNL     1     -11.153  10.752  66.775  1.00  0.00    -0.153 C  
HETATM    9  C   UNL     1     -10.683  11.198  68.169  1.00  0.00    -0.204 C  
BRANCH   9  10
HETATM   10  C   UNL     1     -10.361   9.977  69.055  1.00  0.00    -0.206 C  
HETATM   11  N   UNL     1     -10.422  10.262  70.413  1.00  0.00    -0.430 N  
HETATM   12  O   UNL     1     -10.103   8.873  68.579  1.00  0.00    -0.177 OA 
HETATM   13  H   UNL     1     -10.599  11.222  70.707  1.00  0.00     0.000 HD 
BRANCH  11  14
HETATM   14  C   UNL     1     -10.248   9.265  71.404  1.00  0.00    -0.301 A  
HETATM   15  C   UNL     1     -11.383   8.693  72.022  1.00  0.00    -0.432 A  
HETATM   16  C   UNL     1     -12.790   9.194  71.831  1.00  0.00    -0.466 C  
HETATM   17  C   UNL     1     -11.201   7.678  72.978  1.00  0.00    -0.388 A  
HETATM   18  C   UNL     1      -9.930   7.215  73.304  1.00  0.00    -0.296 A  
HETATM   19  C   UNL     1      -8.815   7.765  72.684  1.00  0.00    -0.213 A  
HETATM   20  C   UNL     1      -8.956   8.785  71.724  1.00  0.00    -0.283 A  
HETATM   21  C   UNL     1      -7.702   9.289  71.058  1.00  0.00    -0.100 C  
ENDBRANCH  11  14
ENDBRANCH   9  10
ENDBRANCH   3   4
ENDBRANCH   2   3
TORSDOF 4
ENDMDL
MODEL      126
REMARK 921   NORMALIZED FREE ENERGY PREDICTED BY IDOCK:   -4.16 KCAL/MOL
REMARK 922        TOTAL FREE ENERGY PREDICTED BY IDOCK:   -5.66 KCAL/MOL
REMARK 923 INTER-LIGAND FREE ENERGY PREDICTED BY IDOCK:   -5.15 KCAL/MOL
REMARK 924 INTRA-LIGAND FREE ENERGY PREDICTED BY IDOCK:   -0.51 KCAL/MOL
REMARK 927      BINDING AFFINITY PREDICTED BY RF-SCORE:    0.00 PKD
ROOT
HETATM    1  C   UNL     1      -5.863   8.855  66.704  1.00  0.00    -0.052 C  
HETATM    2  C   UNL     1      -6.337   8.346  68.057  1.00  0.00    -0.056 C  
ENDROOT
BRANCH   2   3
HETATM    3  C   UNL     1      -7.837   8.009  68.035  1.00  0.00    -0.126 C  
BRANCH   3   4
HETATM    4  N   UNL     1      -8.390   7.868  66.668  1.00  0.00    -0.121 NA 
HETATM    5  C   UNL     1      -8.394   6.462  66.201  1.00  0.00    -0.128 C  
HETATM    6  C   UNL     1      -9.352   5.549  66.976  1.00  0.00    -0.118 C  
HETATM    7  C   UNL     1     -10.777   6.086  66.933  1.00  0.00    -0.407 C  
HETATM    8  C   UNL     1     -10.828   7.555  67.330  1.00  0.00    -0.272 C  
HETATM    9  C   UNL     1      -9.793   8.390  66.556  1.00  0.00    -0.268 C  
BRANCH   9  10
HETATM   10  C   UNL     1      -9.903   9.882  66.930  1.00  0.00    -0.199 C  
HETATM   11  N   UNL     1     -11.194  10.262  67.270  1.00  0.00    -0.229 N  
HETATM   12  O   UNL     1      -8.925  10.628  66.938  1.00  0.00    -0.137 OA 
HETATM   13  H   UNL     1     -11.946   9.579  67.186  1.00  0.00     0.000 HD 
BRANCH  11  14
HETATM   14  C   UNL     1     -11.504  11.565  67.730  1.00  0.00    -0.286 A  
HETATM   15  C   UNL     1     -11.423  11.853  69.111  1.00  0.00    -0.356 A  
HETATM   16  C   UNL     1     -11.198  10.814  70.178  1.00  0.00    -0.345 C  
HETATM   17  C   UNL     1     -11.696  13.160  69.554  1.00  0.00    -0.382 A  
HETATM   18  C   UNL     1     -12.019  14.172  68.655  1.00  0.00    -0.373 A  
HETATM   19  C   UNL     1     -12.080  13.894  67.296  1.00  0.00    -0.403 A  
HETATM   20  C   UNL     1     -11.816  12.598  66.813  1.00  0.00    -0.440 A  
HETATM   21  C   UNL     1     -11.851  12.391  65.322  1.00  0.00    -0.451 C  
ENDBRANCH  11  14
ENDBRANCH   9  10
ENDBRANCH   3   4
ENDBRANCH   2   3
TORSDOF 4
ENDMDL
MODEL      127
REMARK 921   NORMALIZED FREE ENERGY PREDICTED BY IDOCK:   -4.15 KCAL/MOL
REMARK 922        TOTAL FREE ENERGY PREDICTED BY IDOCK:   -5.64 KCAL/MOL
REMARK 923 INTER-LIGAND FREE ENERGY PREDICTED BY IDOCK:   -4.94 KCAL/MOL
REMARK 924 INTRA-LIGAND FREE ENERGY PREDICTED BY IDOCK:   -0.71 KCAL/MOL
REMARK 927      BINDING AFFINITY PREDICTED BY RF-SCORE:    0.00 PKD
ROOT
HETATM    1  C   UNL     1     -13.124   7.651  71.533  1.00  0.00    -0.379 C  
HETATM    2  C   UNL     1     -12.059   8.296  72.408  1.00  0.00    -0.430 C  
ENDROOT
BRANCH   2   3
HETATM    3  C   UNL     1     -10.716   7.558  72.290  1.00  0.00    -0.250 C  
BRANCH   3   4
HETATM    4  N   UNL     1      -9.540   8.438  72.478  1.00  0.00    -0.290 NA 
HETATM    5  C   UNL     1      -8.688   8.011  73.613  1.00  0.00    -0.268 C  
HETATM    6  C   UNL     1      -7.986   6.665  73.395  1.00  0.00    -0.103 C  
HETATM    7  C   UNL     1      -7.143   6.685  72.126  1.00  0.00    -0.080 C  
HETATM    8  C   UNL     1      -7.945   7.191  70.935  1.00  0.00    -0.096 C  
HETATM    9  C   UNL     1      -8.670   8.509  71.256  1.00  0.00    -0.181 C  
BRANCH   9  10
HETATM   10  C   UNL     1      -9.427   9.034  70.019  1.00  0.00    -0.187 C  
HETATM   11  N   UNL     1      -9.416  10.419  69.925  1.00  0.00    -0.406 N  
HETATM   12  O   UNL     1      -9.955   8.278  69.206  1.00  0.00    -0.182 OA 
HETATM   13  H   UNL     1      -8.990  10.960  70.677  1.00  0.00     0.000 HD 
BRANCH  11  14
HETATM   14  C   UNL     1      -9.976  11.107  68.820  1.00  0.00    -0.198 A  
HETATM   15  C   UNL     1      -9.202  11.295  67.653  1.00  0.00    -0.156 A  
HETATM   16  C   UNL     1      -7.736  10.967  67.551  1.00  0.00    -0.114 C  
HETATM   17  C   UNL     1      -9.779  11.947  66.548  1.00  0.00    -0.226 A  
HETATM   18  C   UNL     1     -11.100  12.384  66.580  1.00  0.00    -0.346 A  
HETATM   19  C   UNL     1     -11.866  12.184  67.721  1.00  0.00    -0.327 A  
HETATM   20  C   UNL     1     -11.324  11.538  68.848  1.00  0.00    -0.331 A  
HETATM   21  C   UNL     1     -12.237  11.311  70.024  1.00  0.00    -0.389 C  
ENDBRANCH  11  14
ENDBRANCH   9  10
ENDBRANCH   3   4
ENDBRANCH   2   3
TORSDOF 4
ENDMDL
MODEL      128
REMARK 921   NORMALIZED FREE ENERGY PREDICTED BY IDOCK:   -4.14 KCAL/MOL
REMARK 922        TOTAL FREE ENERGY PREDICTED BY IDOCK:   -5.63 KCAL/MOL
REMARK 923 INTER-LIGAND FREE ENERGY PREDICTED BY IDOCK:   -4.85 KCAL/MOL
REMARK 924 INTRA-LIGAND FREE ENERGY PREDICTED BY IDOCK:   -0.78 KCAL/MOL
REMARK 927      BINDING AFFINITY PREDICTED BY RF-SCORE:    0.00 PKD
ROOT
HETATM    1  C   UNL     1     -11.970  12.726  70.112  1.00  0.00    -0.371 C  
HETATM    2  C   UNL     1     -11.508  11.417  69.489  1.00  0.00    -0.381 C  
ENDROOT
BRANCH   2   3
HETATM    3  C   UNL     1     -12.370  10.236  69.965  1.00  0.00    -0.090 C  
BRANCH   3   4
HETATM    4  N   UNL     1     -12.122   9.855  71.375  1.00  0.00    -0.388 NA 
HETATM    5  C   UNL     1     -13.366   9.817  72.179  1.00  0.00    -0.431 C  
HETATM    6  C   UNL     1     -14.342   8.710  71.767  1.00  0.00    -0.476 C  
HETATM    7  C   UNL     1     -13.676   7.341  71.827  1.00  0.00    -0.399 C  
HETATM    8  C   UNL     1     -12.349   7.337  71.080  1.00  0.00    -0.381 C  
HETATM    9  C   UNL     1     -11.456   8.516  71.503  1.00  0.00    -0.287 C  
BRANCH   9  10
HETATM   10  C   UNL     1     -10.095   8.459  70.779  1.00  0.00    -0.193 C  
HETATM   11  N   UNL     1     -10.043   7.477  69.798  1.00  0.00    -0.191 N  
HETATM   12  O   UNL     1      -9.177   9.231  71.050  1.00  0.00    -0.246 OA 
HETATM   13  H   UNL     1     -10.843   6.855  69.682  1.00  0.00     0.000 HD 
BRANCH  11  14
HETATM   14  C   UNL     1      -8.919   7.310  68.953  1.00  0.00    -0.133 A  
HETATM   15  C   UNL     1      -8.900   7.940  67.689  1.00  0.00    -0.128 A  
HETATM   16  C   UNL     1     -10.080   8.651  67.082  1.00  0.00    -0.329 C  
HETATM   17  C   UNL     1      -7.763   7.798  66.873  1.00  0.00    -0.103 A  
HETATM   18  C   UNL     1      -6.656   7.071  67.299  1.00  0.00    -0.051 A  
HETATM   19  C   UNL     1      -6.668   6.466  68.550  1.00  0.00    -0.068 A  
HETATM   20  C   UNL     1      -7.788   6.582  69.395  1.00  0.00    -0.106 A  
HETATM   21  C   UNL     1      -7.700   5.943  70.756  1.00  0.00    -0.097 C  
ENDBRANCH  11  14
ENDBRANCH   9  10
ENDBRANCH   3   4
ENDBRANCH   2   3
TORSDOF 4
ENDMDL
MODEL      129
REMARK 921   NORMALIZED FREE ENERGY PREDICTED BY IDOCK:   -4.14 KCAL/MOL
REMARK 922        TOTAL FREE ENERGY PREDICTED BY IDOCK:   -5.63 KCAL/MOL
REMARK 923 INTER-LIGAND FREE ENERGY PREDICTED BY IDOCK:   -5.05 KCAL/MOL
REMARK 924 INTRA-LIGAND FREE ENERGY PREDICTED BY IDOCK:   -0.58 KCAL/MOL
REMARK 927      BINDING AFFINITY PREDICTED BY RF-SCORE:    0.00 PKD
ROOT
HETATM    1  C   UNL     1     -12.925  11.654  71.420  1.00  0.00    -0.426 C  
HETATM    2  C   UNL     1     -12.609  10.193  71.710  1.00  0.00    -0.500 C  
ENDROOT
BRANCH   2   3
HETATM    3  C   UNL     1     -11.676   9.600  70.641  1.00  0.00    -0.280 C  
BRANCH   3   4
HETATM    4  N   UNL     1     -10.260   9.525  71.070  1.00  0.00    -0.292 NA 
HETATM    5  C   UNL     1     -10.055   8.565  72.181  1.00  0.00    -0.323 C  
HETATM    6  C   UNL     1     -10.299   7.102  71.794  1.00  0.00    -0.216 C  
HETATM    7  C   UNL     1      -9.421   6.690  70.619  1.00  0.00    -0.174 C  
HETATM    8  C   UNL     1      -9.530   7.684  69.471  1.00  0.00    -0.152 C  
HETATM    9  C   UNL     1      -9.338   9.132  69.952  1.00  0.00    -0.186 C  
BRANCH   9  10
HETATM   10  C   UNL     1      -9.393  10.116  68.765  1.00  0.00    -0.168 C  
HETATM   11  N   UNL     1      -9.426  11.446  69.165  1.00  0.00    -0.412 N  
HETATM   12  O   UNL     1      -9.383   9.733  67.598  1.00  0.00    -0.139 OA 
HETATM   13  H   UNL     1      -9.478  11.659  70.160  1.00  0.00     0.000 HD 
BRANCH  11  14
HETATM   14  C   UNL     1      -9.389  12.516  68.238  1.00  0.00    -0.193 A  
HETATM   15  C   UNL     1     -10.583  12.929  67.605  1.00  0.00    -0.232 A  
HETATM   16  C   UNL     1     -11.892  12.192  67.709  1.00  0.00    -0.327 C  
HETATM   17  C   UNL     1     -10.543  14.017  66.714  1.00  0.00    -0.277 A  
HETATM   18  C   UNL     1      -9.357  14.701  66.466  1.00  0.00    -0.313 A  
HETATM   19  C   UNL     1      -8.187  14.306  67.102  1.00  0.00    -0.184 A  
HETATM   20  C   UNL     1      -8.185  13.221  67.999  1.00  0.00    -0.162 A  
HETATM   21  C   UNL     1      -6.887  12.891  68.688  1.00  0.00    -0.099 C  
ENDBRANCH  11  14
ENDBRANCH   9  10
ENDBRANCH   3   4
ENDBRANCH   2   3
TORSDOF 4
ENDMDL
MODEL      130
REMARK 921   NORMALIZED FREE ENERGY PREDICTED BY IDOCK:   -4.12 KCAL/MOL
REMARK 922        TOTAL FREE ENERGY PREDICTED BY IDOCK:   -5.61 KCAL/MOL
REMARK 923 INTER-LIGAND FREE ENERGY PREDICTED BY IDOCK:   -4.87 KCAL/MOL
REMARK 924 INTRA-LIGAND FREE ENERGY PREDICTED BY IDOCK:   -0.74 KCAL/MOL
REMARK 927      BINDING AFFINITY PREDICTED BY RF-SCORE:    0.00 PKD
ROOT
HETATM    1  C   UNL     1     -14.245   8.507  71.747  1.00  0.00    -0.525 C  
HETATM    2  C   UNL     1     -13.015   9.352  72.047  1.00  0.00    -0.508 C  
ENDROOT
BRANCH   2   3
HETATM    3  C   UNL     1     -11.819   8.925  71.180  1.00  0.00    -0.298 C  
BRANCH   3   4
HETATM    4  N   UNL     1     -10.630   8.530  71.969  1.00  0.00    -0.311 NA 
HETATM    5  C   UNL     1     -10.960   7.576  73.054  1.00  0.00    -0.390 C  
HETATM    6  C   UNL     1     -11.423   6.202  72.556  1.00  0.00    -0.318 C  
HETATM    7  C   UNL     1     -10.380   5.568  71.644  1.00  0.00    -0.277 C  
HETATM    8  C   UNL     1      -9.941   6.532  70.551  1.00  0.00    -0.206 C  
HETATM    9  C   UNL     1      -9.557   7.906  71.124  1.00  0.00    -0.158 C  
BRANCH   9  10
HETATM   10  C   UNL     1      -9.059   8.847  70.008  1.00  0.00    -0.166 C  
HETATM   11  N   UNL     1      -9.264   8.332  68.734  1.00  0.00    -0.144 N  
HETATM   12  O   UNL     1      -8.558   9.943  70.251  1.00  0.00    -0.175 OA 
HETATM   13  H   UNL     1      -9.646   7.391  68.640  1.00  0.00     0.000 HD 
BRANCH  11  14
HETATM   14  C   UNL     1      -8.962   9.068  67.563  1.00  0.00    -0.122 A  
HETATM   15  C   UNL     1      -7.808   8.743  66.815  1.00  0.00    -0.097 A  
HETATM   16  C   UNL     1      -6.755   7.769  67.270  1.00  0.00    -0.068 C  
HETATM   17  C   UNL     1      -7.537   9.456  65.633  1.00  0.00    -0.095 A  
HETATM   18  C   UNL     1      -8.396  10.452  65.180  1.00  0.00    -0.165 A  
HETATM   19  C   UNL     1      -9.540  10.759  65.905  1.00  0.00    -0.252 A  
HETATM   20  C   UNL     1      -9.845  10.071  67.095  1.00  0.00    -0.231 A  
HETATM   21  C   UNL     1     -11.132  10.426  67.793  1.00  0.00    -0.365 C  
ENDBRANCH  11  14
ENDBRANCH   9  10
ENDBRANCH   3   4
ENDBRANCH   2   3
TORSDOF 4
ENDMDL
MODEL      131
REMARK 921   NORMALIZED FREE ENERGY PREDICTED BY IDOCK:   -4.12 KCAL/MOL
REMARK 922        TOTAL FREE ENERGY PREDICTED BY IDOCK:   -5.61 KCAL/MOL
REMARK 923 INTER-LIGAND FREE ENERGY PREDICTED BY IDOCK:   -4.83 KCAL/MOL
REMARK 924 INTRA-LIGAND FREE ENERGY PREDICTED BY IDOCK:   -0.78 KCAL/MOL
REMARK 927      BINDING AFFINITY PREDICTED BY RF-SCORE:    0.00 PKD
ROOT
HETATM    1  C   UNL     1      -9.971  10.201  65.047  1.00  0.00    -0.375 C  
HETATM    2  C   UNL     1      -9.382   9.661  66.342  1.00  0.00    -0.224 C  
ENDROOT
BRANCH   2   3
HETATM    3  C   UNL     1     -10.355   9.843  67.518  1.00  0.00    -0.236 C  
BRANCH   3   4
HETATM    4  N   UNL     1      -9.814  10.688  68.608  1.00  0.00    -0.172 NA 
HETATM    5  C   UNL     1     -10.331  12.076  68.558  1.00  0.00    -0.217 C  
HETATM    6  C   UNL     1     -11.832  12.194  68.844  1.00  0.00    -0.358 C  
HETATM    7  C   UNL     1     -12.182  11.587  70.197  1.00  0.00    -0.387 C  
HETATM    8  C   UNL     1     -11.610  10.183  70.339  1.00  0.00    -0.396 C  
HETATM    9  C   UNL     1     -10.118  10.137  69.971  1.00  0.00    -0.190 C  
BRANCH   9  10
HETATM   10  C   UNL     1      -9.545   8.720  70.179  1.00  0.00    -0.173 C  
HETATM   11  N   UNL     1     -10.528   7.741  70.229  1.00  0.00    -0.220 N  
HETATM   12  O   UNL     1      -8.337   8.509  70.266  1.00  0.00    -0.115 OA 
HETATM   13  H   UNL     1     -11.507   8.024  70.195  1.00  0.00     0.000 HD 
BRANCH  11  14
HETATM   14  C   UNL     1     -10.219   6.362  70.326  1.00  0.00    -0.195 A  
HETATM   15  C   UNL     1     -10.325   5.712  71.576  1.00  0.00    -0.279 A  
HETATM   16  C   UNL     1     -10.578   6.422  72.878  1.00  0.00    -0.260 C  
HETATM   17  C   UNL     1     -10.051   4.334  71.654  1.00  0.00    -0.216 A  
HETATM   18  C   UNL     1      -9.703   3.603  70.521  1.00  0.00    -0.210 A  
HETATM   19  C   UNL     1      -9.616   4.239  69.290  1.00  0.00    -0.261 A  
HETATM   20  C   UNL     1      -9.880   5.617  69.171  1.00  0.00    -0.216 A  
HETATM   21  C   UNL     1      -9.818   6.220  67.792  1.00  0.00    -0.130 C  
ENDBRANCH  11  14
ENDBRANCH   9  10
ENDBRANCH   3   4
ENDBRANCH   2   3
TORSDOF 4
ENDMDL
MODEL      132
REMARK 921   NORMALIZED FREE ENERGY PREDICTED BY IDOCK:   -4.11 KCAL/MOL
REMARK 922        TOTAL FREE ENERGY PREDICTED BY IDOCK:   -5.59 KCAL/MOL
REMARK 923 INTER-LIGAND FREE ENERGY PREDICTED BY IDOCK:   -5.37 KCAL/MOL
REMARK 924 INTRA-LIGAND FREE ENERGY PREDICTED BY IDOCK:   -0.22 KCAL/MOL
REMARK 927      BINDING AFFINITY PREDICTED BY RF-SCORE:    0.00 PKD
ROOT
HETATM    1  C   UNL     1     -14.175   7.533  71.952  1.00  0.00    -0.477 C  
HETATM    2  C   UNL     1     -12.883   6.866  71.503  1.00  0.00    -0.384 C  
ENDROOT
BRANCH   2   3
HETATM    3  C   UNL     1     -11.967   7.859  70.768  1.00  0.00    -0.131 C  
BRANCH   3   4
HETATM    4  N   UNL     1     -11.248   8.782  71.677  1.00  0.00    -0.298 NA 
HETATM    5  C   UNL     1     -10.292   8.076  72.562  1.00  0.00    -0.306 C  
HETATM    6  C   UNL     1      -9.107   7.444  71.823  1.00  0.00    -0.143 C  
HETATM    7  C   UNL     1      -8.348   8.487  71.012  1.00  0.00    -0.173 C  
HETATM    8  C   UNL     1      -9.290   9.301  70.136  1.00  0.00    -0.258 C  
HETATM    9  C   UNL     1     -10.486   9.843  70.937  1.00  0.00    -0.122 C  
BRANCH   9  10
HETATM   10  C   UNL     1     -11.395  10.714  70.045  1.00  0.00    -0.324 C  
HETATM   11  N   UNL     1     -10.681  11.587  69.234  1.00  0.00    -0.389 N  
HETATM   12  O   UNL     1     -12.619  10.606  70.056  1.00  0.00    -0.306 OA 
HETATM   13  H   UNL     1      -9.668  11.633  69.334  1.00  0.00     0.000 HD 
BRANCH  11  14
HETATM   14  C   UNL     1     -11.313  12.415  68.275  1.00  0.00    -0.284 A  
HETATM   15  C   UNL     1     -11.334  12.017  66.919  1.00  0.00    -0.400 A  
HETATM   16  C   UNL     1     -10.570  10.840  66.373  1.00  0.00    -0.266 C  
HETATM   17  C   UNL     1     -11.996  12.828  65.980  1.00  0.00    -0.491 A  
HETATM   18  C   UNL     1     -12.646  13.996  66.367  1.00  0.00    -0.287 A  
HETATM   19  C   UNL     1     -12.640  14.378  67.703  1.00  0.00     0.486 A  
HETATM   20  C   UNL     1     -11.987  13.595  68.673  1.00  0.00    -0.395 A  
HETATM   21  C   UNL     1     -12.073  14.049  70.106  1.00  0.00    -0.419 C  
ENDBRANCH  11  14
ENDBRANCH   9  10
ENDBRANCH   3   4
ENDBRANCH   2   3
TORSDOF 4
ENDMDL
MODEL      133
REMARK 921   NORMALIZED FREE ENERGY PREDICTED BY IDOCK:   -4.10 KCAL/MOL
REMARK 922        TOTAL FREE ENERGY PREDICTED BY IDOCK:   -5.58 KCAL/MOL
REMARK 923 INTER-LIGAND FREE ENERGY PREDICTED BY IDOCK:   -5.05 KCAL/MOL
REMARK 924 INTRA-LIGAND FREE ENERGY PREDICTED BY IDOCK:   -0.53 KCAL/MOL
REMARK 927      BINDING AFFINITY PREDICTED BY RF-SCORE:    0.00 PKD
ROOT
HETATM    1  C   UNL     1     -13.120   9.859  71.260  1.00  0.00    -0.487 C  
HETATM    2  C   UNL     1     -11.689   9.360  71.401  1.00  0.00    -0.448 C  
ENDROOT
BRANCH   2   3
HETATM    3  C   UNL     1     -10.886   9.592  70.110  1.00  0.00    -0.280 C  
BRANCH   3   4
HETATM    4  N   UNL     1      -9.454   9.881  70.350  1.00  0.00    -0.134 NA 
HETATM    5  C   UNL     1      -8.826   8.907  71.273  1.00  0.00    -0.231 C  
HETATM    6  C   UNL     1      -8.725   7.486  70.708  1.00  0.00    -0.140 C  
HETATM    7  C   UNL     1      -7.963   7.473  69.388  1.00  0.00    -0.123 C  
HETATM    8  C   UNL     1      -8.515   8.512  68.421  1.00  0.00    -0.138 C  
HETATM    9  C   UNL     1      -8.647   9.893  69.084  1.00  0.00    -0.157 C  
BRANCH   9  10
HETATM   10  C   UNL     1      -9.150  10.942  68.070  1.00  0.00    -0.152 C  
HETATM   11  N   UNL     1      -9.172  12.229  68.589  1.00  0.00    -0.394 N  
HETATM   12  O   UNL     1      -9.469  10.640  66.922  1.00  0.00    -0.162 OA 
HETATM   13  H   UNL     1      -8.932  12.369  69.570  1.00  0.00     0.000 HD 
BRANCH  11  14
HETATM   14  C   UNL     1      -9.516  13.356  67.803  1.00  0.00    -0.210 A  
HETATM   15  C   UNL     1      -8.491  14.159  67.252  1.00  0.00    -0.228 A  
HETATM   16  C   UNL     1      -7.031  14.010  67.586  1.00  0.00    -0.198 C  
HETATM   17  C   UNL     1      -8.843  15.254  66.442  1.00  0.00    -0.311 A  
HETATM   18  C   UNL     1     -10.174  15.542  66.158  1.00  0.00    -0.322 A  
HETATM   19  C   UNL     1     -11.180  14.742  66.684  1.00  0.00    -0.346 A  
HETATM   20  C   UNL     1     -10.870  13.639  67.502  1.00  0.00    -0.275 A  
HETATM   21  C   UNL     1     -12.015  12.790  67.988  1.00  0.00    -0.315 C  
ENDBRANCH  11  14
ENDBRANCH   9  10
ENDBRANCH   3   4
ENDBRANCH   2   3
TORSDOF 4
ENDMDL
MODEL      134
REMARK 921   NORMALIZED FREE ENERGY PREDICTED BY IDOCK:   -4.09 KCAL/MOL
REMARK 922        TOTAL FREE ENERGY PREDICTED BY IDOCK:   -5.57 KCAL/MOL
REMARK 923 INTER-LIGAND FREE ENERGY PREDICTED BY IDOCK:   -4.85 KCAL/MOL
REMARK 924 INTRA-LIGAND FREE ENERGY PREDICTED BY IDOCK:   -0.72 KCAL/MOL
REMARK 927      BINDING AFFINITY PREDICTED BY RF-SCORE:    0.00 PKD
ROOT
HETATM    1  C   UNL     1      -6.272   5.887  67.858  1.00  0.00    -0.032 C  
HETATM    2  C   UNL     1      -7.770   6.024  68.092  1.00  0.00    -0.102 C  
ENDROOT
BRANCH   2   3
HETATM    3  C   UNL     1      -8.154   5.604  69.520  1.00  0.00    -0.103 C  
BRANCH   3   4
HETATM    4  N   UNL     1      -9.131   4.491  69.566  1.00  0.00    -0.101 NA 
HETATM    5  C   UNL     1      -8.494   3.191  69.881  1.00  0.00    -0.053 C  
HETATM    6  C   UNL     1      -7.919   3.105  71.300  1.00  0.00    -0.058 C  
HETATM    7  C   UNL     1      -8.989   3.395  72.344  1.00  0.00    -0.123 C  
HETATM    8  C   UNL     1      -9.735   4.685  72.031  1.00  0.00    -0.225 C  
HETATM    9  C   UNL     1     -10.221   4.720  70.572  1.00  0.00    -0.182 C  
BRANCH   9  10
HETATM   10  C   UNL     1     -11.024   6.007  70.293  1.00  0.00    -0.342 C  
HETATM   11  N   UNL     1     -11.290   6.740  71.443  1.00  0.00    -0.266 N  
HETATM   12  O   UNL     1     -11.360   6.335  69.157  1.00  0.00    -0.395 OA 
HETATM   13  H   UNL     1     -11.008   6.358  72.345  1.00  0.00     0.000 HD 
BRANCH  11  14
HETATM   14  C   UNL     1     -11.937   7.999  71.406  1.00  0.00    -0.298 A  
HETATM   15  C   UNL     1     -13.313   8.082  71.718  1.00  0.00    -0.370 A  
HETATM   16  C   UNL     1     -14.206   6.888  71.923  1.00  0.00    -0.303 C  
HETATM   17  C   UNL     1     -13.938   9.343  71.714  1.00  0.00    -0.277 A  
HETATM   18  C   UNL     1     -13.221  10.502  71.433  1.00  0.00    -0.441 A  
HETATM   19  C   UNL     1     -11.865  10.421  71.144  1.00  0.00    -0.432 A  
HETATM   20  C   UNL     1     -11.204   9.178  71.135  1.00  0.00    -0.395 A  
HETATM   21  C   UNL     1      -9.722   9.183  70.865  1.00  0.00    -0.352 C  
ENDBRANCH  11  14
ENDBRANCH   9  10
ENDBRANCH   3   4
ENDBRANCH   2   3
TORSDOF 4
ENDMDL
MODEL      135
REMARK 921   NORMALIZED FREE ENERGY PREDICTED BY IDOCK:   -4.08 KCAL/MOL
REMARK 922        TOTAL FREE ENERGY PREDICTED BY IDOCK:   -5.56 KCAL/MOL
REMARK 923 INTER-LIGAND FREE ENERGY PREDICTED BY IDOCK:   -4.91 KCAL/MOL
REMARK 924 INTRA-LIGAND FREE ENERGY PREDICTED BY IDOCK:   -0.65 KCAL/MOL
REMARK 927      BINDING AFFINITY PREDICTED BY RF-SCORE:    0.00 PKD
ROOT
HETATM    1  C   UNL     1     -12.530  12.312  63.844  1.00  0.00    -0.586 C  
HETATM    2  C   UNL     1     -11.288  12.527  64.697  1.00  0.00    -0.363 C  
ENDROOT
BRANCH   2   3
HETATM    3  C   UNL     1     -11.608  12.389  66.195  1.00  0.00    -0.396 C  
BRANCH   3   4
HETATM    4  N   UNL     1     -10.549  12.929  67.077  1.00  0.00    -0.251 NA 
HETATM    5  C   UNL     1     -10.606  14.406  67.192  1.00  0.00    -0.277 C  
HETATM    6  C   UNL     1     -11.853  14.927  67.916  1.00  0.00    -0.286 C  
HETATM    7  C   UNL     1     -11.974  14.320  69.307  1.00  0.00    -0.375 C  
HETATM    8  C   UNL     1     -11.845  12.803  69.263  1.00  0.00    -0.358 C  
HETATM    9  C   UNL     1     -10.607  12.361  68.465  1.00  0.00    -0.231 C  
BRANCH   9  10
HETATM   10  C   UNL     1     -10.463  10.825  68.484  1.00  0.00    -0.187 C  
HETATM   11  N   UNL     1      -9.173  10.399  68.196  1.00  0.00    -0.143 N  
HETATM   12  O   UNL     1     -11.405  10.083  68.752  1.00  0.00    -0.172 OA 
HETATM   13  H   UNL     1      -8.471  11.093  67.940  1.00  0.00     0.000 HD 
BRANCH  11  14
HETATM   14  C   UNL     1      -8.798   9.034  68.246  1.00  0.00    -0.134 A  
HETATM   15  C   UNL     1      -8.483   8.445  69.491  1.00  0.00    -0.124 A  
HETATM   16  C   UNL     1      -8.342   9.214  70.778  1.00  0.00    -0.248 C  
HETATM   17  C   UNL     1      -8.148   7.079  69.535  1.00  0.00    -0.130 A  
HETATM   18  C   UNL     1      -8.145   6.301  68.381  1.00  0.00    -0.112 A  
HETATM   19  C   UNL     1      -8.473   6.876  67.160  1.00  0.00    -0.121 A  
HETATM   20  C   UNL     1      -8.811   8.240  67.074  1.00  0.00    -0.146 A  
HETATM   21  C   UNL     1      -9.206   8.774  65.723  1.00  0.00    -0.269 C  
ENDBRANCH  11  14
ENDBRANCH   9  10
ENDBRANCH   3   4
ENDBRANCH   2   3
TORSDOF 4
ENDMDL
MODEL      136
REMARK 921   NORMALIZED FREE ENERGY PREDICTED BY IDOCK:   -4.08 KCAL/MOL
REMARK 922        TOTAL FREE ENERGY PREDICTED BY IDOCK:   -5.56 KCAL/MOL
REMARK 923 INTER-LIGAND FREE ENERGY PREDICTED BY IDOCK:   -4.76 KCAL/MOL
REMARK 924 INTRA-LIGAND FREE ENERGY PREDICTED BY IDOCK:   -0.80 KCAL/MOL
REMARK 927      BINDING AFFINITY PREDICTED BY RF-SCORE:    0.00 PKD
ROOT
HETATM    1  C   UNL     1      -9.135   5.189  65.271  1.00  0.00    -0.126 C  
HETATM    2  C   UNL     1      -7.807   5.931  65.217  1.00  0.00    -0.105 C  
ENDROOT
BRANCH   2   3
HETATM    3  C   UNL     1      -7.926   7.334  65.834  1.00  0.00    -0.115 C  
BRANCH   3   4
HETATM    4  N   UNL     1      -8.268   7.319  67.274  1.00  0.00    -0.114 NA 
HETATM    5  C   UNL     1      -7.159   6.810  68.115  1.00  0.00    -0.086 C  
HETATM    6  C   UNL     1      -5.926   7.721  68.140  1.00  0.00    -0.040 C  
HETATM    7  C   UNL     1      -6.291   9.126  68.603  1.00  0.00    -0.049 C  
HETATM    8  C   UNL     1      -7.479   9.675  67.826  1.00  0.00    -0.087 C  
HETATM    9  C   UNL     1      -8.648   8.676  67.793  1.00  0.00    -0.136 C  
BRANCH   9  10
HETATM   10  C   UNL     1      -9.861   9.275  67.053  1.00  0.00    -0.198 C  
HETATM   11  N   UNL     1      -9.628  10.561  66.583  1.00  0.00    -0.168 N  
HETATM   12  O   UNL     1     -10.905   8.647  66.892  1.00  0.00    -0.178 OA 
HETATM   13  H   UNL     1      -8.743  11.014  66.809  1.00  0.00     0.000 HD 
BRANCH  11  14
HETATM   14  C   UNL     1     -10.575  11.264  65.799  1.00  0.00    -0.248 A  
HETATM   15  C   UNL     1     -11.498  12.127  66.432  1.00  0.00    -0.430 A  
HETATM   16  C   UNL     1     -11.673  12.227  67.924  1.00  0.00    -0.410 C  
HETATM   17  C   UNL     1     -12.411  12.849  65.642  1.00  0.00    -0.482 A  
HETATM   18  C   UNL     1     -12.402  12.745  64.254  1.00  0.00    -0.493 A  
HETATM   19  C   UNL     1     -11.483  11.911  63.631  1.00  0.00    -0.551 A  
HETATM   20  C   UNL     1     -10.555  11.169  64.387  1.00  0.00    -0.411 A  
HETATM   21  C   UNL     1      -9.557  10.331  63.633  1.00  0.00    -0.334 C  
ENDBRANCH  11  14
ENDBRANCH   9  10
ENDBRANCH   3   4
ENDBRANCH   2   3
TORSDOF 4
ENDMDL
MODEL      137
REMARK 921   NORMALIZED FREE ENERGY PREDICTED BY IDOCK:   -4.06 KCAL/MOL
REMARK 922        TOTAL FREE ENERGY PREDICTED BY IDOCK:   -5.54 KCAL/MOL
REMARK 923 INTER-LIGAND FREE ENERGY PREDICTED BY IDOCK:   -4.73 KCAL/MOL
REMARK 924 INTRA-LIGAND FREE ENERGY PREDICTED BY IDOCK:   -0.81 KCAL/MOL
REMARK 927      BINDING AFFINITY PREDICTED BY RF-SCORE:    0.00 PKD
ROOT
HETATM    1  C   UNL     1      -7.595   5.066  66.108  1.00  0.00    -0.087 C  
HETATM    2  C   UNL     1      -7.472   6.449  65.484  1.00  0.00    -0.083 C  
ENDROOT
BRANCH   2   3
HETATM    3  C   UNL     1      -8.551   7.403  66.022  1.00  0.00    -0.151 C  
BRANCH   3   4
HETATM    4  N   UNL     1      -8.080   8.798  66.181  1.00  0.00    -0.105 NA 
HETATM    5  C   UNL     1      -7.861   9.474  64.881  1.00  0.00    -0.119 C  
HETATM    6  C   UNL     1      -9.144   9.712  64.077  1.00  0.00    -0.246 C  
HETATM    7  C   UNL     1     -10.157  10.514  64.884  1.00  0.00    -0.403 C  
HETATM    8  C   UNL     1     -10.368   9.910  66.265  1.00  0.00    -0.233 C  
HETATM    9  C   UNL     1      -9.032   9.641  66.979  1.00  0.00    -0.134 C  
BRANCH   9  10
HETATM   10  C   UNL     1      -9.271   9.086  68.398  1.00  0.00    -0.136 C  
HETATM   11  N   UNL     1     -10.588   8.704  68.616  1.00  0.00    -0.367 N  
HETATM   12  O   UNL     1      -8.363   8.984  69.221  1.00  0.00    -0.117 OA 
HETATM   13  H   UNL     1     -11.276   8.873  67.883  1.00  0.00     0.000 HD 
BRANCH  11  14
HETATM   14  C   UNL     1     -11.007   8.087  69.819  1.00  0.00    -0.137 A  
HETATM   15  C   UNL     1     -11.636   8.864  70.817  1.00  0.00    -0.301 A  
HETATM   16  C   UNL     1     -11.742  10.366  70.775  1.00  0.00    -0.464 C  
HETATM   17  C   UNL     1     -12.083   8.235  71.993  1.00  0.00    -0.402 A  
HETATM   18  C   UNL     1     -11.936   6.863  72.176  1.00  0.00    -0.302 A  
HETATM   19  C   UNL     1     -11.334   6.096  71.187  1.00  0.00    -0.340 A  
HETATM   20  C   UNL     1     -10.872   6.689  69.997  1.00  0.00    -0.331 A  
HETATM   21  C   UNL     1     -10.281   5.779  68.952  1.00  0.00    -0.267 C  
ENDBRANCH  11  14
ENDBRANCH   9  10
ENDBRANCH   3   4
ENDBRANCH   2   3
TORSDOF 4
ENDMDL
MODEL      138
REMARK 921   NORMALIZED FREE ENERGY PREDICTED BY IDOCK:   -4.04 KCAL/MOL
REMARK 922        TOTAL FREE ENERGY PREDICTED BY IDOCK:   -5.51 KCAL/MOL
REMARK 923 INTER-LIGAND FREE ENERGY PREDICTED BY IDOCK:   -4.90 KCAL/MOL
REMARK 924 INTRA-LIGAND FREE ENERGY PREDICTED BY IDOCK:   -0.61 KCAL/MOL
REMARK 927      BINDING AFFINITY PREDICTED BY RF-SCORE:    0.00 PKD
ROOT
HETATM    1  C   UNL     1      -9.168   9.827  67.367  1.00  0.00    -0.151 C  
HETATM    2  C   UNL     1     -10.421  10.488  66.810  1.00  0.00    -0.302 C  
ENDROOT
BRANCH   2   3
HETATM    3  C   UNL     1     -10.374  12.014  66.988  1.00  0.00    -0.211 C  
BRANCH   3   4
HETATM    4  N   UNL     1     -10.001  12.742  65.753  1.00  0.00    -0.266 NA 
HETATM    5  C   UNL     1     -10.700  12.220  64.555  1.00  0.00    -0.319 C  
HETATM    6  C   UNL     1     -12.214  12.459  64.562  1.00  0.00    -0.509 C  
HETATM    7  C   UNL     1     -12.535  13.941  64.714  1.00  0.00    -0.386 C  
HETATM    8  C   UNL     1     -11.783  14.554  65.887  1.00  0.00    -0.345 C  
HETATM    9  C   UNL     1     -10.284  14.213  65.842  1.00  0.00    -0.319 C  
BRANCH   9  10
HETATM   10  C   UNL     1      -9.532  14.893  67.004  1.00  0.00    -0.229 C  
HETATM   11  N   UNL     1      -8.169  15.016  66.769  1.00  0.00    -0.354 N  
HETATM   12  O   UNL     1     -10.111  15.294  68.012  1.00  0.00    -0.226 OA 
HETATM   13  H   UNL     1      -7.777  14.608  65.921  1.00  0.00     0.000 HD 
BRANCH  11  14
HETATM   14  C   UNL     1      -7.304  15.689  67.667  1.00  0.00    -0.167 A  
HETATM   15  C   UNL     1      -6.676  14.962  68.703  1.00  0.00    -0.094 A  
HETATM   16  C   UNL     1      -6.995  13.531  69.045  1.00  0.00    -0.091 C  
HETATM   17  C   UNL     1      -5.789  15.632  69.566  1.00  0.00    -0.124 A  
HETATM   18  C   UNL     1      -5.506  16.985  69.400  1.00  0.00    -0.155 A  
HETATM   19  C   UNL     1      -6.110  17.694  68.370  1.00  0.00    -0.175 A  
HETATM   20  C   UNL     1      -7.005  17.061  67.487  1.00  0.00    -0.168 A  
HETATM   21  C   UNL     1      -7.575  17.887  66.364  1.00  0.00    -0.308 C  
ENDBRANCH  11  14
ENDBRANCH   9  10
ENDBRANCH   3   4
ENDBRANCH   2   3
TORSDOF 4
ENDMDL
MODEL      139
REMARK 921   NORMALIZED FREE ENERGY PREDICTED BY IDOCK:   -4.04 KCAL/MOL
REMARK 922        TOTAL FREE ENERGY PREDICTED BY IDOCK:   -5.51 KCAL/MOL
REMARK 923 INTER-LIGAND FREE ENERGY PREDICTED BY IDOCK:   -5.35 KCAL/MOL
REMARK 924 INTRA-LIGAND FREE ENERGY PREDICTED BY IDOCK:   -0.15 KCAL/MOL
REMARK 927      BINDING AFFINITY PREDICTED BY RF-SCORE:    0.00 PKD
ROOT
HETATM    1  C   UNL     1      -9.607  16.442  66.096  1.00  0.00    -0.356 C  
HETATM    2  C   UNL     1     -10.125  15.288  66.942  1.00  0.00    -0.257 C  
ENDROOT
BRANCH   2   3
HETATM    3  C   UNL     1     -10.031  13.953  66.185  1.00  0.00    -0.310 C  
BRANCH   3   4
HETATM    4  N   UNL     1     -11.290  13.173  66.204  1.00  0.00    -0.303 NA 
HETATM    5  C   UNL     1     -12.442  13.944  65.678  1.00  0.00    -0.505 C  
HETATM    6  C   UNL     1     -12.345  14.266  64.182  1.00  0.00    -0.361 C  
HETATM    7  C   UNL     1     -12.184  12.996  63.356  1.00  0.00    -0.552 C  
HETATM    8  C   UNL     1     -11.062  12.122  63.897  1.00  0.00    -0.470 C  
HETATM    9  C   UNL     1     -11.194  11.901  65.414  1.00  0.00    -0.295 C  
BRANCH   9  10
HETATM   10  C   UNL     1     -10.082  10.964  65.930  1.00  0.00    -0.252 C  
HETATM   11  N   UNL     1     -10.231   9.654  65.494  1.00  0.00    -0.262 N  
HETATM   12  O   UNL     1      -9.160  11.370  66.635  1.00  0.00    -0.170 OA 
HETATM   13  H   UNL     1     -11.058   9.408  64.950  1.00  0.00     0.000 HD 
BRANCH  11  14
HETATM   14  C   UNL     1      -9.275   8.649  65.778  1.00  0.00    -0.181 A  
HETATM   15  C   UNL     1      -9.419   7.861  66.942  1.00  0.00    -0.243 A  
HETATM   16  C   UNL     1     -10.435   8.127  68.021  1.00  0.00    -0.242 C  
HETATM   17  C   UNL     1      -8.485   6.840  67.195  1.00  0.00    -0.120 A  
HETATM   18  C   UNL     1      -7.443   6.581  66.310  1.00  0.00    -0.081 A  
HETATM   19  C   UNL     1      -7.312   7.344  65.156  1.00  0.00    -0.077 A  
HETATM   20  C   UNL     1      -8.225   8.377  64.869  1.00  0.00    -0.155 A  
HETATM   21  C   UNL     1      -8.046   9.121  63.571  1.00  0.00    -0.159 C  
ENDBRANCH  11  14
ENDBRANCH   9  10
ENDBRANCH   3   4
ENDBRANCH   2   3
TORSDOF 4
ENDMDL
MODEL      140
REMARK 921   NORMALIZED FREE ENERGY PREDICTED BY IDOCK:   -4.02 KCAL/MOL
REMARK 922        TOTAL FREE ENERGY PREDICTED BY IDOCK:   -5.49 KCAL/MOL
REMARK 923 INTER-LIGAND FREE ENERGY PREDICTED BY IDOCK:   -4.74 KCAL/MOL
REMARK 924 INTRA-LIGAND FREE ENERGY PREDICTED BY IDOCK:   -0.75 KCAL/MOL
REMARK 927      BINDING AFFINITY PREDICTED BY RF-SCORE:    0.00 PKD
ROOT
HETATM    1  C   UNL     1     -13.727   7.432  71.389  1.00  0.00    -0.419 C  
HETATM    2  C   UNL     1     -12.502   6.593  71.720  1.00  0.00    -0.360 C  
ENDROOT
BRANCH   2   3
HETATM    3  C   UNL     1     -11.219   7.232  71.164  1.00  0.00    -0.259 C  
BRANCH   3   4
HETATM    4  N   UNL     1     -10.600   8.213  72.085  1.00  0.00    -0.266 NA 
HETATM    5  C   UNL     1     -10.130   7.590  73.344  1.00  0.00    -0.338 C  
HETATM    6  C   UNL     1      -8.960   6.617  73.161  1.00  0.00    -0.140 C  
HETATM    7  C   UNL     1      -7.781   7.299  72.479  1.00  0.00    -0.095 C  
HETATM    8  C   UNL     1      -8.216   8.026  71.214  1.00  0.00    -0.119 C  
HETATM    9  C   UNL     1      -9.435   8.930  71.468  1.00  0.00    -0.277 C  
BRANCH   9  10
HETATM   10  C   UNL     1      -9.821   9.701  70.189  1.00  0.00    -0.262 C  
HETATM   11  N   UNL     1      -8.978   9.432  69.119  1.00  0.00    -0.142 N  
HETATM   12  O   UNL     1     -10.795  10.450  70.146  1.00  0.00    -0.283 OA 
HETATM   13  H   UNL     1      -8.169   8.831  69.269  1.00  0.00     0.000 HD 
BRANCH  11  14
HETATM   14  C   UNL     1      -9.203   9.965  67.826  1.00  0.00    -0.130 A  
HETATM   15  C   UNL     1      -8.592  11.186  67.461  1.00  0.00    -0.129 A  
HETATM   16  C   UNL     1      -7.844  12.075  68.418  1.00  0.00    -0.147 C  
HETATM   17  C   UNL     1      -8.792  11.687  66.162  1.00  0.00    -0.139 A  
HETATM   18  C   UNL     1      -9.557  10.992  65.230  1.00  0.00    -0.270 A  
HETATM   19  C   UNL     1     -10.143   9.783  65.584  1.00  0.00    -0.282 A  
HETATM   20  C   UNL     1      -9.969   9.249  66.875  1.00  0.00    -0.298 A  
HETATM   21  C   UNL     1     -10.591   7.907  67.161  1.00  0.00    -0.383 C  
ENDBRANCH  11  14
ENDBRANCH   9  10
ENDBRANCH   3   4
ENDBRANCH   2   3
TORSDOF 4
ENDMDL
MODEL      141
REMARK 921   NORMALIZED FREE ENERGY PREDICTED BY IDOCK:   -4.02 KCAL/MOL
REMARK 922        TOTAL FREE ENERGY PREDICTED BY IDOCK:   -5.48 KCAL/MOL
REMARK 923 INTER-LIGAND FREE ENERGY PREDICTED BY IDOCK:   -4.78 KCAL/MOL
REMARK 924 INTRA-LIGAND FREE ENERGY PREDICTED BY IDOCK:   -0.70 KCAL/MOL
REMARK 927      BINDING AFFINITY PREDICTED BY RF-SCORE:    0.00 PKD
ROOT
HETATM    1  C   UNL     1      -9.188  16.414  66.159  1.00  0.00    -0.365 C  
HETATM    2  C   UNL     1      -9.481  15.570  67.391  1.00  0.00    -0.213 C  
ENDROOT
BRANCH   2   3
HETATM    3  C   UNL     1      -9.703  14.095  67.019  1.00  0.00    -0.258 C  
BRANCH   3   4
HETATM    4  N   UNL     1     -10.982  13.544  67.524  1.00  0.00    -0.264 NA 
HETATM    5  C   UNL     1     -12.151  14.356  67.111  1.00  0.00    -0.333 C  
HETATM    6  C   UNL     1     -12.424  14.336  65.603  1.00  0.00    -0.432 C  
HETATM    7  C   UNL     1     -12.612  12.910  65.098  1.00  0.00    -0.536 C  
HETATM    8  C   UNL     1     -11.476  12.006  65.557  1.00  0.00    -0.368 C  
HETATM    9  C   UNL     1     -11.223  12.134  67.069  1.00  0.00    -0.314 C  
BRANCH   9  10
HETATM   10  C   UNL     1     -10.110  11.166  67.522  1.00  0.00    -0.183 C  
HETATM   11  N   UNL     1      -9.917  11.168  68.897  1.00  0.00    -0.280 N  
HETATM   12  O   UNL     1      -9.492  10.462  66.726  1.00  0.00    -0.161 OA 
HETATM   13  H   UNL     1     -10.450  11.825  69.468  1.00  0.00     0.000 HD 
BRANCH  11  14
HETATM   14  C   UNL     1      -9.008  10.291  69.535  1.00  0.00    -0.157 A  
HETATM   15  C   UNL     1      -9.470   9.053  70.036  1.00  0.00    -0.202 A  
HETATM   16  C   UNL     1     -10.922   8.659  70.103  1.00  0.00    -0.234 C  
HETATM   17  C   UNL     1      -8.551   8.172  70.635  1.00  0.00    -0.130 A  
HETATM   18  C   UNL     1      -7.199   8.490  70.719  1.00  0.00    -0.060 A  
HETATM   19  C   UNL     1      -6.741   9.698  70.210  1.00  0.00    -0.099 A  
HETATM   20  C   UNL     1      -7.630  10.608  69.606  1.00  0.00    -0.100 A  
HETATM   21  C   UNL     1      -7.046  11.872  69.031  1.00  0.00    -0.092 C  
ENDBRANCH  11  14
ENDBRANCH   9  10
ENDBRANCH   3   4
ENDBRANCH   2   3
TORSDOF 4
ENDMDL
MODEL      142
REMARK 921   NORMALIZED FREE ENERGY PREDICTED BY IDOCK:   -4.01 KCAL/MOL
REMARK 922        TOTAL FREE ENERGY PREDICTED BY IDOCK:   -5.47 KCAL/MOL
REMARK 923 INTER-LIGAND FREE ENERGY PREDICTED BY IDOCK:   -4.69 KCAL/MOL
REMARK 924 INTRA-LIGAND FREE ENERGY PREDICTED BY IDOCK:   -0.78 KCAL/MOL
REMARK 927      BINDING AFFINITY PREDICTED BY RF-SCORE:    0.00 PKD
ROOT
HETATM    1  C   UNL     1     -10.953   6.665  67.005  1.00  0.00    -0.463 C  
HETATM    2  C   UNL     1      -9.585   7.250  67.324  1.00  0.00    -0.191 C  
ENDROOT
BRANCH   2   3
HETATM    3  C   UNL     1      -9.485   8.717  66.875  1.00  0.00    -0.177 C  
BRANCH   3   4
HETATM    4  N   UNL     1      -8.110   9.133  66.517  1.00  0.00    -0.107 NA 
HETATM    5  C   UNL     1      -7.484   8.227  65.525  1.00  0.00    -0.077 C  
HETATM    6  C   UNL     1      -8.147   8.262  64.143  1.00  0.00    -0.136 C  
HETATM    7  C   UNL     1      -8.161   9.677  63.577  1.00  0.00    -0.149 C  
HETATM    8  C   UNL     1      -8.723  10.671  64.584  1.00  0.00    -0.161 C  
HETATM    9  C   UNL     1      -8.053  10.526  65.961  1.00  0.00    -0.148 C  
BRANCH   9  10
HETATM   10  C   UNL     1      -8.595  11.581  66.948  1.00  0.00    -0.163 C  
HETATM   11  N   UNL     1      -9.755  12.197  66.499  1.00  0.00    -0.218 N  
HETATM   12  O   UNL     1      -8.046  11.813  68.022  1.00  0.00    -0.129 OA 
HETATM   13  H   UNL     1     -10.106  11.967  65.569  1.00  0.00     0.000 HD 
BRANCH  11  14
HETATM   14  C   UNL     1     -10.469  13.133  67.287  1.00  0.00    -0.243 A  
HETATM   15  C   UNL     1     -11.346  12.669  68.292  1.00  0.00    -0.337 A  
HETATM   16  C   UNL     1     -11.725  11.225  68.482  1.00  0.00    -0.378 C  
HETATM   17  C   UNL     1     -12.022  13.607  69.094  1.00  0.00    -0.394 A  
HETATM   18  C   UNL     1     -11.822  14.974  68.928  1.00  0.00    -0.337 A  
HETATM   19  C   UNL     1     -10.945  15.429  67.951  1.00  0.00    -0.310 A  
HETATM   20  C   UNL     1     -10.252  14.523  67.127  1.00  0.00    -0.260 A  
HETATM   21  C   UNL     1      -9.279  15.095  66.129  1.00  0.00    -0.318 C  
ENDBRANCH  11  14
ENDBRANCH   9  10
ENDBRANCH   3   4
ENDBRANCH   2   3
TORSDOF 4
ENDMDL
MODEL      143
REMARK 921   NORMALIZED FREE ENERGY PREDICTED BY IDOCK:   -4.00 KCAL/MOL
REMARK 922        TOTAL FREE ENERGY PREDICTED BY IDOCK:   -5.46 KCAL/MOL
REMARK 923 INTER-LIGAND FREE ENERGY PREDICTED BY IDOCK:   -5.03 KCAL/MOL
REMARK 924 INTRA-LIGAND FREE ENERGY PREDICTED BY IDOCK:   -0.44 KCAL/MOL
REMARK 927      BINDING AFFINITY PREDICTED BY RF-SCORE:    0.00 PKD
ROOT
HETATM    1  C   UNL     1     -14.353   7.581  71.581  1.00  0.00    -0.621 C  
HETATM    2  C   UNL     1     -13.345   8.583  72.127  1.00  0.00    -0.382 C  
ENDROOT
BRANCH   2   3
HETATM    3  C   UNL     1     -12.045   8.573  71.306  1.00  0.00    -0.286 C  
BRANCH   3   4
HETATM    4  N   UNL     1     -10.840   8.272  72.112  1.00  0.00    -0.295 NA 
HETATM    5  C   UNL     1     -11.079   7.207  73.114  1.00  0.00    -0.262 C  
HETATM    6  C   UNL     1     -11.349   5.826  72.505  1.00  0.00    -0.358 C  
HETATM    7  C   UNL     1     -10.207   5.396  71.594  1.00  0.00    -0.268 C  
HETATM    8  C   UNL     1      -9.861   6.485  70.587  1.00  0.00    -0.201 C  
HETATM    9  C   UNL     1      -9.671   7.851  71.269  1.00  0.00    -0.157 C  
BRANCH   9  10
HETATM   10  C   UNL     1      -9.263   8.925  70.241  1.00  0.00    -0.185 C  
HETATM   11  N   UNL     1      -9.878   8.756  69.007  1.00  0.00    -0.176 N  
HETATM   12  O   UNL     1      -8.489   9.838  70.521  1.00  0.00    -0.171 OA 
HETATM   13  H   UNL     1     -10.469   7.938  68.860  1.00  0.00     0.000 HD 
BRANCH  11  14
HETATM   14  C   UNL     1      -9.713   9.679  67.946  1.00  0.00    -0.146 A  
HETATM   15  C   UNL     1     -10.554  10.812  67.874  1.00  0.00    -0.258 A  
HETATM   16  C   UNL     1     -11.754  11.031  68.756  1.00  0.00    -0.383 C  
HETATM   17  C   UNL     1     -10.358  11.743  66.837  1.00  0.00    -0.247 A  
HETATM   18  C   UNL     1      -9.340  11.577  65.903  1.00  0.00    -0.242 A  
HETATM   19  C   UNL     1      -8.502  10.472  65.985  1.00  0.00    -0.157 A  
HETATM   20  C   UNL     1      -8.667   9.517  67.006  1.00  0.00    -0.135 A  
HETATM   21  C   UNL     1      -7.683   8.378  67.057  1.00  0.00    -0.093 C  
ENDBRANCH  11  14
ENDBRANCH   9  10
ENDBRANCH   3   4
ENDBRANCH   2   3
TORSDOF 4
ENDMDL
MODEL      144
REMARK 921   NORMALIZED FREE ENERGY PREDICTED BY IDOCK:   -4.00 KCAL/MOL
REMARK 922        TOTAL FREE ENERGY PREDICTED BY IDOCK:   -5.46 KCAL/MOL
REMARK 923 INTER-LIGAND FREE ENERGY PREDICTED BY IDOCK:   -4.88 KCAL/MOL
REMARK 924 INTRA-LIGAND FREE ENERGY PREDICTED BY IDOCK:   -0.58 KCAL/MOL
REMARK 927      BINDING AFFINITY PREDICTED BY RF-SCORE:    0.00 PKD
ROOT
HETATM    1  C   UNL     1      -8.365   5.415  65.382  1.00  0.00    -0.139 C  
HETATM    2  C   UNL     1      -9.306   6.038  66.402  1.00  0.00    -0.171 C  
ENDROOT
BRANCH   2   3
HETATM    3  C   UNL     1      -8.883   5.690  67.839  1.00  0.00    -0.105 C  
BRANCH   3   4
HETATM    4  N   UNL     1      -9.653   4.572  68.428  1.00  0.00    -0.150 NA 
HETATM    5  C   UNL     1      -8.866   3.318  68.503  1.00  0.00    -0.117 C  
HETATM    6  C   UNL     1      -7.687   3.380  69.481  1.00  0.00    -0.050 C  
HETATM    7  C   UNL     1      -8.156   3.751  70.883  1.00  0.00    -0.069 C  
HETATM    8  C   UNL     1      -9.038   4.992  70.861  1.00  0.00    -0.181 C  
HETATM    9  C   UNL     1     -10.154   4.879  69.809  1.00  0.00    -0.249 C  
BRANCH   9  10
HETATM   10  C   UNL     1     -11.070   6.119  69.846  1.00  0.00    -0.410 C  
HETATM   11  N   UNL     1     -11.015   6.797  71.057  1.00  0.00    -0.245 N  
HETATM   12  O   UNL     1     -11.750   6.459  68.880  1.00  0.00    -0.096 OA 
HETATM   13  H   UNL     1     -10.455   6.407  71.814  1.00  0.00     0.000 HD 
BRANCH  11  14
HETATM   14  C   UNL     1     -11.709   8.012  71.276  1.00  0.00    -0.282 A  
HETATM   15  C   UNL     1     -11.066   9.240  71.000  1.00  0.00    -0.396 A  
HETATM   16  C   UNL     1      -9.607   9.368  70.649  1.00  0.00    -0.331 C  
HETATM   17  C   UNL     1     -11.776  10.440  71.186  1.00  0.00    -0.387 A  
HETATM   18  C   UNL     1     -13.101  10.434  71.611  1.00  0.00    -0.553 A  
HETATM   19  C   UNL     1     -13.739   9.227  71.864  1.00  0.00    -0.464 A  
HETATM   20  C   UNL     1     -13.061   8.005  71.693  1.00  0.00    -0.354 A  
HETATM   21  C   UNL     1     -13.840   6.739  71.937  1.00  0.00    -0.133 C  
ENDBRANCH  11  14
ENDBRANCH   9  10
ENDBRANCH   3   4
ENDBRANCH   2   3
TORSDOF 4
ENDMDL
MODEL      145
REMARK 921   NORMALIZED FREE ENERGY PREDICTED BY IDOCK:   -3.99 KCAL/MOL
REMARK 922        TOTAL FREE ENERGY PREDICTED BY IDOCK:   -5.45 KCAL/MOL
REMARK 923 INTER-LIGAND FREE ENERGY PREDICTED BY IDOCK:   -4.63 KCAL/MOL
REMARK 924 INTRA-LIGAND FREE ENERGY PREDICTED BY IDOCK:   -0.82 KCAL/MOL
REMARK 927      BINDING AFFINITY PREDICTED BY RF-SCORE:    0.00 PKD
ROOT
HETATM    1  C   UNL     1     -12.208  13.832  66.539  1.00  0.00    -0.475 C  
HETATM    2  C   UNL     1     -10.995  14.722  66.764  1.00  0.00    -0.327 C  
ENDROOT
BRANCH   2   3
HETATM    3  C   UNL     1      -9.691  13.908  66.737  1.00  0.00    -0.279 C  
BRANCH   3   4
HETATM    4  N   UNL     1      -9.431  13.166  67.993  1.00  0.00    -0.214 NA 
HETATM    5  C   UNL     1      -9.355  11.702  67.780  1.00  0.00    -0.178 C  
HETATM    6  C   UNL     1      -8.148  11.254  66.947  1.00  0.00    -0.155 C  
HETATM    7  C   UNL     1      -6.843  11.729  67.572  1.00  0.00    -0.113 C  
HETATM    8  C   UNL     1      -6.889  13.218  67.886  1.00  0.00    -0.140 C  
HETATM    9  C   UNL     1      -8.160  13.596  68.665  1.00  0.00    -0.071 C  
BRANCH   9  10
HETATM   10  C   UNL     1      -8.157  15.097  69.024  1.00  0.00    -0.191 C  
HETATM   11  N   UNL     1      -7.053  15.772  68.519  1.00  0.00    -0.115 N  
HETATM   12  O   UNL     1      -9.063  15.616  69.672  1.00  0.00    -0.273 OA 
HETATM   13  H   UNL     1      -6.331  15.241  68.033  1.00  0.00     0.000 HD 
BRANCH  11  14
HETATM   14  C   UNL     1      -6.896  17.173  68.656  1.00  0.00    -0.197 A  
HETATM   15  C   UNL     1      -7.607  18.040  67.796  1.00  0.00    -0.220 A  
HETATM   16  C   UNL     1      -8.403  17.580  66.604  1.00  0.00    -0.291 C  
HETATM   17  C   UNL     1      -7.472  19.430  67.964  1.00  0.00    -0.316 A  
HETATM   18  C   UNL     1      -6.674  19.960  68.973  1.00  0.00    -0.355 A  
HETATM   19  C   UNL     1      -5.989  19.107  69.830  1.00  0.00    -0.281 A  
HETATM   20  C   UNL     1      -6.096  17.710  69.692  1.00  0.00    -0.245 A  
HETATM   21  C   UNL     1      -5.365  16.856  70.695  1.00  0.00    -0.193 C  
ENDBRANCH  11  14
ENDBRANCH   9  10
ENDBRANCH   3   4
ENDBRANCH   2   3
TORSDOF 4
ENDMDL
MODEL      146
REMARK 921   NORMALIZED FREE ENERGY PREDICTED BY IDOCK:   -3.98 KCAL/MOL
REMARK 922        TOTAL FREE ENERGY PREDICTED BY IDOCK:   -5.44 KCAL/MOL
REMARK 923 INTER-LIGAND FREE ENERGY PREDICTED BY IDOCK:   -4.57 KCAL/MOL
REMARK 924 INTRA-LIGAND FREE ENERGY PREDICTED BY IDOCK:   -0.87 KCAL/MOL
REMARK 927      BINDING AFFINITY PREDICTED BY RF-SCORE:    0.00 PKD
ROOT
HETATM    1  C   UNL     1     -10.423  11.586  63.283  1.00  0.00    -0.421 C  
HETATM    2  C   UNL     1     -11.656  12.012  64.067  1.00  0.00    -0.495 C  
ENDROOT
BRANCH   2   3
HETATM    3  C   UNL     1     -11.356  12.107  65.572  1.00  0.00    -0.344 C  
BRANCH   3   4
HETATM    4  N   UNL     1     -10.403  13.187  65.918  1.00  0.00    -0.285 NA 
HETATM    5  C   UNL     1     -11.068  14.503  66.066  1.00  0.00    -0.329 C  
HETATM    6  C   UNL     1     -12.021  14.590  67.263  1.00  0.00    -0.375 C  
HETATM    7  C   UNL     1     -11.302  14.253  68.563  1.00  0.00    -0.309 C  
HETATM    8  C   UNL     1     -10.533  12.943  68.448  1.00  0.00    -0.260 C  
HETATM    9  C   UNL     1      -9.652  12.910  67.188  1.00  0.00    -0.225 C  
BRANCH   9  10
HETATM   10  C   UNL     1      -8.839  11.601  67.122  1.00  0.00    -0.172 C  
HETATM   11  N   UNL     1      -9.127  10.731  68.166  1.00  0.00    -0.146 N  
HETATM   12  O   UNL     1      -8.042  11.371  66.215  1.00  0.00    -0.149 OA 
HETATM   13  H   UNL     1      -9.770  11.035  68.896  1.00  0.00     0.000 HD 
BRANCH  11  14
HETATM   14  C   UNL     1      -8.559   9.437  68.251  1.00  0.00    -0.120 A  
HETATM   15  C   UNL     1      -9.172   8.362  67.570  1.00  0.00    -0.158 A  
HETATM   16  C   UNL     1     -10.510   8.450  66.886  1.00  0.00    -0.359 C  
HETATM   17  C   UNL     1      -8.579   7.088  67.630  1.00  0.00    -0.122 A  
HETATM   18  C   UNL     1      -7.393   6.877  68.327  1.00  0.00    -0.097 A  
HETATM   19  C   UNL     1      -6.781   7.938  68.982  1.00  0.00    -0.049 A  
HETATM   20  C   UNL     1      -7.344   9.228  68.947  1.00  0.00    -0.074 A  
HETATM   21  C   UNL     1      -6.589  10.334  69.637  1.00  0.00    -0.077 C  
ENDBRANCH  11  14
ENDBRANCH   9  10
ENDBRANCH   3   4
ENDBRANCH   2   3
TORSDOF 4
ENDMDL
MODEL      147
REMARK 921   NORMALIZED FREE ENERGY PREDICTED BY IDOCK:   -3.98 KCAL/MOL
REMARK 922        TOTAL FREE ENERGY PREDICTED BY IDOCK:   -5.44 KCAL/MOL
REMARK 923 INTER-LIGAND FREE ENERGY PREDICTED BY IDOCK:   -5.25 KCAL/MOL
REMARK 924 INTRA-LIGAND FREE ENERGY PREDICTED BY IDOCK:   -0.19 KCAL/MOL
REMARK 927      BINDING AFFINITY PREDICTED BY RF-SCORE:    0.00 PKD
ROOT
HETATM    1  C   UNL     1      -6.823   7.140  67.249  1.00  0.00    -0.073 C  
HETATM    2  C   UNL     1      -7.846   7.914  66.431  1.00  0.00    -0.097 C  
ENDROOT
BRANCH   2   3
HETATM    3  C   UNL     1      -8.614   8.920  67.303  1.00  0.00    -0.118 C  
BRANCH   3   4
HETATM    4  N   UNL     1     -10.068   8.648  67.377  1.00  0.00    -0.208 NA 
HETATM    5  C   UNL     1     -10.394   7.565  68.335  1.00  0.00    -0.195 C  
HETATM    6  C   UNL     1     -10.112   7.921  69.799  1.00  0.00    -0.199 C  
HETATM    7  C   UNL     1     -10.858   9.184  70.210  1.00  0.00    -0.282 C  
HETATM    8  C   UNL     1     -10.623  10.315  69.218  1.00  0.00    -0.254 C  
HETATM    9  C   UNL     1     -10.864   9.859  67.769  1.00  0.00    -0.264 C  
BRANCH   9  10
HETATM   10  C   UNL     1     -10.679  11.034  66.787  1.00  0.00    -0.266 C  
HETATM   11  N   UNL     1     -11.465  12.134  67.104  1.00  0.00    -0.335 N  
HETATM   12  O   UNL     1      -9.894  10.980  65.843  1.00  0.00    -0.213 OA 
HETATM   13  H   UNL     1     -12.121  12.062  67.882  1.00  0.00     0.000 HD 
BRANCH  11  14
HETATM   14  C   UNL     1     -11.387  13.352  66.386  1.00  0.00    -0.313 A  
HETATM   15  C   UNL     1     -10.559  14.391  66.868  1.00  0.00    -0.278 A  
HETATM   16  C   UNL     1      -9.873  14.371  68.208  1.00  0.00    -0.229 C  
HETATM   17  C   UNL     1     -10.460  15.584  66.128  1.00  0.00    -0.323 A  
HETATM   18  C   UNL     1     -11.141  15.744  64.925  1.00  0.00    -0.411 A  
HETATM   19  C   UNL     1     -11.940  14.715  64.443  1.00  0.00    -0.454 A  
HETATM   20  C   UNL     1     -12.068  13.508  65.155  1.00  0.00    -0.432 A  
HETATM   21  C   UNL     1     -12.910  12.423  64.537  1.00  0.00    -0.305 C  
ENDBRANCH  11  14
ENDBRANCH   9  10
ENDBRANCH   3   4
ENDBRANCH   2   3
TORSDOF 4
ENDMDL
MODEL      148
REMARK 921   NORMALIZED FREE ENERGY PREDICTED BY IDOCK:   -3.93 KCAL/MOL
REMARK 922        TOTAL FREE ENERGY PREDICTED BY IDOCK:   -5.38 KCAL/MOL
REMARK 923 INTER-LIGAND FREE ENERGY PREDICTED BY IDOCK:   -4.56 KCAL/MOL
REMARK 924 INTRA-LIGAND FREE ENERGY PREDICTED BY IDOCK:   -0.81 KCAL/MOL
REMARK 927      BINDING AFFINITY PREDICTED BY RF-SCORE:    0.00 PKD
ROOT
HETATM    1  C   UNL     1     -11.978   9.955  71.022  1.00  0.00    -0.456 C  
HETATM    2  C   UNL     1     -11.404   8.653  70.481  1.00  0.00    -0.241 C  
ENDROOT
BRANCH   2   3
HETATM    3  C   UNL     1     -10.210   8.913  69.548  1.00  0.00    -0.204 C  
BRANCH   3   4
HETATM    4  N   UNL     1      -9.072   9.584  70.217  1.00  0.00    -0.242 NA 
HETATM    5  C   UNL     1      -8.451   8.739  71.263  1.00  0.00    -0.186 C  
HETATM    6  C   UNL     1      -7.746   7.490  70.720  1.00  0.00    -0.083 C  
HETATM    7  C   UNL     1      -6.684   7.863  69.693  1.00  0.00    -0.042 C  
HETATM    8  C   UNL     1      -7.245   8.797  68.630  1.00  0.00    -0.073 C  
HETATM    9  C   UNL     1      -7.992   9.987  69.256  1.00  0.00    -0.130 C  
BRANCH   9  10
HETATM   10  C   UNL     1      -8.500  10.952  68.164  1.00  0.00    -0.131 C  
HETATM   11  N   UNL     1      -8.911  12.177  68.672  1.00  0.00    -0.376 N  
HETATM   12  O   UNL     1      -8.506  10.646  66.973  1.00  0.00    -0.127 OA 
HETATM   13  H   UNL     1      -8.911  12.316  69.682  1.00  0.00     0.000 HD 
BRANCH  11  14
HETATM   14  C   UNL     1      -9.330  13.241  67.836  1.00  0.00    -0.214 A  
HETATM   15  C   UNL     1     -10.705  13.406  67.557  1.00  0.00    -0.263 A  
HETATM   16  C   UNL     1     -11.770  12.416  67.946  1.00  0.00    -0.421 C  
HETATM   17  C   UNL     1     -11.114  14.488  66.756  1.00  0.00    -0.325 A  
HETATM   18  C   UNL     1     -10.192  15.404  66.257  1.00  0.00    -0.303 A  
HETATM   19  C   UNL     1      -8.842  15.251  66.546  1.00  0.00    -0.335 A  
HETATM   20  C   UNL     1      -8.393  14.180  67.342  1.00  0.00    -0.210 A  
HETATM   21  C   UNL     1      -6.921  14.116  67.653  1.00  0.00    -0.200 C  
ENDBRANCH  11  14
ENDBRANCH   9  10
ENDBRANCH   3   4
ENDBRANCH   2   3
TORSDOF 4
ENDMDL
MODEL      149
REMARK 921   NORMALIZED FREE ENERGY PREDICTED BY IDOCK:   -3.92 KCAL/MOL
REMARK 922        TOTAL FREE ENERGY PREDICTED BY IDOCK:   -5.36 KCAL/MOL
REMARK 923 INTER-LIGAND FREE ENERGY PREDICTED BY IDOCK:   -5.28 KCAL/MOL
REMARK 924 INTRA-LIGAND FREE ENERGY PREDICTED BY IDOCK:   -0.08 KCAL/MOL
REMARK 927      BINDING AFFINITY PREDICTED BY RF-SCORE:    0.00 PKD
ROOT
HETATM    1  C   UNL     1      -7.313  19.788  69.228  1.00  0.00    -0.248 C  
HETATM    2  C   UNL     1      -7.447  20.040  67.733  1.00  0.00    -0.330 C  
ENDROOT
BRANCH   2   3
HETATM    3  C   UNL     1      -8.390  19.019  67.075  1.00  0.00    -0.276 C  
BRANCH   3   4
HETATM    4  N   UNL     1      -7.861  18.455  65.812  1.00  0.00    -0.510 NA 
HETATM    5  C   UNL     1      -6.597  19.103  65.388  1.00  0.00    -0.268 C  
HETATM    6  C   UNL     1      -5.413  18.831  66.322  1.00  0.00    -0.176 C  
HETATM    7  C   UNL     1      -5.170  17.335  66.480  1.00  0.00    -0.200 C  
HETATM    8  C   UNL     1      -6.454  16.601  66.841  1.00  0.00    -0.224 C  
HETATM    9  C   UNL     1      -7.610  16.978  65.899  1.00  0.00     0.115 C  
BRANCH   9  10
HETATM   10  C   UNL     1      -8.883  16.179  66.245  1.00  0.00    -0.336 C  
HETATM   11  N   UNL     1      -8.789  15.511  67.459  1.00  0.00    -0.178 N  
HETATM   12  O   UNL     1      -9.870  16.172  65.513  1.00  0.00    -0.458 OA 
HETATM   13  H   UNL     1      -7.908  15.542  67.971  1.00  0.00     0.000 HD 
BRANCH  11  14
HETATM   14  C   UNL     1      -9.875  14.789  68.011  1.00  0.00    -0.218 A  
HETATM   15  C   UNL     1     -10.772  15.443  68.886  1.00  0.00    -0.244 A  
HETATM   16  C   UNL     1     -10.560  16.831  69.429  1.00  0.00    -0.318 C  
HETATM   17  C   UNL     1     -11.869  14.727  69.400  1.00  0.00    -0.360 A  
HETATM   18  C   UNL     1     -12.095  13.402  69.043  1.00  0.00    -0.299 A  
HETATM   19  C   UNL     1     -11.224  12.765  68.168  1.00  0.00    -0.310 A  
HETATM   20  C   UNL     1     -10.113  13.446  67.635  1.00  0.00    -0.229 A  
HETATM   21  C   UNL     1      -9.249  12.701  66.651  1.00  0.00    -0.218 C  
ENDBRANCH  11  14
ENDBRANCH   9  10
ENDBRANCH   3   4
ENDBRANCH   2   3
TORSDOF 4
ENDMDL
MODEL      150
REMARK 921   NORMALIZED FREE ENERGY PREDICTED BY IDOCK:   -3.89 KCAL/MOL
REMARK 922        TOTAL FREE ENERGY PREDICTED BY IDOCK:   -5.33 KCAL/MOL
REMARK 923 INTER-LIGAND FREE ENERGY PREDICTED BY IDOCK:   -4.59 KCAL/MOL
REMARK 924 INTRA-LIGAND FREE ENERGY PREDICTED BY IDOCK:   -0.74 KCAL/MOL
REMARK 927      BINDING AFFINITY PREDICTED BY RF-SCORE:    0.00 PKD
ROOT
HETATM    1  C   UNL     1     -10.726  16.296  64.968  1.00  0.00    -0.319 C  
HETATM    2  C   UNL     1     -11.464  14.965  64.983  1.00  0.00    -0.379 C  
ENDROOT
BRANCH   2   3
HETATM    3  C   UNL     1     -10.614  13.862  65.633  1.00  0.00    -0.301 C  
BRANCH   3   4
HETATM    4  N   UNL     1     -11.333  12.576  65.788  1.00  0.00    -0.320 NA 
HETATM    5  C   UNL     1     -12.046  12.174  64.553  1.00  0.00    -0.334 C  
HETATM    6  C   UNL     1     -11.119  11.827  63.382  1.00  0.00    -0.448 C  
HETATM    7  C   UNL     1     -10.139  10.725  63.766  1.00  0.00    -0.391 C  
HETATM    8  C   UNL     1      -9.429  11.046  65.073  1.00  0.00    -0.269 C  
HETATM    9  C   UNL     1     -10.422  11.448  66.177  1.00  0.00    -0.255 C  
BRANCH   9  10
HETATM   10  C   UNL     1      -9.687  11.710  67.507  1.00  0.00    -0.177 C  
HETATM   11  N   UNL     1      -8.308  11.776  67.360  1.00  0.00    -0.152 N  
HETATM   12  O   UNL     1     -10.289  11.864  68.568  1.00  0.00    -0.210 OA 
HETATM   13  H   UNL     1      -7.901  11.588  66.444  1.00  0.00     0.000 HD 
BRANCH  11  14
HETATM   14  C   UNL     1      -7.446  12.095  68.438  1.00  0.00    -0.114 A  
HETATM   15  C   UNL     1      -6.934  11.059  69.250  1.00  0.00    -0.116 A  
HETATM   16  C   UNL     1      -7.380   9.623  69.166  1.00  0.00    -0.077 C  
HETATM   17  C   UNL     1      -6.050  11.383  70.294  1.00  0.00    -0.145 A  
HETATM   18  C   UNL     1      -5.656  12.698  70.523  1.00  0.00    -0.171 A  
HETATM   19  C   UNL     1      -6.146  13.715  69.713  1.00  0.00    -0.126 A  
HETATM   20  C   UNL     1      -7.035  13.432  68.659  1.00  0.00    -0.101 A  
HETATM   21  C   UNL     1      -7.476  14.583  67.794  1.00  0.00    -0.182 C  
ENDBRANCH  11  14
ENDBRANCH   9  10
ENDBRANCH   3   4
ENDBRANCH   2   3
TORSDOF 4
ENDMDL
MODEL      151
REMARK 921   NORMALIZED FREE ENERGY PREDICTED BY IDOCK:   -3.88 KCAL/MOL
REMARK 922        TOTAL FREE ENERGY PREDICTED BY IDOCK:   -5.31 KCAL/MOL
REMARK 923 INTER-LIGAND FREE ENERGY PREDICTED BY IDOCK:   -4.78 KCAL/MOL
REMARK 924 INTRA-LIGAND FREE ENERGY PREDICTED BY IDOCK:   -0.53 KCAL/MOL
REMARK 927      BINDING AFFINITY PREDICTED BY RF-SCORE:    0.00 PKD
ROOT
HETATM    1  C   UNL     1      -5.705  12.550  67.215  1.00  0.00    -0.084 C  
HETATM    2  C   UNL     1      -6.733  12.072  68.230  1.00  0.00    -0.061 C  
ENDROOT
BRANCH   2   3
HETATM    3  C   UNL     1      -8.102  11.837  67.571  1.00  0.00    -0.152 C  
BRANCH   3   4
HETATM    4  N   UNL     1      -9.233  12.400  68.343  1.00  0.00    -0.180 NA 
HETATM    5  C   UNL     1      -9.727  13.676  67.775  1.00  0.00    -0.225 C  
HETATM    6  C   UNL     1     -10.383  13.534  66.397  1.00  0.00    -0.289 C  
HETATM    7  C   UNL     1     -11.534  12.536  66.437  1.00  0.00    -0.418 C  
HETATM    8  C   UNL     1     -11.108  11.225  67.083  1.00  0.00    -0.364 C  
HETATM    9  C   UNL     1     -10.399  11.458  68.429  1.00  0.00    -0.195 C  
BRANCH   9  10
HETATM   10  C   UNL     1     -10.030  10.116  69.094  1.00  0.00    -0.210 C  
HETATM   11  N   UNL     1     -10.845   9.068  68.686  1.00  0.00    -0.428 N  
HETATM   12  O   UNL     1      -9.093  10.013  69.881  1.00  0.00    -0.213 OA 
HETATM   13  H   UNL     1     -11.628   9.266  68.063  1.00  0.00     0.000 HD 
BRANCH  11  14
HETATM   14  C   UNL     1     -10.626   7.733  69.105  1.00  0.00    -0.183 A  
HETATM   15  C   UNL     1     -11.270   7.255  70.268  1.00  0.00    -0.287 A  
HETATM   16  C   UNL     1     -12.051   8.123  71.218  1.00  0.00    -0.313 C  
HETATM   17  C   UNL     1     -11.075   5.916  70.655  1.00  0.00    -0.335 A  
HETATM   18  C   UNL     1     -10.284   5.056  69.900  1.00  0.00    -0.340 A  
HETATM   19  C   UNL     1      -9.666   5.521  68.747  1.00  0.00    -0.190 A  
HETATM   20  C   UNL     1      -9.833   6.855  68.328  1.00  0.00    -0.141 A  
HETATM   21  C   UNL     1      -9.174   7.265  67.037  1.00  0.00    -0.170 C  
ENDBRANCH  11  14
ENDBRANCH   9  10
ENDBRANCH   3   4
ENDBRANCH   2   3
TORSDOF 4
ENDMDL
MODEL      152
REMARK 921   NORMALIZED FREE ENERGY PREDICTED BY IDOCK:   -3.87 KCAL/MOL
REMARK 922        TOTAL FREE ENERGY PREDICTED BY IDOCK:   -5.31 KCAL/MOL
REMARK 923 INTER-LIGAND FREE ENERGY PREDICTED BY IDOCK:   -4.97 KCAL/MOL
REMARK 924 INTRA-LIGAND FREE ENERGY PREDICTED BY IDOCK:   -0.33 KCAL/MOL
REMARK 927      BINDING AFFINITY PREDICTED BY RF-SCORE:    0.00 PKD
ROOT
HETATM    1  C   UNL     1      -6.967  10.351  70.139  1.00  0.00    -0.146 C  
HETATM    2  C   UNL     1      -7.399  10.126  68.697  1.00  0.00    -0.082 C  
ENDROOT
BRANCH   2   3
HETATM    3  C   UNL     1      -8.322   8.902  68.574  1.00  0.00    -0.125 C  
BRANCH   3   4
HETATM    4  N   UNL     1      -8.225   8.219  67.264  1.00  0.00    -0.119 NA 
HETATM    5  C   UNL     1      -8.048   6.754  67.400  1.00  0.00    -0.118 C  
HETATM    6  C   UNL     1      -9.262   6.031  67.994  1.00  0.00    -0.115 C  
HETATM    7  C   UNL     1     -10.517   6.300  67.173  1.00  0.00    -0.327 C  
HETATM    8  C   UNL     1     -10.712   7.791  66.932  1.00  0.00    -0.244 C  
HETATM    9  C   UNL     1      -9.430   8.454  66.400  1.00  0.00    -0.227 C  
BRANCH   9  10
HETATM   10  C   UNL     1      -9.668   9.950  66.107  1.00  0.00    -0.236 C  
HETATM   11  N   UNL     1     -10.982  10.342  66.324  1.00  0.00     0.049 N  
HETATM   12  O   UNL     1      -8.763  10.696  65.741  1.00  0.00    -0.170 OA 
HETATM   13  H   UNL     1     -11.670   9.635  66.582  1.00  0.00     0.000 HD 
BRANCH  11  14
HETATM   14  C   UNL     1     -11.400  11.690  66.201  1.00  0.00    -0.209 A  
HETATM   15  C   UNL     1     -11.607  12.239  64.916  1.00  0.00    -0.395 A  
HETATM   16  C   UNL     1     -11.242  11.543  63.632  1.00  0.00    -0.451 C  
HETATM   17  C   UNL     1     -12.057  13.567  64.805  1.00  0.00    -0.442 A  
HETATM   18  C   UNL     1     -12.323  14.334  65.936  1.00  0.00    -0.420 A  
HETATM   19  C   UNL     1     -12.137  13.788  67.199  1.00  0.00    -0.416 A  
HETATM   20  C   UNL     1     -11.685  12.464  67.352  1.00  0.00    -0.417 A  
HETATM   21  C   UNL     1     -11.561  11.929  68.755  1.00  0.00    -0.366 C  
ENDBRANCH  11  14
ENDBRANCH   9  10
ENDBRANCH   3   4
ENDBRANCH   2   3
TORSDOF 4
ENDMDL
MODEL      153
REMARK 921   NORMALIZED FREE ENERGY PREDICTED BY IDOCK:   -3.87 KCAL/MOL
REMARK 922        TOTAL FREE ENERGY PREDICTED BY IDOCK:   -5.30 KCAL/MOL
REMARK 923 INTER-LIGAND FREE ENERGY PREDICTED BY IDOCK:   -4.57 KCAL/MOL
REMARK 924 INTRA-LIGAND FREE ENERGY PREDICTED BY IDOCK:   -0.73 KCAL/MOL
REMARK 927      BINDING AFFINITY PREDICTED BY RF-SCORE:    0.00 PKD
ROOT
HETATM    1  C   UNL     1      -9.362  10.213  64.260  1.00  0.00    -0.349 C  
HETATM    2  C   UNL     1      -8.339   9.213  64.779  1.00  0.00    -0.176 C  
ENDROOT
BRANCH   2   3
HETATM    3  C   UNL     1      -8.541   8.933  66.277  1.00  0.00    -0.133 C  
BRANCH   3   4
HETATM    4  N   UNL     1      -8.408   7.502  66.633  1.00  0.00    -0.123 NA 
HETATM    5  C   UNL     1      -7.102   6.934  66.221  1.00  0.00    -0.074 C  
HETATM    6  C   UNL     1      -5.902   7.514  66.979  1.00  0.00    -0.039 C  
HETATM    7  C   UNL     1      -6.064   7.335  68.483  1.00  0.00    -0.027 C  
HETATM    8  C   UNL     1      -7.423   7.831  68.957  1.00  0.00    -0.095 C  
HETATM    9  C   UNL     1      -8.567   7.256  68.106  1.00  0.00    -0.122 C  
BRANCH   9  10
HETATM   10  C   UNL     1      -9.937   7.723  68.640  1.00  0.00    -0.182 C  
HETATM   11  N   UNL     1      -9.833   8.518  69.774  1.00  0.00    -0.183 N  
HETATM   12  O   UNL     1     -10.992   7.424  68.085  1.00  0.00    -0.087 OA 
HETATM   13  H   UNL     1      -8.913   8.669  70.186  1.00  0.00     0.000 HD 
BRANCH  11  14
HETATM   14  C   UNL     1     -10.961   9.126  70.377  1.00  0.00    -0.248 A  
HETATM   15  C   UNL     1     -11.643   8.452  71.415  1.00  0.00    -0.332 A  
HETATM   16  C   UNL     1     -11.366   7.029  71.822  1.00  0.00    -0.291 C  
HETATM   17  C   UNL     1     -12.739   9.081  72.033  1.00  0.00    -0.467 A  
HETATM   18  C   UNL     1     -13.143  10.358  71.656  1.00  0.00    -0.553 A  
HETATM   19  C   UNL     1     -12.461  11.028  70.648  1.00  0.00    -0.465 A  
HETATM   20  C   UNL     1     -11.361  10.432  70.004  1.00  0.00    -0.384 A  
HETATM   21  C   UNL     1     -10.643  11.246  68.960  1.00  0.00    -0.241 C  
ENDBRANCH  11  14
ENDBRANCH   9  10
ENDBRANCH   3   4
ENDBRANCH   2   3
TORSDOF 4
ENDMDL
MODEL      154
REMARK 921   NORMALIZED FREE ENERGY PREDICTED BY IDOCK:   -3.86 KCAL/MOL
REMARK 922        TOTAL FREE ENERGY PREDICTED BY IDOCK:   -5.29 KCAL/MOL
REMARK 923 INTER-LIGAND FREE ENERGY PREDICTED BY IDOCK:   -4.67 KCAL/MOL
REMARK 924 INTRA-LIGAND FREE ENERGY PREDICTED BY IDOCK:   -0.62 KCAL/MOL
REMARK 927      BINDING AFFINITY PREDICTED BY RF-SCORE:    0.00 PKD
ROOT
HETATM    1  C   UNL     1     -10.347   6.804  67.393  1.00  0.00    -0.286 C  
HETATM    2  C   UNL     1     -10.910   8.162  67.787  1.00  0.00    -0.072 C  
ENDROOT
BRANCH   2   3
HETATM    3  C   UNL     1      -9.813   9.238  67.806  1.00  0.00    -0.171 C  
BRANCH   3   4
HETATM    4  N   UNL     1      -9.911  10.162  68.959  1.00  0.00    -0.194 NA 
HETATM    5  C   UNL     1      -9.683   9.478  70.254  1.00  0.00    -0.263 C  
HETATM    6  C   UNL     1      -8.253   8.960  70.443  1.00  0.00    -0.146 C  
HETATM    7  C   UNL     1      -7.237  10.086  70.296  1.00  0.00    -0.155 C  
HETATM    8  C   UNL     1      -7.469  10.878  69.017  1.00  0.00    -0.124 C  
HETATM    9  C   UNL     1      -8.940  11.303  68.870  1.00  0.00    -0.045 C  
BRANCH   9  10
HETATM   10  C   UNL     1      -9.140  12.154  67.599  1.00  0.00    -0.181 C  
HETATM   11  N   UNL     1     -10.128  13.119  67.743  1.00  0.00    -0.221 N  
HETATM   12  O   UNL     1      -8.463  11.986  66.586  1.00  0.00    -0.180 OA 
HETATM   13  H   UNL     1     -10.666  13.147  68.609  1.00  0.00     0.000 HD 
BRANCH  11  14
HETATM   14  C   UNL     1     -10.414  14.067  66.730  1.00  0.00    -0.277 A  
HETATM   15  C   UNL     1     -11.379  13.761  65.745  1.00  0.00    -0.309 A  
HETATM   16  C   UNL     1     -12.018  12.407  65.580  1.00  0.00    -0.453 C  
HETATM   17  C   UNL     1     -11.683  14.723  64.765  1.00  0.00    -0.422 A  
HETATM   18  C   UNL     1     -11.069  15.972  64.766  1.00  0.00    -0.378 A  
HETATM   19  C   UNL     1     -10.133  16.279  65.746  1.00  0.00    -0.373 A  
HETATM   20  C   UNL     1      -9.799  15.342  66.742  1.00  0.00    -0.246 A  
HETATM   21  C   UNL     1      -8.816  15.772  67.799  1.00  0.00    -0.173 C  
ENDBRANCH  11  14
ENDBRANCH   9  10
ENDBRANCH   3   4
ENDBRANCH   2   3
TORSDOF 4
ENDMDL
MODEL      155
REMARK 921   NORMALIZED FREE ENERGY PREDICTED BY IDOCK:   -3.85 KCAL/MOL
REMARK 922        TOTAL FREE ENERGY PREDICTED BY IDOCK:   -5.28 KCAL/MOL
REMARK 923 INTER-LIGAND FREE ENERGY PREDICTED BY IDOCK:   -4.69 KCAL/MOL
REMARK 924 INTRA-LIGAND FREE ENERGY PREDICTED BY IDOCK:   -0.59 KCAL/MOL
REMARK 927      BINDING AFFINITY PREDICTED BY RF-SCORE:    0.00 PKD
ROOT
HETATM    1  C   UNL     1     -10.666   6.816  72.478  1.00  0.00    -0.261 C  
HETATM    2  C   UNL     1      -9.959   6.088  71.344  1.00  0.00    -0.223 C  
ENDROOT
BRANCH   2   3
HETATM    3  C   UNL     1      -9.996   6.908  70.044  1.00  0.00    -0.180 C  
BRANCH   3   4
HETATM    4  N   UNL     1      -8.853   6.637  69.143  1.00  0.00    -0.129 NA 
HETATM    5  C   UNL     1      -8.606   5.187  68.962  1.00  0.00    -0.089 C  
HETATM    6  C   UNL     1      -9.723   4.452  68.212  1.00  0.00    -0.171 C  
HETATM    7  C   UNL     1      -9.975   5.082  66.848  1.00  0.00    -0.238 C  
HETATM    8  C   UNL     1     -10.160   6.589  66.959  1.00  0.00    -0.236 C  
HETATM    9  C   UNL     1      -9.035   7.241  67.781  1.00  0.00    -0.126 C  
BRANCH   9  10
HETATM   10  C   UNL     1      -9.209   8.773  67.830  1.00  0.00    -0.139 C  
HETATM   11  N   UNL     1     -10.516   9.178  67.589  1.00  0.00    -0.255 N  
HETATM   12  O   UNL     1      -8.274   9.530  68.082  1.00  0.00    -0.112 OA 
HETATM   13  H   UNL     1     -11.211   8.474  67.342  1.00  0.00     0.000 HD 
BRANCH  11  14
HETATM   14  C   UNL     1     -10.916  10.534  67.673  1.00  0.00    -0.314 A  
HETATM   15  C   UNL     1     -10.701  11.392  66.572  1.00  0.00    -0.325 A  
HETATM   16  C   UNL     1      -9.904  11.016  65.351  1.00  0.00    -0.301 C  
HETATM   17  C   UNL     1     -11.136  12.728  66.652  1.00  0.00    -0.313 A  
HETATM   18  C   UNL     1     -11.792  13.205  67.783  1.00  0.00    -0.392 A  
HETATM   19  C   UNL     1     -12.019  12.356  68.859  1.00  0.00    -0.289 A  
HETATM   20  C   UNL     1     -11.596  11.014  68.818  1.00  0.00    -0.386 A  
HETATM   21  C   UNL     1     -11.929  10.145  70.003  1.00  0.00    -0.210 C  
ENDBRANCH  11  14
ENDBRANCH   9  10
ENDBRANCH   3   4
ENDBRANCH   2   3
TORSDOF 4
ENDMDL
MODEL      156
REMARK 921   NORMALIZED FREE ENERGY PREDICTED BY IDOCK:   -3.84 KCAL/MOL
REMARK 922        TOTAL FREE ENERGY PREDICTED BY IDOCK:   -5.26 KCAL/MOL
REMARK 923 INTER-LIGAND FREE ENERGY PREDICTED BY IDOCK:   -5.26 KCAL/MOL
REMARK 924 INTRA-LIGAND FREE ENERGY PREDICTED BY IDOCK:   -0.00 KCAL/MOL
REMARK 927      BINDING AFFINITY PREDICTED BY RF-SCORE:    0.00 PKD
ROOT
HETATM    1  C   UNL     1      -5.917   9.062  72.216  1.00  0.00    -0.042 C  
HETATM    2  C   UNL     1      -6.889   8.699  71.104  1.00  0.00    -0.071 C  
ENDROOT
BRANCH   2   3
HETATM    3  C   UNL     1      -8.348   8.870  71.559  1.00  0.00    -0.098 C  
BRANCH   3   4
HETATM    4  N   UNL     1      -9.303   8.018  70.812  1.00  0.00    -0.156 NA 
HETATM    5  C   UNL     1      -9.668   6.790  71.557  1.00  0.00    -0.163 C  
HETATM    6  C   UNL     1     -10.478   7.051  72.832  1.00  0.00    -0.283 C  
HETATM    7  C   UNL     1     -11.747   7.836  72.526  1.00  0.00    -0.393 C  
HETATM    8  C   UNL     1     -11.444   9.075  71.693  1.00  0.00    -0.431 C  
HETATM    9  C   UNL     1     -10.574   8.739  70.470  1.00  0.00    -0.215 C  
BRANCH   9  10
HETATM   10  C   UNL     1     -10.331   9.995  69.609  1.00  0.00    -0.247 C  
HETATM   11  N   UNL     1     -11.502  10.534  69.093  1.00  0.00    -0.360 N  
HETATM   12  O   UNL     1      -9.206  10.461  69.435  1.00  0.00    -0.201 OA 
HETATM   13  H   UNL     1     -12.382  10.045  69.257  1.00  0.00     0.000 HD 
BRANCH  11  14
HETATM   14  C   UNL     1     -11.517  11.738  68.348  1.00  0.00    -0.294 A  
HETATM   15  C   UNL     1     -11.817  12.955  69.000  1.00  0.00    -0.352 A  
HETATM   16  C   UNL     1     -12.303  13.054  70.421  1.00  0.00    -0.351 C  
HETATM   17  C   UNL     1     -11.793  14.151  68.258  1.00  0.00    -0.391 A  
HETATM   18  C   UNL     1     -11.458  14.154  66.908  1.00  0.00    -0.373 A  
HETATM   19  C   UNL     1     -11.146  12.960  66.271  1.00  0.00    -0.317 A  
HETATM   20  C   UNL     1     -11.161  11.742  66.978  1.00  0.00    -0.382 A  
HETATM   21  C   UNL     1     -10.758  10.499  66.228  1.00  0.00    -0.139 C  
ENDBRANCH  11  14
ENDBRANCH   9  10
ENDBRANCH   3   4
ENDBRANCH   2   3
TORSDOF 4
ENDMDL
MODEL      157
REMARK 921   NORMALIZED FREE ENERGY PREDICTED BY IDOCK:   -3.83 KCAL/MOL
REMARK 922        TOTAL FREE ENERGY PREDICTED BY IDOCK:   -5.25 KCAL/MOL
REMARK 923 INTER-LIGAND FREE ENERGY PREDICTED BY IDOCK:   -4.52 KCAL/MOL
REMARK 924 INTRA-LIGAND FREE ENERGY PREDICTED BY IDOCK:   -0.73 KCAL/MOL
REMARK 927      BINDING AFFINITY PREDICTED BY RF-SCORE:    0.00 PKD
ROOT
HETATM    1  C   UNL     1      -6.908  10.163  70.486  1.00  0.00    -0.084 C  
HETATM    2  C   UNL     1      -7.086   9.884  69.000  1.00  0.00    -0.068 C  
ENDROOT
BRANCH   2   3
HETATM    3  C   UNL     1      -8.158   8.810  68.757  1.00  0.00    -0.115 C  
BRANCH   3   4
HETATM    4  N   UNL     1      -7.967   8.059  67.496  1.00  0.00    -0.121 NA 
HETATM    5  C   UNL     1      -8.042   6.592  67.692  1.00  0.00    -0.118 C  
HETATM    6  C   UNL     1      -9.432   6.087  68.099  1.00  0.00    -0.115 C  
HETATM    7  C   UNL     1     -10.486   6.502  67.081  1.00  0.00    -0.354 C  
HETATM    8  C   UNL     1     -10.408   7.992  66.778  1.00  0.00    -0.360 C  
HETATM    9  C   UNL     1      -8.971   8.430  66.444  1.00  0.00    -0.171 C  
BRANCH   9  10
HETATM   10  C   UNL     1      -8.925   9.929  66.082  1.00  0.00    -0.150 C  
HETATM   11  N   UNL     1     -10.157  10.556  66.215  1.00  0.00    -0.224 N  
HETATM   12  O   UNL     1      -7.885  10.486  65.736  1.00  0.00    -0.149 OA 
HETATM   13  H   UNL     1     -10.971   9.995  66.463  1.00  0.00     0.000 HD 
BRANCH  11  14
HETATM   14  C   UNL     1     -10.321  11.949  66.019  1.00  0.00    -0.233 A  
HETATM   15  C   UNL     1     -10.211  12.825  67.123  1.00  0.00    -0.235 A  
HETATM   16  C   UNL     1     -10.102  12.369  68.554  1.00  0.00    -0.190 C  
HETATM   17  C   UNL     1     -10.339  14.210  66.911  1.00  0.00    -0.269 A  
HETATM   18  C   UNL     1     -10.548  14.727  65.636  1.00  0.00    -0.353 A  
HETATM   19  C   UNL     1     -10.638  13.868  64.549  1.00  0.00    -0.375 A  
HETATM   20  C   UNL     1     -10.518  12.476  64.720  1.00  0.00    -0.336 A  
HETATM   21  C   UNL     1     -10.573  11.617  63.484  1.00  0.00    -0.496 C  
ENDBRANCH  11  14
ENDBRANCH   9  10
ENDBRANCH   3   4
ENDBRANCH   2   3
TORSDOF 4
ENDMDL
MODEL      158
REMARK 921   NORMALIZED FREE ENERGY PREDICTED BY IDOCK:   -3.82 KCAL/MOL
REMARK 922        TOTAL FREE ENERGY PREDICTED BY IDOCK:   -5.24 KCAL/MOL
REMARK 923 INTER-LIGAND FREE ENERGY PREDICTED BY IDOCK:   -5.23 KCAL/MOL
REMARK 924 INTRA-LIGAND FREE ENERGY PREDICTED BY IDOCK:   -0.01 KCAL/MOL
REMARK 927      BINDING AFFINITY PREDICTED BY RF-SCORE:    0.00 PKD
ROOT
HETATM    1  C   UNL     1      -7.031   6.752  65.446  1.00  0.00    -0.059 C  
HETATM    2  C   UNL     1      -6.947   6.423  66.929  1.00  0.00    -0.068 C  
ENDROOT
BRANCH   2   3
HETATM    3  C   UNL     1      -8.036   7.158  67.728  1.00  0.00    -0.115 C  
BRANCH   3   4
HETATM    4  N   UNL     1      -9.409   6.884  67.245  1.00  0.00    -0.132 NA 
HETATM    5  C   UNL     1      -9.780   5.455  67.372  1.00  0.00    -0.140 C  
HETATM    6  C   UNL     1      -9.900   4.968  68.821  1.00  0.00    -0.236 C  
HETATM    7  C   UNL     1     -10.904   5.808  69.601  1.00  0.00    -0.418 C  
HETATM    8  C   UNL     1     -10.621   7.296  69.445  1.00  0.00    -0.238 C  
HETATM    9  C   UNL     1     -10.448   7.690  67.968  1.00  0.00    -0.189 C  
BRANCH   9  10
HETATM   10  C   UNL     1     -10.222   9.210  67.830  1.00  0.00    -0.224 C  
HETATM   11  N   UNL     1     -11.408   9.930  67.757  1.00  0.00    -0.447 N  
HETATM   12  O   UNL     1      -9.097   9.705  67.811  1.00  0.00    -0.125 OA 
HETATM   13  H   UNL     1     -12.291   9.421  67.734  1.00  0.00     0.000 HD 
BRANCH  11  14
HETATM   14  C   UNL     1     -11.433  11.345  67.716  1.00  0.00    -0.281 A  
HETATM   15  C   UNL     1     -11.302  12.007  66.475  1.00  0.00    -0.413 A  
HETATM   16  C   UNL     1     -10.955  11.316  65.183  1.00  0.00    -0.216 C  
HETATM   17  C   UNL     1     -11.365  13.412  66.440  1.00  0.00    -0.338 A  
HETATM   18  C   UNL     1     -11.578  14.152  67.599  1.00  0.00    -0.394 A  
HETATM   19  C   UNL     1     -11.725  13.500  68.816  1.00  0.00    -0.373 A  
HETATM   20  C   UNL     1     -11.665  12.096  68.893  1.00  0.00    -0.381 A  
HETATM   21  C   UNL     1     -11.888  11.464  70.242  1.00  0.00    -0.438 C  
ENDBRANCH  11  14
ENDBRANCH   9  10
ENDBRANCH   3   4
ENDBRANCH   2   3
TORSDOF 4
ENDMDL
MODEL      159
REMARK 921   NORMALIZED FREE ENERGY PREDICTED BY IDOCK:   -3.82 KCAL/MOL
REMARK 922        TOTAL FREE ENERGY PREDICTED BY IDOCK:   -5.24 KCAL/MOL
REMARK 923 INTER-LIGAND FREE ENERGY PREDICTED BY IDOCK:   -4.59 KCAL/MOL
REMARK 924 INTRA-LIGAND FREE ENERGY PREDICTED BY IDOCK:   -0.64 KCAL/MOL
REMARK 927      BINDING AFFINITY PREDICTED BY RF-SCORE:    0.00 PKD
ROOT
HETATM    1  C   UNL     1     -12.942  11.589  71.464  1.00  0.00    -0.485 C  
HETATM    2  C   UNL     1     -12.371  10.368  70.757  1.00  0.00    -0.463 C  
ENDROOT
BRANCH   2   3
HETATM    3  C   UNL     1     -11.097  10.720  69.972  1.00  0.00    -0.255 C  
BRANCH   3   4
HETATM    4  N   UNL     1     -11.320  10.855  68.514  1.00  0.00    -0.276 NA 
HETATM    5  C   UNL     1     -11.879  12.178  68.147  1.00  0.00    -0.299 C  
HETATM    6  C   UNL     1     -10.919  13.349  68.384  1.00  0.00    -0.291 C  
HETATM    7  C   UNL     1      -9.608  13.144  67.635  1.00  0.00    -0.210 C  
HETATM    8  C   UNL     1      -9.021  11.767  67.913  1.00  0.00    -0.180 C  
HETATM    9  C   UNL     1     -10.064  10.654  67.717  1.00  0.00    -0.174 C  
BRANCH   9  10
HETATM   10  C   UNL     1      -9.434   9.265  67.944  1.00  0.00    -0.137 C  
HETATM   11  N   UNL     1     -10.099   8.250  67.268  1.00  0.00    -0.221 N  
HETATM   12  O   UNL     1      -8.432   9.107  68.639  1.00  0.00    -0.124 OA 
HETATM   13  H   UNL     1     -10.950   8.478  66.754  1.00  0.00     0.000 HD 
BRANCH  11  14
HETATM   14  C   UNL     1      -9.637   6.912  67.267  1.00  0.00    -0.142 A  
HETATM   15  C   UNL     1     -10.150   5.998  68.214  1.00  0.00    -0.194 A  
HETATM   16  C   UNL     1     -11.041   6.386  69.364  1.00  0.00    -0.450 C  
HETATM   17  C   UNL     1      -9.712   4.662  68.181  1.00  0.00    -0.197 A  
HETATM   18  C   UNL     1      -8.805   4.225  67.220  1.00  0.00    -0.121 A  
HETATM   19  C   UNL     1      -8.315   5.119  66.277  1.00  0.00    -0.113 A  
HETATM   20  C   UNL     1      -8.726   6.465  66.279  1.00  0.00    -0.146 A  
HETATM   21  C   UNL     1      -8.190   7.357  65.190  1.00  0.00    -0.115 C  
ENDBRANCH  11  14
ENDBRANCH   9  10
ENDBRANCH   3   4
ENDBRANCH   2   3
TORSDOF 4
ENDMDL
MODEL      160
REMARK 921   NORMALIZED FREE ENERGY PREDICTED BY IDOCK:   -3.82 KCAL/MOL
REMARK 922        TOTAL FREE ENERGY PREDICTED BY IDOCK:   -5.24 KCAL/MOL
REMARK 923 INTER-LIGAND FREE ENERGY PREDICTED BY IDOCK:   -4.48 KCAL/MOL
REMARK 924 INTRA-LIGAND FREE ENERGY PREDICTED BY IDOCK:   -0.76 KCAL/MOL
REMARK 927      BINDING AFFINITY PREDICTED BY RF-SCORE:    0.00 PKD
ROOT
HETATM    1  C   UNL     1      -8.730   4.644  64.943  1.00  0.00    -0.145 C  
HETATM    2  C   UNL     1      -7.434   5.442  64.974  1.00  0.00    -0.073 C  
ENDROOT
BRANCH   2   3
HETATM    3  C   UNL     1      -7.630   6.800  65.667  1.00  0.00    -0.090 C  
BRANCH   3   4
HETATM    4  N   UNL     1      -8.071   6.685  67.076  1.00  0.00    -0.112 NA 
HETATM    5  C   UNL     1      -7.043   6.060  67.943  1.00  0.00    -0.074 C  
HETATM    6  C   UNL     1      -5.779   6.908  68.123  1.00  0.00    -0.020 C  
HETATM    7  C   UNL     1      -6.117   8.286  68.676  1.00  0.00    -0.045 C  
HETATM    8  C   UNL     1      -7.225   8.950  67.871  1.00  0.00    -0.083 C  
HETATM    9  C   UNL     1      -8.429   8.012  67.680  1.00  0.00    -0.131 C  
BRANCH   9  10
HETATM   10  C   UNL     1      -9.563   8.725  66.914  1.00  0.00    -0.190 C  
HETATM   11  N   UNL     1      -9.264  10.046  66.609  1.00  0.00    -0.147 N  
HETATM   12  O   UNL     1     -10.603   8.149  66.601  1.00  0.00    -0.272 OA 
HETATM   13  H   UNL     1      -8.391  10.445  66.955  1.00  0.00     0.000 HD 
BRANCH  11  14
HETATM   14  C   UNL     1     -10.127  10.858  65.834  1.00  0.00    -0.252 A  
HETATM   15  C   UNL     1     -10.097  10.758  64.425  1.00  0.00    -0.419 A  
HETATM   16  C   UNL     1      -9.075   9.964  63.657  1.00  0.00    -0.294 C  
HETATM   17  C   UNL     1     -10.985  11.542  63.666  1.00  0.00    -0.482 A  
HETATM   18  C   UNL     1     -11.901  12.391  64.279  1.00  0.00    -0.473 A  
HETATM   19  C   UNL     1     -11.942  12.476  65.665  1.00  0.00    -0.492 A  
HETATM   20  C   UNL     1     -11.069  11.710  66.460  1.00  0.00    -0.357 A  
HETATM   21  C   UNL     1     -11.214  11.819  67.955  1.00  0.00    -0.324 C  
ENDBRANCH  11  14
ENDBRANCH   9  10
ENDBRANCH   3   4
ENDBRANCH   2   3
TORSDOF 4
ENDMDL
MODEL      161
REMARK 921   NORMALIZED FREE ENERGY PREDICTED BY IDOCK:   -3.82 KCAL/MOL
REMARK 922        TOTAL FREE ENERGY PREDICTED BY IDOCK:   -5.23 KCAL/MOL
REMARK 923 INTER-LIGAND FREE ENERGY PREDICTED BY IDOCK:   -4.41 KCAL/MOL
REMARK 924 INTRA-LIGAND FREE ENERGY PREDICTED BY IDOCK:   -0.82 KCAL/MOL
REMARK 927      BINDING AFFINITY PREDICTED BY RF-SCORE:    0.00 PKD
ROOT
HETATM    1  C   UNL     1      -8.038   5.592  64.829  1.00  0.00    -0.128 C  
HETATM    2  C   UNL     1      -9.111   5.849  65.878  1.00  0.00    -0.135 C  
ENDROOT
BRANCH   2   3
HETATM    3  C   UNL     1      -8.516   5.862  67.295  1.00  0.00    -0.103 C  
BRANCH   3   4
HETATM    4  N   UNL     1      -8.979   4.738  68.141  1.00  0.00    -0.108 NA 
HETATM    5  C   UNL     1      -7.988   3.639  68.214  1.00  0.00    -0.071 C  
HETATM    6  C   UNL     1      -6.694   4.012  68.945  1.00  0.00    -0.046 C  
HETATM    7  C   UNL     1      -6.985   4.507  70.357  1.00  0.00    -0.041 C  
HETATM    8  C   UNL     1      -8.056   5.589  70.355  1.00  0.00    -0.103 C  
HETATM    9  C   UNL     1      -9.293   5.163  69.546  1.00  0.00    -0.130 C  
BRANCH   9  10
HETATM   10  C   UNL     1     -10.388   6.248  69.607  1.00  0.00    -0.215 C  
HETATM   11  N   UNL     1      -9.948   7.429  70.190  1.00  0.00    -0.184 N  
HETATM   12  O   UNL     1     -11.517   6.064  69.157  1.00  0.00    -0.316 OA 
HETATM   13  H   UNL     1      -9.005   7.466  70.576  1.00  0.00     0.000 HD 
BRANCH  11  14
HETATM   14  C   UNL     1     -10.764   8.584  70.268  1.00  0.00    -0.230 A  
HETATM   15  C   UNL     1     -11.391   8.912  71.491  1.00  0.00    -0.395 A  
HETATM   16  C   UNL     1     -11.402   8.016  72.701  1.00  0.00    -0.469 C  
HETATM   17  C   UNL     1     -12.169  10.081  71.568  1.00  0.00    -0.496 A  
HETATM   18  C   UNL     1     -12.310  10.926  70.471  1.00  0.00    -0.463 A  
HETATM   19  C   UNL     1     -11.679  10.613  69.274  1.00  0.00    -0.336 A  
HETATM   20  C   UNL     1     -10.894   9.451  69.156  1.00  0.00    -0.176 A  
HETATM   21  C   UNL     1     -10.199   9.212  67.841  1.00  0.00    -0.266 C  
ENDBRANCH  11  14
ENDBRANCH   9  10
ENDBRANCH   3   4
ENDBRANCH   2   3
TORSDOF 4
ENDMDL
MODEL      162
REMARK 921   NORMALIZED FREE ENERGY PREDICTED BY IDOCK:   -3.80 KCAL/MOL
REMARK 922        TOTAL FREE ENERGY PREDICTED BY IDOCK:   -5.22 KCAL/MOL
REMARK 923 INTER-LIGAND FREE ENERGY PREDICTED BY IDOCK:   -5.29 KCAL/MOL
REMARK 924 INTRA-LIGAND FREE ENERGY PREDICTED BY IDOCK:    0.07 KCAL/MOL
REMARK 927      BINDING AFFINITY PREDICTED BY RF-SCORE:    0.00 PKD
ROOT
HETATM    1  C   UNL     1      -7.441  12.888  67.584  1.00  0.00    -0.148 C  
HETATM    2  C   UNL     1      -8.906  12.744  67.971  1.00  0.00    -0.195 C  
ENDROOT
BRANCH   2   3
HETATM    3  C   UNL     1      -9.230  11.308  68.413  1.00  0.00    -0.178 C  
BRANCH   3   4
HETATM    4  N   UNL     1     -10.476  10.774  67.817  1.00  0.00    -0.195 NA 
HETATM    5  C   UNL     1     -10.884  11.513  66.600  1.00  0.00    -0.287 C  
HETATM    6  C   UNL     1      -9.924  11.345  65.416  1.00  0.00    -0.289 C  
HETATM    7  C   UNL     1      -9.743   9.875  65.061  1.00  0.00    -0.359 C  
HETATM    8  C   UNL     1      -9.396   9.047  66.291  1.00  0.00    -0.284 C  
HETATM    9  C   UNL     1     -10.365   9.322  67.453  1.00  0.00    -0.263 C  
BRANCH   9  10
HETATM   10  C   UNL     1     -10.033   8.429  68.667  1.00  0.00    -0.184 C  
HETATM   11  N   UNL     1     -11.085   7.600  69.033  1.00  0.00    -0.424 N  
HETATM   12  O   UNL     1      -8.934   8.455  69.216  1.00  0.00    -0.147 OA 
HETATM   13  H   UNL     1     -11.975   7.687  68.542  1.00  0.00     0.000 HD 
BRANCH  11  14
HETATM   14  C   UNL     1     -10.966   6.637  70.065  1.00  0.00    -0.311 A  
HETATM   15  C   UNL     1     -10.283   5.427  69.811  1.00  0.00    -0.348 A  
HETATM   16  C   UNL     1      -9.813   4.993  68.448  1.00  0.00    -0.209 C  
HETATM   17  C   UNL     1     -10.138   4.493  70.853  1.00  0.00    -0.228 A  
HETATM   18  C   UNL     1     -10.632   4.753  72.128  1.00  0.00    -0.204 A  
HETATM   19  C   UNL     1     -11.287   5.951  72.382  1.00  0.00    -0.358 A  
HETATM   20  C   UNL     1     -11.455   6.910  71.365  1.00  0.00    -0.321 A  
HETATM   21  C   UNL     1     -12.128   8.205  71.736  1.00  0.00    -0.357 C  
ENDBRANCH  11  14
ENDBRANCH   9  10
ENDBRANCH   3   4
ENDBRANCH   2   3
TORSDOF 4
ENDMDL
MODEL      163
REMARK 921   NORMALIZED FREE ENERGY PREDICTED BY IDOCK:   -3.80 KCAL/MOL
REMARK 922        TOTAL FREE ENERGY PREDICTED BY IDOCK:   -5.21 KCAL/MOL
REMARK 923 INTER-LIGAND FREE ENERGY PREDICTED BY IDOCK:   -4.61 KCAL/MOL
REMARK 924 INTRA-LIGAND FREE ENERGY PREDICTED BY IDOCK:   -0.60 KCAL/MOL
REMARK 927      BINDING AFFINITY PREDICTED BY RF-SCORE:    0.00 PKD
ROOT
HETATM    1  C   UNL     1     -11.987  14.481  70.838  1.00  0.00    -0.389 C  
HETATM    2  C   UNL     1     -12.025  14.507  69.317  1.00  0.00    -0.355 C  
ENDROOT
BRANCH   2   3
HETATM    3  C   UNL     1     -10.742  13.909  68.715  1.00  0.00    -0.262 C  
BRANCH   3   4
HETATM    4  N   UNL     1     -10.685  14.000  67.238  1.00  0.00    -0.276 NA 
HETATM    5  C   UNL     1     -10.936  15.374  66.744  1.00  0.00    -0.282 C  
HETATM    6  C   UNL     1      -9.844  16.382  67.120  1.00  0.00    -0.249 C  
HETATM    7  C   UNL     1      -8.479  15.922  66.622  1.00  0.00    -0.322 C  
HETATM    8  C   UNL     1      -8.195  14.484  67.034  1.00  0.00    -0.164 C  
HETATM    9  C   UNL     1      -9.365  13.550  66.682  1.00  0.00    -0.245 C  
BRANCH   9  10
HETATM   10  C   UNL     1      -9.032  12.090  67.052  1.00  0.00    -0.198 C  
HETATM   11  N   UNL     1     -10.030  11.197  66.686  1.00  0.00    -0.202 N  
HETATM   12  O   UNL     1      -7.974  11.778  67.595  1.00  0.00    -0.127 OA 
HETATM   13  H   UNL     1     -10.892  11.561  66.283  1.00  0.00     0.000 HD 
BRANCH  11  14
HETATM   14  C   UNL     1      -9.891   9.797  66.852  1.00  0.00    -0.201 A  
HETATM   15  C   UNL     1     -10.218   9.209  68.094  1.00  0.00    -0.249 A  
HETATM   16  C   UNL     1     -10.543   9.991  69.339  1.00  0.00    -0.256 C  
HETATM   17  C   UNL     1     -10.112   7.813  68.238  1.00  0.00    -0.221 A  
HETATM   18  C   UNL     1      -9.717   7.008  67.174  1.00  0.00    -0.206 A  
HETATM   19  C   UNL     1      -9.413   7.585  65.948  1.00  0.00     0.093 A  
HETATM   20  C   UNL     1      -9.504   8.978  65.765  1.00  0.00    -0.305 A  
HETATM   21  C   UNL     1      -9.210   9.518  64.390  1.00  0.00    -0.192 C  
ENDBRANCH  11  14
ENDBRANCH   9  10
ENDBRANCH   3   4
ENDBRANCH   2   3
TORSDOF 4
ENDMDL
MODEL      164
REMARK 921   NORMALIZED FREE ENERGY PREDICTED BY IDOCK:   -3.77 KCAL/MOL
REMARK 922        TOTAL FREE ENERGY PREDICTED BY IDOCK:   -5.18 KCAL/MOL
REMARK 923 INTER-LIGAND FREE ENERGY PREDICTED BY IDOCK:   -5.28 KCAL/MOL
REMARK 924 INTRA-LIGAND FREE ENERGY PREDICTED BY IDOCK:    0.09 KCAL/MOL
REMARK 927      BINDING AFFINITY PREDICTED BY RF-SCORE:    0.00 PKD
ROOT
HETATM    1  C   UNL     1     -14.370   7.056  71.317  1.00  0.00    -0.203 C  
HETATM    2  C   UNL     1     -12.961   7.377  71.793  1.00  0.00    -0.365 C  
ENDROOT
BRANCH   2   3
HETATM    3  C   UNL     1     -11.903   6.821  70.826  1.00  0.00    -0.392 C  
BRANCH   3   4
HETATM    4  N   UNL     1     -10.597   6.552  71.470  1.00  0.00    -0.225 NA 
HETATM    5  C   UNL     1     -10.279   5.105  71.523  1.00  0.00    -0.207 C  
HETATM    6  C   UNL     1     -10.039   4.468  70.150  1.00  0.00    -0.220 C  
HETATM    7  C   UNL     1      -8.929   5.189  69.396  1.00  0.00    -0.127 C  
HETATM    8  C   UNL     1      -9.160   6.693  69.374  1.00  0.00    -0.143 C  
HETATM    9  C   UNL     1      -9.458   7.244  70.779  1.00  0.00    -0.164 C  
BRANCH   9  10
HETATM   10  C   UNL     1      -9.630   8.776  70.742  1.00  0.00    -0.208 C  
HETATM   11  N   UNL     1     -10.496   9.200  69.743  1.00  0.00    -0.215 N  
HETATM   12  O   UNL     1      -9.062   9.517  71.542  1.00  0.00    -0.184 OA 
HETATM   13  H   UNL     1     -10.881   8.510  69.100  1.00  0.00     0.000 HD 
BRANCH  11  14
HETATM   14  C   UNL     1     -10.865  10.559  69.588  1.00  0.00    -0.274 A  
HETATM   15  C   UNL     1     -10.304  11.316  68.535  1.00  0.00    -0.217 A  
HETATM   16  C   UNL     1      -9.187  10.832  67.650  1.00  0.00    -0.152 C  
HETATM   17  C   UNL     1     -10.705  12.654  68.367  1.00  0.00    -0.260 A  
HETATM   18  C   UNL     1     -11.657  13.231  69.202  1.00  0.00    -0.370 A  
HETATM   19  C   UNL     1     -12.222  12.481  70.226  1.00  0.00    -0.345 A  
HETATM   20  C   UNL     1     -11.845  11.140  70.429  1.00  0.00    -0.462 A  
HETATM   21  C   UNL     1     -12.544  10.380  71.525  1.00  0.00    -0.544 C  
ENDBRANCH  11  14
ENDBRANCH   9  10
ENDBRANCH   3   4
ENDBRANCH   2   3
TORSDOF 4
ENDMDL
MODEL      165
REMARK 921   NORMALIZED FREE ENERGY PREDICTED BY IDOCK:   -3.77 KCAL/MOL
REMARK 922        TOTAL FREE ENERGY PREDICTED BY IDOCK:   -5.18 KCAL/MOL
REMARK 923 INTER-LIGAND FREE ENERGY PREDICTED BY IDOCK:   -4.60 KCAL/MOL
REMARK 924 INTRA-LIGAND FREE ENERGY PREDICTED BY IDOCK:   -0.58 KCAL/MOL
REMARK 927      BINDING AFFINITY PREDICTED BY RF-SCORE:    0.00 PKD
ROOT
HETATM    1  C   UNL     1      -6.117  18.476  65.343  1.00  0.00    -0.301 C  
HETATM    2  C   UNL     1      -6.094  17.579  66.572  1.00  0.00    -0.248 C  
ENDROOT
BRANCH   2   3
HETATM    3  C   UNL     1      -7.308  16.636  66.600  1.00  0.00    -0.255 C  
BRANCH   3   4
HETATM    4  N   UNL     1      -8.028  16.638  67.894  1.00  0.00    -0.168 NA 
HETATM    5  C   UNL     1      -8.187  18.001  68.452  1.00  0.00    -0.298 C  
HETATM    6  C   UNL     1      -9.108  18.909  67.629  1.00  0.00    -0.312 C  
HETATM    7  C   UNL     1     -10.487  18.283  67.459  1.00  0.00    -0.431 C  
HETATM    8  C   UNL     1     -10.386  16.848  66.959  1.00  0.00    -0.307 C  
HETATM    9  C   UNL     1      -9.394  16.023  67.796  1.00  0.00    -0.211 C  
BRANCH   9  10
HETATM   10  C   UNL     1      -9.352  14.559  67.311  1.00  0.00    -0.210 C  
HETATM   11  N   UNL     1      -9.024  13.663  68.320  1.00  0.00    -0.189 N  
HETATM   12  O   UNL     1      -9.610  14.247  66.150  1.00  0.00    -0.301 OA 
HETATM   13  H   UNL     1      -8.781  14.027  69.241  1.00  0.00     0.000 HD 
BRANCH  11  14
HETATM   14  C   UNL     1      -9.015  12.262  68.114  1.00  0.00    -0.192 A  
HETATM   15  C   UNL     1      -7.840  11.635  67.643  1.00  0.00    -0.135 A  
HETATM   16  C   UNL     1      -6.621  12.378  67.166  1.00  0.00    -0.092 C  
HETATM   17  C   UNL     1      -7.830  10.238  67.478  1.00  0.00    -0.102 A  
HETATM   18  C   UNL     1      -8.946   9.468  67.792  1.00  0.00    -0.126 A  
HETATM   19  C   UNL     1     -10.095  10.082  68.272  1.00  0.00    -0.182 A  
HETATM   20  C   UNL     1     -10.146  11.478  68.449  1.00  0.00    -0.207 A  
HETATM   21  C   UNL     1     -11.410  12.060  69.025  1.00  0.00    -0.331 C  
ENDBRANCH  11  14
ENDBRANCH   9  10
ENDBRANCH   3   4
ENDBRANCH   2   3
TORSDOF 4
ENDMDL
MODEL      166
REMARK 921   NORMALIZED FREE ENERGY PREDICTED BY IDOCK:   -3.77 KCAL/MOL
REMARK 922        TOTAL FREE ENERGY PREDICTED BY IDOCK:   -5.18 KCAL/MOL
REMARK 923 INTER-LIGAND FREE ENERGY PREDICTED BY IDOCK:   -4.50 KCAL/MOL
REMARK 924 INTRA-LIGAND FREE ENERGY PREDICTED BY IDOCK:   -0.68 KCAL/MOL
REMARK 927      BINDING AFFINITY PREDICTED BY RF-SCORE:    0.00 PKD
ROOT
HETATM    1  C   UNL     1     -11.861   7.268  72.145  1.00  0.00    -0.324 C  
HETATM    2  C   UNL     1     -10.701   8.092  71.605  1.00  0.00    -0.284 C  
ENDROOT
BRANCH   2   3
HETATM    3  C   UNL     1     -11.055   9.587  71.547  1.00  0.00    -0.336 C  
BRANCH   3   4
HETATM    4  N   UNL     1     -12.247   9.880  70.719  1.00  0.00    -0.298 NA 
HETATM    5  C   UNL     1     -13.395  10.356  71.526  1.00  0.00    -0.310 C  
HETATM    6  C   UNL     1     -13.174  11.727  72.177  1.00  0.00    -0.342 C  
HETATM    7  C   UNL     1     -12.836  12.782  71.132  1.00  0.00    -0.315 C  
HETATM    8  C   UNL     1     -11.710  12.317  70.218  1.00  0.00    -0.223 C  
HETATM    9  C   UNL     1     -11.977  10.908  69.660  1.00  0.00    -0.343 C  
BRANCH   9  10
HETATM   10  C   UNL     1     -10.855  10.482  68.691  1.00  0.00    -0.237 C  
HETATM   11  N   UNL     1      -9.693  11.225  68.846  1.00  0.00    -0.356 N  
HETATM   12  O   UNL     1     -10.998   9.560  67.890  1.00  0.00    -0.229 OA 
HETATM   13  H   UNL     1      -9.690  12.002  69.507  1.00  0.00     0.000 HD 
BRANCH  11  14
HETATM   14  C   UNL     1      -8.510  10.943  68.120  1.00  0.00    -0.131 A  
HETATM   15  C   UNL     1      -7.500  10.155  68.715  1.00  0.00    -0.086 A  
HETATM   16  C   UNL     1      -7.504   9.727  70.158  1.00  0.00    -0.170 C  
HETATM   17  C   UNL     1      -6.346   9.849  67.971  1.00  0.00    -0.055 A  
HETATM   18  C   UNL     1      -6.197  10.288  66.659  1.00  0.00    -0.069 A  
HETATM   19  C   UNL     1      -7.198  11.048  66.068  1.00  0.00    -0.014 A  
HETATM   20  C   UNL     1      -8.367  11.377  66.780  1.00  0.00    -0.163 A  
HETATM   21  C   UNL     1      -9.429  12.157  66.050  1.00  0.00    -0.215 C  
ENDBRANCH  11  14
ENDBRANCH   9  10
ENDBRANCH   3   4
ENDBRANCH   2   3
TORSDOF 4
ENDMDL
MODEL      167
REMARK 921   NORMALIZED FREE ENERGY PREDICTED BY IDOCK:   -3.77 KCAL/MOL
REMARK 922        TOTAL FREE ENERGY PREDICTED BY IDOCK:   -5.18 KCAL/MOL
REMARK 923 INTER-LIGAND FREE ENERGY PREDICTED BY IDOCK:   -4.79 KCAL/MOL
REMARK 924 INTRA-LIGAND FREE ENERGY PREDICTED BY IDOCK:   -0.39 KCAL/MOL
REMARK 927      BINDING AFFINITY PREDICTED BY RF-SCORE:    0.00 PKD
ROOT
HETATM    1  C   UNL     1      -6.929  17.506  67.266  1.00  0.00    -0.191 C  
HETATM    2  C   UNL     1      -7.095  16.002  67.103  1.00  0.00    -0.248 C  
ENDROOT
BRANCH   2   3
HETATM    3  C   UNL     1      -8.575  15.592  67.170  1.00  0.00    -0.215 C  
BRANCH   3   4
HETATM    4  N   UNL     1      -8.921  14.825  68.389  1.00  0.00    -0.180 NA 
HETATM    5  C   UNL     1      -9.631  15.649  69.395  1.00  0.00    -0.287 C  
HETATM    6  C   UNL     1     -11.028  16.104  68.956  1.00  0.00    -0.312 C  
HETATM    7  C   UNL     1     -11.903  14.912  68.590  1.00  0.00    -0.332 C  
HETATM    8  C   UNL     1     -11.194  13.983  67.614  1.00  0.00    -0.317 C  
HETATM    9  C   UNL     1      -9.777  13.627  68.094  1.00  0.00    -0.229 C  
BRANCH   9  10
HETATM   10  C   UNL     1      -9.100  12.639  67.122  1.00  0.00    -0.210 C  
HETATM   11  N   UNL     1     -10.009  11.831  66.451  1.00  0.00    -0.206 N  
HETATM   12  O   UNL     1      -7.882  12.609  66.964  1.00  0.00    -0.136 OA 
HETATM   13  H   UNL     1     -10.998  11.901  66.689  1.00  0.00     0.000 HD 
BRANCH  11  14
HETATM   14  C   UNL     1      -9.610  10.915  65.448  1.00  0.00    -0.225 A  
HETATM   15  C   UNL     1      -9.736  11.274  64.088  1.00  0.00    -0.298 A  
HETATM   16  C   UNL     1     -10.439  12.514  63.604  1.00  0.00    -0.418 C  
HETATM   17  C   UNL     1      -9.303  10.371  63.100  1.00  0.00    -0.340 A  
HETATM   18  C   UNL     1      -8.733   9.148  63.442  1.00  0.00    -0.147 A  
HETATM   19  C   UNL     1      -8.593   8.803  64.780  1.00  0.00    -0.161 A  
HETATM   20  C   UNL     1      -9.017   9.678  65.798  1.00  0.00    -0.207 A  
HETATM   21  C   UNL     1      -8.780   9.252  67.223  1.00  0.00    -0.132 C  
ENDBRANCH  11  14
ENDBRANCH   9  10
ENDBRANCH   3   4
ENDBRANCH   2   3
TORSDOF 4
ENDMDL
MODEL      168
REMARK 921   NORMALIZED FREE ENERGY PREDICTED BY IDOCK:   -3.73 KCAL/MOL
REMARK 922        TOTAL FREE ENERGY PREDICTED BY IDOCK:   -5.13 KCAL/MOL
REMARK 923 INTER-LIGAND FREE ENERGY PREDICTED BY IDOCK:   -4.37 KCAL/MOL
REMARK 924 INTRA-LIGAND FREE ENERGY PREDICTED BY IDOCK:   -0.75 KCAL/MOL
REMARK 927      BINDING AFFINITY PREDICTED BY RF-SCORE:    0.00 PKD
ROOT
HETATM    1  C   UNL     1     -13.068  10.033  71.596  1.00  0.00    -0.547 C  
HETATM    2  C   UNL     1     -12.641  10.980  70.484  1.00  0.00    -0.390 C  
ENDROOT
BRANCH   2   3
HETATM    3  C   UNL     1     -11.430  10.429  69.714  1.00  0.00    -0.280 C  
BRANCH   3   4
HETATM    4  N   UNL     1     -11.557  10.556  68.244  1.00  0.00    -0.386 NA 
HETATM    5  C   UNL     1     -11.634  11.969  67.802  1.00  0.00    -0.330 C  
HETATM    6  C   UNL     1     -10.346  12.767  68.033  1.00  0.00    -0.232 C  
HETATM    7  C   UNL     1      -9.159  12.101  67.348  1.00  0.00    -0.181 C  
HETATM    8  C   UNL     1      -9.071  10.624  67.703  1.00  0.00    -0.145 C  
HETATM    9  C   UNL     1     -10.419   9.911  67.507  1.00  0.00    -0.255 C  
BRANCH   9  10
HETATM   10  C   UNL     1     -10.293   8.404  67.815  1.00  0.00    -0.235 C  
HETATM   11  N   UNL     1      -9.235   8.112  68.666  1.00  0.00    -0.143 N  
HETATM   12  O   UNL     1     -11.076   7.575  67.356  1.00  0.00    -0.159 OA 
HETATM   13  H   UNL     1      -8.613   8.867  68.955  1.00  0.00     0.000 HD 
BRANCH  11  14
HETATM   14  C   UNL     1      -8.991   6.803  69.148  1.00  0.00    -0.132 A  
HETATM   15  C   UNL     1      -8.089   5.964  68.456  1.00  0.00    -0.106 A  
HETATM   16  C   UNL     1      -7.485   6.296  67.118  1.00  0.00    -0.084 C  
HETATM   17  C   UNL     1      -7.825   4.679  68.964  1.00  0.00    -0.071 A  
HETATM   18  C   UNL     1      -8.417   4.235  70.143  1.00  0.00    -0.089 A  
HETATM   19  C   UNL     1      -9.290   5.066  70.832  1.00  0.00    -0.204 A  
HETATM   20  C   UNL     1      -9.582   6.358  70.355  1.00  0.00    -0.178 A  
HETATM   21  C   UNL     1     -10.495   7.217  71.190  1.00  0.00    -0.225 C  
ENDBRANCH  11  14
ENDBRANCH   9  10
ENDBRANCH   3   4
ENDBRANCH   2   3
TORSDOF 4
ENDMDL
MODEL      169
REMARK 921   NORMALIZED FREE ENERGY PREDICTED BY IDOCK:   -3.69 KCAL/MOL
REMARK 922        TOTAL FREE ENERGY PREDICTED BY IDOCK:   -5.09 KCAL/MOL
REMARK 923 INTER-LIGAND FREE ENERGY PREDICTED BY IDOCK:   -4.75 KCAL/MOL
REMARK 924 INTRA-LIGAND FREE ENERGY PREDICTED BY IDOCK:   -0.34 KCAL/MOL
REMARK 927      BINDING AFFINITY PREDICTED BY RF-SCORE:    0.00 PKD
ROOT
HETATM    1  C   UNL     1     -10.679   5.820  66.729  1.00  0.00    -0.369 C  
HETATM    2  C   UNL     1     -10.695   5.660  68.242  1.00  0.00    -0.227 C  
ENDROOT
BRANCH   2   3
HETATM    3  C   UNL     1      -9.856   6.750  68.929  1.00  0.00    -0.145 C  
BRANCH   3   4
HETATM    4  N   UNL     1     -10.665   7.875  69.454  1.00  0.00    -0.207 NA 
HETATM    5  C   UNL     1     -11.249   7.580  70.784  1.00  0.00    -0.270 C  
HETATM    6  C   UNL     1     -10.212   7.445  71.905  1.00  0.00    -0.213 C  
HETATM    7  C   UNL     1      -9.353   8.699  72.012  1.00  0.00    -0.362 C  
HETATM    8  C   UNL     1      -8.785   9.098  70.657  1.00  0.00    -0.272 C  
HETATM    9  C   UNL     1      -9.876   9.146  69.574  1.00  0.00    -0.178 C  
BRANCH   9  10
HETATM   10  C   UNL     1      -9.290   9.611  68.225  1.00  0.00    -0.133 C  
HETATM   11  N   UNL     1     -10.037   9.186  67.135  1.00  0.00    -0.216 N  
HETATM   12  O   UNL     1      -8.277  10.304  68.156  1.00  0.00    -0.111 OA 
HETATM   13  H   UNL     1     -10.837   8.573  67.295  1.00  0.00     0.000 HD 
BRANCH  11  14
HETATM   14  C   UNL     1      -9.728   9.573  65.808  1.00  0.00    -0.287 A  
HETATM   15  C   UNL     1      -8.883   8.756  65.024  1.00  0.00    -0.151 A  
HETATM   16  C   UNL     1      -8.126   7.568  65.556  1.00  0.00    -0.131 C  
HETATM   17  C   UNL     1      -8.612   9.130  63.695  1.00  0.00    -0.180 A  
HETATM   18  C   UNL     1      -9.179  10.272  63.139  1.00  0.00    -0.311 A  
HETATM   19  C   UNL     1     -10.025  11.066  63.904  1.00  0.00    -0.396 A  
HETATM   20  C   UNL     1     -10.318  10.726  65.238  1.00  0.00    -0.327 A  
HETATM   21  C   UNL     1     -11.287  11.609  65.982  1.00  0.00    -0.261 C  
ENDBRANCH  11  14
ENDBRANCH   9  10
ENDBRANCH   3   4
ENDBRANCH   2   3
TORSDOF 4
ENDMDL
MODEL      170
REMARK 921   NORMALIZED FREE ENERGY PREDICTED BY IDOCK:   -3.68 KCAL/MOL
REMARK 922        TOTAL FREE ENERGY PREDICTED BY IDOCK:   -5.07 KCAL/MOL
REMARK 923 INTER-LIGAND FREE ENERGY PREDICTED BY IDOCK:   -4.37 KCAL/MOL
REMARK 924 INTRA-LIGAND FREE ENERGY PREDICTED BY IDOCK:   -0.70 KCAL/MOL
REMARK 927      BINDING AFFINITY PREDICTED BY RF-SCORE:    0.00 PKD
ROOT
HETATM    1  C   UNL     1      -6.809   8.224  70.518  1.00  0.00    -0.037 C  
HETATM    2  C   UNL     1      -7.992   7.876  69.626  1.00  0.00    -0.118 C  
ENDROOT
BRANCH   2   3
HETATM    3  C   UNL     1      -8.988   9.045  69.537  1.00  0.00    -0.147 C  
BRANCH   3   4
HETATM    4  N   UNL     1     -10.391   8.612  69.350  1.00  0.00    -0.215 NA 
HETATM    5  C   UNL     1     -11.199   8.760  70.584  1.00  0.00    -0.257 C  
HETATM    6  C   UNL     1     -11.420  10.215  71.014  1.00  0.00    -0.436 C  
HETATM    7  C   UNL     1     -12.070  11.025  69.900  1.00  0.00    -0.435 C  
HETATM    8  C   UNL     1     -11.327  10.851  68.582  1.00  0.00    -0.360 C  
HETATM    9  C   UNL     1     -11.088   9.367  68.256  1.00  0.00     0.061 C  
BRANCH   9  10
HETATM   10  C   UNL     1     -10.388   9.212  66.890  1.00  0.00    -0.251 C  
HETATM   11  N   UNL     1      -9.918  10.416  66.382  1.00  0.00    -0.213 N  
HETATM   12  O   UNL     1     -10.256   8.119  66.343  1.00  0.00    -0.239 OA 
HETATM   13  H   UNL     1     -10.120  11.276  66.891  1.00  0.00     0.000 HD 
BRANCH  11  14
HETATM   14  C   UNL     1      -9.168  10.490  65.183  1.00  0.00    -0.205 A  
HETATM   15  C   UNL     1      -7.836  10.020  65.166  1.00  0.00    -0.136 A  
HETATM   16  C   UNL     1      -7.075   9.596  66.394  1.00  0.00    -0.093 C  
HETATM   17  C   UNL     1      -7.111  10.064  63.961  1.00  0.00    -0.126 A  
HETATM   18  C   UNL     1      -7.692  10.539  62.789  1.00  0.00    -0.118 A  
HETATM   19  C   UNL     1      -9.007  10.985  62.802  1.00  0.00    -0.327 A  
HETATM   20  C   UNL     1      -9.764  10.959  63.988  1.00  0.00    -0.351 A  
HETATM   21  C   UNL     1     -11.200  11.409  63.906  1.00  0.00    -0.364 C  
ENDBRANCH  11  14
ENDBRANCH   9  10
ENDBRANCH   3   4
ENDBRANCH   2   3
TORSDOF 4
ENDMDL
MODEL      171
REMARK 921   NORMALIZED FREE ENERGY PREDICTED BY IDOCK:   -3.67 KCAL/MOL
REMARK 922        TOTAL FREE ENERGY PREDICTED BY IDOCK:   -5.06 KCAL/MOL
REMARK 923 INTER-LIGAND FREE ENERGY PREDICTED BY IDOCK:   -4.39 KCAL/MOL
REMARK 924 INTRA-LIGAND FREE ENERGY PREDICTED BY IDOCK:   -0.67 KCAL/MOL
REMARK 927      BINDING AFFINITY PREDICTED BY RF-SCORE:    0.00 PKD
ROOT
HETATM    1  C   UNL     1     -12.151  15.301  64.133  1.00  0.00    -0.146 C  
HETATM    2  C   UNL     1     -11.076  15.668  65.146  1.00  0.00    -0.357 C  
ENDROOT
BRANCH   2   3
HETATM    3  C   UNL     1     -10.266  14.433  65.574  1.00  0.00    -0.363 C  
BRANCH   3   4
HETATM    4  N   UNL     1     -10.852  13.715  66.729  1.00  0.00    -0.289 NA 
HETATM    5  C   UNL     1     -11.494  12.438  66.337  1.00  0.00    -0.373 C  
HETATM    6  C   UNL     1     -10.513  11.377  65.827  1.00  0.00    -0.314 C  
HETATM    7  C   UNL     1      -9.432  11.086  66.861  1.00  0.00    -0.197 C  
HETATM    8  C   UNL     1      -8.785  12.370  67.362  1.00  0.00    -0.183 C  
HETATM    9  C   UNL     1      -9.837  13.406  67.792  1.00  0.00    -0.234 C  
BRANCH   9  10
HETATM   10  C   UNL     1      -9.160  14.674  68.352  1.00  0.00    -0.192 C  
HETATM   11  N   UNL     1      -7.821  14.774  67.999  1.00  0.00    -0.121 N  
HETATM   12  O   UNL     1      -9.775  15.503  69.020  1.00  0.00    -0.207 OA 
HETATM   13  H   UNL     1      -7.390  14.008  67.481  1.00  0.00     0.000 HD 
BRANCH  11  14
HETATM   14  C   UNL     1      -7.032  15.902  68.333  1.00  0.00    -0.116 A  
HETATM   15  C   UNL     1      -6.056  15.792  69.348  1.00  0.00    -0.138 A  
HETATM   16  C   UNL     1      -5.901  14.592  70.244  1.00  0.00    -0.146 C  
HETATM   17  C   UNL     1      -5.252  16.908  69.646  1.00  0.00    -0.157 A  
HETATM   18  C   UNL     1      -5.388  18.102  68.945  1.00  0.00    -0.190 A  
HETATM   19  C   UNL     1      -6.336  18.204  67.935  1.00  0.00    -0.182 A  
HETATM   20  C   UNL     1      -7.161  17.111  67.608  1.00  0.00    -0.172 A  
HETATM   21  C   UNL     1      -8.126  17.286  66.464  1.00  0.00    -0.313 C  
ENDBRANCH  11  14
ENDBRANCH   9  10
ENDBRANCH   3   4
ENDBRANCH   2   3
TORSDOF 4
ENDMDL
MODEL      172
REMARK 921   NORMALIZED FREE ENERGY PREDICTED BY IDOCK:   -3.66 KCAL/MOL
REMARK 922        TOTAL FREE ENERGY PREDICTED BY IDOCK:   -5.05 KCAL/MOL
REMARK 923 INTER-LIGAND FREE ENERGY PREDICTED BY IDOCK:   -4.89 KCAL/MOL
REMARK 924 INTRA-LIGAND FREE ENERGY PREDICTED BY IDOCK:   -0.16 KCAL/MOL
REMARK 927      BINDING AFFINITY PREDICTED BY RF-SCORE:    0.00 PKD
ROOT
HETATM    1  C   UNL     1     -11.846  14.268  68.164  1.00  0.00    -0.374 C  
HETATM    2  C   UNL     1     -10.953  13.045  68.318  1.00  0.00    -0.285 C  
ENDROOT
BRANCH   2   3
HETATM    3  C   UNL     1     -10.459  12.537  66.954  1.00  0.00    -0.228 C  
BRANCH   3   4
HETATM    4  N   UNL     1     -11.471  11.745  66.218  1.00  0.00    -0.411 NA 
HETATM    5  C   UNL     1     -12.167  12.539  65.178  1.00  0.00    -0.448 C  
HETATM    6  C   UNL     1     -11.266  12.974  64.017  1.00  0.00    -0.448 C  
HETATM    7  C   UNL     1     -10.605  11.771  63.356  1.00  0.00    -0.479 C  
HETATM    8  C   UNL     1      -9.935  10.871  64.385  1.00  0.00    -0.381 C  
HETATM    9  C   UNL     1     -10.883  10.536  65.549  1.00  0.00     0.147 C  
BRANCH   9  10
HETATM   10  C   UNL     1     -10.206   9.576  66.549  1.00  0.00    -0.237 C  
HETATM   11  N   UNL     1      -9.575   8.505  65.929  1.00  0.00    -0.445 N  
HETATM   12  O   UNL     1     -10.221   9.777  67.761  1.00  0.00    -0.182 OA 
HETATM   13  H   UNL     1      -9.661   8.402  64.918  1.00  0.00     0.000 HD 
BRANCH  11  14
HETATM   14  C   UNL     1      -8.817   7.551  66.651  1.00  0.00    -0.146 A  
HETATM   15  C   UNL     1      -9.460   6.413  67.187  1.00  0.00    -0.145 A  
HETATM   16  C   UNL     1     -10.953   6.216  67.202  1.00  0.00    -0.420 C  
HETATM   17  C   UNL     1      -8.692   5.454  67.871  1.00  0.00    -0.106 A  
HETATM   18  C   UNL     1      -7.314   5.596  68.006  1.00  0.00    -0.073 A  
HETATM   19  C   UNL     1      -6.680   6.706  67.463  1.00  0.00    -0.067 A  
HETATM   20  C   UNL     1      -7.414   7.690  66.774  1.00  0.00    -0.093 A  
HETATM   21  C   UNL     1      -6.644   8.835  66.169  1.00  0.00    -0.065 C  
ENDBRANCH  11  14
ENDBRANCH   9  10
ENDBRANCH   3   4
ENDBRANCH   2   3
TORSDOF 4
ENDMDL
MODEL      173
REMARK 921   NORMALIZED FREE ENERGY PREDICTED BY IDOCK:   -3.63 KCAL/MOL
REMARK 922        TOTAL FREE ENERGY PREDICTED BY IDOCK:   -5.01 KCAL/MOL
REMARK 923 INTER-LIGAND FREE ENERGY PREDICTED BY IDOCK:   -4.51 KCAL/MOL
REMARK 924 INTRA-LIGAND FREE ENERGY PREDICTED BY IDOCK:   -0.50 KCAL/MOL
REMARK 927      BINDING AFFINITY PREDICTED BY RF-SCORE:    0.00 PKD
ROOT
HETATM    1  C   UNL     1     -12.505  11.653  70.593  1.00  0.00    -0.386 C  
HETATM    2  C   UNL     1     -11.474  10.562  70.842  1.00  0.00    -0.304 C  
ENDROOT
BRANCH   2   3
HETATM    3  C   UNL     1     -10.874  10.048  69.524  1.00  0.00    -0.253 C  
BRANCH   3   4
HETATM    4  N   UNL     1      -9.853   8.992  69.711  1.00  0.00    -0.174 NA 
HETATM    5  C   UNL     1     -10.245   8.002  70.742  1.00  0.00    -0.194 C  
HETATM    6  C   UNL     1     -11.455   7.144  70.355  1.00  0.00    -0.317 C  
HETATM    7  C   UNL     1     -11.212   6.415  69.040  1.00  0.00    -0.402 C  
HETATM    8  C   UNL     1     -10.731   7.370  67.957  1.00  0.00    -0.191 C  
HETATM    9  C   UNL     1      -9.560   8.240  68.446  1.00  0.00    -0.144 C  
BRANCH   9  10
HETATM   10  C   UNL     1      -9.049   9.157  67.315  1.00  0.00    -0.126 C  
HETATM   11  N   UNL     1      -9.805   9.058  66.154  1.00  0.00    -0.313 N  
HETATM   12  O   UNL     1      -8.085   9.904  67.465  1.00  0.00    -0.109 OA 
HETATM   13  H   UNL     1     -10.559   8.373  66.115  1.00  0.00     0.000 HD 
BRANCH  11  14
HETATM   14  C   UNL     1      -9.565   9.876  65.023  1.00  0.00    -0.297 A  
HETATM   15  C   UNL     1      -8.510   9.552  64.142  1.00  0.00    -0.194 A  
HETATM   16  C   UNL     1      -7.486   8.481  64.409  1.00  0.00    -0.110 C  
HETATM   17  C   UNL     1      -8.304  10.349  63.001  1.00  0.00    -0.174 A  
HETATM   18  C   UNL     1      -9.133  11.430  62.718  1.00  0.00    -0.266 A  
HETATM   19  C   UNL     1     -10.182  11.738  63.576  1.00  0.00    -0.483 A  
HETATM   20  C   UNL     1     -10.419  10.966  64.729  1.00  0.00    -0.373 A  
HETATM   21  C   UNL     1     -11.609  11.333  65.577  1.00  0.00     0.301 C  
ENDBRANCH  11  14
ENDBRANCH   9  10
ENDBRANCH   3   4
ENDBRANCH   2   3
TORSDOF 4
ENDMDL
MODEL      174
REMARK 921   NORMALIZED FREE ENERGY PREDICTED BY IDOCK:   -3.62 KCAL/MOL
REMARK 922        TOTAL FREE ENERGY PREDICTED BY IDOCK:   -4.99 KCAL/MOL
REMARK 923 INTER-LIGAND FREE ENERGY PREDICTED BY IDOCK:   -4.35 KCAL/MOL
REMARK 924 INTRA-LIGAND FREE ENERGY PREDICTED BY IDOCK:   -0.64 KCAL/MOL
REMARK 927      BINDING AFFINITY PREDICTED BY RF-SCORE:    0.00 PKD
ROOT
HETATM    1  C   UNL     1      -7.257   7.305  68.570  1.00  0.00    -0.094 C  
HETATM    2  C   UNL     1      -7.293   8.823  68.676  1.00  0.00    -0.080 C  
ENDROOT
BRANCH   2   3
HETATM    3  C   UNL     1      -8.515   9.298  69.479  1.00  0.00    -0.144 C  
BRANCH   3   4
HETATM    4  N   UNL     1      -9.799   8.759  68.976  1.00  0.00    -0.176 NA 
HETATM    5  C   UNL     1     -10.381   7.742  69.883  1.00  0.00    -0.223 C  
HETATM    6  C   UNL     1     -10.834   8.300  71.237  1.00  0.00    -0.285 C  
HETATM    7  C   UNL     1     -11.839   9.431  71.056  1.00  0.00    -0.396 C  
HETATM    8  C   UNL     1     -11.328  10.473  70.071  1.00  0.00    -0.392 C  
HETATM    9  C   UNL     1     -10.832   9.828  68.766  1.00  0.00    -0.188 C  
BRANCH   9  10
HETATM   10  C   UNL     1     -10.376  10.905  67.761  1.00  0.00    -0.187 C  
HETATM   11  N   UNL     1     -10.126  12.133  68.359  1.00  0.00    -0.210 N  
HETATM   12  O   UNL     1     -10.237  10.664  66.563  1.00  0.00    -0.219 OA 
HETATM   13  H   UNL     1     -10.317  12.244  69.354  1.00  0.00     0.000 HD 
BRANCH  11  14
HETATM   14  C   UNL     1      -9.613  13.237  67.635  1.00  0.00    -0.213 A  
HETATM   15  C   UNL     1     -10.500  14.071  66.919  1.00  0.00    -0.276 A  
HETATM   16  C   UNL     1     -11.962  13.773  66.717  1.00  0.00    -0.465 C  
HETATM   17  C   UNL     1      -9.985  15.187  66.233  1.00  0.00    -0.307 A  
HETATM   18  C   UNL     1      -8.627  15.491  66.270  1.00  0.00    -0.208 A  
HETATM   19  C   UNL     1      -7.758  14.680  66.988  1.00  0.00     0.006 A  
HETATM   20  C   UNL     1      -8.234  13.554  67.685  1.00  0.00    -0.178 A  
HETATM   21  C   UNL     1      -7.235  12.758  68.485  1.00  0.00    -0.114 C  
ENDBRANCH  11  14
ENDBRANCH   9  10
ENDBRANCH   3   4
ENDBRANCH   2   3
TORSDOF 4
ENDMDL
MODEL      175
REMARK 921   NORMALIZED FREE ENERGY PREDICTED BY IDOCK:   -3.59 KCAL/MOL
REMARK 922        TOTAL FREE ENERGY PREDICTED BY IDOCK:   -4.96 KCAL/MOL
REMARK 923 INTER-LIGAND FREE ENERGY PREDICTED BY IDOCK:   -4.30 KCAL/MOL
REMARK 924 INTRA-LIGAND FREE ENERGY PREDICTED BY IDOCK:   -0.66 KCAL/MOL
REMARK 927      BINDING AFFINITY PREDICTED BY RF-SCORE:    0.00 PKD
ROOT
HETATM    1  C   UNL     1      -5.952  10.746  69.111  1.00  0.00    -0.041 C  
HETATM    2  C   UNL     1      -6.888  11.880  68.721  1.00  0.00    -0.093 C  
ENDROOT
BRANCH   2   3
HETATM    3  C   UNL     1      -8.155  11.348  68.031  1.00  0.00    -0.134 C  
BRANCH   3   4
HETATM    4  N   UNL     1      -9.405  11.959  68.538  1.00  0.00    -0.177 NA 
HETATM    5  C   UNL     1      -9.552  13.374  68.124  1.00  0.00    -0.222 C  
HETATM    6  C   UNL     1      -9.748  13.566  66.616  1.00  0.00    -0.281 C  
HETATM    7  C   UNL     1     -10.953  12.780  66.115  1.00  0.00    -0.310 C  
HETATM    8  C   UNL     1     -10.898  11.330  66.576  1.00  0.00    -0.319 C  
HETATM    9  C   UNL     1     -10.633  11.223  68.087  1.00  0.00    -0.192 C  
BRANCH   9  10
HETATM   10  C   UNL     1     -10.641   9.749  68.542  1.00  0.00    -0.221 C  
HETATM   11  N   UNL     1     -10.458   9.603  69.911  1.00  0.00    -0.233 N  
HETATM   12  O   UNL     1     -10.817   8.822  67.753  1.00  0.00    -0.167 OA 
HETATM   13  H   UNL     1     -10.274  10.433  70.473  1.00  0.00     0.000 HD 
BRANCH  11  14
HETATM   14  C   UNL     1     -10.520   8.342  70.553  1.00  0.00    -0.207 A  
HETATM   15  C   UNL     1      -9.377   7.513  70.567  1.00  0.00    -0.160 A  
HETATM   16  C   UNL     1      -8.120   7.793  69.786  1.00  0.00    -0.117 C  
HETATM   17  C   UNL     1      -9.437   6.279  71.240  1.00  0.00    -0.171 A  
HETATM   18  C   UNL     1     -10.591   5.877  71.906  1.00  0.00    -0.280 A  
HETATM   19  C   UNL     1     -11.709   6.701  71.907  1.00  0.00    -0.355 A  
HETATM   20  C   UNL     1     -11.689   7.942  71.243  1.00  0.00    -0.313 A  
HETATM   21  C   UNL     1     -12.924   8.800  71.337  1.00  0.00    -0.306 C  
ENDBRANCH  11  14
ENDBRANCH   9  10
ENDBRANCH   3   4
ENDBRANCH   2   3
TORSDOF 4
ENDMDL
MODEL      176
REMARK 921   NORMALIZED FREE ENERGY PREDICTED BY IDOCK:   -3.53 KCAL/MOL
REMARK 922        TOTAL FREE ENERGY PREDICTED BY IDOCK:   -4.88 KCAL/MOL
REMARK 923 INTER-LIGAND FREE ENERGY PREDICTED BY IDOCK:   -4.14 KCAL/MOL
REMARK 924 INTRA-LIGAND FREE ENERGY PREDICTED BY IDOCK:   -0.74 KCAL/MOL
REMARK 927      BINDING AFFINITY PREDICTED BY RF-SCORE:    0.00 PKD
ROOT
HETATM    1  C   UNL     1      -6.558  12.923  67.554  1.00  0.00    -0.160 C  
HETATM    2  C   UNL     1      -8.011  12.480  67.649  1.00  0.00    -0.170 C  
ENDROOT
BRANCH   2   3
HETATM    3  C   UNL     1      -8.583  12.139  66.263  1.00  0.00     0.084 C  
BRANCH   3   4
HETATM    4  N   UNL     1     -10.005  11.726  66.296  1.00  0.00    -0.213 NA 
HETATM    5  C   UNL     1     -10.917  12.796  65.827  1.00  0.00    -0.277 C  
HETATM    6  C   UNL     1     -10.768  13.136  64.340  1.00  0.00    -0.426 C  
HETATM    7  C   UNL     1     -10.972  11.901  63.472  1.00  0.00    -0.505 C  
HETATM    8  C   UNL     1     -10.115  10.738  63.953  1.00  0.00    -0.397 C  
HETATM    9  C   UNL     1     -10.271  10.504  65.465  1.00  0.00    -0.256 C  
BRANCH   9  10
HETATM   10  C   UNL     1      -9.442   9.285  65.920  1.00  0.00    -0.259 C  
HETATM   11  N   UNL     1      -9.670   8.939  67.245  1.00  0.00    -0.169 N  
HETATM   12  O   UNL     1      -8.684   8.689  65.157  1.00  0.00    -0.184 OA 
HETATM   13  H   UNL     1     -10.284   9.527  67.808  1.00  0.00     0.000 HD 
BRANCH  11  14
HETATM   14  C   UNL     1      -9.080   7.798  67.841  1.00  0.00    -0.131 A  
HETATM   15  C   UNL     1      -7.918   7.948  68.630  1.00  0.00    -0.124 A  
HETATM   16  C   UNL     1      -7.138   9.231  68.749  1.00  0.00    -0.073 C  
HETATM   17  C   UNL     1      -7.361   6.814  69.249  1.00  0.00    -0.093 A  
HETATM   18  C   UNL     1      -7.948   5.559  69.115  1.00  0.00    -0.095 A  
HETATM   19  C   UNL     1      -9.100   5.415  68.354  1.00  0.00    -0.119 A  
HETATM   20  C   UNL     1      -9.687   6.525  67.717  1.00  0.00    -0.131 A  
HETATM   21  C   UNL     1     -10.965   6.294  66.955  1.00  0.00    -0.442 C  
ENDBRANCH  11  14
ENDBRANCH   9  10
ENDBRANCH   3   4
ENDBRANCH   2   3
TORSDOF 4
ENDMDL
MODEL      177
REMARK 921   NORMALIZED FREE ENERGY PREDICTED BY IDOCK:   -3.52 KCAL/MOL
REMARK 922        TOTAL FREE ENERGY PREDICTED BY IDOCK:   -4.88 KCAL/MOL
REMARK 923 INTER-LIGAND FREE ENERGY PREDICTED BY IDOCK:   -4.84 KCAL/MOL
REMARK 924 INTRA-LIGAND FREE ENERGY PREDICTED BY IDOCK:   -0.04 KCAL/MOL
REMARK 927      BINDING AFFINITY PREDICTED BY RF-SCORE:    0.00 PKD
ROOT
HETATM    1  C   UNL     1     -13.038  10.196  70.805  1.00  0.00    -0.351 C  
HETATM    2  C   UNL     1     -11.530  10.121  70.988  1.00  0.00    -0.436 C  
ENDROOT
BRANCH   2   3
HETATM    3  C   UNL     1     -10.819   9.815  69.660  1.00  0.00    -0.250 C  
BRANCH   3   4
HETATM    4  N   UNL     1      -9.596  10.623  69.444  1.00  0.00    -0.150 NA 
HETATM    5  C   UNL     1      -8.421  10.073  70.161  1.00  0.00    -0.017 C  
HETATM    6  C   UNL     1      -7.946   8.715  69.630  1.00  0.00    -0.096 C  
HETATM    7  C   UNL     1      -7.626   8.789  68.143  1.00  0.00    -0.097 C  
HETATM    8  C   UNL     1      -8.769   9.419  67.360  1.00  0.00    -0.128 C  
HETATM    9  C   UNL     1      -9.231  10.742  67.993  1.00  0.00    -0.150 C  
BRANCH   9  10
HETATM   10  C   UNL     1     -10.348  11.393  67.152  1.00  0.00    -0.212 C  
HETATM   11  N   UNL     1      -9.866  12.313  66.230  1.00  0.00    -0.236 N  
HETATM   12  O   UNL     1     -11.531  11.090  67.291  1.00  0.00    -0.470 OA 
HETATM   13  H   UNL     1      -8.870  12.529  66.226  1.00  0.00     0.000 HD 
BRANCH  11  14
HETATM   14  C   UNL     1     -10.710  12.962  65.296  1.00  0.00    -0.296 A  
HETATM   15  C   UNL     1     -11.152  12.259  64.153  1.00  0.00    -0.423 A  
HETATM   16  C   UNL     1     -10.644  10.900  63.749  1.00  0.00    -0.255 C  
HETATM   17  C   UNL     1     -12.020  12.900  63.250  1.00  0.00    -0.516 A  
HETATM   18  C   UNL     1     -12.465  14.199  63.478  1.00  0.00     0.273 A  
HETATM   19  C   UNL     1     -12.045  14.883  64.612  1.00  0.00    -0.387 A  
HETATM   20  C   UNL     1     -11.175  14.277  65.537  1.00  0.00    -0.320 A  
HETATM   21  C   UNL     1     -10.810  15.066  66.767  1.00  0.00    -0.318 C  
ENDBRANCH  11  14
ENDBRANCH   9  10
ENDBRANCH   3   4
ENDBRANCH   2   3
TORSDOF 4
ENDMDL
MODEL      178
REMARK 921   NORMALIZED FREE ENERGY PREDICTED BY IDOCK:   -3.51 KCAL/MOL
REMARK 922        TOTAL FREE ENERGY PREDICTED BY IDOCK:   -4.86 KCAL/MOL
REMARK 923 INTER-LIGAND FREE ENERGY PREDICTED BY IDOCK:   -4.12 KCAL/MOL
REMARK 924 INTRA-LIGAND FREE ENERGY PREDICTED BY IDOCK:   -0.74 KCAL/MOL
REMARK 927      BINDING AFFINITY PREDICTED BY RF-SCORE:    0.00 PKD
ROOT
HETATM    1  C   UNL     1      -5.557   9.256  68.605  1.00  0.00    -0.040 C  
HETATM    2  C   UNL     1      -6.141  10.441  67.850  1.00  0.00    -0.048 C  
ENDROOT
BRANCH   2   3
HETATM    3  C   UNL     1      -7.673  10.483  67.972  1.00  0.00    -0.092 C  
BRANCH   3   4
HETATM    4  N   UNL     1      -8.369  10.500  66.665  1.00  0.00    -0.128 NA 
HETATM    5  C   UNL     1      -8.364   9.175  66.003  1.00  0.00    -0.121 C  
HETATM    6  C   UNL     1      -9.186   8.108  66.734  1.00  0.00    -0.206 C  
HETATM    7  C   UNL     1     -10.630   8.559  66.919  1.00  0.00    -0.279 C  
HETATM    8  C   UNL     1     -10.701   9.953  67.527  1.00  0.00    -0.333 C  
HETATM    9  C   UNL     1      -9.798  10.947  66.778  1.00  0.00    -0.195 C  
BRANCH   9  10
HETATM   10  C   UNL     1      -9.931  12.364  67.373  1.00  0.00    -0.202 C  
HETATM   11  N   UNL     1      -9.154  13.305  66.710  1.00  0.00    -0.325 N  
HETATM   12  O   UNL     1     -10.673  12.608  68.322  1.00  0.00    -0.215 OA 
HETATM   13  H   UNL     1      -8.535  12.993  65.962  1.00  0.00     0.000 HD 
BRANCH  11  14
HETATM   14  C   UNL     1      -9.193  14.683  67.035  1.00  0.00    -0.239 A  
HETATM   15  C   UNL     1      -8.279  15.201  67.980  1.00  0.00    -0.144 A  
HETATM   16  C   UNL     1      -7.360  14.352  68.818  1.00  0.00    -0.131 C  
HETATM   17  C   UNL     1      -8.301  16.577  68.268  1.00  0.00    -0.190 A  
HETATM   18  C   UNL     1      -9.188  17.434  67.623  1.00  0.00    -0.234 A  
HETATM   19  C   UNL     1     -10.074  16.928  66.681  1.00  0.00    -0.306 A  
HETATM   20  C   UNL     1     -10.085  15.556  66.366  1.00  0.00    -0.301 A  
HETATM   21  C   UNL     1     -11.038  15.097  65.295  1.00  0.00    -0.389 C  
ENDBRANCH  11  14
ENDBRANCH   9  10
ENDBRANCH   3   4
ENDBRANCH   2   3
TORSDOF 4
ENDMDL
MODEL      179
REMARK 921   NORMALIZED FREE ENERGY PREDICTED BY IDOCK:   -3.50 KCAL/MOL
REMARK 922        TOTAL FREE ENERGY PREDICTED BY IDOCK:   -4.84 KCAL/MOL
REMARK 923 INTER-LIGAND FREE ENERGY PREDICTED BY IDOCK:   -4.31 KCAL/MOL
REMARK 924 INTRA-LIGAND FREE ENERGY PREDICTED BY IDOCK:   -0.53 KCAL/MOL
REMARK 927      BINDING AFFINITY PREDICTED BY RF-SCORE:    0.00 PKD
ROOT
HETATM    1  C   UNL     1     -10.846  11.557  69.022  1.00  0.00    -0.258 C  
HETATM    2  C   UNL     1     -11.844  12.579  68.498  1.00  0.00    -0.341 C  
ENDROOT
BRANCH   2   3
HETATM    3  C   UNL     1     -11.133  13.732  67.771  1.00  0.00    -0.268 C  
BRANCH   3   4
HETATM    4  N   UNL     1     -10.646  13.368  66.420  1.00  0.00    -0.283 NA 
HETATM    5  C   UNL     1     -11.729  12.862  65.545  1.00  0.00    -0.383 C  
HETATM    6  C   UNL     1     -12.780  13.916  65.178  1.00  0.00    -0.434 C  
HETATM    7  C   UNL     1     -12.134  15.126  64.514  1.00  0.00    -0.310 C  
HETATM    8  C   UNL     1     -10.960  15.647  65.331  1.00  0.00    -0.342 C  
HETATM    9  C   UNL     1      -9.988  14.518  65.714  1.00  0.00    -0.334 C  
BRANCH   9  10
HETATM   10  C   UNL     1      -8.777  15.076  66.489  1.00  0.00    -0.208 C  
HETATM   11  N   UNL     1      -8.856  16.446  66.702  1.00  0.00    -0.224 N  
HETATM   12  O   UNL     1      -7.864  14.354  66.883  1.00  0.00    -0.047 OA 
HETATM   13  H   UNL     1      -9.633  16.964  66.294  1.00  0.00     0.000 HD 
BRANCH  11  14
HETATM   14  C   UNL     1      -7.894  17.149  67.469  1.00  0.00    -0.175 A  
HETATM   15  C   UNL     1      -7.035  18.071  66.830  1.00  0.00    -0.218 A  
HETATM   16  C   UNL     1      -6.941  18.243  65.338  1.00  0.00     0.003 C  
HETATM   17  C   UNL     1      -6.109  18.791  67.606  1.00  0.00    -0.192 A  
HETATM   18  C   UNL     1      -6.044  18.627  68.987  1.00  0.00    -0.247 A  
HETATM   19  C   UNL     1      -6.901  17.734  69.616  1.00  0.00     0.066 A  
HETATM   20  C   UNL     1      -7.840  16.992  68.875  1.00  0.00    -0.224 A  
HETATM   21  C   UNL     1      -8.769  16.086  69.639  1.00  0.00     0.112 C  
ENDBRANCH  11  14
ENDBRANCH   9  10
ENDBRANCH   3   4
ENDBRANCH   2   3
TORSDOF 4
ENDMDL
MODEL      180
REMARK 921   NORMALIZED FREE ENERGY PREDICTED BY IDOCK:   -3.49 KCAL/MOL
REMARK 922        TOTAL FREE ENERGY PREDICTED BY IDOCK:   -4.83 KCAL/MOL
REMARK 923 INTER-LIGAND FREE ENERGY PREDICTED BY IDOCK:   -4.25 KCAL/MOL
REMARK 924 INTRA-LIGAND FREE ENERGY PREDICTED BY IDOCK:   -0.58 KCAL/MOL
REMARK 927      BINDING AFFINITY PREDICTED BY RF-SCORE:    0.00 PKD
ROOT
HETATM    1  C   UNL     1     -12.262  13.089  63.219  1.00  0.00    -0.464 C  
HETATM    2  C   UNL     1     -10.968  12.462  63.716  1.00  0.00    -0.501 C  
ENDROOT
BRANCH   2   3
HETATM    3  C   UNL     1     -11.144  11.856  65.118  1.00  0.00    -0.305 C  
BRANCH   3   4
HETATM    4  N   UNL     1     -10.017  12.149  66.034  1.00  0.00    -0.232 NA 
HETATM    5  C   UNL     1     -10.077  13.524  66.583  1.00  0.00    -0.277 C  
HETATM    6  C   UNL     1     -11.261  13.770  67.524  1.00  0.00    -0.316 C  
HETATM    7  C   UNL     1     -11.258  12.778  68.681  1.00  0.00    -0.322 C  
HETATM    8  C   UNL     1     -11.120  11.346  68.182  1.00  0.00    -0.306 C  
HETATM    9  C   UNL     1      -9.952  11.198  67.193  1.00  0.00    -0.186 C  
BRANCH   9  10
HETATM   10  C   UNL     1      -9.793   9.729  66.748  1.00  0.00    -0.208 C  
HETATM   11  N   UNL     1      -8.469   9.363  66.551  1.00  0.00    -0.131 N  
HETATM   12  O   UNL     1     -10.758   8.980  66.611  1.00  0.00    -0.159 OA 
HETATM   13  H   UNL     1      -7.743  10.073  66.645  1.00  0.00     0.000 HD 
BRANCH  11  14
HETATM   14  C   UNL     1      -8.090   8.037  66.226  1.00  0.00    -0.112 A  
HETATM   15  C   UNL     1      -7.895   7.682  64.873  1.00  0.00    -0.128 A  
HETATM   16  C   UNL     1      -8.235   8.575  63.708  1.00  0.00    -0.126 C  
HETATM   17  C   UNL     1      -7.483   6.373  64.563  1.00  0.00    -0.089 A  
HETATM   18  C   UNL     1      -7.244   5.437  65.564  1.00  0.00    -0.068 A  
HETATM   19  C   UNL     1      -7.419   5.792  66.896  1.00  0.00    -0.084 A  
HETATM   20  C   UNL     1      -7.832   7.091  67.247  1.00  0.00    -0.110 A  
HETATM   21  C   UNL     1      -7.945   7.411  68.714  1.00  0.00    -0.123 C  
ENDBRANCH  11  14
ENDBRANCH   9  10
ENDBRANCH   3   4
ENDBRANCH   2   3
TORSDOF 4
ENDMDL
MODEL      181
REMARK 921   NORMALIZED FREE ENERGY PREDICTED BY IDOCK:   -3.48 KCAL/MOL
REMARK 922        TOTAL FREE ENERGY PREDICTED BY IDOCK:   -4.82 KCAL/MOL
REMARK 923 INTER-LIGAND FREE ENERGY PREDICTED BY IDOCK:   -4.27 KCAL/MOL
REMARK 924 INTRA-LIGAND FREE ENERGY PREDICTED BY IDOCK:   -0.55 KCAL/MOL
REMARK 927      BINDING AFFINITY PREDICTED BY RF-SCORE:    0.00 PKD
ROOT
HETATM    1  C   UNL     1      -6.270   9.304  70.446  1.00  0.00    -0.052 C  
HETATM    2  C   UNL     1      -7.429  10.198  70.029  1.00  0.00    -0.171 C  
ENDROOT
BRANCH   2   3
HETATM    3  C   UNL     1      -8.170   9.621  68.811  1.00  0.00    -0.106 C  
BRANCH   3   4
HETATM    4  N   UNL     1      -9.564  10.105  68.685  1.00  0.00    -0.157 NA 
HETATM    5  C   UNL     1      -9.660  11.359  67.901  1.00  0.00    -0.177 C  
HETATM    6  C   UNL     1      -9.293  11.200  66.421  1.00  0.00    -0.207 C  
HETATM    7  C   UNL     1     -10.154  10.135  65.753  1.00  0.00    -0.324 C  
HETATM    8  C   UNL     1     -10.158   8.842  66.556  1.00  0.00    -0.349 C  
HETATM    9  C   UNL     1     -10.469   9.095  68.041  1.00  0.00    -0.224 C  
BRANCH   9  10
HETATM   10  C   UNL     1     -10.528   7.767  68.823  1.00  0.00    -0.181 C  
HETATM   11  N   UNL     1     -10.503   7.947  70.200  1.00  0.00    -0.226 N  
HETATM   12  O   UNL     1     -10.610   6.678  68.258  1.00  0.00    -0.197 OA 
HETATM   13  H   UNL     1     -10.386   8.890  70.570  1.00  0.00     0.000 HD 
BRANCH  11  14
HETATM   14  C   UNL     1     -10.636   6.868  71.107  1.00  0.00    -0.222 A  
HETATM   15  C   UNL     1      -9.490   6.135  71.489  1.00  0.00    -0.161 A  
HETATM   16  C   UNL     1      -8.132   6.304  70.861  1.00  0.00    -0.124 C  
HETATM   17  C   UNL     1      -9.627   5.089  72.420  1.00  0.00    -0.178 A  
HETATM   18  C   UNL     1     -10.863   4.783  72.982  1.00  0.00    -0.326 A  
HETATM   19  C   UNL     1     -11.986   5.514  72.620  1.00  0.00    -0.106 A  
HETATM   20  C   UNL     1     -11.891   6.567  71.690  1.00  0.00    -0.384 A  
HETATM   21  C   UNL     1     -13.145   7.346  71.392  1.00  0.00    -0.401 C  
ENDBRANCH  11  14
ENDBRANCH   9  10
ENDBRANCH   3   4
ENDBRANCH   2   3
TORSDOF 4
ENDMDL
MODEL      182
REMARK 921   NORMALIZED FREE ENERGY PREDICTED BY IDOCK:   -3.47 KCAL/MOL
REMARK 922        TOTAL FREE ENERGY PREDICTED BY IDOCK:   -4.81 KCAL/MOL
REMARK 923 INTER-LIGAND FREE ENERGY PREDICTED BY IDOCK:   -4.03 KCAL/MOL
REMARK 924 INTRA-LIGAND FREE ENERGY PREDICTED BY IDOCK:   -0.78 KCAL/MOL
REMARK 927      BINDING AFFINITY PREDICTED BY RF-SCORE:    0.00 PKD
ROOT
HETATM    1  C   UNL     1      -7.290   4.358  66.511  1.00  0.00    -0.081 C  
HETATM    2  C   UNL     1      -7.357   5.878  66.467  1.00  0.00    -0.078 C  
ENDROOT
BRANCH   2   3
HETATM    3  C   UNL     1      -8.343   6.425  67.512  1.00  0.00    -0.117 C  
BRANCH   3   4
HETATM    4  N   UNL     1      -7.965   7.755  68.042  1.00  0.00    -0.120 NA 
HETATM    5  C   UNL     1      -7.960   8.802  66.994  1.00  0.00    -0.095 C  
HETATM    6  C   UNL     1      -9.347   9.122  66.424  1.00  0.00    -0.261 C  
HETATM    7  C   UNL     1     -10.312   9.536  67.528  1.00  0.00    -0.306 C  
HETATM    8  C   UNL     1     -10.304   8.534  68.675  1.00  0.00    -0.224 C  
HETATM    9  C   UNL     1      -8.874   8.217  69.144  1.00  0.00    -0.144 C  
BRANCH   9  10
HETATM   10  C   UNL     1      -8.893   7.247  70.344  1.00  0.00    -0.150 C  
HETATM   11  N   UNL     1     -10.081   6.535  70.446  1.00  0.00    -0.182 N  
HETATM   12  O   UNL     1      -7.932   7.124  71.100  1.00  0.00    -0.100 OA 
HETATM   13  H   UNL     1     -10.838   6.745  69.795  1.00  0.00     0.000 HD 
BRANCH  11  14
HETATM   14  C   UNL     1     -10.278   5.528  71.422  1.00  0.00    -0.215 A  
HETATM   15  C   UNL     1     -10.916   5.854  72.639  1.00  0.00    -0.305 A  
HETATM   16  C   UNL     1     -11.256   7.258  73.064  1.00  0.00    -0.309 C  
HETATM   17  C   UNL     1     -11.140   4.838  73.587  1.00  0.00    -0.380 A  
HETATM   18  C   UNL     1     -10.766   3.522  73.333  1.00  0.00    -0.303 A  
HETATM   19  C   UNL     1     -10.155   3.198  72.129  1.00  0.00    -0.200 A  
HETATM   20  C   UNL     1      -9.911   4.187  71.157  1.00  0.00    -0.211 A  
HETATM   21  C   UNL     1      -9.294   3.744  69.856  1.00  0.00    -0.248 C  
ENDBRANCH  11  14
ENDBRANCH   9  10
ENDBRANCH   3   4
ENDBRANCH   2   3
TORSDOF 4
ENDMDL
MODEL      183
REMARK 921   NORMALIZED FREE ENERGY PREDICTED BY IDOCK:   -3.46 KCAL/MOL
REMARK 922        TOTAL FREE ENERGY PREDICTED BY IDOCK:   -4.79 KCAL/MOL
REMARK 923 INTER-LIGAND FREE ENERGY PREDICTED BY IDOCK:   -4.31 KCAL/MOL
REMARK 924 INTRA-LIGAND FREE ENERGY PREDICTED BY IDOCK:   -0.48 KCAL/MOL
REMARK 927      BINDING AFFINITY PREDICTED BY RF-SCORE:    0.00 PKD
ROOT
HETATM    1  C   UNL     1     -12.824  11.182  70.342  1.00  0.00    -0.176 C  
HETATM    2  C   UNL     1     -11.800  10.443  71.191  1.00  0.00    -0.432 C  
ENDROOT
BRANCH   2   3
HETATM    3  C   UNL     1     -10.813   9.653  70.316  1.00  0.00    -0.285 C  
BRANCH   3   4
HETATM    4  N   UNL     1     -10.076   8.604  71.057  1.00  0.00    -0.201 NA 
HETATM    5  C   UNL     1     -10.765   8.201  72.306  1.00  0.00    -0.313 C  
HETATM    6  C   UNL     1     -12.101   7.484  72.078  1.00  0.00    -0.326 C  
HETATM    7  C   UNL     1     -11.920   6.255  71.197  1.00  0.00    -0.154 C  
HETATM    8  C   UNL     1     -11.147   6.590  69.929  1.00  0.00    -0.430 C  
HETATM    9  C   UNL     1      -9.856   7.365  70.239  1.00  0.00    -0.187 C  
BRANCH   9  10
HETATM   10  C   UNL     1      -9.059   7.642  68.947  1.00  0.00    -0.140 C  
HETATM   11  N   UNL     1      -9.795   7.401  67.794  1.00  0.00    -0.146 N  
HETATM   12  O   UNL     1      -7.901   8.054  68.968  1.00  0.00    -0.105 OA 
HETATM   13  H   UNL     1     -10.735   7.014  67.883  1.00  0.00     0.000 HD 
BRANCH  11  14
HETATM   14  C   UNL     1      -9.287   7.673  66.501  1.00  0.00    -0.189 A  
HETATM   15  C   UNL     1      -9.461   8.959  65.942  1.00  0.00    -0.303 A  
HETATM   16  C   UNL     1     -10.316  10.037  66.554  1.00  0.00    -0.268 C  
HETATM   17  C   UNL     1      -8.921   9.231  64.672  1.00  0.00    -0.202 A  
HETATM   18  C   UNL     1      -8.202   8.265  63.974  1.00  0.00    -0.098 A  
HETATM   19  C   UNL     1      -8.015   7.007  64.531  1.00  0.00    -0.104 A  
HETATM   20  C   UNL     1      -8.543   6.695  65.798  1.00  0.00    -0.147 A  
HETATM   21  C   UNL     1      -8.250   5.327  66.355  1.00  0.00    -0.109 C  
ENDBRANCH  11  14
ENDBRANCH   9  10
ENDBRANCH   3   4
ENDBRANCH   2   3
TORSDOF 4
ENDMDL
MODEL      184
REMARK 921   NORMALIZED FREE ENERGY PREDICTED BY IDOCK:   -3.45 KCAL/MOL
REMARK 922        TOTAL FREE ENERGY PREDICTED BY IDOCK:   -4.79 KCAL/MOL
REMARK 923 INTER-LIGAND FREE ENERGY PREDICTED BY IDOCK:   -4.63 KCAL/MOL
REMARK 924 INTRA-LIGAND FREE ENERGY PREDICTED BY IDOCK:   -0.16 KCAL/MOL
REMARK 927      BINDING AFFINITY PREDICTED BY RF-SCORE:    0.00 PKD
ROOT
HETATM    1  C   UNL     1     -12.274  13.049  63.241  1.00  0.00    -0.464 C  
HETATM    2  C   UNL     1     -11.031  12.512  63.936  1.00  0.00    -0.471 C  
ENDROOT
BRANCH   2   3
HETATM    3  C   UNL     1     -11.350  12.034  65.362  1.00  0.00    -0.321 C  
BRANCH   3   4
HETATM    4  N   UNL     1     -10.424  12.571  66.385  1.00  0.00    -0.244 NA 
HETATM    5  C   UNL     1     -10.673  14.002  66.680  1.00  0.00    -0.281 C  
HETATM    6  C   UNL     1     -12.019  14.274  67.362  1.00  0.00    -0.426 C  
HETATM    7  C   UNL     1     -12.151  13.475  68.653  1.00  0.00    -0.303 C  
HETATM    8  C   UNL     1     -11.830  12.004  68.430  1.00  0.00    -0.360 C  
HETATM    9  C   UNL     1     -10.499  11.819  67.683  1.00  0.00    -0.197 C  
BRANCH   9  10
HETATM   10  C   UNL     1     -10.164  10.322  67.521  1.00  0.00    -0.210 C  
HETATM   11  N   UNL     1      -9.277   9.858  68.483  1.00  0.00    -0.133 N  
HETATM   12  O   UNL     1     -10.665   9.632  66.635  1.00  0.00    -0.149 OA 
HETATM   13  H   UNL     1      -8.881  10.522  69.148  1.00  0.00     0.000 HD 
BRANCH  11  14
HETATM   14  C   UNL     1      -8.903   8.495  68.574  1.00  0.00    -0.139 A  
HETATM   15  C   UNL     1      -7.726   8.052  67.930  1.00  0.00    -0.114 A  
HETATM   16  C   UNL     1      -6.910   8.897  66.988  1.00  0.00    -0.073 C  
HETATM   17  C   UNL     1      -7.344   6.704  68.057  1.00  0.00    -0.097 A  
HETATM   18  C   UNL     1      -8.090   5.813  68.822  1.00  0.00    -0.102 A  
HETATM   19  C   UNL     1      -9.238   6.253  69.469  1.00  0.00    -0.142 A  
HETATM   20  C   UNL     1      -9.655   7.593  69.365  1.00  0.00    -0.159 A  
HETATM   21  C   UNL     1     -10.879   8.002  70.141  1.00  0.00    -0.242 C  
ENDBRANCH  11  14
ENDBRANCH   9  10
ENDBRANCH   3   4
ENDBRANCH   2   3
TORSDOF 4
ENDMDL
MODEL      185
REMARK 921   NORMALIZED FREE ENERGY PREDICTED BY IDOCK:   -3.44 KCAL/MOL
REMARK 922        TOTAL FREE ENERGY PREDICTED BY IDOCK:   -4.78 KCAL/MOL
REMARK 923 INTER-LIGAND FREE ENERGY PREDICTED BY IDOCK:   -4.18 KCAL/MOL
REMARK 924 INTRA-LIGAND FREE ENERGY PREDICTED BY IDOCK:   -0.60 KCAL/MOL
REMARK 927      BINDING AFFINITY PREDICTED BY RF-SCORE:    0.00 PKD
ROOT
HETATM    1  C   UNL     1      -8.328   2.603  66.778  1.00  0.00    -0.092 C  
HETATM    2  C   UNL     1      -9.039   2.472  68.117  1.00  0.00    -0.229 C  
ENDROOT
BRANCH   2   3
HETATM    3  C   UNL     1      -9.265   3.847  68.767  1.00  0.00    -0.152 C  
BRANCH   3   4
HETATM    4  N   UNL     1      -9.874   3.770  70.115  1.00  0.00    -0.140 NA 
HETATM    5  C   UNL     1      -9.222   2.753  70.974  1.00  0.00    -0.130 C  
HETATM    6  C   UNL     1      -7.775   3.088  71.350  1.00  0.00    -0.051 C  
HETATM    7  C   UNL     1      -7.687   4.444  72.040  1.00  0.00    -0.081 C  
HETATM    8  C   UNL     1      -8.408   5.520  71.240  1.00  0.00    -0.126 C  
HETATM    9  C   UNL     1      -9.828   5.080  70.846  1.00  0.00    -0.205 C  
BRANCH   9  10
HETATM   10  C   UNL     1     -10.561   6.207  70.089  1.00  0.00    -0.259 C  
HETATM   11  N   UNL     1      -9.828   7.385  70.028  1.00  0.00    -0.179 N  
HETATM   12  O   UNL     1     -11.669   6.042  69.583  1.00  0.00    -0.196 OA 
HETATM   13  H   UNL     1      -8.936   7.435  70.521  1.00  0.00     0.000 HD 
BRANCH  11  14
HETATM   14  C   UNL     1     -10.274   8.518  69.306  1.00  0.00    -0.208 A  
HETATM   15  C   UNL     1     -10.172   8.529  67.897  1.00  0.00    -0.273 A  
HETATM   16  C   UNL     1      -9.450   7.479  67.095  1.00  0.00    -0.194 C  
HETATM   17  C   UNL     1     -10.653   9.644  67.186  1.00  0.00    -0.298 A  
HETATM   18  C   UNL     1     -11.244  10.718  67.844  1.00  0.00    -0.386 A  
HETATM   19  C   UNL     1     -11.360  10.699  69.228  1.00  0.00    -0.346 A  
HETATM   20  C   UNL     1     -10.889   9.603  69.976  1.00  0.00    -0.302 A  
HETATM   21  C   UNL     1     -11.102   9.636  71.466  1.00  0.00    -0.335 C  
ENDBRANCH  11  14
ENDBRANCH   9  10
ENDBRANCH   3   4
ENDBRANCH   2   3
TORSDOF 4
ENDMDL
MODEL      186
REMARK 921   NORMALIZED FREE ENERGY PREDICTED BY IDOCK:   -3.44 KCAL/MOL
REMARK 922        TOTAL FREE ENERGY PREDICTED BY IDOCK:   -4.78 KCAL/MOL
REMARK 923 INTER-LIGAND FREE ENERGY PREDICTED BY IDOCK:   -3.96 KCAL/MOL
REMARK 924 INTRA-LIGAND FREE ENERGY PREDICTED BY IDOCK:   -0.81 KCAL/MOL
REMARK 927      BINDING AFFINITY PREDICTED BY RF-SCORE:    0.00 PKD
ROOT
HETATM    1  C   UNL     1     -12.297  14.031  66.876  1.00  0.00    -0.321 C  
HETATM    2  C   UNL     1     -11.208  15.041  67.206  1.00  0.00    -0.339 C  
ENDROOT
BRANCH   2   3
HETATM    3  C   UNL     1     -10.044  14.381  67.963  1.00  0.00    -0.232 C  
BRANCH   3   4
HETATM    4  N   UNL     1      -8.768  14.394  67.211  1.00  0.00    -0.203 NA 
HETATM    5  C   UNL     1      -8.143  15.737  67.179  1.00  0.00    -0.211 C  
HETATM    6  C   UNL     1      -7.656  16.232  68.546  1.00  0.00    -0.179 C  
HETATM    7  C   UNL     1      -6.675  15.247  69.169  1.00  0.00    -0.135 C  
HETATM    8  C   UNL     1      -7.231  13.830  69.160  1.00  0.00    -0.016 C  
HETATM    9  C   UNL     1      -7.758  13.434  67.771  1.00  0.00    -0.161 C  
BRANCH   9  10
HETATM   10  C   UNL     1      -8.261  11.976  67.770  1.00  0.00    -0.151 C  
HETATM   11  N   UNL     1      -8.462  11.472  69.048  1.00  0.00    -0.370 N  
HETATM   12  O   UNL     1      -8.475  11.358  66.729  1.00  0.00    -0.154 OA 
HETATM   13  H   UNL     1      -8.210  12.049  69.850  1.00  0.00     0.000 HD 
BRANCH  11  14
HETATM   14  C   UNL     1      -9.004  10.184  69.277  1.00  0.00    -0.183 A  
HETATM   15  C   UNL     1      -8.139   9.071  69.368  1.00  0.00    -0.108 A  
HETATM   16  C   UNL     1      -6.666   9.119  69.062  1.00  0.00    -0.055 C  
HETATM   17  C   UNL     1      -8.685   7.801  69.633  1.00  0.00    -0.135 A  
HETATM   18  C   UNL     1     -10.052   7.631  69.828  1.00  0.00    -0.196 A  
HETATM   19  C   UNL     1     -10.901   8.729  69.756  1.00  0.00    -0.196 A  
HETATM   20  C   UNL     1     -10.394  10.015  69.490  1.00  0.00    -0.256 A  
HETATM   21  C   UNL     1     -11.373  11.159  69.482  1.00  0.00    -0.359 C  
ENDBRANCH  11  14
ENDBRANCH   9  10
ENDBRANCH   3   4
ENDBRANCH   2   3
TORSDOF 4
ENDMDL
MODEL      187
REMARK 921   NORMALIZED FREE ENERGY PREDICTED BY IDOCK:   -3.44 KCAL/MOL
REMARK 922        TOTAL FREE ENERGY PREDICTED BY IDOCK:   -4.77 KCAL/MOL
REMARK 923 INTER-LIGAND FREE ENERGY PREDICTED BY IDOCK:   -4.16 KCAL/MOL
REMARK 924 INTRA-LIGAND FREE ENERGY PREDICTED BY IDOCK:   -0.60 KCAL/MOL
REMARK 927      BINDING AFFINITY PREDICTED BY RF-SCORE:    0.00 PKD
ROOT
HETATM    1  C   UNL     1     -12.492  11.326  71.237  1.00  0.00    -0.441 C  
HETATM    2  C   UNL     1     -11.801  10.482  70.175  1.00  0.00    -0.404 C  
ENDROOT
BRANCH   2   3
HETATM    3  C   UNL     1     -10.725  11.290  69.432  1.00  0.00    -0.141 C  
BRANCH   3   4
HETATM    4  N   UNL     1     -11.150  11.745  68.088  1.00  0.00    -0.225 NA 
HETATM    5  C   UNL     1     -11.925  13.007  68.136  1.00  0.00    -0.280 C  
HETATM    6  C   UNL     1     -11.109  14.224  68.587  1.00  0.00    -0.273 C  
HETATM    7  C   UNL     1      -9.890  14.428  67.697  1.00  0.00    -0.224 C  
HETATM    8  C   UNL     1      -9.092  13.140  67.546  1.00  0.00    -0.205 C  
HETATM    9  C   UNL     1      -9.993  11.956  67.156  1.00  0.00    -0.194 C  
BRANCH   9  10
HETATM   10  C   UNL     1      -9.156  10.676  66.950  1.00  0.00    -0.155 C  
HETATM   11  N   UNL     1      -9.695   9.825  65.995  1.00  0.00    -0.235 N  
HETATM   12  O   UNL     1      -8.113  10.470  67.567  1.00  0.00    -0.107 OA 
HETATM   13  H   UNL     1     -10.592  10.064  65.572  1.00  0.00     0.000 HD 
BRANCH  11  14
HETATM   14  C   UNL     1      -9.043   8.636  65.586  1.00  0.00    -0.164 A  
HETATM   15  C   UNL     1      -8.080   8.691  64.554  1.00  0.00    -0.162 A  
HETATM   16  C   UNL     1      -7.811   9.912  63.715  1.00  0.00    -0.147 C  
HETATM   17  C   UNL     1      -7.410   7.511  64.180  1.00  0.00    -0.091 A  
HETATM   18  C   UNL     1      -7.665   6.304  64.825  1.00  0.00    -0.101 A  
HETATM   19  C   UNL     1      -8.599   6.254  65.851  1.00  0.00    -0.150 A  
HETATM   20  C   UNL     1      -9.291   7.412  66.252  1.00  0.00    -0.166 A  
HETATM   21  C   UNL     1     -10.247   7.284  67.409  1.00  0.00    -0.304 C  
ENDBRANCH  11  14
ENDBRANCH   9  10
ENDBRANCH   3   4
ENDBRANCH   2   3
TORSDOF 4
ENDMDL
MODEL      188
REMARK 921   NORMALIZED FREE ENERGY PREDICTED BY IDOCK:   -3.41 KCAL/MOL
REMARK 922        TOTAL FREE ENERGY PREDICTED BY IDOCK:   -4.74 KCAL/MOL
REMARK 923 INTER-LIGAND FREE ENERGY PREDICTED BY IDOCK:   -4.04 KCAL/MOL
REMARK 924 INTRA-LIGAND FREE ENERGY PREDICTED BY IDOCK:   -0.69 KCAL/MOL
REMARK 927      BINDING AFFINITY PREDICTED BY RF-SCORE:    0.00 PKD
ROOT
HETATM    1  C   UNL     1     -13.169   9.580  71.868  1.00  0.00    -0.524 C  
HETATM    2  C   UNL     1     -13.116  10.988  72.442  1.00  0.00     0.235 C  
ENDROOT
BRANCH   2   3
HETATM    3  C   UNL     1     -12.266  11.919  71.562  1.00  0.00     0.319 C  
BRANCH   3   4
HETATM    4  N   UNL     1     -13.060  12.943  70.846  1.00  0.00    -0.005 NA 
HETATM    5  C   UNL     1     -13.730  13.889  71.771  1.00  0.00    -0.377 C  
HETATM    6  C   UNL     1     -12.765  14.790  72.549  1.00  0.00    -0.455 C  
HETATM    7  C   UNL     1     -11.867  15.578  71.604  1.00  0.00    -0.486 C  
HETATM    8  C   UNL     1     -11.208  14.668  70.577  1.00  0.00    -0.144 C  
HETATM    9  C   UNL     1     -12.233  13.751  69.889  1.00  0.00    -0.321 C  
BRANCH   9  10
HETATM   10  C   UNL     1     -11.554  12.881  68.811  1.00  0.00    -0.311 C  
HETATM   11  N   UNL     1     -10.203  12.674  69.055  1.00  0.00    -0.428 N  
HETATM   12  O   UNL     1     -12.176  12.416  67.859  1.00  0.00    -0.379 OA 
HETATM   13  H   UNL     1      -9.768  13.143  69.850  1.00  0.00     0.000 HD 
BRANCH  11  14
HETATM   14  C   UNL     1      -9.407  11.832  68.240  1.00  0.00    -0.193 A  
HETATM   15  C   UNL     1      -9.459  10.433  68.426  1.00  0.00    -0.151 A  
HETATM   16  C   UNL     1     -10.179   9.758  69.563  1.00  0.00    -0.238 C  
HETATM   17  C   UNL     1      -8.693   9.603  67.586  1.00  0.00    -0.126 A  
HETATM   18  C   UNL     1      -7.909  10.137  66.568  1.00  0.00    -0.112 A  
HETATM   19  C   UNL     1      -7.871  11.512  66.374  1.00  0.00    -0.020 A  
HETATM   20  C   UNL     1      -8.621  12.375  67.195  1.00  0.00    -0.189 A  
HETATM   21  C   UNL     1      -8.569  13.848  66.885  1.00  0.00    -0.138 C  
ENDBRANCH  11  14
ENDBRANCH   9  10
ENDBRANCH   3   4
ENDBRANCH   2   3
TORSDOF 4
ENDMDL
MODEL      189
REMARK 921   NORMALIZED FREE ENERGY PREDICTED BY IDOCK:   -3.41 KCAL/MOL
REMARK 922        TOTAL FREE ENERGY PREDICTED BY IDOCK:   -4.73 KCAL/MOL
REMARK 923 INTER-LIGAND FREE ENERGY PREDICTED BY IDOCK:   -3.90 KCAL/MOL
REMARK 924 INTRA-LIGAND FREE ENERGY PREDICTED BY IDOCK:   -0.84 KCAL/MOL
REMARK 927      BINDING AFFINITY PREDICTED BY RF-SCORE:    0.00 PKD
ROOT
HETATM    1  C   UNL     1      -5.897   5.533  69.262  1.00  0.00    -0.016 C  
HETATM    2  C   UNL     1      -7.406   5.727  69.302  1.00  0.00    -0.079 C  
ENDROOT
BRANCH   2   3
HETATM    3  C   UNL     1      -7.815   6.710  70.411  1.00  0.00    -0.106 C  
BRANCH   3   4
HETATM    4  N   UNL     1      -9.067   6.330  71.105  1.00  0.00    -0.146 NA 
HETATM    5  C   UNL     1      -8.817   5.711  72.427  1.00  0.00    -0.135 C  
HETATM    6  C   UNL     1      -8.214   6.668  73.461  1.00  0.00    -0.121 C  
HETATM    7  C   UNL     1      -9.097   7.896  73.652  1.00  0.00    -0.337 C  
HETATM    8  C   UNL     1      -9.453   8.535  72.317  1.00  0.00    -0.365 C  
HETATM    9  C   UNL     1      -9.988   7.497  71.315  1.00  0.00    -0.186 C  
BRANCH   9  10
HETATM   10  C   UNL     1     -10.399   8.175  69.991  1.00  0.00    -0.215 C  
HETATM   11  N   UNL     1      -9.876   9.453  69.852  1.00  0.00    -0.196 N  
HETATM   12  O   UNL     1     -11.100   7.607  69.156  1.00  0.00    -0.047 OA 
HETATM   13  H   UNL     1      -9.343   9.854  70.624  1.00  0.00     0.000 HD 
BRANCH  11  14
HETATM   14  C   UNL     1     -10.055  10.220  68.675  1.00  0.00    -0.174 A  
HETATM   15  C   UNL     1      -9.128  10.096  67.616  1.00  0.00    -0.144 A  
HETATM   16  C   UNL     1      -7.838   9.326  67.710  1.00  0.00    -0.092 C  
HETATM   17  C   UNL     1      -9.336  10.835  66.437  1.00  0.00    -0.198 A  
HETATM   18  C   UNL     1     -10.446  11.661  66.290  1.00  0.00    -0.286 A  
HETATM   19  C   UNL     1     -11.366  11.769  67.325  1.00  0.00    -0.379 A  
HETATM   20  C   UNL     1     -11.193  11.049  68.522  1.00  0.00    -0.329 A  
HETATM   21  C   UNL     1     -12.264  11.179  69.572  1.00  0.00    -0.347 C  
ENDBRANCH  11  14
ENDBRANCH   9  10
ENDBRANCH   3   4
ENDBRANCH   2   3
TORSDOF 4
ENDMDL
MODEL      190
REMARK 921   NORMALIZED FREE ENERGY PREDICTED BY IDOCK:   -3.41 KCAL/MOL
REMARK 922        TOTAL FREE ENERGY PREDICTED BY IDOCK:   -4.73 KCAL/MOL
REMARK 923 INTER-LIGAND FREE ENERGY PREDICTED BY IDOCK:   -4.86 KCAL/MOL
REMARK 924 INTRA-LIGAND FREE ENERGY PREDICTED BY IDOCK:    0.13 KCAL/MOL
REMARK 927      BINDING AFFINITY PREDICTED BY RF-SCORE:    0.00 PKD
ROOT
HETATM    1  C   UNL     1      -6.401  10.494  65.780  1.00  0.00    -0.129 C  
HETATM    2  C   UNL     1      -7.817   9.955  65.639  1.00  0.00    -0.127 C  
ENDROOT
BRANCH   2   3
HETATM    3  C   UNL     1      -8.767  10.605  66.658  1.00  0.00    -0.140 C  
BRANCH   3   4
HETATM    4  N   UNL     1     -10.059   9.894  66.798  1.00  0.00    -0.218 NA 
HETATM    5  C   UNL     1      -9.885   8.471  67.170  1.00  0.00    -0.206 C  
HETATM    6  C   UNL     1      -9.306   8.258  68.574  1.00  0.00    -0.138 C  
HETATM    7  C   UNL     1     -10.165   8.942  69.631  1.00  0.00    -0.209 C  
HETATM    8  C   UNL     1     -10.444  10.393  69.264  1.00  0.00    -0.257 C  
HETATM    9  C   UNL     1     -10.958  10.526  67.821  1.00  0.00    -0.313 C  
BRANCH   9  10
HETATM   10  C   UNL     1     -11.291  11.996  67.491  1.00  0.00    -0.319 C  
HETATM   11  N   UNL     1     -10.161  12.770  67.267  1.00  0.00    -0.224 N  
HETATM   12  O   UNL     1     -12.449  12.404  67.419  1.00  0.00    -0.142 OA 
HETATM   13  H   UNL     1      -9.241  12.348  67.397  1.00  0.00     0.000 HD 
BRANCH  11  14
HETATM   14  C   UNL     1     -10.239  14.125  66.863  1.00  0.00    -0.267 A  
HETATM   15  C   UNL     1     -10.435  14.434  65.498  1.00  0.00    -0.366 A  
HETATM   16  C   UNL     1     -10.391  13.418  64.388  1.00  0.00    -0.347 C  
HETATM   17  C   UNL     1     -10.549  15.782  65.113  1.00  0.00    -0.436 A  
HETATM   18  C   UNL     1     -10.496  16.807  66.052  1.00  0.00    -0.300 A  
HETATM   19  C   UNL     1     -10.322  16.503  67.396  1.00  0.00    -0.290 A  
HETATM   20  C   UNL     1     -10.201  15.166  67.822  1.00  0.00    -0.236 A  
HETATM   21  C   UNL     1     -10.069  14.918  69.302  1.00  0.00    -0.201 C  
ENDBRANCH  11  14
ENDBRANCH   9  10
ENDBRANCH   3   4
ENDBRANCH   2   3
TORSDOF 4
ENDMDL
MODEL      191
REMARK 921   NORMALIZED FREE ENERGY PREDICTED BY IDOCK:   -3.40 KCAL/MOL
REMARK 922        TOTAL FREE ENERGY PREDICTED BY IDOCK:   -4.73 KCAL/MOL
REMARK 923 INTER-LIGAND FREE ENERGY PREDICTED BY IDOCK:   -4.11 KCAL/MOL
REMARK 924 INTRA-LIGAND FREE ENERGY PREDICTED BY IDOCK:   -0.61 KCAL/MOL
REMARK 927      BINDING AFFINITY PREDICTED BY RF-SCORE:    0.00 PKD
ROOT
HETATM    1  C   UNL     1      -6.365   5.898  66.027  1.00  0.00    -0.042 C  
HETATM    2  C   UNL     1      -7.884   5.892  65.924  1.00  0.00    -0.105 C  
ENDROOT
BRANCH   2   3
HETATM    3  C   UNL     1      -8.500   7.085  66.674  1.00  0.00    -0.121 C  
BRANCH   3   4
HETATM    4  N   UNL     1      -9.979   7.118  66.616  1.00  0.00    -0.191 NA 
HETATM    5  C   UNL     1     -10.594   5.861  67.103  1.00  0.00    -0.299 C  
HETATM    6  C   UNL     1     -10.388   5.604  68.600  1.00  0.00    -0.277 C  
HETATM    7  C   UNL     1     -10.915   6.765  69.433  1.00  0.00    -0.321 C  
HETATM    8  C   UNL     1     -10.378   8.098  68.931  1.00  0.00    -0.225 C  
HETATM    9  C   UNL     1     -10.563   8.249  67.411  1.00  0.00    -0.253 C  
BRANCH   9  10
HETATM   10  C   UNL     1     -10.067   9.629  66.934  1.00  0.00    -0.227 C  
HETATM   11  N   UNL     1      -9.872  10.525  67.976  1.00  0.00    -0.146 N  
HETATM   12  O   UNL     1      -9.854   9.873  65.748  1.00  0.00    -0.252 OA 
HETATM   13  H   UNL     1     -10.123  10.241  68.923  1.00  0.00     0.000 HD 
BRANCH  11  14
HETATM   14  C   UNL     1      -9.336  11.820  67.771  1.00  0.00    -0.181 A  
HETATM   15  C   UNL     1      -7.934  11.995  67.739  1.00  0.00    -0.147 A  
HETATM   16  C   UNL     1      -6.941  10.919  68.088  1.00  0.00    -0.069 C  
HETATM   17  C   UNL     1      -7.412  13.279  67.498  1.00  0.00    -0.163 A  
HETATM   18  C   UNL     1      -8.249  14.366  67.267  1.00  0.00    -0.223 A  
HETATM   19  C   UNL     1      -9.627  14.190  67.280  1.00  0.00    -0.234 A  
HETATM   20  C   UNL     1     -10.189  12.922  67.521  1.00  0.00    -0.213 A  
HETATM   21  C   UNL     1     -11.689  12.805  67.464  1.00  0.00    -0.422 C  
ENDBRANCH  11  14
ENDBRANCH   9  10
ENDBRANCH   3   4
ENDBRANCH   2   3
TORSDOF 4
ENDMDL
MODEL      192
REMARK 921   NORMALIZED FREE ENERGY PREDICTED BY IDOCK:   -3.39 KCAL/MOL
REMARK 922        TOTAL FREE ENERGY PREDICTED BY IDOCK:   -4.71 KCAL/MOL
REMARK 923 INTER-LIGAND FREE ENERGY PREDICTED BY IDOCK:   -3.94 KCAL/MOL
REMARK 924 INTRA-LIGAND FREE ENERGY PREDICTED BY IDOCK:   -0.77 KCAL/MOL
REMARK 927      BINDING AFFINITY PREDICTED BY RF-SCORE:    0.00 PKD
ROOT
HETATM    1  C   UNL     1      -5.940  10.189  66.988  1.00  0.00    -0.051 C  
HETATM    2  C   UNL     1      -6.946   9.612  67.974  1.00  0.00    -0.078 C  
ENDROOT
BRANCH   2   3
HETATM    3  C   UNL     1      -7.996  10.659  68.380  1.00  0.00    -0.120 C  
BRANCH   3   4
HETATM    4  N   UNL     1      -9.341  10.397  67.818  1.00  0.00    -0.144 NA 
HETATM    5  C   UNL     1      -9.838   9.041  68.150  1.00  0.00    -0.166 C  
HETATM    6  C   UNL     1     -10.122   8.827  69.641  1.00  0.00    -0.204 C  
HETATM    7  C   UNL     1     -11.115   9.858  70.164  1.00  0.00    -0.353 C  
HETATM    8  C   UNL     1     -10.697  11.272  69.786  1.00  0.00     0.007 C  
HETATM    9  C   UNL     1     -10.367  11.386  68.288  1.00  0.00    -0.194 C  
BRANCH   9  10
HETATM   10  C   UNL     1     -10.004  12.839  67.916  1.00  0.00    -0.229 C  
HETATM   11  N   UNL     1      -9.769  13.640  69.025  1.00  0.00    -0.411 N  
HETATM   12  O   UNL     1      -9.918  13.212  66.748  1.00  0.00    -0.239 OA 
HETATM   13  H   UNL     1      -9.913  13.247  69.955  1.00  0.00     0.000 HD 
BRANCH  11  14
HETATM   14  C   UNL     1      -9.336  14.983  68.911  1.00  0.00    -0.208 A  
HETATM   15  C   UNL     1     -10.276  16.030  69.039  1.00  0.00    -0.236 A  
HETATM   16  C   UNL     1     -11.766  15.823  69.116  1.00  0.00    -0.398 C  
HETATM   17  C   UNL     1      -9.830  17.362  68.961  1.00  0.00    -0.230 A  
HETATM   18  C   UNL     1      -8.483  17.661  68.785  1.00  0.00    -0.213 A  
HETATM   19  C   UNL     1      -7.556  16.632  68.677  1.00  0.00    -0.214 A  
HETATM   20  C   UNL     1      -7.963  15.286  68.747  1.00  0.00    -0.158 A  
HETATM   21  C   UNL     1      -6.890  14.231  68.677  1.00  0.00    -0.098 C  
ENDBRANCH  11  14
ENDBRANCH   9  10
ENDBRANCH   3   4
ENDBRANCH   2   3
TORSDOF 4
ENDMDL
MODEL      193
REMARK 921   NORMALIZED FREE ENERGY PREDICTED BY IDOCK:   -3.39 KCAL/MOL
REMARK 922        TOTAL FREE ENERGY PREDICTED BY IDOCK:   -4.70 KCAL/MOL
REMARK 923 INTER-LIGAND FREE ENERGY PREDICTED BY IDOCK:   -4.10 KCAL/MOL
REMARK 924 INTRA-LIGAND FREE ENERGY PREDICTED BY IDOCK:   -0.61 KCAL/MOL
REMARK 927      BINDING AFFINITY PREDICTED BY RF-SCORE:    0.00 PKD
ROOT
HETATM    1  C   UNL     1     -10.714  15.908  65.200  1.00  0.00    -0.449 C  
HETATM    2  C   UNL     1     -10.041  14.562  64.971  1.00  0.00    -0.325 C  
ENDROOT
BRANCH   2   3
HETATM    3  C   UNL     1     -10.450  13.542  66.046  1.00  0.00    -0.299 C  
BRANCH   3   4
HETATM    4  N   UNL     1      -9.826  13.793  67.366  1.00  0.00    -0.234 NA 
HETATM    5  C   UNL     1     -10.706  14.570  68.270  1.00  0.00    -0.240 C  
HETATM    6  C   UNL     1     -11.971  13.821  68.706  1.00  0.00    -0.400 C  
HETATM    7  C   UNL     1     -11.621  12.499  69.376  1.00  0.00    -0.368 C  
HETATM    8  C   UNL     1     -10.654  11.685  68.527  1.00  0.00    -0.241 C  
HETATM    9  C   UNL     1      -9.448  12.526  68.076  1.00  0.00    -0.209 C  
BRANCH   9  10
HETATM   10  C   UNL     1      -8.452  11.667  67.269  1.00  0.00    -0.156 C  
HETATM   11  N   UNL     1      -8.815  10.328  67.211  1.00  0.00    -0.132 N  
HETATM   12  O   UNL     1      -7.462  12.152  66.726  1.00  0.00    -0.067 OA 
HETATM   13  H   UNL     1      -9.632  10.017  67.736  1.00  0.00     0.000 HD 
BRANCH  11  14
HETATM   14  C   UNL     1      -8.091   9.380  66.448  1.00  0.00    -0.108 A  
HETATM   15  C   UNL     1      -7.130   8.563  67.085  1.00  0.00    -0.076 A  
HETATM   16  C   UNL     1      -6.680   8.744  68.510  1.00  0.00    -0.060 C  
HETATM   17  C   UNL     1      -6.442   7.599  66.326  1.00  0.00    -0.049 A  
HETATM   18  C   UNL     1      -6.710   7.423  64.972  1.00  0.00    -0.044 A  
HETATM   19  C   UNL     1      -7.667   8.214  64.350  1.00  0.00    -0.126 A  
HETATM   20  C   UNL     1      -8.375   9.192  65.074  1.00  0.00    -0.165 A  
HETATM   21  C   UNL     1      -9.435   9.970  64.339  1.00  0.00    -0.349 C  
ENDBRANCH  11  14
ENDBRANCH   9  10
ENDBRANCH   3   4
ENDBRANCH   2   3
TORSDOF 4
ENDMDL
MODEL      194
REMARK 921   NORMALIZED FREE ENERGY PREDICTED BY IDOCK:   -3.35 KCAL/MOL
REMARK 922        TOTAL FREE ENERGY PREDICTED BY IDOCK:   -4.66 KCAL/MOL
REMARK 923 INTER-LIGAND FREE ENERGY PREDICTED BY IDOCK:   -4.33 KCAL/MOL
REMARK 924 INTRA-LIGAND FREE ENERGY PREDICTED BY IDOCK:   -0.33 KCAL/MOL
REMARK 927      BINDING AFFINITY PREDICTED BY RF-SCORE:    0.00 PKD
ROOT
HETATM    1  C   UNL     1      -8.107   3.229  66.137  1.00  0.00    -0.092 C  
HETATM    2  C   UNL     1      -8.873   3.413  67.439  1.00  0.00    -0.150 C  
ENDROOT
BRANCH   2   3
HETATM    3  C   UNL     1      -9.094   4.902  67.752  1.00  0.00    -0.116 C  
BRANCH   3   4
HETATM    4  N   UNL     1     -10.131   5.142  68.781  1.00  0.00    -0.176 NA 
HETATM    5  C   UNL     1      -9.871   4.394  70.034  1.00  0.00    -0.223 C  
HETATM    6  C   UNL     1      -8.624   4.863  70.793  1.00  0.00    -0.127 C  
HETATM    7  C   UNL     1      -8.704   6.350  71.115  1.00  0.00    -0.135 C  
HETATM    8  C   UNL     1      -9.047   7.167  69.877  1.00  0.00    -0.141 C  
HETATM    9  C   UNL     1     -10.268   6.594  69.137  1.00  0.00    -0.179 C  
BRANCH   9  10
HETATM   10  C   UNL     1     -10.634   7.471  67.922  1.00  0.00    -0.185 C  
HETATM   11  N   UNL     1     -10.060   8.734  67.973  1.00  0.00    -0.187 N  
HETATM   12  O   UNL     1     -11.344   7.057  67.008  1.00  0.00    -0.238 OA 
HETATM   13  H   UNL     1      -9.523   8.997  68.799  1.00  0.00     0.000 HD 
BRANCH  11  14
HETATM   14  C   UNL     1     -10.193   9.669  66.918  1.00  0.00    -0.237 A  
HETATM   15  C   UNL     1      -9.547   9.424  65.686  1.00  0.00    -0.345 A  
HETATM   16  C   UNL     1      -8.562   8.308  65.457  1.00  0.00    -0.183 C  
HETATM   17  C   UNL     1      -9.715  10.340  64.632  1.00  0.00    -0.398 A  
HETATM   18  C   UNL     1     -10.523  11.464  64.777  1.00  0.00    -0.366 A  
HETATM   19  C   UNL     1     -11.173  11.695  65.982  1.00  0.00    -0.299 A  
HETATM   20  C   UNL     1     -11.027  10.803  67.062  1.00  0.00    -0.292 A  
HETATM   21  C   UNL     1     -11.808  11.097  68.316  1.00  0.00    -0.260 C  
ENDBRANCH  11  14
ENDBRANCH   9  10
ENDBRANCH   3   4
ENDBRANCH   2   3
TORSDOF 4
ENDMDL
MODEL      195
REMARK 921   NORMALIZED FREE ENERGY PREDICTED BY IDOCK:   -3.31 KCAL/MOL
REMARK 922        TOTAL FREE ENERGY PREDICTED BY IDOCK:   -4.61 KCAL/MOL
REMARK 923 INTER-LIGAND FREE ENERGY PREDICTED BY IDOCK:   -4.10 KCAL/MOL
REMARK 924 INTRA-LIGAND FREE ENERGY PREDICTED BY IDOCK:   -0.51 KCAL/MOL
REMARK 927      BINDING AFFINITY PREDICTED BY RF-SCORE:    0.00 PKD
ROOT
HETATM    1  C   UNL     1     -11.132   6.465  68.930  1.00  0.00    -0.420 C  
HETATM    2  C   UNL     1     -10.996   6.130  67.451  1.00  0.00    -0.409 C  
ENDROOT
BRANCH   2   3
HETATM    3  C   UNL     1      -9.691   6.695  66.867  1.00  0.00    -0.164 C  
BRANCH   3   4
HETATM    4  N   UNL     1      -8.695   7.067  67.898  1.00  0.00    -0.126 NA 
HETATM    5  C   UNL     1      -7.580   6.096  67.985  1.00  0.00    -0.101 C  
HETATM    6  C   UNL     1      -6.683   6.062  66.742  1.00  0.00    -0.057 C  
HETATM    7  C   UNL     1      -6.112   7.442  66.440  1.00  0.00    -0.040 C  
HETATM    8  C   UNL     1      -7.206   8.501  66.414  1.00  0.00    -0.079 C  
HETATM    9  C   UNL     1      -8.100   8.425  67.663  1.00  0.00    -0.118 C  
BRANCH   9  10
HETATM   10  C   UNL     1      -9.163   9.543  67.645  1.00  0.00    -0.124 C  
HETATM   11  N   UNL     1      -9.232  10.243  68.843  1.00  0.00    -0.165 N  
HETATM   12  O   UNL     1      -9.845   9.781  66.651  1.00  0.00    -0.190 OA 
HETATM   13  H   UNL     1      -8.655   9.938  69.625  1.00  0.00     0.000 HD 
BRANCH  11  14
HETATM   14  C   UNL     1     -10.077  11.367  69.014  1.00  0.00    -0.090 A  
HETATM   15  C   UNL     1      -9.733  12.595  68.406  1.00  0.00    -0.187 A  
HETATM   16  C   UNL     1      -8.420  12.857  67.718  1.00  0.00    -0.185 C  
HETATM   17  C   UNL     1     -10.598  13.695  68.552  1.00  0.00    -0.259 A  
HETATM   18  C   UNL     1     -11.790  13.585  69.261  1.00  0.00    -0.392 A  
HETATM   19  C   UNL     1     -12.137  12.373  69.843  1.00  0.00    -0.317 A  
HETATM   20  C   UNL     1     -11.297  11.249  69.722  1.00  0.00    -0.348 A  
HETATM   21  C   UNL     1     -11.771   9.958  70.337  1.00  0.00    -0.333 C  
ENDBRANCH  11  14
ENDBRANCH   9  10
ENDBRANCH   3   4
ENDBRANCH   2   3
TORSDOF 4
ENDMDL
MODEL      196
REMARK 921   NORMALIZED FREE ENERGY PREDICTED BY IDOCK:   -3.31 KCAL/MOL
REMARK 922        TOTAL FREE ENERGY PREDICTED BY IDOCK:   -4.61 KCAL/MOL
REMARK 923 INTER-LIGAND FREE ENERGY PREDICTED BY IDOCK:   -4.13 KCAL/MOL
REMARK 924 INTRA-LIGAND FREE ENERGY PREDICTED BY IDOCK:   -0.48 KCAL/MOL
REMARK 927      BINDING AFFINITY PREDICTED BY RF-SCORE:    0.00 PKD
ROOT
HETATM    1  C   UNL     1      -5.695   9.416  64.039  1.00  0.00    -0.075 C  
HETATM    2  C   UNL     1      -6.853   8.750  64.769  1.00  0.00    -0.073 C  
ENDROOT
BRANCH   2   3
HETATM    3  C   UNL     1      -7.511   9.714  65.770  1.00  0.00    -0.100 C  
BRANCH   3   4
HETATM    4  N   UNL     1      -7.636   9.153  67.135  1.00  0.00    -0.091 NA 
HETATM    5  C   UNL     1      -6.366   8.567  67.625  1.00  0.00    -0.053 C  
HETATM    6  C   UNL     1      -5.252   9.594  67.855  1.00  0.00    -0.036 C  
HETATM    7  C   UNL     1      -5.699  10.680  68.826  1.00  0.00    -0.040 C  
HETATM    8  C   UNL     1      -7.042  11.270  68.417  1.00  0.00    -0.081 C  
HETATM    9  C   UNL     1      -8.084  10.173  68.140  1.00  0.00    -0.105 C  
BRANCH   9  10
HETATM   10  C   UNL     1      -9.452  10.793  67.787  1.00  0.00    -0.155 C  
HETATM   11  N   UNL     1      -9.342  11.955  67.034  1.00  0.00    -0.183 N  
HETATM   12  O   UNL     1     -10.513  10.276  68.131  1.00  0.00    -0.167 OA 
HETATM   13  H   UNL     1      -8.413  12.329  66.840  1.00  0.00     0.000 HD 
BRANCH  11  14
HETATM   14  C   UNL     1     -10.474  12.638  66.526  1.00  0.00    -0.247 A  
HETATM   15  C   UNL     1     -11.154  12.118  65.403  1.00  0.00    -0.362 A  
HETATM   16  C   UNL     1     -10.656  10.962  64.575  1.00  0.00    -0.335 C  
HETATM   17  C   UNL     1     -12.299  12.783  64.929  1.00  0.00    -0.551 A  
HETATM   18  C   UNL     1     -12.782  13.925  65.561  1.00  0.00    -0.536 A  
HETATM   19  C   UNL     1     -12.123  14.426  66.677  1.00  0.00    -0.392 A  
HETATM   20  C   UNL     1     -10.972  13.790  67.180  1.00  0.00    -0.299 A  
HETATM   21  C   UNL     1     -10.349  14.365  68.425  1.00  0.00    -0.244 C  
ENDBRANCH  11  14
ENDBRANCH   9  10
ENDBRANCH   3   4
ENDBRANCH   2   3
TORSDOF 4
ENDMDL
MODEL      197
REMARK 921   NORMALIZED FREE ENERGY PREDICTED BY IDOCK:   -3.30 KCAL/MOL
REMARK 922        TOTAL FREE ENERGY PREDICTED BY IDOCK:   -4.60 KCAL/MOL
REMARK 923 INTER-LIGAND FREE ENERGY PREDICTED BY IDOCK:   -4.02 KCAL/MOL
REMARK 924 INTRA-LIGAND FREE ENERGY PREDICTED BY IDOCK:   -0.58 KCAL/MOL
REMARK 927      BINDING AFFINITY PREDICTED BY RF-SCORE:    0.00 PKD
ROOT
HETATM    1  C   UNL     1     -10.434  11.597  63.270  1.00  0.00    -0.438 C  
HETATM    2  C   UNL     1     -11.643  12.107  64.040  1.00  0.00    -0.504 C  
ENDROOT
BRANCH   2   3
HETATM    3  C   UNL     1     -11.351  12.193  65.547  1.00  0.00    -0.344 C  
BRANCH   3   4
HETATM    4  N   UNL     1     -10.291  13.169  65.889  1.00  0.00    -0.285 NA 
HETATM    5  C   UNL     1     -10.814  14.548  66.029  1.00  0.00    -0.310 C  
HETATM    6  C   UNL     1     -11.754  14.740  67.225  1.00  0.00    -0.366 C  
HETATM    7  C   UNL     1     -11.075  14.337  68.527  1.00  0.00    -0.276 C  
HETATM    8  C   UNL     1     -10.448  12.954  68.420  1.00  0.00    -0.260 C  
HETATM    9  C   UNL     1      -9.574  12.822  67.161  1.00  0.00    -0.219 C  
BRANCH   9  10
HETATM   10  C   UNL     1      -8.901  11.435  67.103  1.00  0.00    -0.156 C  
HETATM   11  N   UNL     1      -7.558  11.498  66.755  1.00  0.00    -0.219 N  
HETATM   12  O   UNL     1      -9.511  10.401  67.367  1.00  0.00    -0.148 OA 
HETATM   13  H   UNL     1      -7.156  12.402  66.509  1.00  0.00     0.000 HD 
BRANCH  11  14
HETATM   14  C   UNL     1      -6.729  10.350  66.729  1.00  0.00    -0.086 A  
HETATM   15  C   UNL     1      -6.092   9.926  67.916  1.00  0.00    -0.050 A  
HETATM   16  C   UNL     1      -6.085  10.715  69.199  1.00  0.00    -0.042 C  
HETATM   17  C   UNL     1      -5.299   8.764  67.888  1.00  0.00    -0.035 A  
HETATM   18  C   UNL     1      -5.154   8.019  66.722  1.00  0.00    -0.027 A  
HETATM   19  C   UNL     1      -5.795   8.426  65.559  1.00  0.00    -0.044 A  
HETATM   20  C   UNL     1      -6.595   9.585  65.546  1.00  0.00    -0.073 A  
HETATM   21  C   UNL     1      -7.299   9.928  64.259  1.00  0.00    -0.133 C  
ENDBRANCH  11  14
ENDBRANCH   9  10
ENDBRANCH   3   4
ENDBRANCH   2   3
TORSDOF 4
ENDMDL
MODEL      198
REMARK 921   NORMALIZED FREE ENERGY PREDICTED BY IDOCK:   -3.29 KCAL/MOL
REMARK 922        TOTAL FREE ENERGY PREDICTED BY IDOCK:   -4.59 KCAL/MOL
REMARK 923 INTER-LIGAND FREE ENERGY PREDICTED BY IDOCK:   -3.84 KCAL/MOL
REMARK 924 INTRA-LIGAND FREE ENERGY PREDICTED BY IDOCK:   -0.75 KCAL/MOL
REMARK 927      BINDING AFFINITY PREDICTED BY RF-SCORE:    0.00 PKD
ROOT
HETATM    1  C   UNL     1      -6.028   8.475  68.932  1.00  0.00    -0.044 C  
HETATM    2  C   UNL     1      -6.735   9.796  69.197  1.00  0.00    -0.053 C  
ENDROOT
BRANCH   2   3
HETATM    3  C   UNL     1      -7.975   9.957  68.303  1.00  0.00    -0.100 C  
BRANCH   3   4
HETATM    4  N   UNL     1      -9.091  10.672  68.963  1.00  0.00    -0.179 NA 
HETATM    5  C   UNL     1      -9.262  12.052  68.452  1.00  0.00    -0.160 C  
HETATM    6  C   UNL     1      -9.721  12.124  66.991  1.00  0.00    -0.208 C  
HETATM    7  C   UNL     1     -11.023  11.359  66.787  1.00  0.00    -0.347 C  
HETATM    8  C   UNL     1     -10.936   9.953  67.364  1.00  0.00    -0.214 C  
HETATM    9  C   UNL     1     -10.405   9.962  68.807  1.00  0.00    -0.203 C  
BRANCH   9  10
HETATM   10  C   UNL     1     -10.381   8.535  69.392  1.00  0.00    -0.215 C  
HETATM   11  N   UNL     1     -10.496   8.514  70.776  1.00  0.00    -0.195 N  
HETATM   12  O   UNL     1     -10.292   7.538  68.679  1.00  0.00    -0.194 OA 
HETATM   13  H   UNL     1     -10.517   9.400  71.281  1.00  0.00     0.000 HD 
BRANCH  11  14
HETATM   14  C   UNL     1     -10.585   7.307  71.510  1.00  0.00    -0.203 A  
HETATM   15  C   UNL     1     -11.847   6.703  71.706  1.00  0.00    -0.380 A  
HETATM   16  C   UNL     1     -13.157   7.347  71.337  1.00  0.00    -0.401 C  
HETATM   17  C   UNL     1     -11.920   5.485  72.405  1.00  0.00    -0.039 A  
HETATM   18  C   UNL     1     -10.773   4.857  72.882  1.00  0.00    -0.297 A  
HETATM   19  C   UNL     1      -9.530   5.442  72.674  1.00  0.00    -0.162 A  
HETATM   20  C   UNL     1      -9.416   6.662  71.981  1.00  0.00    -0.148 A  
HETATM   21  C   UNL     1      -8.028   7.202  71.750  1.00  0.00    -0.097 C  
ENDBRANCH  11  14
ENDBRANCH   9  10
ENDBRANCH   3   4
ENDBRANCH   2   3
TORSDOF 4
ENDMDL
MODEL      199
REMARK 921   NORMALIZED FREE ENERGY PREDICTED BY IDOCK:   -3.29 KCAL/MOL
REMARK 922        TOTAL FREE ENERGY PREDICTED BY IDOCK:   -4.58 KCAL/MOL
REMARK 923 INTER-LIGAND FREE ENERGY PREDICTED BY IDOCK:   -4.19 KCAL/MOL
REMARK 924 INTRA-LIGAND FREE ENERGY PREDICTED BY IDOCK:   -0.40 KCAL/MOL
REMARK 927      BINDING AFFINITY PREDICTED BY RF-SCORE:    0.00 PKD
ROOT
HETATM    1  C   UNL     1      -9.963   6.693  74.389  1.00  0.00    -0.359 C  
HETATM    2  C   UNL     1     -10.293   6.621  72.905  1.00  0.00    -0.236 C  
ENDROOT
BRANCH   2   3
HETATM    3  C   UNL     1     -10.613   8.013  72.336  1.00  0.00    -0.307 C  
BRANCH   3   4
HETATM    4  N   UNL     1     -11.786   8.025  71.431  1.00  0.00    -0.281 NA 
HETATM    5  C   UNL     1     -13.039   8.389  72.132  1.00  0.00    -0.328 C  
HETATM    6  C   UNL     1     -13.074   9.835  72.640  1.00  0.00    -0.013 C  
HETATM    7  C   UNL     1     -12.842  10.821  71.502  1.00  0.00    -0.567 C  
HETATM    8  C   UNL     1     -11.606  10.454  70.693  1.00  0.00    -0.440 C  
HETATM    9  C   UNL     1     -11.616   8.973  70.279  1.00  0.00    -0.060 C  
BRANCH   9  10
HETATM   10  C   UNL     1     -10.386   8.638  69.411  1.00  0.00    -0.218 C  
HETATM   11  N   UNL     1     -10.132   7.275  69.334  1.00  0.00    -0.178 N  
HETATM   12  O   UNL     1      -9.732   9.509  68.840  1.00  0.00    -0.157 OA 
HETATM   13  H   UNL     1     -10.706   6.636  69.884  1.00  0.00     0.000 HD 
BRANCH  11  14
HETATM   14  C   UNL     1      -9.104   6.742  68.519  1.00  0.00    -0.129 A  
HETATM   15  C   UNL     1      -9.428   6.205  67.254  1.00  0.00    -0.121 A  
HETATM   16  C   UNL     1     -10.836   5.991  66.763  1.00  0.00    -0.356 C  
HETATM   17  C   UNL     1      -8.395   5.711  66.436  1.00  0.00    -0.112 A  
HETATM   18  C   UNL     1      -7.066   5.765  66.843  1.00  0.00    -0.070 A  
HETATM   19  C   UNL     1      -6.745   6.310  68.080  1.00  0.00    -0.068 A  
HETATM   20  C   UNL     1      -7.751   6.812  68.928  1.00  0.00    -0.110 A  
HETATM   21  C   UNL     1      -7.315   7.435  70.229  1.00  0.00    -0.078 C  
ENDBRANCH  11  14
ENDBRANCH   9  10
ENDBRANCH   3   4
ENDBRANCH   2   3
TORSDOF 4
ENDMDL
MODEL      200
REMARK 921   NORMALIZED FREE ENERGY PREDICTED BY IDOCK:   -3.29 KCAL/MOL
REMARK 922        TOTAL FREE ENERGY PREDICTED BY IDOCK:   -4.58 KCAL/MOL
REMARK 923 INTER-LIGAND FREE ENERGY PREDICTED BY IDOCK:   -3.94 KCAL/MOL
REMARK 924 INTRA-LIGAND FREE ENERGY PREDICTED BY IDOCK:   -0.64 KCAL/MOL
REMARK 927      BINDING AFFINITY PREDICTED BY RF-SCORE:    0.00 PKD
ROOT
HETATM    1  C   UNL     1     -11.391  11.795  64.746  1.00  0.00    -0.313 C  
HETATM    2  C   UNL     1      -9.939  12.202  64.952  1.00  0.00    -0.235 C  
ENDROOT
BRANCH   2   3
HETATM    3  C   UNL     1      -9.109  11.042  65.527  1.00  0.00    -0.207 C  
BRANCH   3   4
HETATM    4  N   UNL     1      -9.148   9.818  64.695  1.00  0.00    -0.231 NA 
HETATM    5  C   UNL     1      -8.298   9.929  63.485  1.00  0.00    -0.166 C  
HETATM    6  C   UNL     1      -6.796  10.007  63.782  1.00  0.00    -0.126 C  
HETATM    7  C   UNL     1      -6.336   8.806  64.600  1.00  0.00    -0.066 C  
HETATM    8  C   UNL     1      -7.221   8.594  65.820  1.00  0.00    -0.080 C  
HETATM    9  C   UNL     1      -8.713   8.594  65.447  1.00  0.00    -0.174 C  
BRANCH   9  10
HETATM   10  C   UNL     1      -9.588   8.317  66.686  1.00  0.00    -0.233 C  
HETATM   11  N   UNL     1      -8.893   7.688  67.711  1.00  0.00    -0.126 N  
HETATM   12  O   UNL     1     -10.770   8.652  66.740  1.00  0.00    -0.221 OA 
HETATM   13  H   UNL     1      -7.926   7.410  67.550  1.00  0.00     0.000 HD 
BRANCH  11  14
HETATM   14  C   UNL     1      -9.481   7.421  68.971  1.00  0.00    -0.148 A  
HETATM   15  C   UNL     1      -9.474   8.422  69.968  1.00  0.00    -0.164 A  
HETATM   16  C   UNL     1      -8.721   9.721  69.855  1.00  0.00    -0.238 C  
HETATM   17  C   UNL     1     -10.093   8.160  71.204  1.00  0.00    -0.222 A  
HETATM   18  C   UNL     1     -10.728   6.946  71.448  1.00  0.00    -0.247 A  
HETATM   19  C   UNL     1     -10.750   5.968  70.461  1.00  0.00    -0.349 A  
HETATM   20  C   UNL     1     -10.140   6.192  69.213  1.00  0.00    -0.218 A  
HETATM   21  C   UNL     1     -10.255   5.103  68.178  1.00  0.00    -0.177 C  
ENDBRANCH  11  14
ENDBRANCH   9  10
ENDBRANCH   3   4
ENDBRANCH   2   3
TORSDOF 4
ENDMDL
MODEL      201
REMARK 921   NORMALIZED FREE ENERGY PREDICTED BY IDOCK:   -3.27 KCAL/MOL
REMARK 922        TOTAL FREE ENERGY PREDICTED BY IDOCK:   -4.56 KCAL/MOL
REMARK 923 INTER-LIGAND FREE ENERGY PREDICTED BY IDOCK:   -4.34 KCAL/MOL
REMARK 924 INTRA-LIGAND FREE ENERGY PREDICTED BY IDOCK:   -0.22 KCAL/MOL
REMARK 927      BINDING AFFINITY PREDICTED BY RF-SCORE:    0.00 PKD
ROOT
HETATM    1  C   UNL     1      -9.869   7.036  74.183  1.00  0.00    -0.306 C  
HETATM    2  C   UNL     1     -10.100   6.392  72.823  1.00  0.00    -0.195 C  
ENDROOT
BRANCH   2   3
HETATM    3  C   UNL     1     -10.101   7.441  71.700  1.00  0.00    -0.183 C  
BRANCH   3   4
HETATM    4  N   UNL     1     -11.296   7.373  70.829  1.00  0.00    -0.275 NA 
HETATM    5  C   UNL     1     -12.557   7.588  71.579  1.00  0.00    -0.355 C  
HETATM    6  C   UNL     1     -12.714   9.004  72.144  1.00  0.00    -0.470 C  
HETATM    7  C   UNL     1     -12.614  10.050  71.040  1.00  0.00    -0.463 C  
HETATM    8  C   UNL     1     -11.374   9.834  70.183  1.00  0.00    -0.305 C  
HETATM    9  C   UNL     1     -11.255   8.375  69.712  1.00  0.00     0.034 C  
BRANCH   9  10
HETATM   10  C   UNL     1     -10.026   8.193  68.797  1.00  0.00    -0.189 C  
HETATM   11  N   UNL     1     -10.362   8.083  67.454  1.00  0.00    -0.259 N  
HETATM   12  O   UNL     1      -8.879   8.174  69.239  1.00  0.00    -0.142 OA 
HETATM   13  H   UNL     1     -11.347   8.064  67.193  1.00  0.00     0.000 HD 
BRANCH  11  14
HETATM   14  C   UNL     1      -9.383   7.998  66.434  1.00  0.00    -0.200 A  
HETATM   15  C   UNL     1      -8.854   9.184  65.877  1.00  0.00    -0.209 A  
HETATM   16  C   UNL     1      -9.385  10.563  66.167  1.00  0.00    -0.210 C  
HETATM   17  C   UNL     1      -7.855   9.089  64.891  1.00  0.00    -0.119 A  
HETATM   18  C   UNL     1      -7.368   7.853  64.475  1.00  0.00    -0.086 A  
HETATM   19  C   UNL     1      -7.876   6.688  65.035  1.00  0.00    -0.113 A  
HETATM   20  C   UNL     1      -8.878   6.741  66.023  1.00  0.00    -0.150 A  
HETATM   21  C   UNL     1      -9.336   5.436  66.619  1.00  0.00    -0.143 C  
ENDBRANCH  11  14
ENDBRANCH   9  10
ENDBRANCH   3   4
ENDBRANCH   2   3
TORSDOF 4
ENDMDL
MODEL      202
REMARK 921   NORMALIZED FREE ENERGY PREDICTED BY IDOCK:   -3.25 KCAL/MOL
REMARK 922        TOTAL FREE ENERGY PREDICTED BY IDOCK:   -4.53 KCAL/MOL
REMARK 923 INTER-LIGAND FREE ENERGY PREDICTED BY IDOCK:   -3.78 KCAL/MOL
REMARK 924 INTRA-LIGAND FREE ENERGY PREDICTED BY IDOCK:   -0.75 KCAL/MOL
REMARK 927      BINDING AFFINITY PREDICTED BY RF-SCORE:    0.00 PKD
ROOT
HETATM    1  C   UNL     1     -13.271   7.500  71.704  1.00  0.00    -0.404 C  
HETATM    2  C   UNL     1     -11.751   7.457  71.770  1.00  0.00    -0.319 C  
ENDROOT
BRANCH   2   3
HETATM    3  C   UNL     1     -11.220   6.036  71.523  1.00  0.00    -0.264 C  
BRANCH   3   4
HETATM    4  N   UNL     1     -10.042   5.693  72.353  1.00  0.00    -0.177 NA 
HETATM    5  C   UNL     1     -10.404   5.415  73.763  1.00  0.00    -0.248 C  
HETATM    6  C   UNL     1     -11.247   4.149  73.953  1.00  0.00    -0.188 C  
HETATM    7  C   UNL     1     -10.541   2.928  73.376  1.00  0.00    -0.265 C  
HETATM    8  C   UNL     1     -10.075   3.180  71.949  1.00  0.00    -0.152 C  
HETATM    9  C   UNL     1      -9.295   4.500  71.830  1.00  0.00    -0.140 C  
BRANCH   9  10
HETATM   10  C   UNL     1      -8.781   4.706  70.390  1.00  0.00    -0.089 C  
HETATM   11  N   UNL     1      -9.518   4.003  69.447  1.00  0.00    -0.177 N  
HETATM   12  O   UNL     1      -7.830   5.441  70.134  1.00  0.00    -0.078 OA 
HETATM   13  H   UNL     1     -10.262   3.382  69.766  1.00  0.00     0.000 HD 
BRANCH  11  14
HETATM   14  C   UNL     1      -9.274   4.118  68.056  1.00  0.00    -0.147 A  
HETATM   15  C   UNL     1      -9.866   5.176  67.332  1.00  0.00    -0.193 A  
HETATM   16  C   UNL     1     -10.899   6.113  67.898  1.00  0.00    -0.406 C  
HETATM   17  C   UNL     1      -9.587   5.303  65.958  1.00  0.00    -0.166 A  
HETATM   18  C   UNL     1      -8.724   4.422  65.314  1.00  0.00    -0.128 A  
HETATM   19  C   UNL     1      -8.129   3.392  66.031  1.00  0.00    -0.093 A  
HETATM   20  C   UNL     1      -8.384   3.230  67.405  1.00  0.00    -0.093 A  
HETATM   21  C   UNL     1      -7.657   2.122  68.121  1.00  0.00    -0.054 C  
ENDBRANCH  11  14
ENDBRANCH   9  10
ENDBRANCH   3   4
ENDBRANCH   2   3
TORSDOF 4
ENDMDL
MODEL      203
REMARK 921   NORMALIZED FREE ENERGY PREDICTED BY IDOCK:   -3.19 KCAL/MOL
REMARK 922        TOTAL FREE ENERGY PREDICTED BY IDOCK:   -4.46 KCAL/MOL
REMARK 923 INTER-LIGAND FREE ENERGY PREDICTED BY IDOCK:   -3.77 KCAL/MOL
REMARK 924 INTRA-LIGAND FREE ENERGY PREDICTED BY IDOCK:   -0.69 KCAL/MOL
REMARK 927      BINDING AFFINITY PREDICTED BY RF-SCORE:    0.00 PKD
ROOT
HETATM    1  C   UNL     1      -8.987  10.675  64.944  1.00  0.00    -0.218 C  
HETATM    2  C   UNL     1      -7.679  10.052  65.412  1.00  0.00    -0.137 C  
ENDROOT
BRANCH   2   3
HETATM    3  C   UNL     1      -7.929   8.785  66.245  1.00  0.00    -0.106 C  
BRANCH   3   4
HETATM    4  N   UNL     1      -8.623   7.712  65.495  1.00  0.00    -0.127 NA 
HETATM    5  C   UNL     1      -7.823   7.213  64.351  1.00  0.00    -0.115 C  
HETATM    6  C   UNL     1      -6.544   6.474  64.759  1.00  0.00    -0.038 C  
HETATM    7  C   UNL     1      -6.857   5.307  65.688  1.00  0.00    -0.061 C  
HETATM    8  C   UNL     1      -7.743   5.743  66.846  1.00  0.00    -0.101 C  
HETATM    9  C   UNL     1      -8.969   6.534  66.358  1.00  0.00    -0.147 C  
BRANCH   9  10
HETATM   10  C   UNL     1      -9.883   6.913  67.541  1.00  0.00    -0.138 C  
HETATM   11  N   UNL     1      -9.212   6.943  68.756  1.00  0.00    -0.132 N  
HETATM   12  O   UNL     1     -11.073   7.179  67.388  1.00  0.00    -0.247 OA 
HETATM   13  H   UNL     1      -8.233   6.660  68.785  1.00  0.00     0.000 HD 
BRANCH  11  14
HETATM   14  C   UNL     1      -9.840   7.352  69.958  1.00  0.00    -0.179 A  
HETATM   15  C   UNL     1     -10.244   6.378  70.898  1.00  0.00    -0.226 A  
HETATM   16  C   UNL     1     -10.218   4.895  70.642  1.00  0.00    -0.282 C  
HETATM   17  C   UNL     1     -10.834   6.798  72.105  1.00  0.00    -0.257 A  
HETATM   18  C   UNL     1     -11.001   8.149  72.394  1.00  0.00    -0.414 A  
HETATM   19  C   UNL     1     -10.587   9.106  71.477  1.00  0.00    -0.428 A  
HETATM   20  C   UNL     1      -9.996   8.727  70.257  1.00  0.00    -0.210 A  
HETATM   21  C   UNL     1      -9.525   9.827  69.342  1.00  0.00    -0.212 C  
ENDBRANCH  11  14
ENDBRANCH   9  10
ENDBRANCH   3   4
ENDBRANCH   2   3
TORSDOF 4
ENDMDL
MODEL      204
REMARK 921   NORMALIZED FREE ENERGY PREDICTED BY IDOCK:   -3.18 KCAL/MOL
REMARK 922        TOTAL FREE ENERGY PREDICTED BY IDOCK:   -4.45 KCAL/MOL
REMARK 923 INTER-LIGAND FREE ENERGY PREDICTED BY IDOCK:   -3.97 KCAL/MOL
REMARK 924 INTRA-LIGAND FREE ENERGY PREDICTED BY IDOCK:   -0.48 KCAL/MOL
REMARK 927      BINDING AFFINITY PREDICTED BY RF-SCORE:    0.00 PKD
ROOT
HETATM    1  C   UNL     1      -7.415   5.167  69.099  1.00  0.00    -0.065 C  
HETATM    2  C   UNL     1      -8.907   5.258  69.386  1.00  0.00    -0.116 C  
ENDROOT
BRANCH   2   3
HETATM    3  C   UNL     1      -9.233   6.477  70.265  1.00  0.00    -0.155 C  
BRANCH   3   4
HETATM    4  N   UNL     1     -10.667   6.845  70.256  1.00  0.00    -0.231 NA 
HETATM    5  C   UNL     1     -11.429   6.182  71.340  1.00  0.00    -0.254 C  
HETATM    6  C   UNL     1     -11.041   6.644  72.749  1.00  0.00    -0.283 C  
HETATM    7  C   UNL     1     -11.192   8.153  72.893  1.00  0.00    -0.312 C  
HETATM    8  C   UNL     1     -10.493   8.891  71.759  1.00  0.00    -0.431 C  
HETATM    9  C   UNL     1     -10.885   8.324  70.384  1.00  0.00    -0.235 C  
BRANCH   9  10
HETATM   10  C   UNL     1     -10.213   9.124  69.250  1.00  0.00    -0.210 C  
HETATM   11  N   UNL     1      -9.829  10.400  69.640  1.00  0.00    -0.377 N  
HETATM   12  O   UNL     1     -10.029   8.646  68.132  1.00  0.00    -0.164 OA 
HETATM   13  H   UNL     1     -10.069  10.721  70.578  1.00  0.00     0.000 HD 
BRANCH  11  14
HETATM   14  C   UNL     1      -9.116  11.272  68.782  1.00  0.00    -0.116 A  
HETATM   15  C   UNL     1      -7.733  11.067  68.576  1.00  0.00    -0.122 A  
HETATM   16  C   UNL     1      -6.902  10.079  69.350  1.00  0.00    -0.064 C  
HETATM   17  C   UNL     1      -7.041  11.916  67.692  1.00  0.00    -0.112 A  
HETATM   18  C   UNL     1      -7.699  12.931  67.005  1.00  0.00     0.025 A  
HETATM   19  C   UNL     1      -9.062  13.121  67.194  1.00  0.00    -0.230 A  
HETATM   20  C   UNL     1      -9.789  12.295  68.071  1.00  0.00    -0.204 A  
HETATM   21  C   UNL     1     -11.273  12.531  68.179  1.00  0.00    -0.312 C  
ENDBRANCH  11  14
ENDBRANCH   9  10
ENDBRANCH   3   4
ENDBRANCH   2   3
TORSDOF 4
ENDMDL
MODEL      205
REMARK 921   NORMALIZED FREE ENERGY PREDICTED BY IDOCK:   -3.17 KCAL/MOL
REMARK 922        TOTAL FREE ENERGY PREDICTED BY IDOCK:   -4.44 KCAL/MOL
REMARK 923 INTER-LIGAND FREE ENERGY PREDICTED BY IDOCK:   -4.84 KCAL/MOL
REMARK 924 INTRA-LIGAND FREE ENERGY PREDICTED BY IDOCK:    0.41 KCAL/MOL
REMARK 927      BINDING AFFINITY PREDICTED BY RF-SCORE:    0.00 PKD
ROOT
HETATM    1  C   UNL     1      -7.003  19.979  69.426  1.00  0.00    -0.230 C  
HETATM    2  C   UNL     1      -7.977  20.160  68.271  1.00  0.00    -0.141 C  
ENDROOT
BRANCH   2   3
HETATM    3  C   UNL     1      -8.476  18.806  67.742  1.00  0.00    -0.275 C  
BRANCH   3   4
HETATM    4  N   UNL     1      -8.100  18.547  66.333  1.00  0.00    -0.305 NA 
HETATM    5  C   UNL     1      -6.854  19.247  65.941  1.00  0.00    -0.264 C  
HETATM    6  C   UNL     1      -5.598  18.733  66.654  1.00  0.00    -0.167 C  
HETATM    7  C   UNL     1      -5.414  17.238  66.431  1.00  0.00    -0.197 C  
HETATM    8  C   UNL     1      -6.690  16.469  66.744  1.00  0.00    -0.202 C  
HETATM    9  C   UNL     1      -7.912  17.086  66.043  1.00  0.00    -0.141 C  
BRANCH   9  10
HETATM   10  C   UNL     1      -9.182  16.257  66.325  1.00  0.00    -0.328 C  
HETATM   11  N   UNL     1      -8.966  15.227  67.230  1.00  0.00    -0.186 N  
HETATM   12  O   UNL     1     -10.264  16.521  65.805  1.00  0.00    -0.386 OA 
HETATM   13  H   UNL     1      -8.020  15.061  67.571  1.00  0.00     0.000 HD 
BRANCH  11  14
HETATM   14  C   UNL     1     -10.015  14.398  67.698  1.00  0.00    -0.224 A  
HETATM   15  C   UNL     1      -9.917  12.997  67.541  1.00  0.00    -0.212 A  
HETATM   16  C   UNL     1      -8.841  12.310  66.743  1.00  0.00    -0.195 C  
HETATM   17  C   UNL     1     -10.947  12.180  68.042  1.00  0.00    -0.271 A  
HETATM   18  C   UNL     1     -12.042  12.727  68.706  1.00  0.00    -0.165 A  
HETATM   19  C   UNL     1     -12.129  14.102  68.875  1.00  0.00    -0.339 A  
HETATM   20  C   UNL     1     -11.120  14.954  68.386  1.00  0.00    -0.282 A  
HETATM   21  C   UNL     1     -11.263  16.428  68.659  1.00  0.00    -0.332 C  
ENDBRANCH  11  14
ENDBRANCH   9  10
ENDBRANCH   3   4
ENDBRANCH   2   3
TORSDOF 4
ENDMDL
MODEL      206
REMARK 921   NORMALIZED FREE ENERGY PREDICTED BY IDOCK:   -3.14 KCAL/MOL
REMARK 922        TOTAL FREE ENERGY PREDICTED BY IDOCK:   -4.40 KCAL/MOL
REMARK 923 INTER-LIGAND FREE ENERGY PREDICTED BY IDOCK:   -3.78 KCAL/MOL
REMARK 924 INTRA-LIGAND FREE ENERGY PREDICTED BY IDOCK:   -0.62 KCAL/MOL
REMARK 927      BINDING AFFINITY PREDICTED BY RF-SCORE:    0.00 PKD
ROOT
HETATM    1  C   UNL     1      -9.766  10.238  64.234  1.00  0.00    -0.373 C  
HETATM    2  C   UNL     1     -10.228  10.565  65.647  1.00  0.00    -0.315 C  
ENDROOT
BRANCH   2   3
HETATM    3  C   UNL     1      -9.345   9.872  66.698  1.00  0.00    -0.157 C  
BRANCH   3   4
HETATM    4  N   UNL     1      -9.746  10.167  68.093  1.00  0.00    -0.139 NA 
HETATM    5  C   UNL     1     -10.323   8.986  68.778  1.00  0.00    -0.215 C  
HETATM    6  C   UNL     1      -9.320   7.852  69.019  1.00  0.00    -0.151 C  
HETATM    7  C   UNL     1      -8.117   8.344  69.814  1.00  0.00    -0.117 C  
HETATM    8  C   UNL     1      -7.525   9.605  69.200  1.00  0.00    -0.079 C  
HETATM    9  C   UNL     1      -8.604  10.666  68.929  1.00  0.00    -0.158 C  
BRANCH   9  10
HETATM   10  C   UNL     1      -7.975  11.957  68.364  1.00  0.00    -0.154 C  
HETATM   11  N   UNL     1      -8.697  13.098  68.686  1.00  0.00    -0.370 N  
HETATM   12  O   UNL     1      -6.929  11.945  67.719  1.00  0.00    -0.086 OA 
HETATM   13  H   UNL     1      -9.580  12.996  69.187  1.00  0.00     0.000 HD 
BRANCH  11  14
HETATM   14  C   UNL     1      -8.251  14.398  68.344  1.00  0.00    -0.145 A  
HETATM   15  C   UNL     1      -8.845  15.071  67.253  1.00  0.00    -0.216 A  
HETATM   16  C   UNL     1      -9.815  14.434  66.294  1.00  0.00    -0.321 C  
HETATM   17  C   UNL     1      -8.421  16.377  66.944  1.00  0.00    -0.254 A  
HETATM   18  C   UNL     1      -7.449  17.018  67.707  1.00  0.00    -0.177 A  
HETATM   19  C   UNL     1      -6.879  16.362  68.790  1.00  0.00    -0.163 A  
HETATM   20  C   UNL     1      -7.274  15.055  69.130  1.00  0.00    -0.159 A  
HETATM   21  C   UNL     1      -6.647  14.434  70.351  1.00  0.00    -0.029 C  
ENDBRANCH  11  14
ENDBRANCH   9  10
ENDBRANCH   3   4
ENDBRANCH   2   3
TORSDOF 4
ENDMDL
MODEL      207
REMARK 921   NORMALIZED FREE ENERGY PREDICTED BY IDOCK:   -3.13 KCAL/MOL
REMARK 922        TOTAL FREE ENERGY PREDICTED BY IDOCK:   -4.39 KCAL/MOL
REMARK 923 INTER-LIGAND FREE ENERGY PREDICTED BY IDOCK:   -4.07 KCAL/MOL
REMARK 924 INTRA-LIGAND FREE ENERGY PREDICTED BY IDOCK:   -0.32 KCAL/MOL
REMARK 927      BINDING AFFINITY PREDICTED BY RF-SCORE:    0.00 PKD
ROOT
HETATM    1  C   UNL     1      -8.742   3.315  64.957  1.00  0.00    -0.115 C  
HETATM    2  C   UNL     1      -9.009   4.807  64.820  1.00  0.00    -0.146 C  
ENDROOT
BRANCH   2   3
HETATM    3  C   UNL     1      -9.609   5.388  66.110  1.00  0.00    -0.153 C  
BRANCH   3   4
HETATM    4  N   UNL     1      -8.691   6.303  66.828  1.00  0.00    -0.115 NA 
HETATM    5  C   UNL     1      -7.940   7.189  65.908  1.00  0.00    -0.116 C  
HETATM    6  C   UNL     1      -8.815   8.208  65.169  1.00  0.00     0.024 C  
HETATM    7  C   UNL     1      -9.600   9.069  66.150  1.00  0.00    -0.341 C  
HETATM    8  C   UNL     1     -10.335   8.215  67.173  1.00  0.00    -0.391 C  
HETATM    9  C   UNL     1      -9.404   7.175  67.820  1.00  0.00    -0.127 C  
BRANCH   9  10
HETATM   10  C   UNL     1     -10.154   6.362  68.895  1.00  0.00    -0.162 C  
HETATM   11  N   UNL     1      -9.443   6.249  70.082  1.00  0.00    -0.159 N  
HETATM   12  O   UNL     1     -11.273   5.894  68.698  1.00  0.00    -0.238 OA 
HETATM   13  H   UNL     1      -8.499   6.633  70.129  1.00  0.00     0.000 HD 
BRANCH  11  14
HETATM   14  C   UNL     1      -9.982   5.619  71.230  1.00  0.00    -0.195 A  
HETATM   15  C   UNL     1      -9.666   4.267  71.495  1.00  0.00    -0.244 A  
HETATM   16  C   UNL     1      -8.925   3.371  70.539  1.00  0.00    -0.162 C  
HETATM   17  C   UNL     1     -10.177   3.662  72.657  1.00  0.00    -0.239 A  
HETATM   18  C   UNL     1     -10.963   4.377  73.556  1.00  0.00    -0.379 A  
HETATM   19  C   UNL     1     -11.258   5.710  73.305  1.00  0.00    -0.235 A  
HETATM   20  C   UNL     1     -10.768   6.352  72.152  1.00  0.00    -0.259 A  
HETATM   21  C   UNL     1     -11.088   7.813  71.981  1.00  0.00    -0.318 C  
ENDBRANCH  11  14
ENDBRANCH   9  10
ENDBRANCH   3   4
ENDBRANCH   2   3
TORSDOF 4
ENDMDL
MODEL      208
REMARK 921   NORMALIZED FREE ENERGY PREDICTED BY IDOCK:   -3.12 KCAL/MOL
REMARK 922        TOTAL FREE ENERGY PREDICTED BY IDOCK:   -4.38 KCAL/MOL
REMARK 923 INTER-LIGAND FREE ENERGY PREDICTED BY IDOCK:   -3.60 KCAL/MOL
REMARK 924 INTRA-LIGAND FREE ENERGY PREDICTED BY IDOCK:   -0.78 KCAL/MOL
REMARK 927      BINDING AFFINITY PREDICTED BY RF-SCORE:    0.00 PKD
ROOT
HETATM    1  C   UNL     1      -9.434   8.527  72.009  1.00  0.00    -0.364 C  
HETATM    2  C   UNL     1      -9.980   7.152  72.367  1.00  0.00    -0.190 C  
ENDROOT
BRANCH   2   3
HETATM    3  C   UNL     1     -10.061   6.242  71.130  1.00  0.00    -0.183 C  
BRANCH   3   4
HETATM    4  N   UNL     1      -8.737   5.816  70.622  1.00  0.00    -0.134 NA 
HETATM    5  C   UNL     1      -8.069   4.847  71.523  1.00  0.00    -0.111 C  
HETATM    6  C   UNL     1      -8.775   3.489  71.612  1.00  0.00    -0.124 C  
HETATM    7  C   UNL     1      -8.924   2.858  70.233  1.00  0.00    -0.165 C  
HETATM    8  C   UNL     1      -9.536   3.835  69.239  1.00  0.00    -0.252 C  
HETATM    9  C   UNL     1      -8.814   5.193  69.259  1.00  0.00    -0.095 C  
BRANCH   9  10
HETATM   10  C   UNL     1      -9.410   6.147  68.203  1.00  0.00    -0.115 C  
HETATM   11  N   UNL     1      -8.585   7.227  67.922  1.00  0.00    -0.121 N  
HETATM   12  O   UNL     1     -10.496   5.933  67.669  1.00  0.00    -0.189 OA 
HETATM   13  H   UNL     1      -7.723   7.340  68.455  1.00  0.00     0.000 HD 
BRANCH  11  14
HETATM   14  C   UNL     1      -8.898   8.177  66.919  1.00  0.00    -0.131 A  
HETATM   15  C   UNL     1      -8.533   7.919  65.579  1.00  0.00    -0.153 A  
HETATM   16  C   UNL     1      -7.664   6.768  65.147  1.00  0.00    -0.105 C  
HETATM   17  C   UNL     1      -8.882   8.852  64.585  1.00  0.00    -0.098 A  
HETATM   18  C   UNL     1      -9.595  10.005  64.898  1.00  0.00    -0.375 A  
HETATM   19  C   UNL     1      -9.969  10.250  66.213  1.00  0.00    -0.295 A  
HETATM   20  C   UNL     1      -9.637   9.342  67.236  1.00  0.00    -0.200 A  
HETATM   21  C   UNL     1     -10.126   9.653  68.626  1.00  0.00    -0.196 C  
ENDBRANCH  11  14
ENDBRANCH   9  10
ENDBRANCH   3   4
ENDBRANCH   2   3
TORSDOF 4
ENDMDL
MODEL      209
REMARK 921   NORMALIZED FREE ENERGY PREDICTED BY IDOCK:   -3.06 KCAL/MOL
REMARK 922        TOTAL FREE ENERGY PREDICTED BY IDOCK:   -4.31 KCAL/MOL
REMARK 923 INTER-LIGAND FREE ENERGY PREDICTED BY IDOCK:   -3.54 KCAL/MOL
REMARK 924 INTRA-LIGAND FREE ENERGY PREDICTED BY IDOCK:   -0.77 KCAL/MOL
REMARK 927      BINDING AFFINITY PREDICTED BY RF-SCORE:    0.00 PKD
ROOT
HETATM    1  C   UNL     1      -6.236   9.431  63.640  1.00  0.00    -0.093 C  
HETATM    2  C   UNL     1      -6.217   9.973  65.061  1.00  0.00    -0.115 C  
ENDROOT
BRANCH   2   3
HETATM    3  C   UNL     1      -7.095   9.125  65.996  1.00  0.00    -0.090 C  
BRANCH   3   4
HETATM    4  N   UNL     1      -8.393   8.738  65.397  1.00  0.00    -0.142 NA 
HETATM    5  C   UNL     1      -8.528   7.271  65.236  1.00  0.00    -0.057 C  
HETATM    6  C   UNL     1      -8.601   6.502  66.560  1.00  0.00    -0.123 C  
HETATM    7  C   UNL     1      -9.747   7.010  67.427  1.00  0.00    -0.177 C  
HETATM    8  C   UNL     1      -9.707   8.525  67.566  1.00  0.00    -0.209 C  
HETATM    9  C   UNL     1      -9.566   9.218  66.200  1.00  0.00    -0.260 C  
BRANCH   9  10
HETATM   10  C   UNL     1      -9.588  10.753  66.359  1.00  0.00    -0.189 C  
HETATM   11  N   UNL     1      -9.405  11.164  67.673  1.00  0.00    -0.163 N  
HETATM   12  O   UNL     1      -9.733  11.507  65.400  1.00  0.00    -0.224 OA 
HETATM   13  H   UNL     1      -9.341  10.457  68.405  1.00  0.00     0.000 HD 
BRANCH  11  14
HETATM   14  C   UNL     1      -9.303  12.530  68.031  1.00  0.00    -0.205 A  
HETATM   15  C   UNL     1      -8.064  13.195  67.890  1.00  0.00    -0.159 A  
HETATM   16  C   UNL     1      -6.770  12.506  67.547  1.00  0.00    -0.151 C  
HETATM   17  C   UNL     1      -7.983  14.562  68.214  1.00  0.00    -0.137 A  
HETATM   18  C   UNL     1      -9.102  15.269  68.644  1.00  0.00    -0.193 A  
HETATM   19  C   UNL     1     -10.323  14.619  68.765  1.00  0.00    -0.248 A  
HETATM   20  C   UNL     1     -10.445  13.251  68.454  1.00  0.00    -0.261 A  
HETATM   21  C   UNL     1     -11.816  12.635  68.559  1.00  0.00    -0.342 C  
ENDBRANCH  11  14
ENDBRANCH   9  10
ENDBRANCH   3   4
ENDBRANCH   2   3
TORSDOF 4
ENDMDL
MODEL      210
REMARK 921   NORMALIZED FREE ENERGY PREDICTED BY IDOCK:   -3.05 KCAL/MOL
REMARK 922        TOTAL FREE ENERGY PREDICTED BY IDOCK:   -4.29 KCAL/MOL
REMARK 923 INTER-LIGAND FREE ENERGY PREDICTED BY IDOCK:   -3.67 KCAL/MOL
REMARK 924 INTRA-LIGAND FREE ENERGY PREDICTED BY IDOCK:   -0.62 KCAL/MOL
REMARK 927      BINDING AFFINITY PREDICTED BY RF-SCORE:    0.00 PKD
ROOT
HETATM    1  C   UNL     1     -13.398   9.485  71.039  1.00  0.00    -0.231 C  
HETATM    2  C   UNL     1     -12.843  10.883  70.805  1.00  0.00    -0.378 C  
ENDROOT
BRANCH   2   3
HETATM    3  C   UNL     1     -11.399  10.831  70.279  1.00  0.00    -0.290 C  
BRANCH   3   4
HETATM    4  N   UNL     1     -11.310  10.603  68.819  1.00  0.00    -0.271 NA 
HETATM    5  C   UNL     1     -12.034  11.634  68.039  1.00  0.00    -0.117 C  
HETATM    6  C   UNL     1     -11.418  13.035  68.132  1.00  0.00    -0.356 C  
HETATM    7  C   UNL     1      -9.959  13.023  67.696  1.00  0.00    -0.215 C  
HETATM    8  C   UNL     1      -9.176  11.928  68.408  1.00  0.00    -0.173 C  
HETATM    9  C   UNL     1      -9.893  10.570  68.325  1.00  0.00    -0.149 C  
BRANCH   9  10
HETATM   10  C   UNL     1      -9.055   9.466  69.001  1.00  0.00    -0.142 C  
HETATM   11  N   UNL     1      -8.324   9.928  70.087  1.00  0.00    -0.296 N  
HETATM   12  O   UNL     1      -9.070   8.301  68.609  1.00  0.00    -0.140 OA 
HETATM   13  H   UNL     1      -8.342  10.925  70.304  1.00  0.00     0.000 HD 
BRANCH  11  14
HETATM   14  C   UNL     1      -7.555   9.065  70.905  1.00  0.00    -0.124 A  
HETATM   15  C   UNL     1      -8.189   8.339  71.938  1.00  0.00    -0.195 A  
HETATM   16  C   UNL     1      -9.619   8.546  72.361  1.00  0.00    -0.356 C  
HETATM   17  C   UNL     1      -7.423   7.456  72.721  1.00  0.00    -0.086 A  
HETATM   18  C   UNL     1      -6.065   7.271  72.479  1.00  0.00    -0.040 A  
HETATM   19  C   UNL     1      -5.446   7.972  71.452  1.00  0.00    -0.034 A  
HETATM   20  C   UNL     1      -6.177   8.866  70.648  1.00  0.00    -0.042 A  
HETATM   21  C   UNL     1      -5.444   9.545  69.520  1.00  0.00    -0.034 C  
ENDBRANCH  11  14
ENDBRANCH   9  10
ENDBRANCH   3   4
ENDBRANCH   2   3
TORSDOF 4
ENDMDL
MODEL      211
REMARK 921   NORMALIZED FREE ENERGY PREDICTED BY IDOCK:   -3.03 KCAL/MOL
REMARK 922        TOTAL FREE ENERGY PREDICTED BY IDOCK:   -4.27 KCAL/MOL
REMARK 923 INTER-LIGAND FREE ENERGY PREDICTED BY IDOCK:   -3.44 KCAL/MOL
REMARK 924 INTRA-LIGAND FREE ENERGY PREDICTED BY IDOCK:   -0.83 KCAL/MOL
REMARK 927      BINDING AFFINITY PREDICTED BY RF-SCORE:    0.00 PKD
ROOT
HETATM    1  C   UNL     1      -8.021   6.345  62.844  1.00  0.00    -0.091 C  
HETATM    2  C   UNL     1      -7.939   6.031  64.331  1.00  0.00    -0.123 C  
ENDROOT
BRANCH   2   3
HETATM    3  C   UNL     1      -8.012   7.312  65.178  1.00  0.00    -0.128 C  
BRANCH   3   4
HETATM    4  N   UNL     1      -6.718   7.690  65.791  1.00  0.00    -0.045 NA 
HETATM    5  C   UNL     1      -5.875   8.500  64.880  1.00  0.00    -0.048 C  
HETATM    6  C   UNL     1      -6.444   9.889  64.573  1.00  0.00    -0.120 C  
HETATM    7  C   UNL     1      -6.685  10.679  65.854  1.00  0.00    -0.116 C  
HETATM    8  C   UNL     1      -7.484   9.867  66.864  1.00  0.00    -0.092 C  
HETATM    9  C   UNL     1      -6.886   8.464  67.066  1.00  0.00    -0.070 C  
BRANCH   9  10
HETATM   10  C   UNL     1      -7.674   7.681  68.136  1.00  0.00    -0.119 C  
HETATM   11  N   UNL     1      -8.839   8.326  68.530  1.00  0.00    -0.137 N  
HETATM   12  O   UNL     1      -7.296   6.591  68.559  1.00  0.00    -0.083 OA 
HETATM   13  H   UNL     1      -9.041   9.252  68.154  1.00  0.00     0.000 HD 
BRANCH  11  14
HETATM   14  C   UNL     1      -9.757   7.743  69.438  1.00  0.00    -0.169 A  
HETATM   15  C   UNL     1     -10.731   6.839  68.957  1.00  0.00    -0.280 A  
HETATM   16  C   UNL     1     -10.989   6.574  67.497  1.00  0.00    -0.444 C  
HETATM   17  C   UNL     1     -11.614   6.237  69.871  1.00  0.00    -0.361 A  
HETATM   18  C   UNL     1     -11.527   6.497  71.235  1.00  0.00    -0.371 A  
HETATM   19  C   UNL     1     -10.558   7.372  71.710  1.00  0.00    -0.228 A  
HETATM   20  C   UNL     1      -9.657   7.997  70.827  1.00  0.00    -0.174 A  
HETATM   21  C   UNL     1      -8.602   8.888  71.427  1.00  0.00    -0.238 C  
ENDBRANCH  11  14
ENDBRANCH   9  10
ENDBRANCH   3   4
ENDBRANCH   2   3
TORSDOF 4
ENDMDL
MODEL      212
REMARK 921   NORMALIZED FREE ENERGY PREDICTED BY IDOCK:   -2.99 KCAL/MOL
REMARK 922        TOTAL FREE ENERGY PREDICTED BY IDOCK:   -4.21 KCAL/MOL
REMARK 923 INTER-LIGAND FREE ENERGY PREDICTED BY IDOCK:   -3.37 KCAL/MOL
REMARK 924 INTRA-LIGAND FREE ENERGY PREDICTED BY IDOCK:   -0.84 KCAL/MOL
REMARK 927      BINDING AFFINITY PREDICTED BY RF-SCORE:    0.00 PKD
ROOT
HETATM    1  C   UNL     1      -7.988   6.190  62.713  1.00  0.00    -0.100 C  
HETATM    2  C   UNL     1      -7.966   5.943  64.215  1.00  0.00    -0.122 C  
ENDROOT
BRANCH   2   3
HETATM    3  C   UNL     1      -7.992   7.265  64.999  1.00  0.00    -0.129 C  
BRANCH   3   4
HETATM    4  N   UNL     1      -6.683   7.626  65.592  1.00  0.00    -0.045 NA 
HETATM    5  C   UNL     1      -5.849   8.436  64.673  1.00  0.00    -0.059 C  
HETATM    6  C   UNL     1      -6.411   9.834  64.388  1.00  0.00    -0.117 C  
HETATM    7  C   UNL     1      -6.622  10.614  65.679  1.00  0.00    -0.079 C  
HETATM    8  C   UNL     1      -7.410   9.801  66.696  1.00  0.00    -0.094 C  
HETATM    9  C   UNL     1      -6.822   8.391  66.876  1.00  0.00    -0.069 C  
BRANCH   9  10
HETATM   10  C   UNL     1      -7.598   7.606  67.953  1.00  0.00    -0.117 C  
HETATM   11  N   UNL     1      -8.755   8.253  68.366  1.00  0.00    -0.133 N  
HETATM   12  O   UNL     1      -7.218   6.513  68.367  1.00  0.00    -0.080 OA 
HETATM   13  H   UNL     1      -8.959   9.181  67.996  1.00  0.00     0.000 HD 
BRANCH  11  14
HETATM   14  C   UNL     1      -9.663   7.669  69.283  1.00  0.00    -0.164 A  
HETATM   15  C   UNL     1      -9.594   8.022  70.650  1.00  0.00    -0.172 A  
HETATM   16  C   UNL     1      -8.495   8.856  71.252  1.00  0.00    -0.239 C  
HETATM   17  C   UNL     1     -10.524   7.464  71.546  1.00  0.00    -0.219 A  
HETATM   18  C   UNL     1     -11.518   6.595  71.106  1.00  0.00    -0.370 A  
HETATM   19  C   UNL     1     -11.596   6.263  69.760  1.00  0.00    -0.330 A  
HETATM   20  C   UNL     1     -10.683   6.798  68.831  1.00  0.00    -0.276 A  
HETATM   21  C   UNL     1     -10.869   6.431  67.383  1.00  0.00    -0.457 C  
ENDBRANCH  11  14
ENDBRANCH   9  10
ENDBRANCH   3   4
ENDBRANCH   2   3
TORSDOF 4
ENDMDL
MODEL      213
REMARK 921   NORMALIZED FREE ENERGY PREDICTED BY IDOCK:   -2.96 KCAL/MOL
REMARK 922        TOTAL FREE ENERGY PREDICTED BY IDOCK:   -4.18 KCAL/MOL
REMARK 923 INTER-LIGAND FREE ENERGY PREDICTED BY IDOCK:   -3.29 KCAL/MOL
REMARK 924 INTRA-LIGAND FREE ENERGY PREDICTED BY IDOCK:   -0.89 KCAL/MOL
REMARK 927      BINDING AFFINITY PREDICTED BY RF-SCORE:    0.00 PKD
ROOT
HETATM    1  C   UNL     1      -9.727   7.234  70.987  1.00  0.00    -0.169 C  
HETATM    2  C   UNL     1     -10.256   5.817  70.818  1.00  0.00    -0.279 C  
ENDROOT
BRANCH   2   3
HETATM    3  C   UNL     1      -9.970   5.278  69.407  1.00  0.00    -0.218 C  
BRANCH   3   4
HETATM    4  N   UNL     1      -8.633   4.657  69.271  1.00  0.00    -0.082 NA 
HETATM    5  C   UNL     1      -8.629   3.228  69.666  1.00  0.00    -0.065 C  
HETATM    6  C   UNL     1      -9.444   2.322  68.736  1.00  0.00    -0.185 C  
HETATM    7  C   UNL     1      -8.961   2.436  67.296  1.00  0.00    -0.176 C  
HETATM    8  C   UNL     1      -8.869   3.891  66.856  1.00  0.00    -0.133 C  
HETATM    9  C   UNL     1      -8.094   4.745  67.873  1.00  0.00    -0.092 C  
BRANCH   9  10
HETATM   10  C   UNL     1      -7.962   6.200  67.379  1.00  0.00    -0.105 C  
HETATM   11  N   UNL     1      -8.661   6.439  66.203  1.00  0.00    -0.143 N  
HETATM   12  O   UNL     1      -7.316   7.044  67.996  1.00  0.00    -0.092 OA 
HETATM   13  H   UNL     1      -9.129   5.659  65.742  1.00  0.00     0.000 HD 
BRANCH  11  14
HETATM   14  C   UNL     1      -8.748   7.727  65.622  1.00  0.00    -0.104 A  
HETATM   15  C   UNL     1      -9.696   8.651  66.117  1.00  0.00    -0.292 A  
HETATM   16  C   UNL     1     -10.765   8.307  67.120  1.00  0.00    -0.240 C  
HETATM   17  C   UNL     1      -9.749   9.941  65.558  1.00  0.00    -0.370 A  
HETATM   18  C   UNL     1      -8.871  10.325  64.549  1.00  0.00    -0.223 A  
HETATM   19  C   UNL     1      -7.928   9.423  64.075  1.00  0.00    -0.142 A  
HETATM   20  C   UNL     1      -7.845   8.122  64.606  1.00  0.00    -0.136 A  
HETATM   21  C   UNL     1      -6.758   7.223  64.076  1.00  0.00    -0.048 C  
ENDBRANCH  11  14
ENDBRANCH   9  10
ENDBRANCH   3   4
ENDBRANCH   2   3
TORSDOF 4
ENDMDL
MODEL      214
REMARK 921   NORMALIZED FREE ENERGY PREDICTED BY IDOCK:   -2.95 KCAL/MOL
REMARK 922        TOTAL FREE ENERGY PREDICTED BY IDOCK:   -4.17 KCAL/MOL
REMARK 923 INTER-LIGAND FREE ENERGY PREDICTED BY IDOCK:   -3.35 KCAL/MOL
REMARK 924 INTRA-LIGAND FREE ENERGY PREDICTED BY IDOCK:   -0.82 KCAL/MOL
REMARK 927      BINDING AFFINITY PREDICTED BY RF-SCORE:    0.00 PKD
ROOT
HETATM    1  C   UNL     1      -8.494   2.090  66.097  1.00  0.00    -0.102 C  
HETATM    2  C   UNL     1      -9.040   1.746  67.476  1.00  0.00    -0.171 C  
ENDROOT
BRANCH   2   3
HETATM    3  C   UNL     1      -8.744   2.864  68.489  1.00  0.00    -0.098 C  
BRANCH   3   4
HETATM    4  N   UNL     1      -7.915   2.420  69.633  1.00  0.00    -0.042 NA 
HETATM    5  C   UNL     1      -6.639   1.803  69.202  1.00  0.00    -0.029 C  
HETATM    6  C   UNL     1      -5.669   2.781  68.529  1.00  0.00    -0.023 C  
HETATM    7  C   UNL     1      -5.361   3.963  69.440  1.00  0.00    -0.012 C  
HETATM    8  C   UNL     1      -6.638   4.594  69.979  1.00  0.00    -0.036 C  
HETATM    9  C   UNL     1      -7.585   3.540  70.577  1.00  0.00    -0.040 C  
BRANCH   9  10
HETATM   10  C   UNL     1      -8.843   4.207  71.170  1.00  0.00    -0.106 C  
HETATM   11  N   UNL     1      -8.869   5.582  70.977  1.00  0.00    -0.138 N  
HETATM   12  O   UNL     1      -9.724   3.558  71.730  1.00  0.00    -0.147 OA 
HETATM   13  H   UNL     1      -8.065   6.033  70.541  1.00  0.00     0.000 HD 
BRANCH  11  14
HETATM   14  C   UNL     1      -9.974   6.379  71.364  1.00  0.00    -0.184 A  
HETATM   15  C   UNL     1     -11.081   6.501  70.495  1.00  0.00    -0.375 A  
HETATM   16  C   UNL     1     -11.108   5.980  69.083  1.00  0.00    -0.405 C  
HETATM   17  C   UNL     1     -12.189   7.266  70.905  1.00  0.00    -0.308 A  
HETATM   18  C   UNL     1     -12.219   7.879  72.154  1.00  0.00    -0.353 A  
HETATM   19  C   UNL     1     -11.137   7.744  73.015  1.00  0.00    -0.419 A  
HETATM   20  C   UNL     1     -10.009   6.989  72.641  1.00  0.00    -0.196 A  
HETATM   21  C   UNL     1      -8.902   6.847  73.652  1.00  0.00    -0.168 C  
ENDBRANCH  11  14
ENDBRANCH   9  10
ENDBRANCH   3   4
ENDBRANCH   2   3
TORSDOF 4
ENDMDL
MODEL      215
REMARK 921   NORMALIZED FREE ENERGY PREDICTED BY IDOCK:   -2.94 KCAL/MOL
REMARK 922        TOTAL FREE ENERGY PREDICTED BY IDOCK:   -4.16 KCAL/MOL
REMARK 923 INTER-LIGAND FREE ENERGY PREDICTED BY IDOCK:   -3.50 KCAL/MOL
REMARK 924 INTRA-LIGAND FREE ENERGY PREDICTED BY IDOCK:   -0.66 KCAL/MOL
REMARK 927      BINDING AFFINITY PREDICTED BY RF-SCORE:    0.00 PKD
ROOT
HETATM    1  C   UNL     1      -5.820   5.751  66.443  1.00  0.00    -0.018 C  
HETATM    2  C   UNL     1      -7.198   5.307  66.913  1.00  0.00    -0.078 C  
ENDROOT
BRANCH   2   3
HETATM    3  C   UNL     1      -7.887   6.404  67.740  1.00  0.00    -0.104 C  
BRANCH   3   4
HETATM    4  N   UNL     1      -8.625   5.883  68.914  1.00  0.00    -0.111 NA 
HETATM    5  C   UNL     1      -7.843   4.879  69.674  1.00  0.00    -0.067 C  
HETATM    6  C   UNL     1      -6.600   5.448  70.366  1.00  0.00    -0.039 C  
HETATM    7  C   UNL     1      -6.969   6.594  71.300  1.00  0.00    -0.074 C  
HETATM    8  C   UNL     1      -7.841   7.625  70.596  1.00  0.00    -0.097 C  
HETATM    9  C   UNL     1      -9.027   6.967  69.871  1.00  0.00    -0.142 C  
BRANCH   9  10
HETATM   10  C   UNL     1      -9.929   8.033  69.216  1.00  0.00    -0.191 C  
HETATM   11  N   UNL     1      -9.614   9.326  69.612  1.00  0.00    -0.173 N  
HETATM   12  O   UNL     1     -10.812   7.738  68.413  1.00  0.00    -0.085 OA 
HETATM   13  H   UNL     1      -8.894   9.462  70.321  1.00  0.00     0.000 HD 
BRANCH  11  14
HETATM   14  C   UNL     1     -10.259  10.463  69.065  1.00  0.00    -0.217 A  
HETATM   15  C   UNL     1      -9.823  10.979  67.825  1.00  0.00    -0.190 A  
HETATM   16  C   UNL     1      -8.586  10.513  67.103  1.00  0.00    -0.127 C  
HETATM   17  C   UNL     1     -10.493  12.086  67.272  1.00  0.00    -0.241 A  
HETATM   18  C   UNL     1     -11.587  12.660  67.914  1.00  0.00    -0.401 A  
HETATM   19  C   UNL     1     -12.026  12.140  69.125  1.00  0.00    -0.311 A  
HETATM   20  C   UNL     1     -11.380  11.035  69.712  1.00  0.00    -0.366 A  
HETATM   21  C   UNL     1     -11.952  10.499  70.998  1.00  0.00    -0.466 C  
ENDBRANCH  11  14
ENDBRANCH   9  10
ENDBRANCH   3   4
ENDBRANCH   2   3
TORSDOF 4
ENDMDL
MODEL      216
REMARK 921   NORMALIZED FREE ENERGY PREDICTED BY IDOCK:   -2.89 KCAL/MOL
REMARK 922        TOTAL FREE ENERGY PREDICTED BY IDOCK:   -4.09 KCAL/MOL
REMARK 923 INTER-LIGAND FREE ENERGY PREDICTED BY IDOCK:   -3.60 KCAL/MOL
REMARK 924 INTRA-LIGAND FREE ENERGY PREDICTED BY IDOCK:   -0.49 KCAL/MOL
REMARK 927      BINDING AFFINITY PREDICTED BY RF-SCORE:    0.00 PKD
ROOT
HETATM    1  C   UNL     1     -11.210   6.372  68.914  1.00  0.00    -0.385 C  
HETATM    2  C   UNL     1      -9.912   5.629  69.197  1.00  0.00    -0.244 C  
ENDROOT
BRANCH   2   3
HETATM    3  C   UNL     1      -8.741   6.604  69.400  1.00  0.00    -0.135 C  
BRANCH   3   4
HETATM    4  N   UNL     1      -9.027   7.673  70.384  1.00  0.00    -0.151 NA 
HETATM    5  C   UNL     1      -8.969   7.187  71.783  1.00  0.00    -0.128 C  
HETATM    6  C   UNL     1      -7.567   6.767  72.239  1.00  0.00    -0.093 C  
HETATM    7  C   UNL     1      -6.571   7.907  72.073  1.00  0.00    -0.059 C  
HETATM    8  C   UNL     1      -6.638   8.502  70.673  1.00  0.00    -0.039 C  
HETATM    9  C   UNL     1      -8.084   8.835  70.266  1.00  0.00    -0.116 C  
BRANCH   9  10
HETATM   10  C   UNL     1      -8.123   9.491  68.870  1.00  0.00    -0.096 C  
HETATM   11  N   UNL     1      -9.331   9.297  68.214  1.00  0.00    -0.134 N  
HETATM   12  O   UNL     1      -7.174  10.132  68.422  1.00  0.00    -0.074 OA 
HETATM   13  H   UNL     1     -10.040   8.708  68.652  1.00  0.00     0.000 HD 
BRANCH  11  14
HETATM   14  C   UNL     1      -9.614   9.887  66.958  1.00  0.00    -0.175 A  
HETATM   15  C   UNL     1     -10.063  11.226  66.905  1.00  0.00    -0.246 A  
HETATM   16  C   UNL     1     -10.441  12.038  68.115  1.00  0.00    -0.218 C  
HETATM   17  C   UNL     1     -10.306  11.815  65.651  1.00  0.00    -0.293 A  
HETATM   18  C   UNL     1     -10.088  11.112  64.470  1.00  0.00    -0.364 A  
HETATM   19  C   UNL     1      -9.629   9.802  64.522  1.00  0.00    -0.201 A  
HETATM   20  C   UNL     1      -9.377   9.176  65.757  1.00  0.00    -0.309 A  
HETATM   21  C   UNL     1      -8.829   7.773  65.726  1.00  0.00    -0.141 C  
ENDBRANCH  11  14
ENDBRANCH   9  10
ENDBRANCH   3   4
ENDBRANCH   2   3
TORSDOF 4
ENDMDL
MODEL      217
REMARK 921   NORMALIZED FREE ENERGY PREDICTED BY IDOCK:   -2.88 KCAL/MOL
REMARK 922        TOTAL FREE ENERGY PREDICTED BY IDOCK:   -4.09 KCAL/MOL
REMARK 923 INTER-LIGAND FREE ENERGY PREDICTED BY IDOCK:   -3.31 KCAL/MOL
REMARK 924 INTRA-LIGAND FREE ENERGY PREDICTED BY IDOCK:   -0.77 KCAL/MOL
REMARK 927      BINDING AFFINITY PREDICTED BY RF-SCORE:    0.00 PKD
ROOT
HETATM    1  C   UNL     1      -6.729   8.354  65.516  1.00  0.00    -0.059 C  
HETATM    2  C   UNL     1      -6.931   8.126  67.007  1.00  0.00    -0.074 C  
ENDROOT
BRANCH   2   3
HETATM    3  C   UNL     1      -8.222   8.796  67.506  1.00  0.00    -0.110 C  
BRANCH   3   4
HETATM    4  N   UNL     1      -8.151   9.238  68.917  1.00  0.00    -0.101 NA 
HETATM    5  C   UNL     1      -8.531  10.661  69.086  1.00  0.00    -0.128 C  
HETATM    6  C   UNL     1     -10.005  10.953  68.784  1.00  0.00    -0.203 C  
HETATM    7  C   UNL     1     -10.922  10.093  69.645  1.00  0.00    -0.305 C  
HETATM    8  C   UNL     1     -10.532   8.624  69.575  1.00  0.00    -0.222 C  
HETATM    9  C   UNL     1      -9.028   8.422  69.823  1.00  0.00    -0.146 C  
BRANCH   9  10
HETATM   10  C   UNL     1      -8.665   6.923  69.806  1.00  0.00    -0.141 C  
HETATM   11  N   UNL     1      -9.713   6.117  69.380  1.00  0.00    -0.143 N  
HETATM   12  O   UNL     1      -7.549   6.516  70.121  1.00  0.00    -0.092 OA 
HETATM   13  H   UNL     1     -10.617   6.547  69.186  1.00  0.00     0.000 HD 
BRANCH  11  14
HETATM   14  C   UNL     1      -9.570   4.719  69.206  1.00  0.00    -0.173 A  
HETATM   15  C   UNL     1      -9.264   4.206  67.926  1.00  0.00    -0.191 A  
HETATM   16  C   UNL     1      -9.249   5.031  66.667  1.00  0.00    -0.129 C  
HETATM   17  C   UNL     1      -9.087   2.819  67.770  1.00  0.00    -0.223 A  
HETATM   18  C   UNL     1      -9.185   1.954  68.856  1.00  0.00    -0.209 A  
HETATM   19  C   UNL     1      -9.468   2.461  70.118  1.00  0.00    -0.144 A  
HETATM   20  C   UNL     1      -9.654   3.842  70.314  1.00  0.00    -0.271 A  
HETATM   21  C   UNL     1      -9.903   4.317  71.722  1.00  0.00    -0.250 C  
ENDBRANCH  11  14
ENDBRANCH   9  10
ENDBRANCH   3   4
ENDBRANCH   2   3
TORSDOF 4
ENDMDL
MODEL      218
REMARK 921   NORMALIZED FREE ENERGY PREDICTED BY IDOCK:   -2.85 KCAL/MOL
REMARK 922        TOTAL FREE ENERGY PREDICTED BY IDOCK:   -4.05 KCAL/MOL
REMARK 923 INTER-LIGAND FREE ENERGY PREDICTED BY IDOCK:   -3.36 KCAL/MOL
REMARK 924 INTRA-LIGAND FREE ENERGY PREDICTED BY IDOCK:   -0.69 KCAL/MOL
REMARK 927      BINDING AFFINITY PREDICTED BY RF-SCORE:    0.00 PKD
ROOT
HETATM    1  C   UNL     1      -8.637   2.500  66.151  1.00  0.00    -0.113 C  
HETATM    2  C   UNL     1      -8.554   3.327  67.425  1.00  0.00    -0.122 C  
ENDROOT
BRANCH   2   3
HETATM    3  C   UNL     1      -8.543   4.833  67.114  1.00  0.00    -0.104 C  
BRANCH   3   4
HETATM    4  N   UNL     1      -7.212   5.460  67.277  1.00  0.00    -0.074 NA 
HETATM    5  C   UNL     1      -6.367   5.317  66.068  1.00  0.00    -0.035 C  
HETATM    6  C   UNL     1      -6.884   6.091  64.850  1.00  0.00    -0.047 C  
HETATM    7  C   UNL     1      -7.041   7.572  65.167  1.00  0.00    -0.063 C  
HETATM    8  C   UNL     1      -7.838   7.783  66.447  1.00  0.00    -0.094 C  
HETATM    9  C   UNL     1      -7.298   6.923  67.602  1.00  0.00    -0.096 C  
BRANCH   9  10
HETATM   10  C   UNL     1      -8.081   7.197  68.902  1.00  0.00    -0.121 C  
HETATM   11  N   UNL     1      -9.344   7.726  68.673  1.00  0.00    -0.148 N  
HETATM   12  O   UNL     1      -7.616   6.942  70.011  1.00  0.00    -0.094 OA 
HETATM   13  H   UNL     1      -9.619   7.946  67.716  1.00  0.00     0.000 HD 
BRANCH  11  14
HETATM   14  C   UNL     1     -10.264   7.970  69.721  1.00  0.00    -0.206 A  
HETATM   15  C   UNL     1     -10.992   6.892  70.273  1.00  0.00    -0.322 A  
HETATM   16  C   UNL     1     -10.995   5.498  69.705  1.00  0.00    -0.175 C  
HETATM   17  C   UNL     1     -11.876   7.139  71.339  1.00  0.00    -0.344 A  
HETATM   18  C   UNL     1     -12.025   8.417  71.869  1.00  0.00    -0.397 A  
HETATM   19  C   UNL     1     -11.297   9.474  71.338  1.00  0.00    -0.462 A  
HETATM   20  C   UNL     1     -10.404   9.268  70.270  1.00  0.00    -0.272 A  
HETATM   21  C   UNL     1      -9.612  10.455  69.788  1.00  0.00    -0.067 C  
ENDBRANCH  11  14
ENDBRANCH   9  10
ENDBRANCH   3   4
ENDBRANCH   2   3
TORSDOF 4
ENDMDL
MODEL      219
REMARK 921   NORMALIZED FREE ENERGY PREDICTED BY IDOCK:   -2.83 KCAL/MOL
REMARK 922        TOTAL FREE ENERGY PREDICTED BY IDOCK:   -4.02 KCAL/MOL
REMARK 923 INTER-LIGAND FREE ENERGY PREDICTED BY IDOCK:   -3.82 KCAL/MOL
REMARK 924 INTRA-LIGAND FREE ENERGY PREDICTED BY IDOCK:   -0.20 KCAL/MOL
REMARK 927      BINDING AFFINITY PREDICTED BY RF-SCORE:    0.00 PKD
ROOT
HETATM    1  C   UNL     1     -11.174   6.379  68.872  1.00  0.00    -0.385 C  
HETATM    2  C   UNL     1      -9.860   5.613  68.817  1.00  0.00    -0.193 C  
ENDROOT
BRANCH   2   3
HETATM    3  C   UNL     1      -8.655   6.567  68.845  1.00  0.00    -0.125 C  
BRANCH   3   4
HETATM    4  N   UNL     1      -8.630   7.454  70.030  1.00  0.00    -0.138 NA 
HETATM    5  C   UNL     1      -7.875   6.866  71.162  1.00  0.00    -0.100 C  
HETATM    6  C   UNL     1      -6.372   6.721  70.901  1.00  0.00    -0.040 C  
HETATM    7  C   UNL     1      -5.746   8.061  70.536  1.00  0.00    -0.029 C  
HETATM    8  C   UNL     1      -6.526   8.753  69.426  1.00  0.00    -0.045 C  
HETATM    9  C   UNL     1      -8.033   8.799  69.734  1.00  0.00    -0.095 C  
BRANCH   9  10
HETATM   10  C   UNL     1      -8.795   9.555  68.626  1.00  0.00    -0.132 C  
HETATM   11  N   UNL     1      -9.106  10.862  68.979  1.00  0.00    -0.314 N  
HETATM   12  O   UNL     1      -9.065   9.035  67.546  1.00  0.00    -0.131 OA 
HETATM   13  H   UNL     1      -8.879  11.185  69.919  1.00  0.00     0.000 HD 
BRANCH  11  14
HETATM   14  C   UNL     1      -9.726  11.762  68.078  1.00  0.00    -0.185 A  
HETATM   15  C   UNL     1      -8.953  12.379  67.069  1.00  0.00    -0.209 A  
HETATM   16  C   UNL     1      -7.453  12.288  66.981  1.00  0.00    -0.063 C  
HETATM   17  C   UNL     1      -9.586  13.242  66.156  1.00  0.00    -0.211 A  
HETATM   18  C   UNL     1     -10.957  13.477  66.218  1.00  0.00    -0.293 A  
HETATM   19  C   UNL     1     -11.719  12.856  67.199  1.00  0.00    -0.437 A  
HETATM   20  C   UNL     1     -11.123  11.987  68.132  1.00  0.00    -0.294 A  
HETATM   21  C   UNL     1     -12.028  11.312  69.129  1.00  0.00    -0.405 C  
ENDBRANCH  11  14
ENDBRANCH   9  10
ENDBRANCH   3   4
ENDBRANCH   2   3
TORSDOF 4
ENDMDL
MODEL      220
REMARK 921   NORMALIZED FREE ENERGY PREDICTED BY IDOCK:   -2.79 KCAL/MOL
REMARK 922        TOTAL FREE ENERGY PREDICTED BY IDOCK:   -3.97 KCAL/MOL
REMARK 923 INTER-LIGAND FREE ENERGY PREDICTED BY IDOCK:   -3.29 KCAL/MOL
REMARK 924 INTRA-LIGAND FREE ENERGY PREDICTED BY IDOCK:   -0.68 KCAL/MOL
REMARK 927      BINDING AFFINITY PREDICTED BY RF-SCORE:    0.00 PKD
ROOT
HETATM    1  C   UNL     1     -10.175   8.748  71.042  1.00  0.00    -0.301 C  
HETATM    2  C   UNL     1      -9.648   8.329  69.677  1.00  0.00    -0.167 C  
ENDROOT
BRANCH   2   3
HETATM    3  C   UNL     1      -9.335   9.552  68.800  1.00  0.00    -0.146 C  
BRANCH   3   4
HETATM    4  N   UNL     1     -10.183   9.642  67.589  1.00  0.00    -0.201 NA 
HETATM    5  C   UNL     1     -11.098  10.807  67.623  1.00  0.00    -0.319 C  
HETATM    6  C   UNL     1     -10.386  12.163  67.556  1.00  0.00    -0.219 C  
HETATM    7  C   UNL     1      -9.510  12.262  66.314  1.00  0.00    -0.234 C  
HETATM    8  C   UNL     1      -8.598  11.050  66.181  1.00  0.00    -0.175 C  
HETATM    9  C   UNL     1      -9.378   9.732  66.325  1.00  0.00    -0.180 C  
BRANCH   9  10
HETATM   10  C   UNL     1      -8.445   8.519  66.128  1.00  0.00    -0.132 C  
HETATM   11  N   UNL     1      -9.088   7.430  65.555  1.00  0.00    -0.381 N  
HETATM   12  O   UNL     1      -7.256   8.552  66.434  1.00  0.00    -0.077 OA 
HETATM   13  H   UNL     1     -10.091   7.486  65.381  1.00  0.00     0.000 HD 
BRANCH  11  14
HETATM   14  C   UNL     1      -8.400   6.243  65.205  1.00  0.00    -0.138 A  
HETATM   15  C   UNL     1      -7.762   6.154  63.948  1.00  0.00    -0.106 A  
HETATM   16  C   UNL     1      -7.906   7.178  62.854  1.00  0.00    -0.119 C  
HETATM   17  C   UNL     1      -7.049   4.985  63.625  1.00  0.00    -0.048 A  
HETATM   18  C   UNL     1      -6.944   3.932  64.529  1.00  0.00    -0.050 A  
HETATM   19  C   UNL     1      -7.556   4.027  65.772  1.00  0.00    -0.085 A  
HETATM   20  C   UNL     1      -8.281   5.179  66.132  1.00  0.00    -0.109 A  
HETATM   21  C   UNL     1      -8.868   5.225  67.518  1.00  0.00    -0.105 C  
ENDBRANCH  11  14
ENDBRANCH   9  10
ENDBRANCH   3   4
ENDBRANCH   2   3
TORSDOF 4
ENDMDL
MODEL      221
REMARK 921   NORMALIZED FREE ENERGY PREDICTED BY IDOCK:   -2.73 KCAL/MOL
REMARK 922        TOTAL FREE ENERGY PREDICTED BY IDOCK:   -3.90 KCAL/MOL
REMARK 923 INTER-LIGAND FREE ENERGY PREDICTED BY IDOCK:   -3.76 KCAL/MOL
REMARK 924 INTRA-LIGAND FREE ENERGY PREDICTED BY IDOCK:   -0.14 KCAL/MOL
REMARK 927      BINDING AFFINITY PREDICTED BY RF-SCORE:    0.00 PKD
ROOT
HETATM    1  C   UNL     1     -12.106  12.633  63.870  1.00  0.00    -0.567 C  
HETATM    2  C   UNL     1     -12.479  12.840  65.331  1.00  0.00    -0.478 C  
ENDROOT
BRANCH   2   3
HETATM    3  C   UNL     1     -11.263  12.648  66.251  1.00  0.00    -0.311 C  
BRANCH   3   4
HETATM    4  N   UNL     1      -9.978  13.023  65.618  1.00  0.00    -0.261 NA 
HETATM    5  C   UNL     1      -9.645  14.454  65.815  1.00  0.00    -0.181 C  
HETATM    6  C   UNL     1      -9.350  14.831  67.272  1.00  0.00    -0.211 C  
HETATM    7  C   UNL     1      -8.221  13.981  67.841  1.00  0.00    -0.158 C  
HETATM    8  C   UNL     1      -8.469  12.498  67.599  1.00  0.00    -0.171 C  
HETATM    9  C   UNL     1      -8.823  12.212  66.130  1.00  0.00     0.029 C  
BRANCH   9  10
HETATM   10  C   UNL     1      -9.011  10.699  65.896  1.00  0.00    -0.175 C  
HETATM   11  N   UNL     1      -7.809  10.006  65.843  1.00  0.00    -0.117 N  
HETATM   12  O   UNL     1     -10.123  10.187  65.793  1.00  0.00    -0.264 OA 
HETATM   13  H   UNL     1      -6.936  10.531  65.893  1.00  0.00     0.000 HD 
BRANCH  11  14
HETATM   14  C   UNL     1      -7.753   8.596  65.724  1.00  0.00    -0.090 A  
HETATM   15  C   UNL     1      -7.710   7.801  66.891  1.00  0.00    -0.103 A  
HETATM   16  C   UNL     1      -7.540   8.351  68.282  1.00  0.00    -0.098 C  
HETATM   17  C   UNL     1      -7.692   6.400  66.762  1.00  0.00    -0.100 A  
HETATM   18  C   UNL     1      -7.740   5.791  65.512  1.00  0.00    -0.090 A  
HETATM   19  C   UNL     1      -7.800   6.573  64.366  1.00  0.00    -0.115 A  
HETATM   20  C   UNL     1      -7.817   7.978  64.452  1.00  0.00    -0.139 A  
HETATM   21  C   UNL     1      -7.938   8.751  63.166  1.00  0.00    -0.159 C  
ENDBRANCH  11  14
ENDBRANCH   9  10
ENDBRANCH   3   4
ENDBRANCH   2   3
TORSDOF 4
ENDMDL
MODEL      222
REMARK 921   NORMALIZED FREE ENERGY PREDICTED BY IDOCK:   -2.73 KCAL/MOL
REMARK 922        TOTAL FREE ENERGY PREDICTED BY IDOCK:   -3.89 KCAL/MOL
REMARK 923 INTER-LIGAND FREE ENERGY PREDICTED BY IDOCK:   -3.31 KCAL/MOL
REMARK 924 INTRA-LIGAND FREE ENERGY PREDICTED BY IDOCK:   -0.59 KCAL/MOL
REMARK 927      BINDING AFFINITY PREDICTED BY RF-SCORE:    0.00 PKD
ROOT
HETATM    1  C   UNL     1      -9.373   8.967  71.421  1.00  0.00    -0.338 C  
HETATM    2  C   UNL     1      -9.342   8.280  70.063  1.00  0.00    -0.162 C  
ENDROOT
BRANCH   2   3
HETATM    3  C   UNL     1      -9.237   9.304  68.921  1.00  0.00    -0.143 C  
BRANCH   3   4
HETATM    4  N   UNL     1     -10.353   9.224  67.952  1.00  0.00    -0.215 NA 
HETATM    5  C   UNL     1     -11.113  10.493  67.857  1.00  0.00    -0.304 C  
HETATM    6  C   UNL     1     -10.315  11.656  67.256  1.00  0.00    -0.232 C  
HETATM    7  C   UNL     1      -9.781  11.298  65.875  1.00  0.00    -0.258 C  
HETATM    8  C   UNL     1      -9.054   9.961  65.891  1.00  0.00    -0.201 C  
HETATM    9  C   UNL     1      -9.894   8.865  66.569  1.00  0.00    -0.274 C  
BRANCH   9  10
HETATM   10  C   UNL     1      -9.164   7.506  66.520  1.00  0.00    -0.174 C  
HETATM   11  N   UNL     1     -10.020   6.441  66.273  1.00  0.00    -0.395 N  
HETATM   12  O   UNL     1      -7.947   7.412  66.666  1.00  0.00    -0.115 OA 
HETATM   13  H   UNL     1     -11.022   6.618  66.214  1.00  0.00     0.000 HD 
BRANCH  11  14
HETATM   14  C   UNL     1      -9.548   5.116  66.101  1.00  0.00    -0.164 A  
HETATM   15  C   UNL     1      -9.523   4.238  67.207  1.00  0.00    -0.209 A  
HETATM   16  C   UNL     1      -9.801   4.659  68.626  1.00  0.00    -0.190 C  
HETATM   17  C   UNL     1      -9.089   2.913  67.018  1.00  0.00    -0.188 A  
HETATM   18  C   UNL     1      -8.708   2.453  65.761  1.00  0.00    -0.121 A  
HETATM   19  C   UNL     1      -8.750   3.312  64.670  1.00  0.00    -0.103 A  
HETATM   20  C   UNL     1      -9.177   4.645  64.819  1.00  0.00    -0.133 A  
HETATM   21  C   UNL     1      -9.245   5.495  63.578  1.00  0.00     0.614 C  
ENDBRANCH  11  14
ENDBRANCH   9  10
ENDBRANCH   3   4
ENDBRANCH   2   3
TORSDOF 4
ENDMDL
MODEL      223
REMARK 921   NORMALIZED FREE ENERGY PREDICTED BY IDOCK:   -2.72 KCAL/MOL
REMARK 922        TOTAL FREE ENERGY PREDICTED BY IDOCK:   -3.88 KCAL/MOL
REMARK 923 INTER-LIGAND FREE ENERGY PREDICTED BY IDOCK:   -3.21 KCAL/MOL
REMARK 924 INTRA-LIGAND FREE ENERGY PREDICTED BY IDOCK:   -0.67 KCAL/MOL
REMARK 927      BINDING AFFINITY PREDICTED BY RF-SCORE:    0.00 PKD
ROOT
HETATM    1  C   UNL     1     -13.260   7.333  71.233  1.00  0.00    -0.352 C  
HETATM    2  C   UNL     1     -12.125   6.415  70.803  1.00  0.00    -0.162 C  
ENDROOT
BRANCH   2   3
HETATM    3  C   UNL     1     -11.265   7.064  69.707  1.00  0.00    -0.217 C  
BRANCH   3   4
HETATM    4  N   UNL     1     -10.960   6.153  68.579  1.00  0.00    -0.324 NA 
HETATM    5  C   UNL     1     -11.155   6.799  67.260  1.00  0.00    -0.324 C  
HETATM    6  C   UNL     1     -10.167   7.933  66.967  1.00  0.00    -0.382 C  
HETATM    7  C   UNL     1      -8.727   7.446  67.068  1.00  0.00    -0.123 C  
HETATM    8  C   UNL     1      -8.483   6.703  68.374  1.00  0.00    -0.125 C  
HETATM    9  C   UNL     1      -9.554   5.628  68.626  1.00  0.00    -0.130 C  
BRANCH   9  10
HETATM   10  C   UNL     1      -9.254   4.848  69.922  1.00  0.00    -0.124 C  
HETATM   11  N   UNL     1      -8.277   5.451  70.704  1.00  0.00    -0.112 N  
HETATM   12  O   UNL     1      -9.852   3.815  70.217  1.00  0.00    -0.190 OA 
HETATM   13  H   UNL     1      -7.808   6.283  70.348  1.00  0.00     0.000 HD 
BRANCH  11  14
HETATM   14  C   UNL     1      -7.911   4.951  71.977  1.00  0.00    -0.110 A  
HETATM   15  C   UNL     1      -8.566   5.439  73.130  1.00  0.00    -0.117 A  
HETATM   16  C   UNL     1      -9.522   6.602  73.129  1.00  0.00    -0.160 C  
HETATM   17  C   UNL     1      -8.221   4.909  74.387  1.00  0.00    -0.102 A  
HETATM   18  C   UNL     1      -7.268   3.902  74.507  1.00  0.00    -0.065 A  
HETATM   19  C   UNL     1      -6.638   3.410  73.371  1.00  0.00    -0.030 A  
HETATM   20  C   UNL     1      -6.953   3.916  72.096  1.00  0.00    -0.049 A  
HETATM   21  C   UNL     1      -6.265   3.291  70.911  1.00  0.00    -0.019 C  
ENDBRANCH  11  14
ENDBRANCH   9  10
ENDBRANCH   3   4
ENDBRANCH   2   3
TORSDOF 4
ENDMDL
MODEL      224
REMARK 921   NORMALIZED FREE ENERGY PREDICTED BY IDOCK:   -2.69 KCAL/MOL
REMARK 922        TOTAL FREE ENERGY PREDICTED BY IDOCK:   -3.85 KCAL/MOL
REMARK 923 INTER-LIGAND FREE ENERGY PREDICTED BY IDOCK:   -3.07 KCAL/MOL
REMARK 924 INTRA-LIGAND FREE ENERGY PREDICTED BY IDOCK:   -0.78 KCAL/MOL
REMARK 927      BINDING AFFINITY PREDICTED BY RF-SCORE:    0.00 PKD
ROOT
HETATM    1  C   UNL     1     -11.590   6.349  70.862  1.00  0.00    -0.393 C  
HETATM    2  C   UNL     1     -11.011   7.712  70.511  1.00  0.00    -0.259 C  
ENDROOT
BRANCH   2   3
HETATM    3  C   UNL     1      -9.804   7.581  69.567  1.00  0.00    -0.169 C  
BRANCH   3   4
HETATM    4  N   UNL     1      -9.304   8.880  69.063  1.00  0.00    -0.144 NA 
HETATM    5  C   UNL     1      -8.725   9.720  70.138  1.00  0.00    -0.180 C  
HETATM    6  C   UNL     1      -7.438   9.153  70.748  1.00  0.00    -0.133 C  
HETATM    7  C   UNL     1      -6.378   8.923  69.677  1.00  0.00    -0.042 C  
HETATM    8  C   UNL     1      -6.937   8.129  68.505  1.00  0.00    -0.072 C  
HETATM    9  C   UNL     1      -8.261   8.723  67.995  1.00  0.00    -0.118 C  
BRANCH   9  10
HETATM   10  C   UNL     1      -8.778   7.939  66.771  1.00  0.00    -0.134 C  
HETATM   11  N   UNL     1      -8.172   6.698  66.628  1.00  0.00    -0.110 N  
HETATM   12  O   UNL     1      -9.652   8.385  66.031  1.00  0.00    -0.207 OA 
HETATM   13  H   UNL     1      -7.422   6.439  67.268  1.00  0.00     0.000 HD 
BRANCH  11  14
HETATM   14  C   UNL     1      -8.560   5.778  65.623  1.00  0.00    -0.151 A  
HETATM   15  C   UNL     1      -9.692   4.958  65.831  1.00  0.00    -0.197 A  
HETATM   16  C   UNL     1     -10.433   4.857  67.137  1.00  0.00    -0.130 C  
HETATM   17  C   UNL     1     -10.091   4.074  64.811  1.00  0.00    -0.222 A  
HETATM   18  C   UNL     1      -9.406   4.014  63.601  1.00  0.00    -0.139 A  
HETATM   19  C   UNL     1      -8.305   4.833  63.390  1.00  0.00    -0.112 A  
HETATM   20  C   UNL     1      -7.873   5.729  64.387  1.00  0.00    -0.110 A  
HETATM   21  C   UNL     1      -6.704   6.621  64.059  1.00  0.00    -0.044 C  
ENDBRANCH  11  14
ENDBRANCH   9  10
ENDBRANCH   3   4
ENDBRANCH   2   3
TORSDOF 4
ENDMDL
MODEL      225
REMARK 921   NORMALIZED FREE ENERGY PREDICTED BY IDOCK:   -2.69 KCAL/MOL
REMARK 922        TOTAL FREE ENERGY PREDICTED BY IDOCK:   -3.84 KCAL/MOL
REMARK 923 INTER-LIGAND FREE ENERGY PREDICTED BY IDOCK:   -3.55 KCAL/MOL
REMARK 924 INTRA-LIGAND FREE ENERGY PREDICTED BY IDOCK:   -0.29 KCAL/MOL
REMARK 927      BINDING AFFINITY PREDICTED BY RF-SCORE:    0.00 PKD
ROOT
HETATM    1  C   UNL     1      -7.436  10.132  70.002  1.00  0.00    -0.171 C  
HETATM    2  C   UNL     1      -8.694  10.412  69.191  1.00  0.00    -0.173 C  
ENDROOT
BRANCH   2   3
HETATM    3  C   UNL     1      -9.329   9.110  68.676  1.00  0.00    -0.135 C  
BRANCH   3   4
HETATM    4  N   UNL     1     -10.010   9.262  67.369  1.00  0.00    -0.185 NA 
HETATM    5  C   UNL     1      -9.675  10.542  66.701  1.00  0.00    -0.189 C  
HETATM    6  C   UNL     1      -8.212  10.651  66.258  1.00  0.00    -0.153 C  
HETATM    7  C   UNL     1      -7.831   9.499  65.336  1.00  0.00    -0.109 C  
HETATM    8  C   UNL     1      -8.221   8.156  65.936  1.00  0.00    -0.122 C  
HETATM    9  C   UNL     1      -9.683   8.151  66.415  1.00  0.00    -0.205 C  
BRANCH   9  10
HETATM   10  C   UNL     1     -10.075   6.763  66.963  1.00  0.00    -0.200 C  
HETATM   11  N   UNL     1      -8.981   6.020  67.389  1.00  0.00    -0.109 N  
HETATM   12  O   UNL     1     -11.245   6.391  67.025  1.00  0.00    -0.373 OA 
HETATM   13  H   UNL     1      -8.045   6.400  67.251  1.00  0.00     0.000 HD 
BRANCH  11  14
HETATM   14  C   UNL     1      -9.121   4.754  68.008  1.00  0.00    -0.117 A  
HETATM   15  C   UNL     1      -9.261   4.678  69.412  1.00  0.00    -0.179 A  
HETATM   16  C   UNL     1      -9.095   5.850  70.341  1.00  0.00    -0.157 C  
HETATM   17  C   UNL     1      -9.437   3.418  70.013  1.00  0.00    -0.243 A  
HETATM   18  C   UNL     1      -9.498   2.257  69.248  1.00  0.00    -0.126 A  
HETATM   19  C   UNL     1      -9.379   2.334  67.867  1.00  0.00    -0.232 A  
HETATM   20  C   UNL     1      -9.199   3.575  67.228  1.00  0.00    -0.221 A  
HETATM   21  C   UNL     1      -9.133   3.579  65.723  1.00  0.00    -0.150 C  
ENDBRANCH  11  14
ENDBRANCH   9  10
ENDBRANCH   3   4
ENDBRANCH   2   3
TORSDOF 4
ENDMDL
MODEL      226
REMARK 921   NORMALIZED FREE ENERGY PREDICTED BY IDOCK:   -2.63 KCAL/MOL
REMARK 922        TOTAL FREE ENERGY PREDICTED BY IDOCK:   -3.77 KCAL/MOL
REMARK 923 INTER-LIGAND FREE ENERGY PREDICTED BY IDOCK:   -2.88 KCAL/MOL
REMARK 924 INTRA-LIGAND FREE ENERGY PREDICTED BY IDOCK:   -0.89 KCAL/MOL
REMARK 927      BINDING AFFINITY PREDICTED BY RF-SCORE:    0.00 PKD
ROOT
HETATM    1  C   UNL     1     -11.273   5.878  72.294  1.00  0.00    -0.343 C  
HETATM    2  C   UNL     1     -10.464   4.894  73.125  1.00  0.00    -0.254 C  
ENDROOT
BRANCH   2   3
HETATM    3  C   UNL     1      -9.143   4.526  72.429  1.00  0.00    -0.124 C  
BRANCH   3   4
HETATM    4  N   UNL     1      -7.975   5.275  72.946  1.00  0.00    -0.102 NA 
HETATM    5  C   UNL     1      -7.067   4.422  73.750  1.00  0.00    -0.067 C  
HETATM    6  C   UNL     1      -6.354   3.333  72.940  1.00  0.00    -0.009 C  
HETATM    7  C   UNL     1      -5.568   3.936  71.783  1.00  0.00    -0.008 C  
HETATM    8  C   UNL     1      -6.430   4.886  70.962  1.00  0.00    -0.023 C  
HETATM    9  C   UNL     1      -7.161   5.904  71.853  1.00  0.00    -0.092 C  
BRANCH   9  10
HETATM   10  C   UNL     1      -7.980   6.892  70.998  1.00  0.00    -0.102 C  
HETATM   11  N   UNL     1      -7.932   6.602  69.640  1.00  0.00    -0.122 N  
HETATM   12  O   UNL     1      -8.617   7.817  71.497  1.00  0.00    -0.112 OA 
HETATM   13  H   UNL     1      -7.336   5.839  69.321  1.00  0.00     0.000 HD 
BRANCH  11  14
HETATM   14  C   UNL     1      -8.683   7.329  68.684  1.00  0.00    -0.127 A  
HETATM   15  C   UNL     1      -9.952   6.852  68.288  1.00  0.00    -0.162 A  
HETATM   16  C   UNL     1     -10.509   5.509  68.680  1.00  0.00    -0.240 C  
HETATM   17  C   UNL     1     -10.706   7.600  67.366  1.00  0.00    -0.318 A  
HETATM   18  C   UNL     1     -10.233   8.808  66.861  1.00  0.00    -0.357 A  
HETATM   19  C   UNL     1      -8.993   9.286  67.264  1.00  0.00    -0.136 A  
HETATM   20  C   UNL     1      -8.208   8.565  68.183  1.00  0.00    -0.120 A  
HETATM   21  C   UNL     1      -6.900   9.178  68.611  1.00  0.00    -0.062 C  
ENDBRANCH  11  14
ENDBRANCH   9  10
ENDBRANCH   3   4
ENDBRANCH   2   3
TORSDOF 4
ENDMDL
MODEL      227
REMARK 921   NORMALIZED FREE ENERGY PREDICTED BY IDOCK:   -2.62 KCAL/MOL
REMARK 922        TOTAL FREE ENERGY PREDICTED BY IDOCK:   -3.76 KCAL/MOL
REMARK 923 INTER-LIGAND FREE ENERGY PREDICTED BY IDOCK:   -3.44 KCAL/MOL
REMARK 924 INTRA-LIGAND FREE ENERGY PREDICTED BY IDOCK:   -0.32 KCAL/MOL
REMARK 927      BINDING AFFINITY PREDICTED BY RF-SCORE:    0.00 PKD
ROOT
HETATM    1  C   UNL     1      -7.404  10.052  69.941  1.00  0.00    -0.163 C  
HETATM    2  C   UNL     1      -8.610  10.342  69.058  1.00  0.00    -0.158 C  
ENDROOT
BRANCH   2   3
HETATM    3  C   UNL     1      -9.242   9.044  68.530  1.00  0.00    -0.136 C  
BRANCH   3   4
HETATM    4  N   UNL     1      -9.869   9.193  67.196  1.00  0.00    -0.180 NA 
HETATM    5  C   UNL     1      -9.470  10.450  66.519  1.00  0.00    -0.167 C  
HETATM    6  C   UNL     1      -7.988  10.506  66.130  1.00  0.00    -0.147 C  
HETATM    7  C   UNL     1      -7.609   9.327  65.243  1.00  0.00    -0.099 C  
HETATM    8  C   UNL     1      -8.063   8.007  65.850  1.00  0.00    -0.117 C  
HETATM    9  C   UNL     1      -9.541   8.055  66.274  1.00  0.00    -0.152 C  
BRANCH   9  10
HETATM   10  C   UNL     1      -9.996   6.690  66.831  1.00  0.00    -0.180 C  
HETATM   11  N   UNL     1      -8.934   5.867  67.182  1.00  0.00    -0.114 N  
HETATM   12  O   UNL     1     -11.184   6.399  66.959  1.00  0.00    -0.373 OA 
HETATM   13  H   UNL     1      -7.984   6.183  66.992  1.00  0.00     0.000 HD 
BRANCH  11  14
HETATM   14  C   UNL     1      -9.126   4.605  67.795  1.00  0.00    -0.119 A  
HETATM   15  C   UNL     1      -9.002   3.430  67.021  1.00  0.00    -0.174 A  
HETATM   16  C   UNL     1      -8.851   3.418  65.523  1.00  0.00    -0.134 C  
HETATM   17  C   UNL     1      -9.158   2.180  67.648  1.00  0.00    -0.204 A  
HETATM   18  C   UNL     1      -9.406   2.085  69.014  1.00  0.00    -0.197 A  
HETATM   19  C   UNL     1      -9.510   3.240  69.778  1.00  0.00    -0.212 A  
HETATM   20  C   UNL     1      -9.363   4.509  69.188  1.00  0.00    -0.214 A  
HETATM   21  C   UNL     1      -9.435   5.710  70.095  1.00  0.00    -0.200 C  
ENDBRANCH  11  14
ENDBRANCH   9  10
ENDBRANCH   3   4
ENDBRANCH   2   3
TORSDOF 4
ENDMDL
MODEL      228
REMARK 921   NORMALIZED FREE ENERGY PREDICTED BY IDOCK:   -2.56 KCAL/MOL
REMARK 922        TOTAL FREE ENERGY PREDICTED BY IDOCK:   -3.69 KCAL/MOL
REMARK 923 INTER-LIGAND FREE ENERGY PREDICTED BY IDOCK:   -3.50 KCAL/MOL
REMARK 924 INTRA-LIGAND FREE ENERGY PREDICTED BY IDOCK:   -0.19 KCAL/MOL
REMARK 927      BINDING AFFINITY PREDICTED BY RF-SCORE:    0.00 PKD
ROOT
HETATM    1  C   UNL     1      -5.949  11.790  68.072  1.00  0.00    -0.049 C  
HETATM    2  C   UNL     1      -6.505  11.507  66.684  1.00  0.00    -0.090 C  
ENDROOT
BRANCH   2   3
HETATM    3  C   UNL     1      -8.004  11.167  66.741  1.00  0.00    -0.156 C  
BRANCH   3   4
HETATM    4  N   UNL     1      -8.729  11.876  67.820  1.00  0.00    -0.151 NA 
HETATM    5  C   UNL     1      -9.189  13.222  67.405  1.00  0.00    -0.216 C  
HETATM    6  C   UNL     1     -10.271  13.204  66.318  1.00  0.00    -0.294 C  
HETATM    7  C   UNL     1     -11.478  12.386  66.759  1.00  0.00    -0.423 C  
HETATM    8  C   UNL     1     -11.060  11.014  67.271  1.00  0.00    -0.359 C  
HETATM    9  C   UNL     1      -9.928  11.115  68.307  1.00  0.00    -0.187 C  
BRANCH   9  10
HETATM   10  C   UNL     1      -9.562   9.721  68.857  1.00  0.00    -0.167 C  
HETATM   11  N   UNL     1      -9.214   8.820  67.860  1.00  0.00    -0.139 N  
HETATM   12  O   UNL     1      -9.567   9.470  70.060  1.00  0.00    -0.206 OA 
HETATM   13  H   UNL     1      -9.287   9.112  66.885  1.00  0.00     0.000 HD 
BRANCH  11  14
HETATM   14  C   UNL     1      -8.759   7.510  68.148  1.00  0.00    -0.122 A  
HETATM   15  C   UNL     1      -9.612   6.409  67.911  1.00  0.00    -0.121 A  
HETATM   16  C   UNL     1     -11.064   6.533  67.531  1.00  0.00    -0.396 C  
HETATM   17  C   UNL     1      -9.138   5.110  68.166  1.00  0.00    -0.125 A  
HETATM   18  C   UNL     1      -7.841   4.893  68.622  1.00  0.00    -0.077 A  
HETATM   19  C   UNL     1      -6.996   5.974  68.838  1.00  0.00    -0.068 A  
HETATM   20  C   UNL     1      -7.434   7.290  68.597  1.00  0.00    -0.102 A  
HETATM   21  C   UNL     1      -6.440   8.402  68.804  1.00  0.00    -0.053 C  
ENDBRANCH  11  14
ENDBRANCH   9  10
ENDBRANCH   3   4
ENDBRANCH   2   3
TORSDOF 4
ENDMDL
MODEL      229
REMARK 921   NORMALIZED FREE ENERGY PREDICTED BY IDOCK:   -2.55 KCAL/MOL
REMARK 922        TOTAL FREE ENERGY PREDICTED BY IDOCK:   -3.68 KCAL/MOL
REMARK 923 INTER-LIGAND FREE ENERGY PREDICTED BY IDOCK:   -4.69 KCAL/MOL
REMARK 924 INTRA-LIGAND FREE ENERGY PREDICTED BY IDOCK:    1.01 KCAL/MOL
REMARK 927      BINDING AFFINITY PREDICTED BY RF-SCORE:    0.00 PKD
ROOT
HETATM    1  C   UNL     1      -6.566  12.350  67.302  1.00  0.00    -0.136 C  
HETATM    2  C   UNL     1      -7.392  11.173  67.803  1.00  0.00    -0.093 C  
ENDROOT
BRANCH   2   3
HETATM    3  C   UNL     1      -8.809  11.190  67.206  1.00  0.00    -0.144 C  
BRANCH   3   4
HETATM    4  N   UNL     1      -9.275   9.858  66.755  1.00  0.00    -0.146 NA 
HETATM    5  C   UNL     1      -8.690   9.465  65.451  1.00  0.00    -0.166 C  
HETATM    6  C   UNL     1      -7.177   9.222  65.493  1.00  0.00    -0.086 C  
HETATM    7  C   UNL     1      -6.820   8.166  66.532  1.00  0.00    -0.067 C  
HETATM    8  C   UNL     1      -7.458   8.475  67.879  1.00  0.00    -0.097 C  
HETATM    9  C   UNL     1      -8.961   8.772  67.742  1.00  0.00    -0.135 C  
BRANCH   9  10
HETATM   10  C   UNL     1      -9.598   9.023  69.124  1.00  0.00    -0.161 C  
HETATM   11  N   UNL     1     -10.986   9.010  69.091  1.00  0.00    -0.426 N  
HETATM   12  O   UNL     1      -8.920   9.190  70.136  1.00  0.00    -0.164 OA 
HETATM   13  H   UNL     1     -11.456   8.910  68.191  1.00  0.00     0.000 HD 
BRANCH  11  14
HETATM   14  C   UNL     1     -11.772   9.132  70.262  1.00  0.00    -0.017 A  
HETATM   15  C   UNL     1     -12.277  10.399  70.633  1.00  0.00    -0.441 A  
HETATM   16  C   UNL     1     -11.892  11.690  69.961  1.00  0.00    -0.435 C  
HETATM   17  C   UNL     1     -13.088  10.503  71.778  1.00  0.00    -0.570 A  
HETATM   18  C   UNL     1     -13.417   9.380  72.531  1.00  0.00    -0.437 A  
HETATM   19  C   UNL     1     -12.936   8.132  72.157  1.00  0.00    -0.287 A  
HETATM   20  C   UNL     1     -12.120   7.987  71.019  1.00  0.00    -0.232 A  
HETATM   21  C   UNL     1     -11.684   6.593  70.650  1.00  0.00    -0.452 C  
ENDBRANCH  11  14
ENDBRANCH   9  10
ENDBRANCH   3   4
ENDBRANCH   2   3
TORSDOF 4
ENDMDL
MODEL      230
REMARK 921   NORMALIZED FREE ENERGY PREDICTED BY IDOCK:   -2.55 KCAL/MOL
REMARK 922        TOTAL FREE ENERGY PREDICTED BY IDOCK:   -3.68 KCAL/MOL
REMARK 923 INTER-LIGAND FREE ENERGY PREDICTED BY IDOCK:   -3.30 KCAL/MOL
REMARK 924 INTRA-LIGAND FREE ENERGY PREDICTED BY IDOCK:   -0.38 KCAL/MOL
REMARK 927      BINDING AFFINITY PREDICTED BY RF-SCORE:    0.00 PKD
ROOT
HETATM    1  C   UNL     1      -8.021   6.805  63.814  1.00  0.00    -0.065 C  
HETATM    2  C   UNL     1      -7.517   7.345  65.145  1.00  0.00    -0.086 C  
ENDROOT
BRANCH   2   3
HETATM    3  C   UNL     1      -8.550   8.279  65.796  1.00  0.00    -0.161 C  
BRANCH   3   4
HETATM    4  N   UNL     1      -8.132   9.700  65.815  1.00  0.00    -0.111 NA 
HETATM    5  C   UNL     1      -8.537  10.425  64.588  1.00  0.00    -0.185 C  
HETATM    6  C   UNL     1     -10.053  10.591  64.431  1.00  0.00    -0.395 C  
HETATM    7  C   UNL     1     -10.656  11.295  65.641  1.00  0.00    -0.303 C  
HETATM    8  C   UNL     1     -10.212  10.640  66.941  1.00  0.00    -0.272 C  
HETATM    9  C   UNL     1      -8.687  10.450  66.991  1.00  0.00    -0.130 C  
BRANCH   9  10
HETATM   10  C   UNL     1      -8.254   9.840  68.341  1.00  0.00    -0.105 C  
HETATM   11  N   UNL     1      -9.045   8.767  68.729  1.00  0.00    -0.138 N  
HETATM   12  O   UNL     1      -7.290  10.268  68.972  1.00  0.00    -0.077 OA 
HETATM   13  H   UNL     1      -9.852   8.518  68.157  1.00  0.00     0.000 HD 
BRANCH  11  14
HETATM   14  C   UNL     1      -8.770   8.005  69.891  1.00  0.00    -0.139 A  
HETATM   15  C   UNL     1      -7.806   6.974  69.834  1.00  0.00    -0.114 A  
HETATM   16  C   UNL     1      -7.158   6.493  68.563  1.00  0.00    -0.083 C  
HETATM   17  C   UNL     1      -7.514   6.248  71.003  1.00  0.00    -0.085 A  
HETATM   18  C   UNL     1      -8.138   6.545  72.211  1.00  0.00    -0.106 A  
HETATM   19  C   UNL     1      -9.072   7.571  72.270  1.00  0.00    -0.173 A  
HETATM   20  C   UNL     1      -9.394   8.319  71.122  1.00  0.00    -0.205 A  
HETATM   21  C   UNL     1     -10.377   9.449  71.282  1.00  0.00    -0.363 C  
ENDBRANCH  11  14
ENDBRANCH   9  10
ENDBRANCH   3   4
ENDBRANCH   2   3
TORSDOF 4
ENDMDL
MODEL      231
REMARK 921   NORMALIZED FREE ENERGY PREDICTED BY IDOCK:   -2.55 KCAL/MOL
REMARK 922        TOTAL FREE ENERGY PREDICTED BY IDOCK:   -3.67 KCAL/MOL
REMARK 923 INTER-LIGAND FREE ENERGY PREDICTED BY IDOCK:   -3.75 KCAL/MOL
REMARK 924 INTRA-LIGAND FREE ENERGY PREDICTED BY IDOCK:    0.08 KCAL/MOL
REMARK 927      BINDING AFFINITY PREDICTED BY RF-SCORE:    0.00 PKD
ROOT
HETATM    1  C   UNL     1      -9.963   6.693  74.389  1.00  0.00    -0.359 C  
HETATM    2  C   UNL     1     -10.293   6.621  72.905  1.00  0.00    -0.236 C  
ENDROOT
BRANCH   2   3
HETATM    3  C   UNL     1     -10.613   8.013  72.336  1.00  0.00    -0.307 C  
BRANCH   3   4
HETATM    4  N   UNL     1     -11.786   8.025  71.431  1.00  0.00    -0.281 NA 
HETATM    5  C   UNL     1     -13.039   8.389  72.132  1.00  0.00    -0.328 C  
HETATM    6  C   UNL     1     -13.074   9.835  72.640  1.00  0.00    -0.013 C  
HETATM    7  C   UNL     1     -12.842  10.821  71.502  1.00  0.00    -0.567 C  
HETATM    8  C   UNL     1     -11.606  10.454  70.693  1.00  0.00    -0.440 C  
HETATM    9  C   UNL     1     -11.616   8.973  70.279  1.00  0.00    -0.060 C  
BRANCH   9  10
HETATM   10  C   UNL     1     -10.386   8.638  69.411  1.00  0.00    -0.218 C  
HETATM   11  N   UNL     1      -9.185   8.987  70.015  1.00  0.00    -0.168 N  
HETATM   12  O   UNL     1     -10.490   8.098  68.311  1.00  0.00    -0.204 OA 
HETATM   13  H   UNL     1      -9.209   9.474  70.910  1.00  0.00     0.000 HD 
BRANCH  11  14
HETATM   14  C   UNL     1      -7.930   8.688  69.431  1.00  0.00    -0.102 A  
HETATM   15  C   UNL     1      -7.206   7.560  69.878  1.00  0.00    -0.080 A  
HETATM   16  C   UNL     1      -7.591   6.729  71.074  1.00  0.00    -0.085 C  
HETATM   17  C   UNL     1      -5.978   7.251  69.267  1.00  0.00    -0.030 A  
HETATM   18  C   UNL     1      -5.480   8.021  68.219  1.00  0.00    -0.033 A  
HETATM   19  C   UNL     1      -6.201   9.119  67.768  1.00  0.00    -0.051 A  
HETATM   20  C   UNL     1      -7.433   9.463  68.356  1.00  0.00    -0.078 A  
HETATM   21  C   UNL     1      -8.177  10.635  67.773  1.00  0.00    -0.111 C  
ENDBRANCH  11  14
ENDBRANCH   9  10
ENDBRANCH   3   4
ENDBRANCH   2   3
TORSDOF 4
ENDMDL
MODEL      232
REMARK 921   NORMALIZED FREE ENERGY PREDICTED BY IDOCK:   -2.49 KCAL/MOL
REMARK 922        TOTAL FREE ENERGY PREDICTED BY IDOCK:   -3.60 KCAL/MOL
REMARK 923 INTER-LIGAND FREE ENERGY PREDICTED BY IDOCK:   -3.17 KCAL/MOL
REMARK 924 INTRA-LIGAND FREE ENERGY PREDICTED BY IDOCK:   -0.43 KCAL/MOL
REMARK 927      BINDING AFFINITY PREDICTED BY RF-SCORE:    0.00 PKD
ROOT
HETATM    1  C   UNL     1     -12.259   6.824  71.840  1.00  0.00    -0.377 C  
HETATM    2  C   UNL     1     -11.545   5.637  72.471  1.00  0.00    -0.303 C  
ENDROOT
BRANCH   2   3
HETATM    3  C   UNL     1     -10.182   5.386  71.805  1.00  0.00    -0.206 C  
BRANCH   3   4
HETATM    4  N   UNL     1      -9.152   6.385  72.173  1.00  0.00    -0.141 NA 
HETATM    5  C   UNL     1      -8.527   6.097  73.486  1.00  0.00    -0.118 C  
HETATM    6  C   UNL     1      -7.683   4.817  73.508  1.00  0.00    -0.091 C  
HETATM    7  C   UNL     1      -6.595   4.859  72.443  1.00  0.00    -0.047 C  
HETATM    8  C   UNL     1      -7.166   5.228  71.081  1.00  0.00    -0.073 C  
HETATM    9  C   UNL     1      -8.052   6.482  71.156  1.00  0.00    -0.116 C  
BRANCH   9  10
HETATM   10  C   UNL     1      -8.571   6.872  69.757  1.00  0.00    -0.141 C  
HETATM   11  N   UNL     1      -8.311   8.197  69.432  1.00  0.00    -0.121 N  
HETATM   12  O   UNL     1      -9.132   6.064  69.019  1.00  0.00    -0.123 OA 
HETATM   13  H   UNL     1      -7.881   8.800  70.133  1.00  0.00     0.000 HD 
BRANCH  11  14
HETATM   14  C   UNL     1      -8.622   8.740  68.162  1.00  0.00    -0.134 A  
HETATM   15  C   UNL     1      -9.797   9.509  68.003  1.00  0.00    -0.181 A  
HETATM   16  C   UNL     1     -10.859   9.655  69.060  1.00  0.00    -0.206 C  
HETATM   17  C   UNL     1     -10.078  10.075  66.747  1.00  0.00    -0.286 A  
HETATM   18  C   UNL     1      -9.210   9.910  65.672  1.00  0.00    -0.245 A  
HETATM   19  C   UNL     1      -8.046   9.169  65.833  1.00  0.00    -0.111 A  
HETATM   20  C   UNL     1      -7.731   8.584  67.074  1.00  0.00    -0.092 A  
HETATM   21  C   UNL     1      -6.424   7.842  67.180  1.00  0.00    -0.056 C  
ENDBRANCH  11  14
ENDBRANCH   9  10
ENDBRANCH   3   4
ENDBRANCH   2   3
TORSDOF 4
ENDMDL
MODEL      233
REMARK 921   NORMALIZED FREE ENERGY PREDICTED BY IDOCK:   -2.48 KCAL/MOL
REMARK 922        TOTAL FREE ENERGY PREDICTED BY IDOCK:   -3.59 KCAL/MOL
REMARK 923 INTER-LIGAND FREE ENERGY PREDICTED BY IDOCK:   -3.21 KCAL/MOL
REMARK 924 INTRA-LIGAND FREE ENERGY PREDICTED BY IDOCK:   -0.38 KCAL/MOL
REMARK 927      BINDING AFFINITY PREDICTED BY RF-SCORE:    0.00 PKD
ROOT
HETATM    1  C   UNL     1     -11.708   5.774  72.367  1.00  0.00    -0.281 C  
HETATM    2  C   UNL     1     -10.779   4.987  73.280  1.00  0.00    -0.315 C  
ENDROOT
BRANCH   2   3
HETATM    3  C   UNL     1      -9.350   4.937  72.714  1.00  0.00    -0.132 C  
BRANCH   3   4
HETATM    4  N   UNL     1      -8.423   5.892  73.364  1.00  0.00    -0.118 NA 
HETATM    5  C   UNL     1      -7.642   5.268  74.458  1.00  0.00    -0.089 C  
HETATM    6  C   UNL     1      -6.645   4.203  73.985  1.00  0.00    -0.056 C  
HETATM    7  C   UNL     1      -5.680   4.775  72.954  1.00  0.00    -0.009 C  
HETATM    8  C   UNL     1      -6.423   5.499  71.840  1.00  0.00    -0.051 C  
HETATM    9  C   UNL     1      -7.449   6.500  72.398  1.00  0.00    -0.094 C  
BRANCH   9  10
HETATM   10  C   UNL     1      -8.147   7.264  71.254  1.00  0.00    -0.102 C  
HETATM   11  N   UNL     1      -8.303   8.618  71.523  1.00  0.00    -0.161 N  
HETATM   12  O   UNL     1      -8.497   6.709  70.215  1.00  0.00    -0.132 OA 
HETATM   13  H   UNL     1      -8.021   8.974  72.436  1.00  0.00     0.000 HD 
BRANCH  11  14
HETATM   14  C   UNL     1      -8.839   9.521  70.573  1.00  0.00    -0.201 A  
HETATM   15  C   UNL     1     -10.239   9.684  70.482  1.00  0.00    -0.351 A  
HETATM   16  C   UNL     1     -11.238   8.826  71.211  1.00  0.00    -0.352 C  
HETATM   17  C   UNL     1     -10.760  10.612  69.561  1.00  0.00    -0.290 A  
HETATM   18  C   UNL     1      -9.921  11.382  68.762  1.00  0.00    -0.188 A  
HETATM   19  C   UNL     1      -8.544  11.235  68.864  1.00  0.00    -0.056 A  
HETATM   20  C   UNL     1      -7.984  10.315  69.772  1.00  0.00    -0.139 A  
HETATM   21  C   UNL     1      -6.481  10.255  69.861  1.00  0.00    -0.096 C  
ENDBRANCH  11  14
ENDBRANCH   9  10
ENDBRANCH   3   4
ENDBRANCH   2   3
TORSDOF 4
ENDMDL
MODEL      234
REMARK 921   NORMALIZED FREE ENERGY PREDICTED BY IDOCK:   -2.43 KCAL/MOL
REMARK 922        TOTAL FREE ENERGY PREDICTED BY IDOCK:   -3.52 KCAL/MOL
REMARK 923 INTER-LIGAND FREE ENERGY PREDICTED BY IDOCK:   -2.92 KCAL/MOL
REMARK 924 INTRA-LIGAND FREE ENERGY PREDICTED BY IDOCK:   -0.60 KCAL/MOL
REMARK 927      BINDING AFFINITY PREDICTED BY RF-SCORE:    0.00 PKD
ROOT
HETATM    1  C   UNL     1      -8.270   2.556  63.972  1.00  0.00    -0.082 C  
HETATM    2  C   UNL     1      -8.216   4.063  63.767  1.00  0.00    -0.092 C  
ENDROOT
BRANCH   2   3
HETATM    3  C   UNL     1      -8.846   4.812  64.953  1.00  0.00    -0.153 C  
BRANCH   3   4
HETATM    4  N   UNL     1      -7.859   5.535  65.787  1.00  0.00    -0.102 NA 
HETATM    5  C   UNL     1      -7.053   6.500  65.003  1.00  0.00    -0.057 C  
HETATM    6  C   UNL     1      -7.859   7.682  64.451  1.00  0.00    -0.137 C  
HETATM    7  C   UNL     1      -8.572   8.431  65.570  1.00  0.00    -0.201 C  
HETATM    8  C   UNL     1      -9.357   7.478  66.461  1.00  0.00    -0.231 C  
HETATM    9  C   UNL     1      -8.498   6.287  66.918  1.00  0.00    -0.109 C  
BRANCH   9  10
HETATM   10  C   UNL     1      -9.295   5.369  67.867  1.00  0.00    -0.113 C  
HETATM   11  N   UNL     1      -8.495   4.741  68.812  1.00  0.00    -0.082 N  
HETATM   12  O   UNL     1     -10.515   5.243  67.784  1.00  0.00    -0.168 OA 
HETATM   13  H   UNL     1      -7.485   4.874  68.768  1.00  0.00     0.000 HD 
BRANCH  11  14
HETATM   14  C   UNL     1      -9.032   3.923  69.836  1.00  0.00    -0.098 A  
HETATM   15  C   UNL     1      -9.081   2.523  69.654  1.00  0.00    -0.184 A  
HETATM   16  C   UNL     1      -8.760   1.829  68.357  1.00  0.00    -0.108 C  
HETATM   17  C   UNL     1      -9.582   1.717  70.692  1.00  0.00    -0.150 A  
HETATM   18  C   UNL     1     -10.005   2.272  71.896  1.00  0.00    -0.219 A  
HETATM   19  C   UNL     1      -9.940   3.647  72.081  1.00  0.00    -0.238 A  
HETATM   20  C   UNL     1      -9.448   4.488  71.066  1.00  0.00    -0.229 A  
HETATM   21  C   UNL     1      -9.359   5.962  71.366  1.00  0.00    -0.165 C  
ENDBRANCH  11  14
ENDBRANCH   9  10
ENDBRANCH   3   4
ENDBRANCH   2   3
TORSDOF 4
ENDMDL
MODEL      235
REMARK 921   NORMALIZED FREE ENERGY PREDICTED BY IDOCK:   -2.40 KCAL/MOL
REMARK 922        TOTAL FREE ENERGY PREDICTED BY IDOCK:   -3.49 KCAL/MOL
REMARK 923 INTER-LIGAND FREE ENERGY PREDICTED BY IDOCK:   -2.77 KCAL/MOL
REMARK 924 INTRA-LIGAND FREE ENERGY PREDICTED BY IDOCK:   -0.73 KCAL/MOL
REMARK 927      BINDING AFFINITY PREDICTED BY RF-SCORE:    0.00 PKD
ROOT
HETATM    1  C   UNL     1     -12.281   6.830  71.949  1.00  0.00    -0.377 C  
HETATM    2  C   UNL     1     -11.496   5.764  72.700  1.00  0.00    -0.337 C  
ENDROOT
BRANCH   2   3
HETATM    3  C   UNL     1     -10.070   5.623  72.142  1.00  0.00    -0.186 C  
BRANCH   3   4
HETATM    4  N   UNL     1      -9.191   6.768  72.472  1.00  0.00    -0.137 NA 
HETATM    5  C   UNL     1      -8.625   6.674  73.838  1.00  0.00    -0.137 C  
HETATM    6  C   UNL     1      -7.641   5.515  74.028  1.00  0.00    -0.093 C  
HETATM    7  C   UNL     1      -6.496   5.597  73.026  1.00  0.00    -0.063 C  
HETATM    8  C   UNL     1      -7.014   5.773  71.605  1.00  0.00    -0.072 C  
HETATM    9  C   UNL     1      -8.045   6.911  71.513  1.00  0.00    -0.109 C  
BRANCH   9  10
HETATM   10  C   UNL     1      -8.511   7.112  70.056  1.00  0.00    -0.140 C  
HETATM   11  N   UNL     1      -7.748   6.399  69.140  1.00  0.00    -0.099 N  
HETATM   12  O   UNL     1      -9.476   7.817  69.770  1.00  0.00    -0.160 OA 
HETATM   13  H   UNL     1      -6.937   5.879  69.475  1.00  0.00     0.000 HD 
BRANCH  11  14
HETATM   14  C   UNL     1      -8.056   6.370  67.759  1.00  0.00    -0.115 A  
HETATM   15  C   UNL     1      -7.505   7.348  66.902  1.00  0.00    -0.097 A  
HETATM   16  C   UNL     1      -6.736   8.552  67.379  1.00  0.00    -0.063 C  
HETATM   17  C   UNL     1      -7.788   7.288  65.525  1.00  0.00    -0.115 A  
HETATM   18  C   UNL     1      -8.578   6.272  64.996  1.00  0.00     0.010 A  
HETATM   19  C   UNL     1      -9.105   5.300  65.836  1.00  0.00    -0.159 A  
HETATM   20  C   UNL     1      -8.848   5.327  67.219  1.00  0.00    -0.105 A  
HETATM   21  C   UNL     1      -9.411   4.206  68.053  1.00  0.00    -0.215 C  
ENDBRANCH  11  14
ENDBRANCH   9  10
ENDBRANCH   3   4
ENDBRANCH   2   3
TORSDOF 4
ENDMDL
MODEL      236
REMARK 921   NORMALIZED FREE ENERGY PREDICTED BY IDOCK:   -2.38 KCAL/MOL
REMARK 922        TOTAL FREE ENERGY PREDICTED BY IDOCK:   -3.47 KCAL/MOL
REMARK 923 INTER-LIGAND FREE ENERGY PREDICTED BY IDOCK:   -2.63 KCAL/MOL
REMARK 924 INTRA-LIGAND FREE ENERGY PREDICTED BY IDOCK:   -0.84 KCAL/MOL
REMARK 927      BINDING AFFINITY PREDICTED BY RF-SCORE:    0.00 PKD
ROOT
HETATM    1  C   UNL     1     -10.407   3.511  72.782  1.00  0.00    -0.239 C  
HETATM    2  C   UNL     1      -9.865   4.920  72.586  1.00  0.00    -0.200 C  
ENDROOT
BRANCH   2   3
HETATM    3  C   UNL     1      -8.951   5.000  71.352  1.00  0.00    -0.135 C  
BRANCH   3   4
HETATM    4  N   UNL     1      -7.561   5.399  71.672  1.00  0.00    -0.101 NA 
HETATM    5  C   UNL     1      -6.788   4.304  72.304  1.00  0.00    -0.046 C  
HETATM    6  C   UNL     1      -6.521   3.113  71.377  1.00  0.00    -0.019 C  
HETATM    7  C   UNL     1      -5.801   3.555  70.109  1.00  0.00    -0.018 C  
HETATM    8  C   UNL     1      -6.508   4.733  69.453  1.00  0.00    -0.036 C  
HETATM    9  C   UNL     1      -6.798   5.856  70.462  1.00  0.00    -0.054 C  
BRANCH   9  10
HETATM   10  C   UNL     1      -7.460   7.063  69.765  1.00  0.00    -0.098 C  
HETATM   11  N   UNL     1      -7.842   6.791  68.458  1.00  0.00    -0.116 N  
HETATM   12  O   UNL     1      -7.636   8.134  70.341  1.00  0.00    -0.072 OA 
HETATM   13  H   UNL     1      -7.607   5.883  68.056  1.00  0.00     0.000 HD 
BRANCH  11  14
HETATM   14  C   UNL     1      -8.546   7.729  67.664  1.00  0.00    -0.123 A  
HETATM   15  C   UNL     1      -7.836   8.532  66.744  1.00  0.00    -0.091 A  
HETATM   16  C   UNL     1      -6.334   8.596  66.662  1.00  0.00    -0.059 C  
HETATM   17  C   UNL     1      -8.549   9.435  65.934  1.00  0.00    -0.155 A  
HETATM   18  C   UNL     1      -9.936   9.529  66.009  1.00  0.00    -0.348 A  
HETATM   19  C   UNL     1     -10.635   8.726  66.901  1.00  0.00    -0.263 A  
HETATM   20  C   UNL     1      -9.957   7.813  67.730  1.00  0.00    -0.220 A  
HETATM   21  C   UNL     1     -10.792   6.940  68.630  1.00  0.00    -0.236 C  
ENDBRANCH  11  14
ENDBRANCH   9  10
ENDBRANCH   3   4
ENDBRANCH   2   3
TORSDOF 4
ENDMDL
MODEL      237
REMARK 921   NORMALIZED FREE ENERGY PREDICTED BY IDOCK:   -2.37 KCAL/MOL
REMARK 922        TOTAL FREE ENERGY PREDICTED BY IDOCK:   -3.46 KCAL/MOL
REMARK 923 INTER-LIGAND FREE ENERGY PREDICTED BY IDOCK:   -2.72 KCAL/MOL
REMARK 924 INTRA-LIGAND FREE ENERGY PREDICTED BY IDOCK:   -0.74 KCAL/MOL
REMARK 927      BINDING AFFINITY PREDICTED BY RF-SCORE:    0.00 PKD
ROOT
HETATM    1  C   UNL     1      -8.933   2.937  65.593  1.00  0.00    -0.143 C  
HETATM    2  C   UNL     1      -9.192   4.072  66.574  1.00  0.00    -0.171 C  
ENDROOT
BRANCH   2   3
HETATM    3  C   UNL     1      -9.167   5.438  65.868  1.00  0.00    -0.156 C  
BRANCH   3   4
HETATM    4  N   UNL     1      -7.834   6.084  65.879  1.00  0.00    -0.103 NA 
HETATM    5  C   UNL     1      -7.161   6.019  64.561  1.00  0.00    -0.063 C  
HETATM    6  C   UNL     1      -7.851   6.842  63.466  1.00  0.00    -0.110 C  
HETATM    7  C   UNL     1      -7.985   8.302  63.879  1.00  0.00    -0.146 C  
HETATM    8  C   UNL     1      -8.601   8.432  65.265  1.00  0.00    -0.177 C  
HETATM    9  C   UNL     1      -7.895   7.527  66.289  1.00  0.00    -0.102 C  
BRANCH   9  10
HETATM   10  C   UNL     1      -8.496   7.719  67.697  1.00  0.00    -0.121 C  
HETATM   11  N   UNL     1      -7.786   7.050  68.685  1.00  0.00    -0.116 N  
HETATM   12  O   UNL     1      -9.489   8.417  67.894  1.00  0.00    -0.143 OA 
HETATM   13  H   UNL     1      -7.002   6.458  68.412  1.00  0.00     0.000 HD 
BRANCH  11  14
HETATM   14  C   UNL     1      -8.112   7.162  70.058  1.00  0.00    -0.127 A  
HETATM   15  C   UNL     1      -7.587   8.235  70.812  1.00  0.00    -0.073 A  
HETATM   16  C   UNL     1      -6.545   9.194  70.303  1.00  0.00    -0.052 C  
HETATM   17  C   UNL     1      -7.947   8.358  72.167  1.00  0.00    -0.181 A  
HETATM   18  C   UNL     1      -8.825   7.459  72.764  1.00  0.00    -0.168 A  
HETATM   19  C   UNL     1      -9.355   6.414  72.018  1.00  0.00    -0.151 A  
HETATM   20  C   UNL     1      -9.017   6.255  70.660  1.00  0.00    -0.144 A  
HETATM   21  C   UNL     1      -9.677   5.129  69.908  1.00  0.00    -0.269 C  
ENDBRANCH  11  14
ENDBRANCH   9  10
ENDBRANCH   3   4
ENDBRANCH   2   3
TORSDOF 4
ENDMDL
MODEL      238
REMARK 921   NORMALIZED FREE ENERGY PREDICTED BY IDOCK:   -2.35 KCAL/MOL
REMARK 922        TOTAL FREE ENERGY PREDICTED BY IDOCK:   -3.43 KCAL/MOL
REMARK 923 INTER-LIGAND FREE ENERGY PREDICTED BY IDOCK:   -2.59 KCAL/MOL
REMARK 924 INTRA-LIGAND FREE ENERGY PREDICTED BY IDOCK:   -0.84 KCAL/MOL
REMARK 927      BINDING AFFINITY PREDICTED BY RF-SCORE:    0.00 PKD
ROOT
HETATM    1  C   UNL     1     -10.973   6.574  69.315  1.00  0.00    -0.389 C  
HETATM    2  C   UNL     1     -10.509   5.395  70.159  1.00  0.00    -0.361 C  
ENDROOT
BRANCH   2   3
HETATM    3  C   UNL     1      -9.290   5.768  71.018  1.00  0.00    -0.160 C  
BRANCH   3   4
HETATM    4  N   UNL     1      -9.428   7.071  71.707  1.00  0.00    -0.152 NA 
HETATM    5  C   UNL     1     -10.229   6.973  72.949  1.00  0.00    -0.215 C  
HETATM    6  C   UNL     1      -9.564   6.150  74.058  1.00  0.00    -0.184 C  
HETATM    7  C   UNL     1      -8.187   6.705  74.403  1.00  0.00    -0.146 C  
HETATM    8  C   UNL     1      -7.340   6.902  73.153  1.00  0.00    -0.074 C  
HETATM    9  C   UNL     1      -8.103   7.678  72.066  1.00  0.00    -0.101 C  
BRANCH   9  10
HETATM   10  C   UNL     1      -7.207   7.919  70.833  1.00  0.00    -0.053 C  
HETATM   11  N   UNL     1      -7.808   8.725  69.876  1.00  0.00    -0.089 N  
HETATM   12  O   UNL     1      -6.074   7.449  70.747  1.00  0.00    -0.034 OA 
HETATM   13  H   UNL     1      -8.771   9.026  70.021  1.00  0.00     0.000 HD 
BRANCH  11  14
HETATM   14  C   UNL     1      -7.129   9.145  68.706  1.00  0.00    -0.073 A  
HETATM   15  C   UNL     1      -7.304   8.423  67.504  1.00  0.00    -0.093 A  
HETATM   16  C   UNL     1      -8.035   7.111  67.406  1.00  0.00    -0.112 C  
HETATM   17  C   UNL     1      -6.655   8.870  66.339  1.00  0.00    -0.067 A  
HETATM   18  C   UNL     1      -5.867  10.018  66.347  1.00  0.00    -0.060 A  
HETATM   19  C   UNL     1      -5.710  10.737  67.525  1.00  0.00    -0.044 A  
HETATM   20  C   UNL     1      -6.341  10.321  68.713  1.00  0.00    -0.047 A  
HETATM   21  C   UNL     1      -6.163  11.186  69.933  1.00  0.00    -0.133 C  
ENDBRANCH  11  14
ENDBRANCH   9  10
ENDBRANCH   3   4
ENDBRANCH   2   3
TORSDOF 4
ENDMDL
MODEL      239
REMARK 921   NORMALIZED FREE ENERGY PREDICTED BY IDOCK:   -2.24 KCAL/MOL
REMARK 922        TOTAL FREE ENERGY PREDICTED BY IDOCK:   -3.29 KCAL/MOL
REMARK 923 INTER-LIGAND FREE ENERGY PREDICTED BY IDOCK:   -2.45 KCAL/MOL
REMARK 924 INTRA-LIGAND FREE ENERGY PREDICTED BY IDOCK:   -0.84 KCAL/MOL
REMARK 927      BINDING AFFINITY PREDICTED BY RF-SCORE:    0.00 PKD
ROOT
HETATM    1  C   UNL     1     -10.033   4.829  71.046  1.00  0.00    -0.279 C  
HETATM    2  C   UNL     1      -9.491   6.238  70.849  1.00  0.00    -0.185 C  
ENDROOT
BRANCH   2   3
HETATM    3  C   UNL     1      -8.576   6.318  69.615  1.00  0.00    -0.133 C  
BRANCH   3   4
HETATM    4  N   UNL     1      -7.187   6.717  69.935  1.00  0.00    -0.078 NA 
HETATM    5  C   UNL     1      -6.414   5.622  70.567  1.00  0.00    -0.035 C  
HETATM    6  C   UNL     1      -6.147   4.430  69.640  1.00  0.00    -0.023 C  
HETATM    7  C   UNL     1      -5.427   4.873  68.372  1.00  0.00    -0.015 C  
HETATM    8  C   UNL     1      -6.134   6.051  67.716  1.00  0.00    -0.021 C  
HETATM    9  C   UNL     1      -6.424   7.174  68.726  1.00  0.00    -0.036 C  
BRANCH   9  10
HETATM   10  C   UNL     1      -7.085   8.381  68.029  1.00  0.00    -0.086 C  
HETATM   11  N   UNL     1      -7.467   8.109  66.722  1.00  0.00    -0.089 N  
HETATM   12  O   UNL     1      -7.262   9.452  68.604  1.00  0.00    -0.073 OA 
HETATM   13  H   UNL     1      -7.233   7.201  66.319  1.00  0.00     0.000 HD 
BRANCH  11  14
HETATM   14  C   UNL     1      -8.171   9.047  65.928  1.00  0.00    -0.117 A  
HETATM   15  C   UNL     1      -7.462   9.850  65.008  1.00  0.00    -0.134 A  
HETATM   16  C   UNL     1      -5.960   9.914  64.925  1.00  0.00    -0.097 C  
HETATM   17  C   UNL     1      -8.175  10.753  64.198  1.00  0.00     0.116 A  
HETATM   18  C   UNL     1      -9.561  10.847  64.272  1.00  0.00    -0.318 A  
HETATM   19  C   UNL     1     -10.260  10.044  65.164  1.00  0.00    -0.146 A  
HETATM   20  C   UNL     1      -9.583   9.131  65.994  1.00  0.00    -0.342 A  
HETATM   21  C   UNL     1     -10.418   8.258  66.894  1.00  0.00    -0.365 C  
ENDBRANCH  11  14
ENDBRANCH   9  10
ENDBRANCH   3   4
ENDBRANCH   2   3
TORSDOF 4
ENDMDL
MODEL      240
REMARK 921   NORMALIZED FREE ENERGY PREDICTED BY IDOCK:   -2.23 KCAL/MOL
REMARK 922        TOTAL FREE ENERGY PREDICTED BY IDOCK:   -3.27 KCAL/MOL
REMARK 923 INTER-LIGAND FREE ENERGY PREDICTED BY IDOCK:   -2.77 KCAL/MOL
REMARK 924 INTRA-LIGAND FREE ENERGY PREDICTED BY IDOCK:   -0.51 KCAL/MOL
REMARK 927      BINDING AFFINITY PREDICTED BY RF-SCORE:    0.00 PKD
ROOT
HETATM    1  C   UNL     1      -7.557   2.490  65.700  1.00  0.00    -0.076 C  
HETATM    2  C   UNL     1      -7.929   2.126  67.130  1.00  0.00    -0.067 C  
ENDROOT
BRANCH   2   3
HETATM    3  C   UNL     1      -7.527   3.238  68.113  1.00  0.00    -0.053 C  
BRANCH   3   4
HETATM    4  N   UNL     1      -8.335   3.251  69.354  1.00  0.00    -0.058 NA 
HETATM    5  C   UNL     1      -8.169   2.013  70.151  1.00  0.00    -0.041 C  
HETATM    6  C   UNL     1      -6.767   1.834  70.743  1.00  0.00    -0.028 C  
HETATM    7  C   UNL     1      -6.379   3.029  71.604  1.00  0.00    -0.015 C  
HETATM    8  C   UNL     1      -6.601   4.341  70.865  1.00  0.00    -0.034 C  
HETATM    9  C   UNL     1      -8.006   4.414  70.245  1.00  0.00    -0.062 C  
BRANCH   9  10
HETATM   10  C   UNL     1      -8.231   5.774  69.553  1.00  0.00    -0.108 C  
HETATM   11  N   UNL     1      -9.561   6.173  69.560  1.00  0.00    -0.142 N  
HETATM   12  O   UNL     1      -7.304   6.424  69.073  1.00  0.00    -0.084 OA 
HETATM   13  H   UNL     1     -10.262   5.539  69.942  1.00  0.00     0.000 HD 
BRANCH  11  14
HETATM   14  C   UNL     1      -9.977   7.429  69.057  1.00  0.00    -0.176 A  
HETATM   15  C   UNL     1     -10.178   8.504  69.951  1.00  0.00    -0.204 A  
HETATM   16  C   UNL     1     -10.153   8.371  71.450  1.00  0.00    -0.278 C  
HETATM   17  C   UNL     1     -10.555   9.759  69.437  1.00  0.00    -0.248 A  
HETATM   18  C   UNL     1     -10.709   9.960  68.069  1.00  0.00    -0.296 A  
HETATM   19  C   UNL     1     -10.494   8.907  67.188  1.00  0.00    -0.344 A  
HETATM   20  C   UNL     1     -10.118   7.636  67.664  1.00  0.00    -0.249 A  
HETATM   21  C   UNL     1      -9.851   6.563  66.641  1.00  0.00    -0.203 C  
ENDBRANCH  11  14
ENDBRANCH   9  10
ENDBRANCH   3   4
ENDBRANCH   2   3
TORSDOF 4
ENDMDL
MODEL      241
REMARK 921   NORMALIZED FREE ENERGY PREDICTED BY IDOCK:   -2.22 KCAL/MOL
REMARK 922        TOTAL FREE ENERGY PREDICTED BY IDOCK:   -3.26 KCAL/MOL
REMARK 923 INTER-LIGAND FREE ENERGY PREDICTED BY IDOCK:   -3.39 KCAL/MOL
REMARK 924 INTRA-LIGAND FREE ENERGY PREDICTED BY IDOCK:    0.13 KCAL/MOL
REMARK 927      BINDING AFFINITY PREDICTED BY RF-SCORE:    0.00 PKD
ROOT
HETATM    1  C   UNL     1     -11.043   7.985  72.896  1.00  0.00    -0.399 C  
HETATM    2  C   UNL     1     -11.339   6.494  72.825  1.00  0.00    -0.221 C  
ENDROOT
BRANCH   2   3
HETATM    3  C   UNL     1     -10.851   5.890  71.498  1.00  0.00    -0.266 C  
BRANCH   3   4
HETATM    4  N   UNL     1      -9.395   5.624  71.469  1.00  0.00    -0.146 NA 
HETATM    5  C   UNL     1      -9.063   4.240  71.883  1.00  0.00    -0.122 C  
HETATM    6  C   UNL     1      -9.553   3.163  70.908  1.00  0.00    -0.225 C  
HETATM    7  C   UNL     1      -9.007   3.402  69.506  1.00  0.00    -0.177 C  
HETATM    8  C   UNL     1      -9.250   4.835  69.054  1.00  0.00    -0.174 C  
HETATM    9  C   UNL     1      -8.792   5.852  70.114  1.00  0.00    -0.142 C  
BRANCH   9  10
HETATM   10  C   UNL     1      -8.991   7.296  69.610  1.00  0.00    -0.141 C  
HETATM   11  N   UNL     1      -8.118   7.638  68.586  1.00  0.00    -0.126 N  
HETATM   12  O   UNL     1      -9.858   8.036  70.073  1.00  0.00    -0.183 OA 
HETATM   13  H   UNL     1      -7.403   6.968  68.305  1.00  0.00     0.000 HD 
BRANCH  11  14
HETATM   14  C   UNL     1      -8.187   8.885  67.919  1.00  0.00    -0.110 A  
HETATM   15  C   UNL     1      -9.153   9.080  66.907  1.00  0.00    -0.161 A  
HETATM   16  C   UNL     1     -10.022   7.986  66.348  1.00  0.00    -0.215 C  
HETATM   17  C   UNL     1      -9.237  10.335  66.275  1.00  0.00    -0.191 A  
HETATM   18  C   UNL     1      -8.405  11.386  66.647  1.00  0.00    -0.172 A  
HETATM   19  C   UNL     1      -7.467  11.199  67.654  1.00  0.00    -0.100 A  
HETATM   20  C   UNL     1      -7.349   9.958  68.309  1.00  0.00    -0.079 A  
HETATM   21  C   UNL     1      -6.345   9.854  69.426  1.00  0.00    -0.045 C  
ENDBRANCH  11  14
ENDBRANCH   9  10
ENDBRANCH   3   4
ENDBRANCH   2   3
TORSDOF 4
ENDMDL
MODEL      242
REMARK 921   NORMALIZED FREE ENERGY PREDICTED BY IDOCK:   -2.17 KCAL/MOL
REMARK 922        TOTAL FREE ENERGY PREDICTED BY IDOCK:   -3.21 KCAL/MOL
REMARK 923 INTER-LIGAND FREE ENERGY PREDICTED BY IDOCK:   -3.18 KCAL/MOL
REMARK 924 INTRA-LIGAND FREE ENERGY PREDICTED BY IDOCK:   -0.02 KCAL/MOL
REMARK 927      BINDING AFFINITY PREDICTED BY RF-SCORE:    0.00 PKD
ROOT
HETATM    1  C   UNL     1      -8.004  19.735  70.009  1.00  0.00     0.759 C  
HETATM    2  C   UNL     1      -8.088  19.419  68.523  1.00  0.00    -0.396 C  
ENDROOT
BRANCH   2   3
HETATM    3  C   UNL     1      -8.995  18.206  68.259  1.00  0.00    -0.296 C  
BRANCH   3   4
HETATM    4  N   UNL     1      -8.444  17.263  67.259  1.00  0.00    -0.195 NA 
HETATM    5  C   UNL     1      -7.081  17.641  66.815  1.00  0.00    -0.204 C  
HETATM    6  C   UNL     1      -6.014  17.528  67.909  1.00  0.00    -0.151 C  
HETATM    7  C   UNL     1      -5.970  16.120  68.489  1.00  0.00    -0.108 C  
HETATM    8  C   UNL     1      -7.358  15.644  68.895  1.00  0.00    -0.153 C  
HETATM    9  C   UNL     1      -8.383  15.852  67.767  1.00  0.00    -0.150 C  
BRANCH   9  10
HETATM   10  C   UNL     1      -9.767  15.308  68.176  1.00  0.00    -0.212 C  
HETATM   11  N   UNL     1      -9.716  14.480  69.290  1.00  0.00    -0.419 N  
HETATM   12  O   UNL     1     -10.794  15.613  67.573  1.00  0.00    -0.307 OA 
HETATM   13  H   UNL     1      -8.807  14.251  69.691  1.00  0.00     0.000 HD 
BRANCH  11  14
HETATM   14  C   UNL     1     -10.882  13.944  69.888  1.00  0.00     0.265 A  
HETATM   15  C   UNL     1     -11.686  14.769  70.707  1.00  0.00    -0.355 A  
HETATM   16  C   UNL     1     -11.300  16.156  71.145  1.00  0.00    -0.368 C  
HETATM   17  C   UNL     1     -12.862  14.237  71.266  1.00  0.00    -0.422 A  
HETATM   18  C   UNL     1     -13.255  12.927  71.007  1.00  0.00     0.045 A  
HETATM   19  C   UNL     1     -12.474  12.122  70.188  1.00  0.00    -0.108 A  
HETATM   20  C   UNL     1     -11.288  12.616  69.611  1.00  0.00    -0.174 A  
HETATM   21  C   UNL     1     -10.527  11.698  68.692  1.00  0.00    -0.234 C  
ENDBRANCH  11  14
ENDBRANCH   9  10
ENDBRANCH   3   4
ENDBRANCH   2   3
TORSDOF 4
ENDMDL
MODEL      243
REMARK 921   NORMALIZED FREE ENERGY PREDICTED BY IDOCK:   -2.14 KCAL/MOL
REMARK 922        TOTAL FREE ENERGY PREDICTED BY IDOCK:   -3.17 KCAL/MOL
REMARK 923 INTER-LIGAND FREE ENERGY PREDICTED BY IDOCK:   -4.40 KCAL/MOL
REMARK 924 INTRA-LIGAND FREE ENERGY PREDICTED BY IDOCK:    1.23 KCAL/MOL
REMARK 927      BINDING AFFINITY PREDICTED BY RF-SCORE:    0.00 PKD
ROOT
HETATM    1  C   UNL     1      -6.299  11.667  67.119  1.00  0.00    -0.139 C  
HETATM    2  C   UNL     1      -7.465  10.855  67.662  1.00  0.00    -0.095 C  
ENDROOT
BRANCH   2   3
HETATM    3  C   UNL     1      -8.709  10.996  66.769  1.00  0.00    -0.152 C  
BRANCH   3   4
HETATM    4  N   UNL     1      -9.293   9.698  66.361  1.00  0.00    -0.164 NA 
HETATM    5  C   UNL     1      -8.781   9.233  65.050  1.00  0.00    -0.190 C  
HETATM    6  C   UNL     1      -7.292   8.870  65.054  1.00  0.00    -0.095 C  
HETATM    7  C   UNL     1      -6.989   7.810  66.105  1.00  0.00    -0.062 C  
HETATM    8  C   UNL     1      -7.559   8.195  67.462  1.00  0.00    -0.101 C  
HETATM    9  C   UNL     1      -9.037   8.609  67.362  1.00  0.00    -0.133 C  
BRANCH   9  10
HETATM   10  C   UNL     1      -9.611   8.937  68.756  1.00  0.00    -0.157 C  
HETATM   11  N   UNL     1     -10.994   9.062  68.757  1.00  0.00    -0.438 N  
HETATM   12  O   UNL     1      -8.894   9.047  69.748  1.00  0.00    -0.138 OA 
HETATM   13  H   UNL     1     -11.494   8.999  67.870  1.00  0.00     0.000 HD 
BRANCH  11  14
HETATM   14  C   UNL     1     -11.733   9.274  69.945  1.00  0.00     0.199 A  
HETATM   15  C   UNL     1     -11.951   8.195  70.831  1.00  0.00    -0.195 A  
HETATM   16  C   UNL     1     -11.601   6.764  70.520  1.00  0.00    -0.426 C  
HETATM   17  C   UNL     1     -12.656   8.425  72.027  1.00  0.00    -0.400 A  
HETATM   18  C   UNL     1     -13.116   9.695  72.359  1.00  0.00    -0.389 A  
HETATM   19  C   UNL     1     -12.886  10.759  71.497  1.00  0.00    -0.567 A  
HETATM   20  C   UNL     1     -12.188  10.570  70.289  1.00  0.00    -0.393 A  
HETATM   21  C   UNL     1     -11.933  11.785  69.437  1.00  0.00    -0.361 C  
ENDBRANCH  11  14
ENDBRANCH   9  10
ENDBRANCH   3   4
ENDBRANCH   2   3
TORSDOF 4
ENDMDL
MODEL      244
REMARK 921   NORMALIZED FREE ENERGY PREDICTED BY IDOCK:   -2.12 KCAL/MOL
REMARK 922        TOTAL FREE ENERGY PREDICTED BY IDOCK:   -3.14 KCAL/MOL
REMARK 923 INTER-LIGAND FREE ENERGY PREDICTED BY IDOCK:   -2.64 KCAL/MOL
REMARK 924 INTRA-LIGAND FREE ENERGY PREDICTED BY IDOCK:   -0.50 KCAL/MOL
REMARK 927      BINDING AFFINITY PREDICTED BY RF-SCORE:    0.00 PKD
ROOT
HETATM    1  C   UNL     1     -11.388   5.887  72.319  1.00  0.00    -0.351 C  
HETATM    2  C   UNL     1     -10.332   5.135  73.116  1.00  0.00    -0.233 C  
ENDROOT
BRANCH   2   3
HETATM    3  C   UNL     1      -9.017   5.017  72.328  1.00  0.00    -0.131 C  
BRANCH   3   4
HETATM    4  N   UNL     1      -8.017   6.048  72.690  1.00  0.00    -0.104 NA 
HETATM    5  C   UNL     1      -6.878   5.490  73.456  1.00  0.00    -0.084 C  
HETATM    6  C   UNL     1      -5.996   4.529  72.651  1.00  0.00    -0.016 C  
HETATM    7  C   UNL     1      -5.461   5.199  71.392  1.00  0.00    -0.005 C  
HETATM    8  C   UNL     1      -6.579   5.862  70.599  1.00  0.00    -0.047 C  
HETATM    9  C   UNL     1      -7.457   6.756  71.491  1.00  0.00    -0.087 C  
BRANCH   9  10
HETATM   10  C   UNL     1      -8.545   7.463  70.657  1.00  0.00    -0.141 C  
HETATM   11  N   UNL     1      -8.607   8.830  70.894  1.00  0.00    -0.173 N  
HETATM   12  O   UNL     1      -9.253   6.855  69.856  1.00  0.00    -0.148 OA 
HETATM   13  H   UNL     1      -8.007   9.231  71.614  1.00  0.00     0.000 HD 
BRANCH  11  14
HETATM   14  C   UNL     1      -9.474   9.685  70.172  1.00  0.00    -0.253 A  
HETATM   15  C   UNL     1      -9.129  10.076  68.859  1.00  0.00    -0.159 A  
HETATM   16  C   UNL     1      -7.799   9.791  68.215  1.00  0.00    -0.089 C  
HETATM   17  C   UNL     1     -10.015  10.896  68.136  1.00  0.00    -0.188 A  
HETATM   18  C   UNL     1     -11.228  11.304  68.683  1.00  0.00    -0.310 A  
HETATM   19  C   UNL     1     -11.575  10.904  69.967  1.00  0.00    -0.424 A  
HETATM   20  C   UNL     1     -10.714  10.086  70.723  1.00  0.00    -0.272 A  
HETATM   21  C   UNL     1     -11.188   9.652  72.086  1.00  0.00     0.578 C  
ENDBRANCH  11  14
ENDBRANCH   9  10
ENDBRANCH   3   4
ENDBRANCH   2   3
TORSDOF 4
ENDMDL
MODEL      245
REMARK 921   NORMALIZED FREE ENERGY PREDICTED BY IDOCK:   -2.11 KCAL/MOL
REMARK 922        TOTAL FREE ENERGY PREDICTED BY IDOCK:   -3.14 KCAL/MOL
REMARK 923 INTER-LIGAND FREE ENERGY PREDICTED BY IDOCK:   -3.22 KCAL/MOL
REMARK 924 INTRA-LIGAND FREE ENERGY PREDICTED BY IDOCK:    0.09 KCAL/MOL
REMARK 927      BINDING AFFINITY PREDICTED BY RF-SCORE:    0.00 PKD
ROOT
HETATM    1  C   UNL     1      -8.068   5.458  67.035  1.00  0.00    -0.101 C  
HETATM    2  C   UNL     1      -7.834   6.720  66.218  1.00  0.00    -0.104 C  
ENDROOT
BRANCH   2   3
HETATM    3  C   UNL     1      -8.561   7.927  66.833  1.00  0.00    -0.129 C  
BRANCH   3   4
HETATM    4  N   UNL     1      -7.922   9.225  66.517  1.00  0.00    -0.103 NA 
HETATM    5  C   UNL     1      -8.151   9.642  65.113  1.00  0.00    -0.124 C  
HETATM    6  C   UNL     1      -9.612   9.974  64.791  1.00  0.00    -0.374 C  
HETATM    7  C   UNL     1     -10.146  11.057  65.719  1.00  0.00    -0.305 C  
HETATM    8  C   UNL     1      -9.872  10.722  67.178  1.00  0.00    -0.216 C  
HETATM    9  C   UNL     1      -8.400  10.336  67.406  1.00  0.00    -0.118 C  
BRANCH   9  10
HETATM   10  C   UNL     1      -8.131  10.059  68.899  1.00  0.00    -0.111 C  
HETATM   11  N   UNL     1      -8.492   8.775  69.286  1.00  0.00    -0.120 N  
HETATM   12  O   UNL     1      -7.626  10.900  69.640  1.00  0.00    -0.100 OA 
HETATM   13  H   UNL     1      -8.948   8.167  68.606  1.00  0.00     0.000 HD 
BRANCH  11  14
HETATM   14  C   UNL     1      -8.250   8.281  70.591  1.00  0.00    -0.112 A  
HETATM   15  C   UNL     1      -9.245   8.423  71.584  1.00  0.00    -0.271 A  
HETATM   16  C   UNL     1     -10.503   9.232  71.409  1.00  0.00    -0.408 C  
HETATM   17  C   UNL     1      -9.009   7.896  72.867  1.00  0.00    -0.273 A  
HETATM   18  C   UNL     1      -7.829   7.221  73.162  1.00  0.00    -0.114 A  
HETATM   19  C   UNL     1      -6.859   7.066  72.181  1.00  0.00    -0.057 A  
HETATM   20  C   UNL     1      -7.056   7.581  70.886  1.00  0.00    -0.059 A  
HETATM   21  C   UNL     1      -5.979   7.323  69.864  1.00  0.00    -0.024 C  
ENDBRANCH  11  14
ENDBRANCH   9  10
ENDBRANCH   3   4
ENDBRANCH   2   3
TORSDOF 4
ENDMDL
MODEL      246
REMARK 921   NORMALIZED FREE ENERGY PREDICTED BY IDOCK:   -2.10 KCAL/MOL
REMARK 922        TOTAL FREE ENERGY PREDICTED BY IDOCK:   -3.11 KCAL/MOL
REMARK 923 INTER-LIGAND FREE ENERGY PREDICTED BY IDOCK:   -2.69 KCAL/MOL
REMARK 924 INTRA-LIGAND FREE ENERGY PREDICTED BY IDOCK:   -0.42 KCAL/MOL
REMARK 927      BINDING AFFINITY PREDICTED BY RF-SCORE:    0.00 PKD
ROOT
HETATM    1  C   UNL     1     -13.242   8.077  71.150  1.00  0.00    -0.075 C  
HETATM    2  C   UNL     1     -12.180   7.002  70.970  1.00  0.00    -0.419 C  
ENDROOT
BRANCH   2   3
HETATM    3  C   UNL     1     -11.218   7.354  69.824  1.00  0.00    -0.091 C  
BRANCH   3   4
HETATM    4  N   UNL     1     -10.922   6.212  68.929  1.00  0.00    -0.342 NA 
HETATM    5  C   UNL     1     -10.986   6.584  67.496  1.00  0.00    -0.359 C  
HETATM    6  C   UNL     1      -9.892   7.563  67.055  1.00  0.00    -0.280 C  
HETATM    7  C   UNL     1      -8.506   7.009  67.358  1.00  0.00    -0.122 C  
HETATM    8  C   UNL     1      -8.401   6.537  68.802  1.00  0.00    -0.122 C  
HETATM    9  C   UNL     1      -9.570   5.613  69.184  1.00  0.00    -0.135 C  
BRANCH   9  10
HETATM   10  C   UNL     1      -9.412   5.098  70.630  1.00  0.00    -0.170 C  
HETATM   11  N   UNL     1     -10.053   3.886  70.846  1.00  0.00    -0.051 N  
HETATM   12  O   UNL     1      -8.760   5.710  71.474  1.00  0.00    -0.130 OA 
HETATM   13  H   UNL     1     -10.608   3.482  70.093  1.00  0.00     0.000 HD 
BRANCH  11  14
HETATM   14  C   UNL     1      -9.963   3.192  72.077  1.00  0.00    -0.152 A  
HETATM   15  C   UNL     1      -8.844   2.366  72.329  1.00  0.00    -0.099 A  
HETATM   16  C   UNL     1      -7.801   2.021  71.300  1.00  0.00    -0.040 C  
HETATM   17  C   UNL     1      -8.746   1.710  73.570  1.00  0.00    -0.058 A  
HETATM   18  C   UNL     1      -9.715   1.880  74.554  1.00  0.00    -0.119 A  
HETATM   19  C   UNL     1     -10.806   2.705  74.312  1.00  0.00    -0.171 A  
HETATM   20  C   UNL     1     -10.942   3.377  73.083  1.00  0.00    -0.213 A  
HETATM   21  C   UNL     1     -12.124   4.296  72.921  1.00  0.00     0.459 C  
ENDBRANCH  11  14
ENDBRANCH   9  10
ENDBRANCH   3   4
ENDBRANCH   2   3
TORSDOF 4
ENDMDL
MODEL      247
REMARK 921   NORMALIZED FREE ENERGY PREDICTED BY IDOCK:   -2.09 KCAL/MOL
REMARK 922        TOTAL FREE ENERGY PREDICTED BY IDOCK:   -3.11 KCAL/MOL
REMARK 923 INTER-LIGAND FREE ENERGY PREDICTED BY IDOCK:   -3.25 KCAL/MOL
REMARK 924 INTRA-LIGAND FREE ENERGY PREDICTED BY IDOCK:    0.14 KCAL/MOL
REMARK 927      BINDING AFFINITY PREDICTED BY RF-SCORE:    0.00 PKD
ROOT
HETATM    1  C   UNL     1      -6.394  10.092  69.962  1.00  0.00    -0.088 C  
HETATM    2  C   UNL     1      -7.908  10.173  69.830  1.00  0.00    -0.164 C  
ENDROOT
BRANCH   2   3
HETATM    3  C   UNL     1      -8.556   8.784  69.957  1.00  0.00    -0.136 C  
BRANCH   3   4
HETATM    4  N   UNL     1     -10.036   8.817  69.917  1.00  0.00    -0.182 NA 
HETATM    5  C   UNL     1     -10.572  10.199  69.893  1.00  0.00    -0.285 C  
HETATM    6  C   UNL     1     -10.249  10.971  68.609  1.00  0.00    -0.211 C  
HETATM    7  C   UNL     1     -10.754  10.226  67.379  1.00  0.00    -0.339 C  
HETATM    8  C   UNL     1     -10.298   8.773  67.386  1.00  0.00    -0.349 C  
HETATM    9  C   UNL     1     -10.598   8.089  68.730  1.00  0.00    -0.118 C  
BRANCH   9  10
HETATM   10  C   UNL     1     -10.184   6.604  68.694  1.00  0.00    -0.171 C  
HETATM   11  N   UNL     1      -9.148   6.352  67.805  1.00  0.00    -0.113 N  
HETATM   12  O   UNL     1     -10.719   5.758  69.408  1.00  0.00    -0.288 OA 
HETATM   13  H   UNL     1      -8.802   7.115  67.223  1.00  0.00     0.000 HD 
BRANCH  11  14
HETATM   14  C   UNL     1      -8.553   5.073  67.678  1.00  0.00    -0.104 A  
HETATM   15  C   UNL     1      -8.993   4.200  66.658  1.00  0.00    -0.128 A  
HETATM   16  C   UNL     1     -10.191   4.459  65.784  1.00  0.00    -0.257 C  
HETATM   17  C   UNL     1      -8.371   2.946  66.517  1.00  0.00    -0.095 A  
HETATM   18  C   UNL     1      -7.320   2.566  67.347  1.00  0.00    -0.057 A  
HETATM   19  C   UNL     1      -6.876   3.432  68.338  1.00  0.00    -0.046 A  
HETATM   20  C   UNL     1      -7.474   4.694  68.513  1.00  0.00    -0.065 A  
HETATM   21  C   UNL     1      -6.898   5.595  69.574  1.00  0.00    -0.061 C  
ENDBRANCH  11  14
ENDBRANCH   9  10
ENDBRANCH   3   4
ENDBRANCH   2   3
TORSDOF 4
ENDMDL
MODEL      248
REMARK 921   NORMALIZED FREE ENERGY PREDICTED BY IDOCK:   -2.09 KCAL/MOL
REMARK 922        TOTAL FREE ENERGY PREDICTED BY IDOCK:   -3.10 KCAL/MOL
REMARK 923 INTER-LIGAND FREE ENERGY PREDICTED BY IDOCK:   -2.39 KCAL/MOL
REMARK 924 INTRA-LIGAND FREE ENERGY PREDICTED BY IDOCK:   -0.71 KCAL/MOL
REMARK 927      BINDING AFFINITY PREDICTED BY RF-SCORE:    0.00 PKD
ROOT
HETATM    1  C   UNL     1     -11.079   6.986  67.748  1.00  0.00    -0.161 C  
HETATM    2  C   UNL     1     -10.658   6.981  69.211  1.00  0.00    -0.240 C  
ENDROOT
BRANCH   2   3
HETATM    3  C   UNL     1      -9.143   7.201  69.357  1.00  0.00    -0.145 C  
BRANCH   3   4
HETATM    4  N   UNL     1      -8.786   8.566  69.808  1.00  0.00    -0.131 NA 
HETATM    5  C   UNL     1      -9.295   8.865  71.167  1.00  0.00    -0.257 C  
HETATM    6  C   UNL     1      -8.640   8.034  72.276  1.00  0.00    -0.212 C  
HETATM    7  C   UNL     1      -7.126   8.205  72.268  1.00  0.00    -0.102 C  
HETATM    8  C   UNL     1      -6.550   7.985  70.876  1.00  0.00    -0.037 C  
HETATM    9  C   UNL     1      -7.304   8.803  69.814  1.00  0.00    -0.052 C  
BRANCH   9  10
HETATM   10  C   UNL     1      -6.666   8.612  68.422  1.00  0.00    -0.064 C  
HETATM   11  N   UNL     1      -7.170   9.490  67.471  1.00  0.00    -0.089 N  
HETATM   12  O   UNL     1      -5.790   7.776  68.213  1.00  0.00    -0.033 OA 
HETATM   13  H   UNL     1      -7.932  10.115  67.733  1.00  0.00     0.000 HD 
BRANCH  11  14
HETATM   14  C   UNL     1      -6.663   9.547  66.150  1.00  0.00    -0.082 A  
HETATM   15  C   UNL     1      -7.155   8.648  65.177  1.00  0.00    -0.086 A  
HETATM   16  C   UNL     1      -8.070   7.492  65.481  1.00  0.00    -0.131 C  
HETATM   17  C   UNL     1      -6.671   8.737  63.858  1.00  0.00    -0.087 A  
HETATM   18  C   UNL     1      -5.741   9.707  63.496  1.00  0.00    -0.094 A  
HETATM   19  C   UNL     1      -5.271  10.602  64.449  1.00  0.00    -0.140 A  
HETATM   20  C   UNL     1      -5.728  10.543  65.779  1.00  0.00    -0.124 A  
HETATM   21  C   UNL     1      -5.211  11.583  66.738  1.00  0.00    -0.122 C  
ENDBRANCH  11  14
ENDBRANCH   9  10
ENDBRANCH   3   4
ENDBRANCH   2   3
TORSDOF 4
ENDMDL
MODEL      249
REMARK 921   NORMALIZED FREE ENERGY PREDICTED BY IDOCK:   -2.02 KCAL/MOL
REMARK 922        TOTAL FREE ENERGY PREDICTED BY IDOCK:   -3.02 KCAL/MOL
REMARK 923 INTER-LIGAND FREE ENERGY PREDICTED BY IDOCK:   -3.22 KCAL/MOL
REMARK 924 INTRA-LIGAND FREE ENERGY PREDICTED BY IDOCK:    0.20 KCAL/MOL
REMARK 927      BINDING AFFINITY PREDICTED BY RF-SCORE:    0.00 PKD
ROOT
HETATM    1  C   UNL     1      -7.719  10.777  68.488  1.00  0.00    -0.118 C  
HETATM    2  C   UNL     1      -7.450   9.314  68.165  1.00  0.00    -0.083 C  
ENDROOT
BRANCH   2   3
HETATM    3  C   UNL     1      -8.709   8.456  68.369  1.00  0.00    -0.136 C  
BRANCH   3   4
HETATM    4  N   UNL     1      -8.893   7.421  67.326  1.00  0.00    -0.123 NA 
HETATM    5  C   UNL     1      -8.018   7.639  66.150  1.00  0.00    -0.110 C  
HETATM    6  C   UNL     1      -6.523   7.464  66.444  1.00  0.00    -0.048 C  
HETATM    7  C   UNL     1      -6.236   6.084  67.024  1.00  0.00    -0.026 C  
HETATM    8  C   UNL     1      -7.160   5.770  68.191  1.00  0.00    -0.074 C  
HETATM    9  C   UNL     1      -8.634   6.033  67.837  1.00  0.00    -0.113 C  
BRANCH   9  10
HETATM   10  C   UNL     1      -9.557   5.651  69.012  1.00  0.00    -0.135 C  
HETATM   11  N   UNL     1      -8.864   5.426  70.194  1.00  0.00    -0.125 N  
HETATM   12  O   UNL     1     -10.778   5.583  68.889  1.00  0.00    -0.219 OA 
HETATM   13  H   UNL     1      -7.845   5.462  70.181  1.00  0.00     0.000 HD 
BRANCH  11  14
HETATM   14  C   UNL     1      -9.523   5.150  71.417  1.00  0.00    -0.152 A  
HETATM   15  C   UNL     1      -9.999   6.220  72.207  1.00  0.00    -0.182 A  
HETATM   16  C   UNL     1      -9.701   7.670  71.933  1.00  0.00    -0.203 C  
HETATM   17  C   UNL     1     -10.685   5.933  73.402  1.00  0.00    -0.293 A  
HETATM   18  C   UNL     1     -10.921   4.621  73.801  1.00  0.00    -0.368 A  
HETATM   19  C   UNL     1     -10.469   3.570  73.014  1.00  0.00    -0.251 A  
HETATM   20  C   UNL     1      -9.776   3.815  71.813  1.00  0.00    -0.245 A  
HETATM   21  C   UNL     1      -9.367   2.621  70.991  1.00  0.00    -0.216 C  
ENDBRANCH  11  14
ENDBRANCH   9  10
ENDBRANCH   3   4
ENDBRANCH   2   3
TORSDOF 4
ENDMDL
MODEL      250
REMARK 921   NORMALIZED FREE ENERGY PREDICTED BY IDOCK:   -2.02 KCAL/MOL
REMARK 922        TOTAL FREE ENERGY PREDICTED BY IDOCK:   -3.02 KCAL/MOL
REMARK 923 INTER-LIGAND FREE ENERGY PREDICTED BY IDOCK:   -4.72 KCAL/MOL
REMARK 924 INTRA-LIGAND FREE ENERGY PREDICTED BY IDOCK:    1.70 KCAL/MOL
REMARK 927      BINDING AFFINITY PREDICTED BY RF-SCORE:    0.00 PKD
ROOT
HETATM    1  C   UNL     1     -10.208  11.891  63.220  1.00  0.00    -0.428 C  
HETATM    2  C   UNL     1     -10.388  12.342  64.662  1.00  0.00    -0.330 C  
ENDROOT
BRANCH   2   3
HETATM    3  C   UNL     1      -9.435  13.498  65.009  1.00  0.00     0.529 C  
BRANCH   3   4
HETATM    4  N   UNL     1     -10.098  14.618  65.716  1.00  0.00    -0.322 NA 
HETATM    5  C   UNL     1     -10.931  15.445  64.811  1.00  0.00    -0.393 C  
HETATM    6  C   UNL     1     -12.157  14.715  64.250  1.00  0.00    -0.437 C  
HETATM    7  C   UNL     1     -13.035  14.176  65.371  1.00  0.00    -0.300 C  
HETATM    8  C   UNL     1     -12.220  13.378  66.380  1.00  0.00    -0.435 C  
HETATM    9  C   UNL     1     -10.974  14.152  66.843  1.00  0.00    -0.300 C  
BRANCH   9  10
HETATM   10  C   UNL     1     -10.196  13.351  67.907  1.00  0.00    -0.241 C  
HETATM   11  N   UNL     1     -10.420  11.983  67.827  1.00  0.00    -0.199 N  
HETATM   12  O   UNL     1      -9.444  13.895  68.714  1.00  0.00    -0.158 OA 
HETATM   13  H   UNL     1     -11.099  11.635  67.151  1.00  0.00     0.000 HD 
BRANCH  11  14
HETATM   14  C   UNL     1      -9.739  11.055  68.652  1.00  0.00    -0.195 A  
HETATM   15  C   UNL     1      -8.333  10.944  68.559  1.00  0.00    -0.142 A  
HETATM   16  C   UNL     1      -7.500  11.624  67.505  1.00  0.00    -0.123 C  
HETATM   17  C   UNL     1      -7.662  10.045  69.408  1.00  0.00    -0.129 A  
HETATM   18  C   UNL     1      -8.355   9.288  70.348  1.00  0.00    -0.224 A  
HETATM   19  C   UNL     1      -9.734   9.412  70.452  1.00  0.00    -0.315 A  
HETATM   20  C   UNL     1     -10.443  10.297  69.618  1.00  0.00    -0.286 A  
HETATM   21  C   UNL     1     -11.929  10.412  69.831  1.00  0.00    -0.289 C  
ENDBRANCH  11  14
ENDBRANCH   9  10
ENDBRANCH   3   4
ENDBRANCH   2   3
TORSDOF 4
ENDMDL
MODEL      251
REMARK 921   NORMALIZED FREE ENERGY PREDICTED BY IDOCK:   -1.87 KCAL/MOL
REMARK 922        TOTAL FREE ENERGY PREDICTED BY IDOCK:   -2.83 KCAL/MOL
REMARK 923 INTER-LIGAND FREE ENERGY PREDICTED BY IDOCK:   -3.70 KCAL/MOL
REMARK 924 INTRA-LIGAND FREE ENERGY PREDICTED BY IDOCK:    0.87 KCAL/MOL
REMARK 927      BINDING AFFINITY PREDICTED BY RF-SCORE:    0.00 PKD
ROOT
HETATM    1  C   UNL     1      -8.104  10.528  69.606  1.00  0.00    -0.058 C  
HETATM    2  C   UNL     1      -8.594   9.256  68.930  1.00  0.00    -0.130 C  
ENDROOT
BRANCH   2   3
HETATM    3  C   UNL     1     -10.115   9.291  68.707  1.00  0.00    -0.195 C  
BRANCH   3   4
HETATM    4  N   UNL     1     -10.562   8.478  67.553  1.00  0.00    -0.247 NA 
HETATM    5  C   UNL     1     -10.115   9.041  66.257  1.00  0.00    -0.241 C  
HETATM    6  C   UNL     1      -8.597   8.997  66.047  1.00  0.00    -0.158 C  
HETATM    7  C   UNL     1      -8.066   7.575  66.175  1.00  0.00    -0.116 C  
HETATM    8  C   UNL     1      -8.557   6.913  67.456  1.00  0.00    -0.121 C  
HETATM    9  C   UNL     1     -10.079   7.059  67.624  1.00  0.00    -0.172 C  
BRANCH   9  10
HETATM   10  C   UNL     1     -10.562   6.331  68.896  1.00  0.00    -0.268 C  
HETATM   11  N   UNL     1      -9.517   5.859  69.679  1.00  0.00    -0.141 N  
HETATM   12  O   UNL     1     -11.754   6.217  69.170  1.00  0.00    -0.201 OA 
HETATM   13  H   UNL     1      -8.561   5.963  69.340  1.00  0.00     0.000 HD 
BRANCH  11  14
HETATM   14  C   UNL     1      -9.733   5.238  70.934  1.00  0.00    -0.184 A  
HETATM   15  C   UNL     1      -9.600   3.836  71.048  1.00  0.00    -0.249 A  
HETATM   16  C   UNL     1      -9.414   2.908  69.878  1.00  0.00    -0.173 C  
HETATM   17  C   UNL     1      -9.780   3.234  72.307  1.00  0.00    -0.223 A  
HETATM   18  C   UNL     1     -10.061   3.996  73.437  1.00  0.00    -0.196 A  
HETATM   19  C   UNL     1     -10.174   5.376  73.327  1.00  0.00    -0.215 A  
HETATM   20  C   UNL     1     -10.004   6.016  72.085  1.00  0.00    -0.189 A  
HETATM   21  C   UNL     1     -10.088   7.520  72.062  1.00  0.00    -0.225 C  
ENDBRANCH  11  14
ENDBRANCH   9  10
ENDBRANCH   3   4
ENDBRANCH   2   3
TORSDOF 4
ENDMDL
MODEL      252
REMARK 921   NORMALIZED FREE ENERGY PREDICTED BY IDOCK:   -1.82 KCAL/MOL
REMARK 922        TOTAL FREE ENERGY PREDICTED BY IDOCK:   -2.78 KCAL/MOL
REMARK 923 INTER-LIGAND FREE ENERGY PREDICTED BY IDOCK:   -3.26 KCAL/MOL
REMARK 924 INTRA-LIGAND FREE ENERGY PREDICTED BY IDOCK:    0.49 KCAL/MOL
REMARK 927      BINDING AFFINITY PREDICTED BY RF-SCORE:    0.00 PKD
ROOT
HETATM    1  C   UNL     1      -5.895  17.842  66.901  1.00  0.00    -0.175 C  
HETATM    2  C   UNL     1      -6.349  17.090  68.144  1.00  0.00    -0.143 C  
ENDROOT
BRANCH   2   3
HETATM    3  C   UNL     1      -7.091  15.795  67.774  1.00  0.00    -0.151 C  
BRANCH   3   4
HETATM    4  N   UNL     1      -8.395  15.645  68.460  1.00  0.00    -0.158 NA 
HETATM    5  C   UNL     1      -8.519  16.533  69.640  1.00  0.00     0.499 C  
HETATM    6  C   UNL     1      -8.565  18.026  69.296  1.00  0.00     0.279 C  
HETATM    7  C   UNL     1      -9.701  18.332  68.328  1.00  0.00    -0.350 C  
HETATM    8  C   UNL     1      -9.672  17.397  67.127  1.00  0.00    -0.267 C  
HETATM    9  C   UNL     1      -9.560  15.924  67.555  1.00  0.00    -0.221 C  
BRANCH   9  10
HETATM   10  C   UNL     1      -9.593  14.992  66.327  1.00  0.00    -0.307 C  
HETATM   11  N   UNL     1     -10.182  13.764  66.595  1.00  0.00    -0.271 N  
HETATM   12  O   UNL     1      -9.156  15.339  65.231  1.00  0.00     0.325 OA 
HETATM   13  H   UNL     1     -10.471  13.555  67.550  1.00  0.00     0.000 HD 
BRANCH  11  14
HETATM   14  C   UNL     1     -10.396  12.791  65.588  1.00  0.00    -0.279 A  
HETATM   15  C   UNL     1     -11.467  12.952  64.681  1.00  0.00    -0.369 A  
HETATM   16  C   UNL     1     -12.530  14.011  64.810  1.00  0.00    -0.392 C  
HETATM   17  C   UNL     1     -11.648  12.000  63.661  1.00  0.00    -0.578 A  
HETATM   18  C   UNL     1     -10.779  10.922  63.520  1.00  0.00    -0.082 A  
HETATM   19  C   UNL     1      -9.715  10.773  64.401  1.00  0.00    -0.356 A  
HETATM   20  C   UNL     1      -9.502  11.703  65.436  1.00  0.00    -0.190 A  
HETATM   21  C   UNL     1      -8.295  11.501  66.314  1.00  0.00    -0.076 C  
ENDBRANCH  11  14
ENDBRANCH   9  10
ENDBRANCH   3   4
ENDBRANCH   2   3
TORSDOF 4
ENDMDL
MODEL      253
REMARK 921   NORMALIZED FREE ENERGY PREDICTED BY IDOCK:   -1.80 KCAL/MOL
REMARK 922        TOTAL FREE ENERGY PREDICTED BY IDOCK:   -2.75 KCAL/MOL
REMARK 923 INTER-LIGAND FREE ENERGY PREDICTED BY IDOCK:   -3.48 KCAL/MOL
REMARK 924 INTRA-LIGAND FREE ENERGY PREDICTED BY IDOCK:    0.73 KCAL/MOL
REMARK 927      BINDING AFFINITY PREDICTED BY RF-SCORE:    0.00 PKD
ROOT
HETATM    1  C   UNL     1      -9.070   3.450  65.017  1.00  0.00    -0.142 C  
HETATM    2  C   UNL     1      -9.546   4.702  65.739  1.00  0.00    -0.190 C  
ENDROOT
BRANCH   2   3
HETATM    3  C   UNL     1      -9.011   4.754  67.180  1.00  0.00    -0.112 C  
BRANCH   3   4
HETATM    4  N   UNL     1      -8.392   6.053  67.533  1.00  0.00    -0.109 NA 
HETATM    5  C   UNL     1      -7.773   6.721  66.364  1.00  0.00    -0.098 C  
HETATM    6  C   UNL     1      -8.778   7.180  65.302  1.00  0.00     0.073 C  
HETATM    7  C   UNL     1      -9.825   8.110  65.903  1.00  0.00     0.192 C  
HETATM    8  C   UNL     1     -10.446   7.509  67.156  1.00  0.00    -0.407 C  
HETATM    9  C   UNL     1      -9.373   7.013  68.141  1.00  0.00    -0.125 C  
BRANCH   9  10
HETATM   10  C   UNL     1     -10.022   6.464  69.428  1.00  0.00    -0.158 C  
HETATM   11  N   UNL     1      -9.151   6.451  70.510  1.00  0.00    -0.154 N  
HETATM   12  O   UNL     1     -11.196   6.104  69.466  1.00  0.00    -0.389 OA 
HETATM   13  H   UNL     1      -8.181   6.726  70.364  1.00  0.00     0.000 HD 
BRANCH  11  14
HETATM   14  C   UNL     1      -9.565   6.068  71.809  1.00  0.00    -0.151 A  
HETATM   15  C   UNL     1     -10.056   7.049  72.700  1.00  0.00    -0.204 A  
HETATM   16  C   UNL     1     -10.010   8.530  72.433  1.00  0.00    -0.365 C  
HETATM   17  C   UNL     1     -10.499   6.654  73.975  1.00  0.00    -0.309 A  
HETATM   18  C   UNL     1     -10.484   5.316  74.360  1.00  0.00    -0.277 A  
HETATM   19  C   UNL     1     -10.019   4.350  73.478  1.00  0.00    -0.178 A  
HETATM   20  C   UNL     1      -9.564   4.706  72.194  1.00  0.00    -0.203 A  
HETATM   21  C   UNL     1      -9.127   3.592  71.278  1.00  0.00    -0.180 C  
ENDBRANCH  11  14
ENDBRANCH   9  10
ENDBRANCH   3   4
ENDBRANCH   2   3
TORSDOF 4
ENDMDL
MODEL      254
REMARK 921   NORMALIZED FREE ENERGY PREDICTED BY IDOCK:   -1.71 KCAL/MOL
REMARK 922        TOTAL FREE ENERGY PREDICTED BY IDOCK:   -2.64 KCAL/MOL
REMARK 923 INTER-LIGAND FREE ENERGY PREDICTED BY IDOCK:   -1.80 KCAL/MOL
REMARK 924 INTRA-LIGAND FREE ENERGY PREDICTED BY IDOCK:   -0.84 KCAL/MOL
REMARK 927      BINDING AFFINITY PREDICTED BY RF-SCORE:    0.00 PKD
ROOT
HETATM    1  C   UNL     1     -10.366   5.300  71.248  1.00  0.00    -0.292 C  
HETATM    2  C   UNL     1      -9.968   3.949  71.826  1.00  0.00    -0.234 C  
ENDROOT
BRANCH   2   3
HETATM    3  C   UNL     1      -8.538   3.564  71.414  1.00  0.00    -0.076 C  
BRANCH   3   4
HETATM    4  N   UNL     1      -7.543   4.633  71.664  1.00  0.00    -0.080 NA 
HETATM    5  C   UNL     1      -7.157   4.725  73.092  1.00  0.00    -0.079 C  
HETATM    6  C   UNL     1      -6.381   3.508  73.608  1.00  0.00    -0.028 C  
HETATM    7  C   UNL     1      -5.130   3.260  72.775  1.00  0.00     0.000 C  
HETATM    8  C   UNL     1      -5.452   3.232  71.287  1.00  0.00    -0.008 C  
HETATM    9  C   UNL     1      -6.287   4.452  70.863  1.00  0.00    -0.022 C  
BRANCH   9  10
HETATM   10  C   UNL     1      -6.550   4.434  69.343  1.00  0.00    -0.040 C  
HETATM   11  N   UNL     1      -7.318   5.508  68.913  1.00  0.00    -0.079 N  
HETATM   12  O   UNL     1      -6.094   3.558  68.611  1.00  0.00    -0.026 OA 
HETATM   13  H   UNL     1      -7.689   6.157  69.607  1.00  0.00     0.000 HD 
BRANCH  11  14
HETATM   14  C   UNL     1      -7.605   5.735  67.545  1.00  0.00    -0.093 A  
HETATM   15  C   UNL     1      -8.748   5.140  66.966  1.00  0.00    -0.103 A  
HETATM   16  C   UNL     1      -9.612   4.121  67.660  1.00  0.00    -0.213 C  
HETATM   17  C   UNL     1      -9.044   5.402  65.616  1.00  0.00    -0.148 A  
HETATM   18  C   UNL     1      -8.246   6.250  64.854  1.00  0.00    -0.119 A  
HETATM   19  C   UNL     1      -7.132   6.848  65.429  1.00  0.00    -0.068 A  
HETATM   20  C   UNL     1      -6.801   6.610  66.776  1.00  0.00    -0.065 A  
HETATM   21  C   UNL     1      -5.608   7.340  67.338  1.00  0.00    -0.029 C  
ENDBRANCH  11  14
ENDBRANCH   9  10
ENDBRANCH   3   4
ENDBRANCH   2   3
TORSDOF 4
ENDMDL
MODEL      255
REMARK 921   NORMALIZED FREE ENERGY PREDICTED BY IDOCK:   -1.62 KCAL/MOL
REMARK 922        TOTAL FREE ENERGY PREDICTED BY IDOCK:   -2.53 KCAL/MOL
REMARK 923 INTER-LIGAND FREE ENERGY PREDICTED BY IDOCK:   -3.62 KCAL/MOL
REMARK 924 INTRA-LIGAND FREE ENERGY PREDICTED BY IDOCK:    1.09 KCAL/MOL
REMARK 927      BINDING AFFINITY PREDICTED BY RF-SCORE:    0.00 PKD
ROOT
HETATM    1  C   UNL     1      -5.613  16.213  67.321  1.00  0.00    -0.087 C  
HETATM    2  C   UNL     1      -5.218  14.909  67.998  1.00  0.00    -0.115 C  
ENDROOT
BRANCH   2   3
HETATM    3  C   UNL     1      -6.053  13.730  67.473  1.00  0.00     0.015 C  
BRANCH   3   4
HETATM    4  N   UNL     1      -6.903  13.100  68.509  1.00  0.00    -0.091 NA 
HETATM    5  C   UNL     1      -6.254  13.083  69.841  1.00  0.00    -0.089 C  
HETATM    6  C   UNL     1      -6.059  14.473  70.459  1.00  0.00    -0.183 C  
HETATM    7  C   UNL     1      -7.385  15.216  70.567  1.00  0.00     0.684 C  
HETATM    8  C   UNL     1      -8.138  15.201  69.244  1.00  0.00    -0.217 C  
HETATM    9  C   UNL     1      -8.232  13.782  68.659  1.00  0.00    -0.077 C  
BRANCH   9  10
HETATM   10  C   UNL     1      -9.050  13.781  67.351  1.00  0.00    -0.221 C  
HETATM   11  N   UNL     1      -9.796  12.622  67.179  1.00  0.00    -0.209 N  
HETATM   12  O   UNL     1      -9.039  14.732  66.572  1.00  0.00    -0.265 OA 
HETATM   13  H   UNL     1      -9.699  11.870  67.860  1.00  0.00     0.000 HD 
BRANCH  11  14
HETATM   14  C   UNL     1     -10.685  12.450  66.091  1.00  0.00    -0.260 A  
HETATM   15  C   UNL     1     -11.920  13.137  66.086  1.00  0.00    -0.478 A  
HETATM   16  C   UNL     1     -12.453  13.922  67.255  1.00  0.00    -0.032 C  
HETATM   17  C   UNL     1     -12.780  12.988  64.983  1.00  0.00    -0.475 A  
HETATM   18  C   UNL     1     -12.425  12.197  63.894  1.00  0.00    -0.581 A  
HETATM   19  C   UNL     1     -11.204  11.536  63.891  1.00  0.00    -0.439 A  
HETATM   20  C   UNL     1     -10.317  11.657  64.977  1.00  0.00    -0.329 A  
HETATM   21  C   UNL     1      -8.990  10.952  64.872  1.00  0.00    -0.167 C  
ENDBRANCH  11  14
ENDBRANCH   9  10
ENDBRANCH   3   4
ENDBRANCH   2   3
TORSDOF 4
ENDMDL
MODEL      256
REMARK 921   NORMALIZED FREE ENERGY PREDICTED BY IDOCK:   -1.55 KCAL/MOL
REMARK 922        TOTAL FREE ENERGY PREDICTED BY IDOCK:   -2.43 KCAL/MOL
REMARK 923 INTER-LIGAND FREE ENERGY PREDICTED BY IDOCK:   -3.70 KCAL/MOL
REMARK 924 INTRA-LIGAND FREE ENERGY PREDICTED BY IDOCK:    1.26 KCAL/MOL
REMARK 927      BINDING AFFINITY PREDICTED BY RF-SCORE:    0.00 PKD
ROOT
HETATM    1  C   UNL     1     -11.195  10.948  65.669  1.00  0.00     0.189 C  
HETATM    2  C   UNL     1     -10.440  12.142  66.235  1.00  0.00    -0.270 C  
ENDROOT
BRANCH   2   3
HETATM    3  C   UNL     1     -11.356  13.026  67.097  1.00  0.00    -0.305 C  
BRANCH   3   4
HETATM    4  N   UNL     1     -10.924  13.122  68.510  1.00  0.00    -0.253 NA 
HETATM    5  C   UNL     1     -11.744  12.279  69.412  1.00  0.00    -0.330 C  
HETATM    6  C   UNL     1     -11.579  10.773  69.180  1.00  0.00    -0.376 C  
HETATM    7  C   UNL     1     -10.119  10.355  69.308  1.00  0.00    -0.248 C  
HETATM    8  C   UNL     1      -9.213  11.239  68.461  1.00  0.00    -0.181 C  
HETATM    9  C   UNL     1      -9.488  12.733  68.703  1.00  0.00     0.004 C  
BRANCH   9  10
HETATM   10  C   UNL     1      -8.520  13.608  67.881  1.00  0.00    -0.177 C  
HETATM   11  N   UNL     1      -8.661  14.965  68.143  1.00  0.00    -0.159 N  
HETATM   12  O   UNL     1      -7.703  13.124  67.100  1.00  0.00    -0.127 OA 
HETATM   13  H   UNL     1      -9.402  15.269  68.774  1.00  0.00     0.000 HD 
BRANCH  11  14
HETATM   14  C   UNL     1      -7.813  15.940  67.563  1.00  0.00    -0.153 A  
HETATM   15  C   UNL     1      -8.237  16.632  66.407  1.00  0.00    -0.353 A  
HETATM   16  C   UNL     1      -9.474  16.285  65.622  1.00  0.00    -0.097 C  
HETATM   17  C   UNL     1      -7.403  17.625  65.861  1.00  0.00    -0.213 A  
HETATM   18  C   UNL     1      -6.186  17.949  66.453  1.00  0.00    -0.239 A  
HETATM   19  C   UNL     1      -5.777  17.280  67.600  1.00  0.00    -0.144 A  
HETATM   20  C   UNL     1      -6.582  16.279  68.175  1.00  0.00    -0.133 A  
HETATM   21  C   UNL     1      -6.093  15.640  69.448  1.00  0.00    -0.131 C  
ENDBRANCH  11  14
ENDBRANCH   9  10
ENDBRANCH   3   4
ENDBRANCH   2   3
TORSDOF 4
ENDMDL
MODEL      257
REMARK 921   NORMALIZED FREE ENERGY PREDICTED BY IDOCK:   -1.43 KCAL/MOL
REMARK 922        TOTAL FREE ENERGY PREDICTED BY IDOCK:   -2.29 KCAL/MOL
REMARK 923 INTER-LIGAND FREE ENERGY PREDICTED BY IDOCK:   -3.84 KCAL/MOL
REMARK 924 INTRA-LIGAND FREE ENERGY PREDICTED BY IDOCK:    1.55 KCAL/MOL
REMARK 927      BINDING AFFINITY PREDICTED BY RF-SCORE:    0.00 PKD
ROOT
HETATM    1  C   UNL     1      -9.728  10.971  63.738  1.00  0.00    -0.351 C  
HETATM    2  C   UNL     1      -9.804  10.958  65.258  1.00  0.00    -0.318 C  
ENDROOT
BRANCH   2   3
HETATM    3  C   UNL     1      -8.528  11.540  65.886  1.00  0.00     0.062 C  
BRANCH   3   4
HETATM    4  N   UNL     1      -8.728  12.057  67.260  1.00  0.00    -0.167 NA 
HETATM    5  C   UNL     1      -9.127  13.484  67.276  1.00  0.00    -0.225 C  
HETATM    6  C   UNL     1     -10.514  13.752  66.681  1.00  0.00    -0.272 C  
HETATM    7  C   UNL     1     -11.584  12.934  67.393  1.00  0.00    -0.414 C  
HETATM    8  C   UNL     1     -11.194  11.465  67.477  1.00  0.00    -0.356 C  
HETATM    9  C   UNL     1      -9.767  11.285  68.021  1.00  0.00    -0.179 C  
BRANCH   9  10
HETATM   10  C   UNL     1      -9.415   9.789  68.154  1.00  0.00    -0.135 C  
HETATM   11  N   UNL     1     -10.180   8.977  67.327  1.00  0.00    -0.236 N  
HETATM   12  O   UNL     1      -8.529   9.390  68.907  1.00  0.00    -0.117 OA 
HETATM   13  H   UNL     1     -10.924   9.401  66.773  1.00  0.00     0.000 HD 
BRANCH  11  14
HETATM   14  C   UNL     1      -9.963   7.582  67.225  1.00  0.00    -0.210 A  
HETATM   15  C   UNL     1      -9.059   7.087  66.259  1.00  0.00    -0.178 A  
HETATM   16  C   UNL     1      -8.424   7.932  65.186  1.00  0.00    -0.096 C  
HETATM   17  C   UNL     1      -8.822   5.702  66.190  1.00  0.00    -0.142 A  
HETATM   18  C   UNL     1      -9.442   4.821  67.071  1.00  0.00    -0.164 A  
HETATM   19  C   UNL     1     -10.317   5.309  68.033  1.00  0.00    -0.183 A  
HETATM   20  C   UNL     1     -10.583   6.688  68.131  1.00  0.00    -0.294 A  
HETATM   21  C   UNL     1     -11.501   7.141  69.236  1.00  0.00     0.132 C  
ENDBRANCH  11  14
ENDBRANCH   9  10
ENDBRANCH   3   4
ENDBRANCH   2   3
TORSDOF 4
ENDMDL
MODEL      258
REMARK 921   NORMALIZED FREE ENERGY PREDICTED BY IDOCK:   -1.29 KCAL/MOL
REMARK 922        TOTAL FREE ENERGY PREDICTED BY IDOCK:   -2.12 KCAL/MOL
REMARK 923 INTER-LIGAND FREE ENERGY PREDICTED BY IDOCK:   -3.53 KCAL/MOL
REMARK 924 INTRA-LIGAND FREE ENERGY PREDICTED BY IDOCK:    1.40 KCAL/MOL
REMARK 927      BINDING AFFINITY PREDICTED BY RF-SCORE:    0.00 PKD
ROOT
HETATM    1  C   UNL     1      -5.551  16.747  66.987  1.00  0.00    -0.178 C  
HETATM    2  C   UNL     1      -5.350  15.682  68.055  1.00  0.00    -0.133 C  
ENDROOT
BRANCH   2   3
HETATM    3  C   UNL     1      -5.663  14.278  67.511  1.00  0.00     0.164 C  
BRANCH   3   4
HETATM    4  N   UNL     1      -6.309  13.391  68.504  1.00  0.00    -0.080 NA 
HETATM    5  C   UNL     1      -5.508  13.247  69.743  1.00  0.00    -0.098 C  
HETATM    6  C   UNL     1      -5.394  14.536  70.565  1.00  0.00    -0.125 C  
HETATM    7  C   UNL     1      -6.771  15.078  70.930  1.00  0.00     0.551 C  
HETATM    8  C   UNL     1      -7.670  15.175  69.705  1.00  0.00    -0.148 C  
HETATM    9  C   UNL     1      -7.678  13.865  68.899  1.00  0.00    -0.041 C  
BRANCH   9  10
HETATM   10  C   UNL     1      -8.640  13.966  67.698  1.00  0.00    -0.190 C  
HETATM   11  N   UNL     1      -9.531  12.904  67.627  1.00  0.00    -0.190 N  
HETATM   12  O   UNL     1      -8.612  14.913  66.915  1.00  0.00    -0.227 OA 
HETATM   13  H   UNL     1      -9.443  12.142  68.299  1.00  0.00     0.000 HD 
BRANCH  11  14
HETATM   14  C   UNL     1     -10.559  12.841  66.655  1.00  0.00    -0.256 A  
HETATM   15  C   UNL     1     -10.483  11.879  65.623  1.00  0.00    -0.302 A  
HETATM   16  C   UNL     1      -9.281  11.009  65.368  1.00  0.00    -0.232 C  
HETATM   17  C   UNL     1     -11.527  11.801  64.684  1.00  0.00    -0.303 A  
HETATM   18  C   UNL     1     -12.638  12.635  64.770  1.00  0.00    -0.530 A  
HETATM   19  C   UNL     1     -12.721  13.569  65.795  1.00  0.00    -0.433 A  
HETATM   20  C   UNL     1     -11.695  13.680  66.753  1.00  0.00    -0.426 A  
HETATM   21  C   UNL     1     -11.888  14.679  67.863  1.00  0.00    -0.352 C  
ENDBRANCH  11  14
ENDBRANCH   9  10
ENDBRANCH   3   4
ENDBRANCH   2   3
TORSDOF 4
ENDMDL
MODEL      259
REMARK 921   NORMALIZED FREE ENERGY PREDICTED BY IDOCK:   -1.15 KCAL/MOL
REMARK 922        TOTAL FREE ENERGY PREDICTED BY IDOCK:   -1.94 KCAL/MOL
REMARK 923 INTER-LIGAND FREE ENERGY PREDICTED BY IDOCK:   -3.05 KCAL/MOL
REMARK 924 INTRA-LIGAND FREE ENERGY PREDICTED BY IDOCK:    1.11 KCAL/MOL
REMARK 927      BINDING AFFINITY PREDICTED BY RF-SCORE:    0.00 PKD
ROOT
HETATM    1  C   UNL     1      -6.891  10.512  68.740  1.00  0.00    -0.060 C  
HETATM    2  C   UNL     1      -8.157  10.455  67.898  1.00  0.00    -0.102 C  
ENDROOT
BRANCH   2   3
HETATM    3  C   UNL     1      -9.409  10.321  68.779  1.00  0.00    -0.166 C  
BRANCH   3   4
HETATM    4  N   UNL     1     -10.601   9.842  68.042  1.00  0.00    -0.230 NA 
HETATM    5  C   UNL     1     -11.448  10.954  67.551  1.00  0.00    -0.152 C  
HETATM    6  C   UNL     1     -10.786  11.811  66.466  1.00  0.00    -0.304 C  
HETATM    7  C   UNL     1     -10.356  10.958  65.279  1.00  0.00    -0.334 C  
HETATM    8  C   UNL     1      -9.544   9.752  65.728  1.00  0.00    -0.318 C  
HETATM    9  C   UNL     1     -10.246   8.984  66.862  1.00  0.00    -0.269 C  
BRANCH   9  10
HETATM   10  C   UNL     1      -9.435   7.734  67.261  1.00  0.00    -0.148 C  
HETATM   11  N   UNL     1      -8.778   7.149  66.186  1.00  0.00    -0.148 N  
HETATM   12  O   UNL     1      -9.380   7.333  68.421  1.00  0.00    -0.143 OA 
HETATM   13  H   UNL     1      -8.926   7.531  65.252  1.00  0.00     0.000 HD 
BRANCH  11  14
HETATM   14  C   UNL     1      -7.907   6.043  66.342  1.00  0.00    -0.104 A  
HETATM   15  C   UNL     1      -8.436   4.733  66.317  1.00  0.00    -0.111 A  
HETATM   16  C   UNL     1      -9.908   4.417  66.311  1.00  0.00    -0.244 C  
HETATM   17  C   UNL     1      -7.558   3.640  66.436  1.00  0.00    -0.084 A  
HETATM   18  C   UNL     1      -6.184   3.829  66.553  1.00  0.00    -0.032 A  
HETATM   19  C   UNL     1      -5.663   5.116  66.560  1.00  0.00    -0.018 A  
HETATM   20  C   UNL     1      -6.509   6.236  66.446  1.00  0.00    -0.047 A  
HETATM   21  C   UNL     1      -5.860   7.595  66.407  1.00  0.00    -0.037 C  
ENDBRANCH  11  14
ENDBRANCH   9  10
ENDBRANCH   3   4
ENDBRANCH   2   3
TORSDOF 4
ENDMDL
MODEL      260
REMARK 921   NORMALIZED FREE ENERGY PREDICTED BY IDOCK:   -0.98 KCAL/MOL
REMARK 922        TOTAL FREE ENERGY PREDICTED BY IDOCK:   -1.73 KCAL/MOL
REMARK 923 INTER-LIGAND FREE ENERGY PREDICTED BY IDOCK:   -1.80 KCAL/MOL
REMARK 924 INTRA-LIGAND FREE ENERGY PREDICTED BY IDOCK:    0.07 KCAL/MOL
REMARK 927      BINDING AFFINITY PREDICTED BY RF-SCORE:    0.00 PKD
ROOT
HETATM    1  C   UNL     1     -12.412   7.014  70.081  1.00  0.00     0.292 C  
HETATM    2  C   UNL     1     -11.118   6.322  69.676  1.00  0.00    -0.479 C  
ENDROOT
BRANCH   2   3
HETATM    3  C   UNL     1     -10.272   7.215  68.754  1.00  0.00    -0.179 C  
BRANCH   3   4
HETATM    4  N   UNL     1      -9.848   6.541  67.506  1.00  0.00    -0.120 NA 
HETATM    5  C   UNL     1      -9.815   7.463  66.347  1.00  0.00    -0.066 C  
HETATM    6  C   UNL     1      -8.739   8.551  66.445  1.00  0.00    -0.153 C  
HETATM    7  C   UNL     1      -7.356   7.940  66.628  1.00  0.00    -0.088 C  
HETATM    8  C   UNL     1      -7.344   6.922  67.759  1.00  0.00    -0.097 C  
HETATM    9  C   UNL     1      -8.492   5.907  67.623  1.00  0.00    -0.103 C  
BRANCH   9  10
HETATM   10  C   UNL     1      -8.426   4.850  68.745  1.00  0.00    -0.086 C  
HETATM   11  N   UNL     1      -7.706   5.280  69.852  1.00  0.00    -0.068 N  
HETATM   12  O   UNL     1      -8.982   3.758  68.648  1.00  0.00    -0.103 OA 
HETATM   13  H   UNL     1      -7.243   6.188  69.815  1.00  0.00     0.000 HD 
BRANCH  11  14
HETATM   14  C   UNL     1      -7.594   4.503  71.030  1.00  0.00    -0.064 A  
HETATM   15  C   UNL     1      -6.546   3.562  71.146  1.00  0.00    -0.030 A  
HETATM   16  C   UNL     1      -5.620   3.188  70.020  1.00  0.00    -0.017 C  
HETATM   17  C   UNL     1      -6.422   2.821  72.335  1.00  0.00    -0.014 A  
HETATM   18  C   UNL     1      -7.296   3.017  73.401  1.00  0.00    -0.050 A  
HETATM   19  C   UNL     1      -8.315   3.955  73.293  1.00  0.00    -0.088 A  
HETATM   20  C   UNL     1      -8.474   4.714  72.119  1.00  0.00    -0.118 A  
HETATM   21  C   UNL     1      -9.570   5.748  72.103  1.00  0.00    -0.167 C  
ENDBRANCH  11  14
ENDBRANCH   9  10
ENDBRANCH   3   4
ENDBRANCH   2   3
TORSDOF 4
ENDMDL
MODEL      261
REMARK 921   NORMALIZED FREE ENERGY PREDICTED BY IDOCK:   -0.79 KCAL/MOL
REMARK 922        TOTAL FREE ENERGY PREDICTED BY IDOCK:   -1.50 KCAL/MOL
REMARK 923 INTER-LIGAND FREE ENERGY PREDICTED BY IDOCK:   -3.00 KCAL/MOL
REMARK 924 INTRA-LIGAND FREE ENERGY PREDICTED BY IDOCK:    1.51 KCAL/MOL
REMARK 927      BINDING AFFINITY PREDICTED BY RF-SCORE:    0.00 PKD
ROOT
HETATM    1  C   UNL     1      -8.428  20.284  66.622  1.00  0.00    -0.295 C  
HETATM    2  C   UNL     1      -7.244  19.357  66.856  1.00  0.00    -0.224 C  
ENDROOT
BRANCH   2   3
HETATM    3  C   UNL     1      -7.089  18.347  65.707  1.00  0.00    -0.223 C  
BRANCH   3   4
HETATM    4  N   UNL     1      -6.494  17.059  66.130  1.00  0.00    -0.156 NA 
HETATM    5  C   UNL     1      -5.292  17.241  66.978  1.00  0.00    -0.152 C  
HETATM    6  C   UNL     1      -5.582  17.867  68.346  1.00  0.00    -0.164 C  
HETATM    7  C   UNL     1      -6.609  17.048  69.118  1.00  0.00    -0.230 C  
HETATM    8  C   UNL     1      -7.840  16.761  68.270  1.00  0.00    -0.194 C  
HETATM    9  C   UNL     1      -7.460  16.198  66.890  1.00  0.00    -0.231 C  
BRANCH   9  10
HETATM   10  C   UNL     1      -8.723  15.858  66.070  1.00  0.00    -0.188 C  
HETATM   11  N   UNL     1      -9.294  14.645  66.433  1.00  0.00    -0.343 N  
HETATM   12  O   UNL     1      -9.166  16.614  65.208  1.00  0.00    -0.062 OA 
HETATM   13  H   UNL     1      -8.822  14.068  67.129  1.00  0.00     0.000 HD 
BRANCH  11  14
HETATM   14  C   UNL     1     -10.508  14.182  65.870  1.00  0.00    -0.306 A  
HETATM   15  C   UNL     1     -10.472  13.232  64.825  1.00  0.00    -0.402 A  
HETATM   16  C   UNL     1      -9.213  12.792  64.127  1.00  0.00     1.262 C  
HETATM   17  C   UNL     1     -11.684  12.750  64.298  1.00  0.00    -0.443 A  
HETATM   18  C   UNL     1     -12.909  13.176  64.804  1.00  0.00    -0.298 A  
HETATM   19  C   UNL     1     -12.944  14.096  65.843  1.00  0.00    -0.150 A  
HETATM   20  C   UNL     1     -11.753  14.604  66.396  1.00  0.00    -0.329 A  
HETATM   21  C   UNL     1     -11.876  15.556  67.556  1.00  0.00     0.124 C  
ENDBRANCH  11  14
ENDBRANCH   9  10
ENDBRANCH   3   4
ENDBRANCH   2   3
TORSDOF 4
ENDMDL
MODEL      262
REMARK 921   NORMALIZED FREE ENERGY PREDICTED BY IDOCK:   -0.41 KCAL/MOL
REMARK 922        TOTAL FREE ENERGY PREDICTED BY IDOCK:   -1.03 KCAL/MOL
REMARK 923 INTER-LIGAND FREE ENERGY PREDICTED BY IDOCK:   -2.51 KCAL/MOL
REMARK 924 INTRA-LIGAND FREE ENERGY PREDICTED BY IDOCK:    1.48 KCAL/MOL
REMARK 927      BINDING AFFINITY PREDICTED BY RF-SCORE:    0.00 PKD
ROOT
HETATM    1  C   UNL     1      -5.189   9.081  70.065  1.00  0.00    -0.028 C  
HETATM    2  C   UNL     1      -6.492   8.515  70.610  1.00  0.00    -0.038 C  
ENDROOT
BRANCH   2   3
HETATM    3  C   UNL     1      -6.360   7.017  70.930  1.00  0.00    -0.040 C  
BRANCH   3   4
HETATM    4  N   UNL     1      -7.613   6.407  71.432  1.00  0.00    -0.093 NA 
HETATM    5  C   UNL     1      -8.199   7.165  72.562  1.00  0.00    -0.107 C  
HETATM    6  C   UNL     1      -8.710   8.560  72.181  1.00  0.00    -0.267 C  
HETATM    7  C   UNL     1      -9.736   8.480  71.057  1.00  0.00    -0.243 C  
HETATM    8  C   UNL     1      -9.220   7.645  69.894  1.00  0.00    -0.147 C  
HETATM    9  C   UNL     1      -8.665   6.290  70.367  1.00  0.00    -0.146 C  
BRANCH   9  10
HETATM   10  C   UNL     1      -8.204   5.437  69.168  1.00  0.00    -0.093 C  
HETATM   11  N   UNL     1      -9.198   5.260  68.215  1.00  0.00    -0.111 N  
HETATM   12  O   UNL     1      -7.060   4.994  69.082  1.00  0.00    -0.054 OA 
HETATM   13  H   UNL     1     -10.130   5.629  68.401  1.00  0.00     0.000 HD 
BRANCH  11  14
HETATM   14  C   UNL     1      -8.963   4.584  66.993  1.00  0.00    -0.116 A  
HETATM   15  C   UNL     1      -9.198   3.193  66.911  1.00  0.00    -0.187 A  
HETATM   16  C   UNL     1      -9.519   2.320  68.095  1.00  0.00    -0.218 C  
HETATM   17  C   UNL     1      -8.997   2.537  65.682  1.00  0.00    -0.131 A  
HETATM   18  C   UNL     1      -8.596   3.238  64.549  1.00  0.00    -0.094 A  
HETATM   19  C   UNL     1      -8.382   4.609  64.625  1.00  0.00    -0.125 A  
HETATM   20  C   UNL     1      -8.570   5.300  65.837  1.00  0.00    -0.128 A  
HETATM   21  C   UNL     1      -8.370   6.793  65.823  1.00  0.00    -0.143 C  
ENDBRANCH  11  14
ENDBRANCH   9  10
ENDBRANCH   3   4
ENDBRANCH   2   3
TORSDOF 4
ENDMDL
MODEL      263
REMARK 921   NORMALIZED FREE ENERGY PREDICTED BY IDOCK:    2.06 KCAL/MOL
REMARK 922        TOTAL FREE ENERGY PREDICTED BY IDOCK:    2.01 KCAL/MOL
REMARK 923 INTER-LIGAND FREE ENERGY PREDICTED BY IDOCK:   -1.76 KCAL/MOL
REMARK 924 INTRA-LIGAND FREE ENERGY PREDICTED BY IDOCK:    3.78 KCAL/MOL
REMARK 927      BINDING AFFINITY PREDICTED BY RF-SCORE:    0.00 PKD
ROOT
HETATM    1  C   UNL     1      -9.651  19.394  68.897  1.00  0.00    -0.477 C  
HETATM    2  C   UNL     1      -8.327  19.875  68.322  1.00  0.00    -0.251 C  
ENDROOT
BRANCH   2   3
HETATM    3  C   UNL     1      -8.508  20.453  66.908  1.00  0.00    -0.239 C  
BRANCH   3   4
HETATM    4  N   UNL     1      -8.117  19.514  65.832  1.00  0.00    -0.435 NA 
HETATM    5  C   UNL     1      -7.485  20.203  64.682  1.00  0.00     0.849 C  
HETATM    6  C   UNL     1      -6.123  20.830  65.002  1.00  0.00    -0.308 C  
HETATM    7  C   UNL     1      -5.153  19.789  65.546  1.00  0.00    -0.174 C  
HETATM    8  C   UNL     1      -5.776  18.992  66.684  1.00  0.00    -0.169 C  
HETATM    9  C   UNL     1      -7.167  18.454  66.307  1.00  0.00    -0.256 C  
BRANCH   9  10
HETATM   10  C   UNL     1      -7.753  17.601  67.451  1.00  0.00    -0.200 C  
HETATM   11  N   UNL     1      -8.742  16.725  67.021  1.00  0.00    -0.196 N  
HETATM   12  O   UNL     1      -7.350  17.693  68.608  1.00  0.00    -0.239 OA 
HETATM   13  H   UNL     1      -9.039  16.759  66.047  1.00  0.00     0.000 HD 
BRANCH  11  14
HETATM   14  C   UNL     1      -9.352  15.788  67.890  1.00  0.00    -0.200 A  
HETATM   15  C   UNL     1      -8.582  14.731  68.424  1.00  0.00    -0.166 A  
HETATM   16  C   UNL     1      -7.175  14.412  67.996  1.00  0.00    -0.146 C  
HETATM   17  C   UNL     1      -9.189  13.827  69.315  1.00  0.00     0.568 A  
HETATM   18  C   UNL     1     -10.520  13.972  69.695  1.00  0.00     0.245 A  
HETATM   19  C   UNL     1     -11.271  15.022  69.184  1.00  0.00    -0.293 A  
HETATM   20  C   UNL     1     -10.702  15.946  68.287  1.00  0.00    -0.291 A  
HETATM   21  C   UNL     1     -11.568  17.087  67.822  1.00  0.00     0.618 C  
ENDBRANCH  11  14
ENDBRANCH   9  10
ENDBRANCH   3   4
ENDBRANCH   2   3
TORSDOF 4
ENDMDL
MODEL      264
REMARK 921   NORMALIZED FREE ENERGY PREDICTED BY IDOCK:    2.55 KCAL/MOL
REMARK 922        TOTAL FREE ENERGY PREDICTED BY IDOCK:    2.62 KCAL/MOL
REMARK 923 INTER-LIGAND FREE ENERGY PREDICTED BY IDOCK:   -0.76 KCAL/MOL
REMARK 924 INTRA-LIGAND FREE ENERGY PREDICTED BY IDOCK:    3.38 KCAL/MOL
REMARK 927      BINDING AFFINITY PREDICTED BY RF-SCORE:    0.00 PKD
ROOT
HETATM    1  C   UNL     1      -8.129  16.869  65.259  1.00  0.00     2.355 C  
HETATM    2  C   UNL     1      -8.477  16.852  66.741  1.00  0.00    -0.266 C  
ENDROOT
BRANCH   2   3
HETATM    3  C   UNL     1      -7.662  17.898  67.519  1.00  0.00    -0.211 C  
BRANCH   3   4
HETATM    4  N   UNL     1      -6.294  17.446  67.861  1.00  0.00    -0.151 NA 
HETATM    5  C   UNL     1      -5.316  18.560  67.873  1.00  0.00    -0.165 C  
HETATM    6  C   UNL     1      -5.550  19.583  68.990  1.00  0.00    -0.229 C  
HETATM    7  C   UNL     1      -5.550  18.913  70.358  1.00  0.00    -0.231 C  
HETATM    8  C   UNL     1      -6.482  17.709  70.385  1.00  0.00     0.790 C  
HETATM    9  C   UNL     1      -6.227  16.766  69.197  1.00  0.00    -0.188 C  
BRANCH   9  10
HETATM   10  C   UNL     1      -7.140  15.525  69.277  1.00  0.00    -0.186 C  
HETATM   11  N   UNL     1      -8.428  15.769  68.820  1.00  0.00    -0.183 N  
HETATM   12  O   UNL     1      -6.733  14.440  69.687  1.00  0.00    -0.137 OA 
HETATM   13  H   UNL     1      -8.681  16.718  68.545  1.00  0.00     0.000 HD 
BRANCH  11  14
HETATM   14  C   UNL     1      -9.403  14.747  68.724  1.00  0.00    -0.198 A  
HETATM   15  C   UNL     1      -9.116  13.580  67.981  1.00  0.00    -0.201 A  
HETATM   16  C   UNL     1      -7.894  13.407  67.119  1.00  0.00    -0.035 C  
HETATM   17  C   UNL     1     -10.078  12.554  67.922  1.00  0.00    -0.214 A  
HETATM   18  C   UNL     1     -11.288  12.662  68.599  1.00  0.00    -0.331 A  
HETATM   19  C   UNL     1     -11.563  13.801  69.344  1.00  0.00    -0.365 A  
HETATM   20  C   UNL     1     -10.628  14.851  69.426  1.00  0.00    -0.255 A  
HETATM   21  C   UNL     1     -10.980  16.028  70.298  1.00  0.00    -0.360 C  
ENDBRANCH  11  14
ENDBRANCH   9  10
ENDBRANCH   3   4
ENDBRANCH   2   3
TORSDOF 4
ENDMDL
MODEL      265
REMARK 921   NORMALIZED FREE ENERGY PREDICTED BY IDOCK:    3.62 KCAL/MOL
REMARK 922        TOTAL FREE ENERGY PREDICTED BY IDOCK:    3.94 KCAL/MOL
REMARK 923 INTER-LIGAND FREE ENERGY PREDICTED BY IDOCK:    3.07 KCAL/MOL
REMARK 924 INTRA-LIGAND FREE ENERGY PREDICTED BY IDOCK:    0.88 KCAL/MOL
REMARK 927      BINDING AFFINITY PREDICTED BY RF-SCORE:    0.00 PKD
ROOT
HETATM    1  C   UNL     1      -7.486  19.634  72.262  1.00  0.00     2.741 C  
HETATM    2  C   UNL     1      -7.880  19.744  70.796  1.00  0.00     1.573 C  
ENDROOT
BRANCH   2   3
HETATM    3  C   UNL     1      -7.642  18.420  70.051  1.00  0.00     1.284 C  
BRANCH   3   4
HETATM    4  N   UNL     1      -6.229  18.205  69.665  1.00  0.00    -0.238 NA 
HETATM    5  C   UNL     1      -5.293  18.427  70.792  1.00  0.00    -0.253 C  
HETATM    6  C   UNL     1      -5.423  17.400  71.922  1.00  0.00     0.796 C  
HETATM    7  C   UNL     1      -5.236  15.981  71.399  1.00  0.00    -0.008 C  
HETATM    8  C   UNL     1      -6.118  15.717  70.187  1.00  0.00    -0.114 C  
HETATM    9  C   UNL     1      -5.979  16.825  69.130  1.00  0.00    -0.165 C  
BRANCH   9  10
HETATM   10  C   UNL     1      -6.835  16.507  67.886  1.00  0.00    -0.139 C  
HETATM   11  N   UNL     1      -8.171  16.281  68.191  1.00  0.00    -0.160 N  
HETATM   12  O   UNL     1      -6.359  16.486  66.753  1.00  0.00    -0.245 OA 
HETATM   13  H   UNL     1      -8.458  16.275  69.170  1.00  0.00     0.000 HD 
BRANCH  11  14
HETATM   14  C   UNL     1      -9.148  16.059  67.191  1.00  0.00    -0.208 A  
HETATM   15  C   UNL     1      -9.509  14.736  66.852  1.00  0.00    -0.253 A  
HETATM   16  C   UNL     1      -8.795  13.511  67.358  1.00  0.00    -0.221 C  
HETATM   17  C   UNL     1     -10.508  14.527  65.884  1.00  0.00    -0.322 A  
HETATM   18  C   UNL     1     -11.158  15.597  65.276  1.00  0.00    -0.310 A  
HETATM   19  C   UNL     1     -10.816  16.898  65.623  1.00  0.00    -0.082 A  
HETATM   20  C   UNL     1      -9.820  17.149  66.585  1.00  0.00    -0.295 A  
HETATM   21  C   UNL     1      -9.546  18.586  66.944  1.00  0.00    -0.314 C  
ENDBRANCH  11  14
ENDBRANCH   9  10
ENDBRANCH   3   4
ENDBRANCH   2   3
TORSDOF 4
ENDMDL
MODEL      266
REMARK 921   NORMALIZED FREE ENERGY PREDICTED BY IDOCK:    3.67 KCAL/MOL
REMARK 922        TOTAL FREE ENERGY PREDICTED BY IDOCK:    3.99 KCAL/MOL
REMARK 923 INTER-LIGAND FREE ENERGY PREDICTED BY IDOCK:    2.90 KCAL/MOL
REMARK 924 INTRA-LIGAND FREE ENERGY PREDICTED BY IDOCK:    1.09 KCAL/MOL
REMARK 927      BINDING AFFINITY PREDICTED BY RF-SCORE:    0.00 PKD
ROOT
HETATM    1  C   UNL     1      -6.735  16.983  65.482  1.00  0.00     1.312 C  
HETATM    2  C   UNL     1      -8.065  16.549  66.082  1.00  0.00    -0.242 C  
ENDROOT
BRANCH   2   3
HETATM    3  C   UNL     1      -8.702  17.680  66.906  1.00  0.00    -0.246 C  
BRANCH   3   4
HETATM    4  N   UNL     1      -8.649  17.449  68.367  1.00  0.00    -0.264 NA 
HETATM    5  C   UNL     1      -8.494  18.708  69.135  1.00  0.00     0.051 C  
HETATM    6  C   UNL     1      -9.707  19.642  69.053  1.00  0.00    -0.428 C  
HETATM    7  C   UNL     1     -10.975  18.936  69.515  1.00  0.00     1.963 C  
HETATM    8  C   UNL     1     -11.150  17.595  68.816  1.00  0.00     0.459 C  
HETATM    9  C   UNL     1      -9.869  16.746  68.886  1.00  0.00    -0.264 C  
BRANCH   9  10
HETATM   10  C   UNL     1     -10.087  15.369  68.225  1.00  0.00    -0.218 C  
HETATM   11  N   UNL     1     -11.386  15.186  67.770  1.00  0.00    -0.324 N  
HETATM   12  O   UNL     1      -9.178  14.550  68.107  1.00  0.00    -0.183 OA 
HETATM   13  H   UNL     1     -12.080  15.909  67.959  1.00  0.00     0.000 HD 
BRANCH  11  14
HETATM   14  C   UNL     1     -11.781  14.030  67.054  1.00  0.00    -0.398 A  
HETATM   15  C   UNL     1     -11.628  12.757  67.648  1.00  0.00    -0.412 A  
HETATM   16  C   UNL     1     -10.901  12.513  68.943  1.00  0.00    -0.238 C  
HETATM   17  C   UNL     1     -12.058  11.618  66.943  1.00  0.00     0.529 A  
HETATM   18  C   UNL     1     -12.650  11.729  65.689  1.00  0.00     1.680 A  
HETATM   19  C   UNL     1     -12.816  12.981  65.112  1.00  0.00    -0.335 A  
HETATM   20  C   UNL     1     -12.397  14.145  65.784  1.00  0.00    -0.481 A  
HETATM   21  C   UNL     1     -12.663  15.468  65.115  1.00  0.00     0.939 C  
ENDBRANCH  11  14
ENDBRANCH   9  10
ENDBRANCH   3   4
ENDBRANCH   2   3
TORSDOF 4
ENDMDL
MODEL      267
REMARK 921   NORMALIZED FREE ENERGY PREDICTED BY IDOCK:    3.73 KCAL/MOL
REMARK 922        TOTAL FREE ENERGY PREDICTED BY IDOCK:    4.07 KCAL/MOL
REMARK 923 INTER-LIGAND FREE ENERGY PREDICTED BY IDOCK:    0.52 KCAL/MOL
REMARK 924 INTRA-LIGAND FREE ENERGY PREDICTED BY IDOCK:    3.55 KCAL/MOL
REMARK 927      BINDING AFFINITY PREDICTED BY RF-SCORE:    0.00 PKD
ROOT
HETATM    1  C   UNL     1      -6.846  16.863  65.483  1.00  0.00     1.600 C  
HETATM    2  C   UNL     1      -8.130  16.456  66.190  1.00  0.00    -0.193 C  
ENDROOT
BRANCH   2   3
HETATM    3  C   UNL     1      -8.781  17.654  66.900  1.00  0.00    -0.246 C  
BRANCH   3   4
HETATM    4  N   UNL     1      -8.636  17.617  68.374  1.00  0.00    -0.278 NA 
HETATM    5  C   UNL     1      -9.585  18.526  69.059  1.00  0.00    -0.199 C  
HETATM    6  C   UNL     1     -11.055  18.113  68.922  1.00  0.00     1.069 C  
HETATM    7  C   UNL     1     -11.276  16.694  69.432  1.00  0.00    -0.085 C  
HETATM    8  C   UNL     1     -10.276  15.723  68.820  1.00  0.00    -0.217 C  
HETATM    9  C   UNL     1      -8.833  16.241  68.940  1.00  0.00    -0.253 C  
BRANCH   9  10
HETATM   10  C   UNL     1      -7.833  15.215  68.368  1.00  0.00    -0.127 C  
HETATM   11  N   UNL     1      -8.417  13.987  68.089  1.00  0.00    -0.164 N  
HETATM   12  O   UNL     1      -6.652  15.494  68.170  1.00  0.00    -0.112 OA 
HETATM   13  H   UNL     1      -9.396  13.841  68.334  1.00  0.00     0.000 HD 
BRANCH  11  14
HETATM   14  C   UNL     1      -7.701  12.930  67.475  1.00  0.00    -0.174 A  
HETATM   15  C   UNL     1      -6.483  12.494  68.043  1.00  0.00    -0.087 A  
HETATM   16  C   UNL     1      -5.781  13.196  69.175  1.00  0.00    -0.076 C  
HETATM   17  C   UNL     1      -5.798  11.420  67.448  1.00  0.00    -0.072 A  
HETATM   18  C   UNL     1      -6.311  10.769  66.330  1.00  0.00    -0.129 A  
HETATM   19  C   UNL     1      -7.518  11.186  65.783  1.00  0.00     0.165 A  
HETATM   20  C   UNL     1      -8.232  12.259  66.348  1.00  0.00     0.218 A  
HETATM   21  C   UNL     1      -9.558  12.614  65.728  1.00  0.00    -0.117 C  
ENDBRANCH  11  14
ENDBRANCH   9  10
ENDBRANCH   3   4
ENDBRANCH   2   3
TORSDOF 4
ENDMDL
MODEL      268
REMARK 921   NORMALIZED FREE ENERGY PREDICTED BY IDOCK:    5.31 KCAL/MOL
REMARK 922        TOTAL FREE ENERGY PREDICTED BY IDOCK:    6.02 KCAL/MOL
REMARK 923 INTER-LIGAND FREE ENERGY PREDICTED BY IDOCK:   -4.11 KCAL/MOL
REMARK 924 INTRA-LIGAND FREE ENERGY PREDICTED BY IDOCK:   10.14 KCAL/MOL
REMARK 927      BINDING AFFINITY PREDICTED BY RF-SCORE:    0.00 PKD
ROOT
HETATM    1  C   UNL     1      -8.247  14.824  67.290  1.00  0.00    -0.237 C  
HETATM    2  C   UNL     1      -7.619  15.386  68.557  1.00  0.00    -0.122 C  
ENDROOT
BRANCH   2   3
HETATM    3  C   UNL     1      -8.692  15.854  69.553  1.00  0.00    -0.105 C  
BRANCH   3   4
HETATM    4  N   UNL     1      -9.600  16.886  69.003  1.00  0.00    -0.247 NA 
HETATM    5  C   UNL     1      -8.867  18.053  68.457  1.00  0.00    -0.295 C  
HETATM    6  C   UNL     1      -8.029  17.737  67.212  1.00  0.00    -0.223 C  
HETATM    7  C   UNL     1      -8.891  17.137  66.109  1.00  0.00    -0.220 C  
HETATM    8  C   UNL     1      -9.730  15.978  66.628  1.00  0.00    -0.261 C  
HETATM    9  C   UNL     1     -10.486  16.355  67.914  1.00  0.00    -0.307 C  
BRANCH   9  10
HETATM   10  C   UNL     1     -11.375  15.187  68.389  1.00  0.00    -0.315 C  
HETATM   11  N   UNL     1     -11.106  14.797  69.694  1.00  0.00    -0.268 N  
HETATM   12  O   UNL     1     -12.239  14.689  67.670  1.00  0.00    -0.268 OA 
HETATM   13  H   UNL     1     -10.335  15.243  70.191  1.00  0.00     0.000 HD 
BRANCH  11  14
HETATM   14  C   UNL     1     -11.864  13.803  70.359  1.00  0.00    -0.253 A  
HETATM   15  C   UNL     1     -12.256  12.642  69.657  1.00  0.00    -0.177 A  
HETATM   16  C   UNL     1     -12.078  12.451  68.174  1.00  0.00    -0.100 C  
HETATM   17  C   UNL     1     -12.977  11.643  70.336  1.00  0.00     0.167 A  
HETATM   18  C   UNL     1     -13.287  11.772  71.687  1.00  0.00    -0.242 A  
HETATM   19  C   UNL     1     -12.885  12.905  72.382  1.00  0.00    -0.075 A  
HETATM   20  C   UNL     1     -12.164  13.928  71.737  1.00  0.00    -0.090 A  
HETATM   21  C   UNL     1     -11.719  15.098  72.574  1.00  0.00    -0.475 C  
ENDBRANCH  11  14
ENDBRANCH   9  10
ENDBRANCH   3   4
ENDBRANCH   2   3
TORSDOF 4
ENDMDL
MODEL      269
REMARK 921   NORMALIZED FREE ENERGY PREDICTED BY IDOCK:    7.06 KCAL/MOL
REMARK 922        TOTAL FREE ENERGY PREDICTED BY IDOCK:    8.18 KCAL/MOL
REMARK 923 INTER-LIGAND FREE ENERGY PREDICTED BY IDOCK:    4.73 KCAL/MOL
REMARK 924 INTRA-LIGAND FREE ENERGY PREDICTED BY IDOCK:    3.45 KCAL/MOL
REMARK 927      BINDING AFFINITY PREDICTED BY RF-SCORE:    0.00 PKD
ROOT
HETATM    1  C   UNL     1      -7.306  19.272  72.749  1.00  0.00     4.172 C  
HETATM    2  C   UNL     1      -7.605  20.407  71.781  1.00  0.00     1.772 C  
ENDROOT
BRANCH   2   3
HETATM    3  C   UNL     1      -7.523  19.933  70.321  1.00  0.00     0.631 C  
BRANCH   3   4
HETATM    4  N   UNL     1      -6.140  19.667  69.863  1.00  0.00    -0.292 NA 
HETATM    5  C   UNL     1      -5.173  19.605  70.985  1.00  0.00    -0.255 C  
HETATM    6  C   UNL     1      -5.382  18.411  71.923  1.00  0.00     0.183 C  
HETATM    7  C   UNL     1      -5.332  17.096  71.157  1.00  0.00    -0.013 C  
HETATM    8  C   UNL     1      -6.249  17.126  69.943  1.00  0.00    -0.128 C  
HETATM    9  C   UNL     1      -6.023  18.386  69.090  1.00  0.00    -0.228 C  
BRANCH   9  10
HETATM   10  C   UNL     1      -6.920  18.366  67.835  1.00  0.00    -0.215 C  
HETATM   11  N   UNL     1      -8.271  18.479  68.133  1.00  0.00    -0.286 N  
HETATM   12  O   UNL     1      -6.454  18.282  66.700  1.00  0.00    -0.173 OA 
HETATM   13  H   UNL     1      -8.560  18.496  69.111  1.00  0.00     0.000 HD 
BRANCH  11  14
HETATM   14  C   UNL     1      -9.263  18.571  67.126  1.00  0.00    -0.277 A  
HETATM   15  C   UNL     1      -9.688  19.843  66.683  1.00  0.00    -0.542 A  
HETATM   16  C   UNL     1      -9.287  21.140  67.332  1.00  0.00    -0.085 C  
HETATM   17  C   UNL     1     -10.646  19.923  65.656  1.00  0.00    -0.431 A  
HETATM   18  C   UNL     1     -11.161  18.776  65.059  1.00  0.00     1.514 A  
HETATM   19  C   UNL     1     -10.730  17.526  65.483  1.00  0.00    -0.065 A  
HETATM   20  C   UNL     1      -9.774  17.403  66.510  1.00  0.00    -0.302 A  
HETATM   21  C   UNL     1      -9.320  16.014  66.873  1.00  0.00    -0.246 C  
ENDBRANCH  11  14
ENDBRANCH   9  10
ENDBRANCH   3   4
ENDBRANCH   2   3
TORSDOF 4
ENDMDL
MODEL      270
REMARK 921   NORMALIZED FREE ENERGY PREDICTED BY IDOCK:    8.35 KCAL/MOL
REMARK 922        TOTAL FREE ENERGY PREDICTED BY IDOCK:    9.77 KCAL/MOL
REMARK 923 INTER-LIGAND FREE ENERGY PREDICTED BY IDOCK:   -5.40 KCAL/MOL
REMARK 924 INTRA-LIGAND FREE ENERGY PREDICTED BY IDOCK:   15.17 KCAL/MOL
REMARK 927      BINDING AFFINITY PREDICTED BY RF-SCORE:    0.00 PKD
ROOT
HETATM    1  C   UNL     1      -8.613  15.336  67.080  1.00  0.00    -0.256 C  
HETATM    2  C   UNL     1      -8.408  15.226  68.584  1.00  0.00    -0.162 C  
ENDROOT
BRANCH   2   3
HETATM    3  C   UNL     1      -9.405  16.110  69.351  1.00  0.00    -0.186 C  
BRANCH   3   4
HETATM    4  N   UNL     1     -10.252  16.945  68.470  1.00  0.00    -0.290 NA 
HETATM    5  C   UNL     1      -9.696  18.304  68.271  1.00  0.00    -0.335 C  
HETATM    6  C   UNL     1      -8.380  18.332  67.485  1.00  0.00    -0.247 C  
HETATM    7  C   UNL     1      -8.538  17.661  66.126  1.00  0.00    -0.154 C  
HETATM    8  C   UNL     1      -9.179  16.286  66.258  1.00  0.00    -0.363 C  
HETATM    9  C   UNL     1     -10.456  16.333  67.114  1.00  0.00    -0.297 C  
BRANCH   9  10
HETATM   10  C   UNL     1     -11.120  14.943  67.185  1.00  0.00    -0.332 C  
HETATM   11  N   UNL     1     -10.400  14.037  67.952  1.00  0.00    -0.236 N  
HETATM   12  O   UNL     1     -12.188  14.699  66.627  1.00  0.00    -0.317 OA 
HETATM   13  H   UNL     1      -9.500  14.323  68.335  1.00  0.00     0.000 HD 
BRANCH  11  14
HETATM   14  C   UNL     1     -10.874  12.729  68.222  1.00  0.00    -0.248 A  
HETATM   15  C   UNL     1     -10.546  11.675  67.340  1.00  0.00    -0.257 A  
HETATM   16  C   UNL     1      -9.863  11.867  66.012  1.00  0.00    -0.258 C  
HETATM   17  C   UNL     1     -10.990  10.374  67.637  1.00  0.00    -0.374 A  
HETATM   18  C   UNL     1     -11.721  10.108  68.791  1.00  0.00     0.075 A  
HETATM   19  C   UNL     1     -12.028  11.141  69.666  1.00  0.00    -0.429 A  
HETATM   20  C   UNL     1     -11.604  12.457  69.403  1.00  0.00    -0.371 A  
HETATM   21  C   UNL     1     -11.931  13.510  70.430  1.00  0.00    -0.367 C  
ENDBRANCH  11  14
ENDBRANCH   9  10
ENDBRANCH   3   4
ENDBRANCH   2   3
TORSDOF 4
ENDMDL
MODEL      271
REMARK 921   NORMALIZED FREE ENERGY PREDICTED BY IDOCK:   19.24 KCAL/MOL
REMARK 922        TOTAL FREE ENERGY PREDICTED BY IDOCK:   23.21 KCAL/MOL
REMARK 923 INTER-LIGAND FREE ENERGY PREDICTED BY IDOCK:    9.20 KCAL/MOL
REMARK 924 INTRA-LIGAND FREE ENERGY PREDICTED BY IDOCK:   14.02 KCAL/MOL
REMARK 927      BINDING AFFINITY PREDICTED BY RF-SCORE:    0.00 PKD
ROOT
HETATM    1  C   UNL     1      -9.766  19.576  69.122  1.00  0.00    -0.401 C  
HETATM    2  C   UNL     1      -8.754  20.237  68.197  1.00  0.00    -0.077 C  
ENDROOT
BRANCH   2   3
HETATM    3  C   UNL     1      -9.437  20.826  66.952  1.00  0.00    -0.173 C  
BRANCH   3   4
HETATM    4  N   UNL     1      -9.908  19.799  65.995  1.00  0.00    -0.423 NA 
HETATM    5  C   UNL     1      -9.760  20.228  64.584  1.00  0.00     2.575 C  
HETATM    6  C   UNL     1      -8.304  20.376  64.127  1.00  0.00     3.373 C  
HETATM    7  C   UNL     1      -7.530  19.079  64.332  1.00  0.00     3.154 C  
HETATM    8  C   UNL     1      -7.707  18.546  65.746  1.00  0.00    -0.015 C  
HETATM    9  C   UNL     1      -9.190  18.491  66.152  1.00  0.00    -0.126 C  
BRANCH   9  10
HETATM   10  C   UNL     1      -9.350  17.891  67.564  1.00  0.00    -0.253 C  
HETATM   11  N   UNL     1     -10.662  17.548  67.862  1.00  0.00    -0.380 N  
HETATM   12  O   UNL     1      -8.392  17.726  68.317  1.00  0.00    -0.259 OA 
HETATM   13  H   UNL     1     -11.394  17.769  67.186  1.00  0.00     0.000 HD 
BRANCH  11  14
HETATM   14  C   UNL     1     -11.020  16.901  69.070  1.00  0.00    -0.179 A  
HETATM   15  C   UNL     1     -11.683  15.655  69.021  1.00  0.00    -0.408 A  
HETATM   16  C   UNL     1     -12.207  15.026  67.757  1.00  0.00     0.180 C  
HETATM   17  C   UNL     1     -12.002  15.003  70.226  1.00  0.00    -0.362 A  
HETATM   18  C   UNL     1     -11.654  15.553  71.456  1.00  0.00    -0.487 A  
HETATM   19  C   UNL     1     -10.986  16.770  71.503  1.00  0.00     0.932 A  
HETATM   20  C   UNL     1     -10.652  17.455  70.319  1.00  0.00     0.841 A  
HETATM   21  C   UNL     1      -9.881  18.741  70.455  1.00  0.00     1.685 C  
ENDBRANCH  11  14
ENDBRANCH   9  10
ENDBRANCH   3   4
ENDBRANCH   2   3
TORSDOF 4
ENDMDL
