MODEL        1
REMARK 921   NORMALIZED FREE ENERGY PREDICTED BY IDOCK:   -5.80 KCAL/MOL
REMARK 922        TOTAL FREE ENERGY PREDICTED BY IDOCK:   -9.05 KCAL/MOL
REMARK 923 INTER-LIGAND FREE ENERGY PREDICTED BY IDOCK:   -8.17 KCAL/MOL
REMARK 924 INTRA-LIGAND FREE ENERGY PREDICTED BY IDOCK:   -0.88 KCAL/MOL
REMARK 927      BINDING AFFINITY PREDICTED BY RF-SCORE:    0.00 PKD
ROOT
HETATM    1  C   UNL     1     -12.516  12.063  63.451  1.00  0.00    -0.625 C  
HETATM    2  C   UNL     1     -11.892  13.267  64.137  1.00  0.00    -0.497 C  
ENDROOT
BRANCH   2   3
HETATM    3  C   UNL     1     -12.608  13.692  65.428  1.00  0.00    -0.491 C  
BRANCH   3   4
HETATM    4  N   UNL     1     -11.969  13.333  66.715  1.00  0.00    -0.390 NA 
BRANCH   4   5
HETATM    5  C   UNL     1     -10.645  12.708  66.497  1.00  0.00    -0.253 C  
BRANCH   5   6
HETATM    6  C   UNL     1     -10.533  11.215  66.857  1.00  0.00    -0.289 C  
HETATM    7  C   UNL     1      -9.992  10.356  65.724  1.00  0.00    -0.334 C  
ENDBRANCH   5   6
ENDBRANCH   4   5
BRANCH   4   8
HETATM    8  C   UNL     1     -11.845  14.542  67.570  1.00  0.00    -0.374 C  
BRANCH   8   9
HETATM    9  C   UNL     1     -11.145  14.356  68.936  1.00  0.00    -0.277 C  
BRANCH   9  10
HETATM   10  C   UNL     1     -12.079  14.217  70.112  1.00  0.00    -0.411 A  
HETATM   11  C   UNL     1     -12.402  12.983  70.666  1.00  0.00    -0.391 A  
HETATM   12  C   UNL     1     -11.957  11.597  70.290  1.00  0.00    -0.445 C  
HETATM   13  C   UNL     1     -12.684  10.724  71.316  1.00  0.00    -0.441 C  
HETATM   14  N   UNL     1     -13.431  11.569  72.126  1.00  0.00    -0.523 N  
HETATM   15  O   UNL     1     -12.627   9.509  71.410  1.00  0.00    -0.320 OA 
HETATM   16  H   UNL     1     -14.019  11.254  72.898  1.00  0.00     0.000 HD 
HETATM   17  C   UNL     1     -13.277  12.894  71.751  1.00  0.00    -0.384 A  
HETATM   18  C   UNL     1     -13.868  13.994  72.330  1.00  0.00    -0.653 A  
HETATM   19  C   UNL     1     -13.565  15.239  71.782  1.00  0.00    -0.581 A  
HETATM   20  C   UNL     1     -12.687  15.349  70.686  1.00  0.00    -0.490 A  
ENDBRANCH   9  10
ENDBRANCH   8   9
ENDBRANCH   4   8
ENDBRANCH   3   4
ENDBRANCH   2   3
TORSDOF 7
ENDMDL
MODEL        2
REMARK 921   NORMALIZED FREE ENERGY PREDICTED BY IDOCK:   -5.72 KCAL/MOL
REMARK 922        TOTAL FREE ENERGY PREDICTED BY IDOCK:   -8.94 KCAL/MOL
REMARK 923 INTER-LIGAND FREE ENERGY PREDICTED BY IDOCK:   -8.09 KCAL/MOL
REMARK 924 INTRA-LIGAND FREE ENERGY PREDICTED BY IDOCK:   -0.85 KCAL/MOL
REMARK 927      BINDING AFFINITY PREDICTED BY RF-SCORE:    0.00 PKD
ROOT
HETATM    1  C   UNL     1      -9.310  11.430  67.719  1.00  0.00    -0.162 C  
HETATM    2  C   UNL     1     -10.412  11.318  66.678  1.00  0.00    -0.292 C  
ENDROOT
BRANCH   2   3
HETATM    3  C   UNL     1     -11.617  12.234  66.942  1.00  0.00    -0.361 C  
BRANCH   3   4
HETATM    4  N   UNL     1     -11.547  13.622  66.434  1.00  0.00    -0.335 NA 
BRANCH   4   5
HETATM    5  C   UNL     1     -12.486  13.826  65.309  1.00  0.00    -0.480 C  
BRANCH   5   6
HETATM    6  C   UNL     1     -11.982  13.397  63.919  1.00  0.00    -0.520 C  
HETATM    7  C   UNL     1     -12.589  12.091  63.429  1.00  0.00    -0.592 C  
ENDBRANCH   5   6
ENDBRANCH   4   5
BRANCH   4   8
HETATM    8  C   UNL     1     -11.832  14.577  67.537  1.00  0.00    -0.374 C  
BRANCH   8   9
HETATM    9  C   UNL     1     -11.128  14.307  68.887  1.00  0.00    -0.283 C  
BRANCH   9  10
HETATM   10  C   UNL     1     -12.044  14.283  70.084  1.00  0.00    -0.403 A  
HETATM   11  C   UNL     1     -12.400  13.103  70.727  1.00  0.00    -0.404 A  
HETATM   12  C   UNL     1     -12.011  11.679  70.442  1.00  0.00    -0.448 C  
HETATM   13  C   UNL     1     -12.749  10.906  71.537  1.00  0.00    -0.428 C  
HETATM   14  N   UNL     1     -13.451  11.831  72.298  1.00  0.00    -0.547 N  
HETATM   15  O   UNL     1     -12.733   9.699  71.715  1.00  0.00    -0.361 OA 
HETATM   16  H   UNL     1     -14.035  11.591  73.100  1.00  0.00     0.000 HD 
HETATM   17  C   UNL     1     -13.258  13.121  71.830  1.00  0.00    -0.403 A  
HETATM   18  C   UNL     1     -13.798  14.279  72.341  1.00  0.00    -0.619 A  
HETATM   19  C   UNL     1     -13.462  15.471  71.702  1.00  0.00    -0.584 A  
HETATM   20  C   UNL     1     -12.602  15.474  70.588  1.00  0.00    -0.493 A  
ENDBRANCH   9  10
ENDBRANCH   8   9
ENDBRANCH   4   8
ENDBRANCH   3   4
ENDBRANCH   2   3
TORSDOF 7
ENDMDL
MODEL        3
REMARK 921   NORMALIZED FREE ENERGY PREDICTED BY IDOCK:   -5.67 KCAL/MOL
REMARK 922        TOTAL FREE ENERGY PREDICTED BY IDOCK:   -8.87 KCAL/MOL
REMARK 923 INTER-LIGAND FREE ENERGY PREDICTED BY IDOCK:   -8.05 KCAL/MOL
REMARK 924 INTRA-LIGAND FREE ENERGY PREDICTED BY IDOCK:   -0.82 KCAL/MOL
REMARK 927      BINDING AFFINITY PREDICTED BY RF-SCORE:    0.00 PKD
ROOT
HETATM    1  C   UNL     1     -10.755  17.254  67.688  1.00  0.00    -0.307 C  
HETATM    2  C   UNL     1      -9.800  16.529  66.753  1.00  0.00    -0.274 C  
ENDROOT
BRANCH   2   3
HETATM    3  C   UNL     1     -10.157  15.053  66.517  1.00  0.00    -0.276 C  
BRANCH   3   4
HETATM    4  N   UNL     1     -11.592  14.694  66.478  1.00  0.00    -0.362 NA 
BRANCH   4   5
HETATM    5  C   UNL     1     -12.009  14.313  65.111  1.00  0.00    -0.395 C  
BRANCH   5   6
HETATM    6  C   UNL     1     -12.485  12.859  64.928  1.00  0.00    -0.540 C  
HETATM    7  C   UNL     1     -12.315  12.338  63.508  1.00  0.00    -0.670 C  
ENDBRANCH   5   6
ENDBRANCH   4   5
BRANCH   4   8
HETATM    8  C   UNL     1     -11.861  13.590  67.436  1.00  0.00    -0.384 C  
BRANCH   8   9
HETATM    9  C   UNL     1     -11.113  13.647  68.788  1.00  0.00    -0.302 C  
BRANCH   9  10
HETATM   10  C   UNL     1     -11.999  13.821  69.995  1.00  0.00    -0.407 A  
HETATM   11  C   UNL     1     -12.459  12.743  70.744  1.00  0.00    -0.357 A  
HETATM   12  C   UNL     1     -12.222  11.267  70.579  1.00  0.00    -0.474 C  
HETATM   13  C   UNL     1     -13.010  10.671  71.748  1.00  0.00    -0.472 C  
HETATM   14  N   UNL     1     -13.598  11.725  72.434  1.00  0.00    -0.449 N  
HETATM   15  O   UNL     1     -13.113   9.488  72.030  1.00  0.00    -0.381 OA 
HETATM   16  H   UNL     1     -14.186  11.616  73.261  1.00  0.00     0.000 HD 
HETATM   17  C   UNL     1     -13.286  12.943  71.852  1.00  0.00    -0.423 A  
HETATM   18  C   UNL     1     -13.695  14.190  72.267  1.00  0.00    -0.623 A  
HETATM   19  C   UNL     1     -13.254  15.282  71.522  1.00  0.00    -0.542 A  
HETATM   20  C   UNL     1     -12.423  15.101  70.400  1.00  0.00    -0.416 A  
ENDBRANCH   9  10
ENDBRANCH   8   9
ENDBRANCH   4   8
ENDBRANCH   3   4
ENDBRANCH   2   3
TORSDOF 7
ENDMDL
MODEL        4
REMARK 921   NORMALIZED FREE ENERGY PREDICTED BY IDOCK:   -5.66 KCAL/MOL
REMARK 922        TOTAL FREE ENERGY PREDICTED BY IDOCK:   -8.86 KCAL/MOL
REMARK 923 INTER-LIGAND FREE ENERGY PREDICTED BY IDOCK:   -7.84 KCAL/MOL
REMARK 924 INTRA-LIGAND FREE ENERGY PREDICTED BY IDOCK:   -1.01 KCAL/MOL
REMARK 927      BINDING AFFINITY PREDICTED BY RF-SCORE:    0.00 PKD
ROOT
HETATM    1  C   UNL     1     -12.615  11.943  63.619  1.00  0.00    -0.555 C  
HETATM    2  C   UNL     1     -12.014  13.336  63.510  1.00  0.00    -0.537 C  
ENDROOT
BRANCH   2   3
HETATM    3  C   UNL     1     -11.944  14.092  64.846  1.00  0.00    -0.417 C  
BRANCH   3   4
HETATM    4  N   UNL     1     -11.489  13.339  66.035  1.00  0.00    -0.319 NA 
BRANCH   4   5
HETATM    5  C   UNL     1     -10.016  13.200  66.048  1.00  0.00    -0.280 C  
BRANCH   5   6
HETATM    6  C   UNL     1      -9.471  11.760  66.056  1.00  0.00    -0.245 C  
HETATM    7  C   UNL     1     -10.534  10.709  66.339  1.00  0.00    -0.276 C  
ENDBRANCH   5   6
ENDBRANCH   4   5
BRANCH   4   8
HETATM    8  C   UNL     1     -11.963  14.015  67.271  1.00  0.00    -0.413 C  
BRANCH   8   9
HETATM    9  C   UNL     1     -11.103  13.822  68.541  1.00  0.00    -0.292 C  
BRANCH   9  10
HETATM   10  C   UNL     1     -11.750  12.998  69.625  1.00  0.00    -0.364 A  
HETATM   11  C   UNL     1     -12.509  13.567  70.642  1.00  0.00    -0.405 A  
HETATM   12  C   UNL     1     -12.863  15.004  70.910  1.00  0.00    -0.451 C  
HETATM   13  C   UNL     1     -13.725  14.905  72.170  1.00  0.00    -0.444 C  
HETATM   14  N   UNL     1     -13.799  13.563  72.520  1.00  0.00    -0.575 N  
HETATM   15  O   UNL     1     -14.251  15.830  72.768  1.00  0.00    -0.539 OA 
HETATM   16  H   UNL     1     -14.312  13.207  73.326  1.00  0.00     0.000 HD 
HETATM   17  C   UNL     1     -13.086  12.771  71.634  1.00  0.00    -0.331 A  
HETATM   18  C   UNL     1     -12.943  11.403  71.674  1.00  0.00    -0.523 A  
HETATM   19  C   UNL     1     -12.176  10.815  70.671  1.00  0.00    -0.474 A  
HETATM   20  C   UNL     1     -11.583  11.601  69.664  1.00  0.00    -0.401 A  
ENDBRANCH   9  10
ENDBRANCH   8   9
ENDBRANCH   4   8
ENDBRANCH   3   4
ENDBRANCH   2   3
TORSDOF 7
ENDMDL
MODEL        5
REMARK 921   NORMALIZED FREE ENERGY PREDICTED BY IDOCK:   -5.66 KCAL/MOL
REMARK 922        TOTAL FREE ENERGY PREDICTED BY IDOCK:   -8.85 KCAL/MOL
REMARK 923 INTER-LIGAND FREE ENERGY PREDICTED BY IDOCK:   -8.35 KCAL/MOL
REMARK 924 INTRA-LIGAND FREE ENERGY PREDICTED BY IDOCK:   -0.50 KCAL/MOL
REMARK 927      BINDING AFFINITY PREDICTED BY RF-SCORE:    0.00 PKD
ROOT
HETATM    1  C   UNL     1     -12.187  12.625  63.348  1.00  0.00    -0.610 C  
HETATM    2  C   UNL     1     -12.374  12.536  64.854  1.00  0.00    -0.539 C  
ENDROOT
BRANCH   2   3
HETATM    3  C   UNL     1     -12.547  13.898  65.544  1.00  0.00    -0.526 C  
BRANCH   3   4
HETATM    4  N   UNL     1     -11.356  14.494  66.189  1.00  0.00    -0.344 NA 
BRANCH   4   5
HETATM    5  C   UNL     1     -10.849  15.647  65.411  1.00  0.00    -0.381 C  
BRANCH   5   6
HETATM    6  C   UNL     1      -9.867  16.580  66.145  1.00  0.00    -0.355 C  
HETATM    7  C   UNL     1     -10.336  18.025  66.210  1.00  0.00    -0.384 C  
ENDBRANCH   5   6
ENDBRANCH   4   5
BRANCH   4   8
HETATM    8  C   UNL     1     -11.688  14.904  67.578  1.00  0.00    -0.308 C  
BRANCH   8   9
HETATM    9  C   UNL     1     -11.283  13.926  68.705  1.00  0.00    -0.302 C  
BRANCH   9  10
HETATM   10  C   UNL     1     -12.107  14.033  69.963  1.00  0.00    -0.412 A  
HETATM   11  C   UNL     1     -12.499  12.918  70.696  1.00  0.00    -0.333 A  
HETATM   12  C   UNL     1     -12.235  11.456  70.466  1.00  0.00    -0.478 C  
HETATM   13  C   UNL     1     -12.944  10.799  71.652  1.00  0.00    -0.476 C  
HETATM   14  N   UNL     1     -13.520  11.812  72.406  1.00  0.00    -0.486 N  
HETATM   15  O   UNL     1     -13.002   9.605  71.896  1.00  0.00    -0.375 OA 
HETATM   16  H   UNL     1     -14.059  11.659  73.259  1.00  0.00     0.000 HD 
HETATM   17  C   UNL     1     -13.270  13.058  71.853  1.00  0.00    -0.430 A  
HETATM   18  C   UNL     1     -13.686  14.278  72.333  1.00  0.00    -0.616 A  
HETATM   19  C   UNL     1     -13.314  15.407  71.606  1.00  0.00    -0.578 A  
HETATM   20  C   UNL     1     -12.540  15.287  70.436  1.00  0.00    -0.421 A  
ENDBRANCH   9  10
ENDBRANCH   8   9
ENDBRANCH   4   8
ENDBRANCH   3   4
ENDBRANCH   2   3
TORSDOF 7
ENDMDL
MODEL        6
REMARK 921   NORMALIZED FREE ENERGY PREDICTED BY IDOCK:   -5.59 KCAL/MOL
REMARK 922        TOTAL FREE ENERGY PREDICTED BY IDOCK:   -8.76 KCAL/MOL
REMARK 923 INTER-LIGAND FREE ENERGY PREDICTED BY IDOCK:   -8.21 KCAL/MOL
REMARK 924 INTRA-LIGAND FREE ENERGY PREDICTED BY IDOCK:   -0.55 KCAL/MOL
REMARK 927      BINDING AFFINITY PREDICTED BY RF-SCORE:    0.00 PKD
ROOT
HETATM    1  C   UNL     1     -12.136  14.396  64.554  1.00  0.00    -0.498 C  
HETATM    2  C   UNL     1     -10.926  15.245  64.911  1.00  0.00    -0.445 C  
ENDROOT
BRANCH   2   3
HETATM    3  C   UNL     1     -10.283  14.880  66.258  1.00  0.00    -0.294 C  
BRANCH   3   4
HETATM    4  N   UNL     1     -10.092  15.969  67.242  1.00  0.00    -0.260 NA 
BRANCH   4   5
HETATM    5  C   UNL     1     -10.228  17.296  66.602  1.00  0.00    -0.319 C  
BRANCH   5   6
HETATM    6  C   UNL     1     -10.309  18.504  67.556  1.00  0.00    -0.440 C  
HETATM    7  C   UNL     1     -10.514  19.830  66.841  1.00  0.00    -0.596 C  
ENDBRANCH   5   6
ENDBRANCH   4   5
BRANCH   4   8
HETATM    8  C   UNL     1     -11.067  15.819  68.354  1.00  0.00    -0.341 C  
BRANCH   8   9
HETATM    9  C   UNL     1     -11.288  14.388  68.894  1.00  0.00    -0.300 C  
BRANCH   9  10
HETATM   10  C   UNL     1     -12.140  14.304  70.136  1.00  0.00    -0.403 A  
HETATM   11  C   UNL     1     -12.453  13.095  70.745  1.00  0.00    -0.389 A  
HETATM   12  C   UNL     1     -12.069  11.687  70.379  1.00  0.00    -0.462 C  
HETATM   13  C   UNL     1     -12.743  10.862  71.476  1.00  0.00    -0.428 C  
HETATM   14  N   UNL     1     -13.411  11.746  72.312  1.00  0.00    -0.547 N  
HETATM   15  O   UNL     1     -12.709   9.648  71.601  1.00  0.00    -0.348 OA 
HETATM   16  H   UNL     1     -13.950  11.467  73.132  1.00  0.00     0.000 HD 
HETATM   17  C   UNL     1     -13.252  13.057  71.890  1.00  0.00    -0.430 A  
HETATM   18  C   UNL     1     -13.773  14.187  72.478  1.00  0.00    -0.626 A  
HETATM   19  C   UNL     1     -13.480  15.408  71.875  1.00  0.00    -0.571 A  
HETATM   20  C   UNL     1     -12.679  15.467  70.718  1.00  0.00    -0.516 A  
ENDBRANCH   9  10
ENDBRANCH   8   9
ENDBRANCH   4   8
ENDBRANCH   3   4
ENDBRANCH   2   3
TORSDOF 7
ENDMDL
MODEL        7
REMARK 921   NORMALIZED FREE ENERGY PREDICTED BY IDOCK:   -5.53 KCAL/MOL
REMARK 922        TOTAL FREE ENERGY PREDICTED BY IDOCK:   -8.68 KCAL/MOL
REMARK 923 INTER-LIGAND FREE ENERGY PREDICTED BY IDOCK:   -7.80 KCAL/MOL
REMARK 924 INTRA-LIGAND FREE ENERGY PREDICTED BY IDOCK:   -0.88 KCAL/MOL
REMARK 927      BINDING AFFINITY PREDICTED BY RF-SCORE:    0.00 PKD
ROOT
HETATM    1  C   UNL     1     -10.880  12.354  63.701  1.00  0.00    -0.509 C  
HETATM    2  C   UNL     1     -12.138  13.188  63.879  1.00  0.00    -0.536 C  
ENDROOT
BRANCH   2   3
HETATM    3  C   UNL     1     -12.571  13.362  65.343  1.00  0.00    -0.475 C  
BRANCH   3   4
HETATM    4  N   UNL     1     -11.504  13.465  66.364  1.00  0.00    -0.317 NA 
BRANCH   4   5
HETATM    5  C   UNL     1     -11.602  14.740  67.110  1.00  0.00    -0.359 C  
BRANCH   5   6
HETATM    6  C   UNL     1     -10.441  15.732  66.912  1.00  0.00    -0.315 C  
HETATM    7  C   UNL     1      -9.343  15.208  65.998  1.00  0.00    -0.326 C  
ENDBRANCH   5   6
ENDBRANCH   4   5
BRANCH   4   8
HETATM    8  C   UNL     1     -11.581  12.307  67.291  1.00  0.00    -0.357 C  
BRANCH   8   9
HETATM    9  C   UNL     1     -10.906  12.477  68.672  1.00  0.00    -0.280 C  
BRANCH   9  10
HETATM   10  C   UNL     1     -11.704  11.949  69.837  1.00  0.00    -0.383 A  
HETATM   11  C   UNL     1     -12.439  12.780  70.675  1.00  0.00    -0.328 A  
HETATM   12  C   UNL     1     -12.627  14.272  70.652  1.00  0.00    -0.424 C  
HETATM   13  C   UNL     1     -13.559  14.509  71.843  1.00  0.00    -0.396 C  
HETATM   14  N   UNL     1     -13.815  13.274  72.423  1.00  0.00    -0.586 N  
HETATM   15  O   UNL     1     -13.998  15.582  72.223  1.00  0.00    -0.507 OA 
HETATM   16  H   UNL     1     -14.409  13.134  73.240  1.00  0.00     0.000 HD 
HETATM   17  C   UNL     1     -13.160  12.255  71.749  1.00  0.00    -0.344 A  
HETATM   18  C   UNL     1     -13.189  10.911  72.047  1.00  0.00    -0.456 A  
HETATM   19  C   UNL     1     -12.448  10.063  71.226  1.00  0.00    -0.494 A  
HETATM   20  C   UNL     1     -11.712  10.575  70.140  1.00  0.00    -0.410 A  
ENDBRANCH   9  10
ENDBRANCH   8   9
ENDBRANCH   4   8
ENDBRANCH   3   4
ENDBRANCH   2   3
TORSDOF 7
ENDMDL
MODEL        8
REMARK 921   NORMALIZED FREE ENERGY PREDICTED BY IDOCK:   -5.50 KCAL/MOL
REMARK 922        TOTAL FREE ENERGY PREDICTED BY IDOCK:   -8.64 KCAL/MOL
REMARK 923 INTER-LIGAND FREE ENERGY PREDICTED BY IDOCK:   -7.89 KCAL/MOL
REMARK 924 INTRA-LIGAND FREE ENERGY PREDICTED BY IDOCK:   -0.75 KCAL/MOL
REMARK 927      BINDING AFFINITY PREDICTED BY RF-SCORE:    0.00 PKD
ROOT
HETATM    1  C   UNL     1     -10.302  17.271  66.904  1.00  0.00    -0.310 C  
HETATM    2  C   UNL     1     -10.724  16.027  67.670  1.00  0.00    -0.320 C  
ENDROOT
BRANCH   2   3
HETATM    3  C   UNL     1     -10.740  14.746  66.822  1.00  0.00    -0.309 C  
BRANCH   3   4
HETATM    4  N   UNL     1     -11.974  13.929  66.839  1.00  0.00    -0.420 NA 
BRANCH   4   5
HETATM    5  C   UNL     1     -12.625  13.918  65.510  1.00  0.00    -0.526 C  
BRANCH   5   6
HETATM    6  C   UNL     1     -12.465  12.625  64.688  1.00  0.00    -0.538 C  
HETATM    7  C   UNL     1     -11.326  12.683  63.681  1.00  0.00    -0.544 C  
ENDBRANCH   5   6
ENDBRANCH   4   5
BRANCH   4   8
HETATM    8  C   UNL     1     -11.656  12.546  67.280  1.00  0.00    -0.367 C  
BRANCH   8   9
HETATM    9  C   UNL     1     -10.873  12.404  68.606  1.00  0.00    -0.273 C  
BRANCH   9  10
HETATM   10  C   UNL     1     -11.698  11.944  69.782  1.00  0.00    -0.403 A  
HETATM   11  C   UNL     1     -12.364  12.832  70.618  1.00  0.00    -0.381 A  
HETATM   12  C   UNL     1     -12.444  14.333  70.585  1.00  0.00    -0.428 C  
HETATM   13  C   UNL     1     -13.345  14.646  71.780  1.00  0.00    -0.360 C  
HETATM   14  N   UNL     1     -13.685  13.437  72.373  1.00  0.00    -0.602 N  
HETATM   15  O   UNL     1     -13.703  15.751  72.155  1.00  0.00    -0.465 OA 
HETATM   16  H   UNL     1     -14.280  13.348  73.196  1.00  0.00     0.000 HD 
HETATM   17  C   UNL     1     -13.112  12.368  71.703  1.00  0.00    -0.307 A  
HETATM   18  C   UNL     1     -13.235  11.033  72.012  1.00  0.00    -0.447 A  
HETATM   19  C   UNL     1     -12.564  10.128  71.193  1.00  0.00    -0.486 A  
HETATM   20  C   UNL     1     -11.803  10.576  70.096  1.00  0.00    -0.404 A  
ENDBRANCH   9  10
ENDBRANCH   8   9
ENDBRANCH   4   8
ENDBRANCH   3   4
ENDBRANCH   2   3
TORSDOF 7
ENDMDL
MODEL        9
REMARK 921   NORMALIZED FREE ENERGY PREDICTED BY IDOCK:   -5.43 KCAL/MOL
REMARK 922        TOTAL FREE ENERGY PREDICTED BY IDOCK:   -8.54 KCAL/MOL
REMARK 923 INTER-LIGAND FREE ENERGY PREDICTED BY IDOCK:   -7.55 KCAL/MOL
REMARK 924 INTRA-LIGAND FREE ENERGY PREDICTED BY IDOCK:   -0.99 KCAL/MOL
REMARK 927      BINDING AFFINITY PREDICTED BY RF-SCORE:    0.00 PKD
ROOT
HETATM    1  C   UNL     1     -13.721  15.508  71.934  1.00  0.00    -0.593 C  
HETATM    2  C   UNL     1     -13.006  14.481  71.071  1.00  0.00    -0.423 C  
ENDROOT
BRANCH   2   3
HETATM    3  C   UNL     1     -11.946  15.081  70.134  1.00  0.00    -0.320 C  
BRANCH   3   4
HETATM    4  N   UNL     1     -11.892  14.571  68.746  1.00  0.00    -0.319 NA 
BRANCH   4   5
HETATM    5  C   UNL     1     -11.346  15.592  67.824  1.00  0.00    -0.261 C  
BRANCH   5   6
HETATM    6  C   UNL     1      -9.882  15.396  67.387  1.00  0.00    -0.216 C  
HETATM    7  C   UNL     1      -9.674  15.523  65.885  1.00  0.00    -0.392 C  
ENDBRANCH   5   6
ENDBRANCH   4   5
BRANCH   4   8
HETATM    8  C   UNL     1     -11.078  13.329  68.696  1.00  0.00    -0.268 C  
BRANCH   8   9
HETATM    9  C   UNL     1     -11.768  12.069  68.126  1.00  0.00    -0.398 C  
BRANCH   9  10
HETATM   10  C   UNL     1     -11.120  11.495  66.892  1.00  0.00    -0.366 A  
HETATM   11  C   UNL     1     -11.385  11.980  65.616  1.00  0.00    -0.381 A  
HETATM   12  C   UNL     1     -12.288  13.093  65.162  1.00  0.00    -0.525 C  
HETATM   13  C   UNL     1     -12.086  13.089  63.645  1.00  0.00    -0.531 C  
HETATM   14  N   UNL     1     -11.184  12.076  63.348  1.00  0.00    -0.638 N  
HETATM   15  O   UNL     1     -12.618  13.832  62.837  1.00  0.00    -0.611 OA 
HETATM   16  H   UNL     1     -10.867  11.847  62.407  1.00  0.00     0.000 HD 
HETATM   17  C   UNL     1     -10.770  11.418  64.495  1.00  0.00    -0.327 A  
HETATM   18  C   UNL     1      -9.884  10.367  64.575  1.00  0.00    -0.405 A  
HETATM   19  C   UNL     1      -9.615   9.859  65.844  1.00  0.00    -0.300 A  
HETATM   20  C   UNL     1     -10.227  10.411  66.986  1.00  0.00    -0.277 A  
ENDBRANCH   9  10
ENDBRANCH   8   9
ENDBRANCH   4   8
ENDBRANCH   3   4
ENDBRANCH   2   3
TORSDOF 7
ENDMDL
MODEL       10
REMARK 921   NORMALIZED FREE ENERGY PREDICTED BY IDOCK:   -5.43 KCAL/MOL
REMARK 922        TOTAL FREE ENERGY PREDICTED BY IDOCK:   -8.53 KCAL/MOL
REMARK 923 INTER-LIGAND FREE ENERGY PREDICTED BY IDOCK:   -8.02 KCAL/MOL
REMARK 924 INTRA-LIGAND FREE ENERGY PREDICTED BY IDOCK:   -0.51 KCAL/MOL
REMARK 927      BINDING AFFINITY PREDICTED BY RF-SCORE:    0.00 PKD
ROOT
HETATM    1  C   UNL     1     -11.587   9.930  71.040  1.00  0.00    -0.470 C  
HETATM    2  C   UNL     1     -12.884  10.717  70.929  1.00  0.00    -0.473 C  
ENDROOT
BRANCH   2   3
HETATM    3  C   UNL     1     -12.985  11.897  71.907  1.00  0.00    -0.329 C  
BRANCH   3   4
HETATM    4  N   UNL     1     -13.395  13.208  71.358  1.00  0.00    -0.211 NA 
BRANCH   4   5
HETATM    5  C   UNL     1     -13.832  14.125  72.435  1.00  0.00    -0.536 C  
BRANCH   5   6
HETATM    6  C   UNL     1     -13.065  15.456  72.545  1.00  0.00    -0.518 C  
HETATM    7  C   UNL     1     -12.653  15.804  73.967  1.00  0.00    -0.758 C  
ENDBRANCH   5   6
ENDBRANCH   4   5
BRANCH   4   8
HETATM    8  C   UNL     1     -12.273  13.803  70.585  1.00  0.00    -0.363 C  
BRANCH   8   9
HETATM    9  C   UNL     1     -12.267  13.544  69.061  1.00  0.00    -0.224 C  
BRANCH   9  10
HETATM   10  C   UNL     1     -11.452  14.524  68.256  1.00  0.00    -0.336 A  
HETATM   11  C   UNL     1     -11.555  14.621  66.872  1.00  0.00    -0.374 A  
HETATM   12  C   UNL     1     -12.417  13.862  65.902  1.00  0.00    -0.519 C  
HETATM   13  C   UNL     1     -12.032  14.484  64.557  1.00  0.00    -0.468 C  
HETATM   14  N   UNL     1     -11.067  15.451  64.807  1.00  0.00    -0.579 N  
HETATM   15  O   UNL     1     -12.480  14.188  63.462  1.00  0.00    -0.817 OA 
HETATM   16  H   UNL     1     -10.628  16.025  64.087  1.00  0.00     0.000 HD 
HETATM   17  C   UNL     1     -10.778  15.537  66.160  1.00  0.00    -0.313 A  
HETATM   18  C   UNL     1      -9.875  16.383  66.763  1.00  0.00    -0.265 A  
HETATM   19  C   UNL     1      -9.748  16.293  68.148  1.00  0.00    -0.227 A  
HETATM   20  C   UNL     1     -10.521  15.374  68.883  1.00  0.00    -0.238 A  
ENDBRANCH   9  10
ENDBRANCH   8   9
ENDBRANCH   4   8
ENDBRANCH   3   4
ENDBRANCH   2   3
TORSDOF 7
ENDMDL
MODEL       11
REMARK 921   NORMALIZED FREE ENERGY PREDICTED BY IDOCK:   -5.42 KCAL/MOL
REMARK 922        TOTAL FREE ENERGY PREDICTED BY IDOCK:   -8.52 KCAL/MOL
REMARK 923 INTER-LIGAND FREE ENERGY PREDICTED BY IDOCK:   -7.70 KCAL/MOL
REMARK 924 INTRA-LIGAND FREE ENERGY PREDICTED BY IDOCK:   -0.82 KCAL/MOL
REMARK 927      BINDING AFFINITY PREDICTED BY RF-SCORE:    0.00 PKD
ROOT
HETATM    1  C   UNL     1      -9.576  10.240  64.148  1.00  0.00    -0.376 C  
HETATM    2  C   UNL     1      -9.793  10.030  65.638  1.00  0.00    -0.363 C  
ENDROOT
BRANCH   2   3
HETATM    3  C   UNL     1     -10.727  11.065  66.285  1.00  0.00    -0.212 C  
BRANCH   3   4
HETATM    4  N   UNL     1     -10.231  12.455  66.403  1.00  0.00    -0.230 NA 
BRANCH   4   5
HETATM    5  C   UNL     1     -11.162  13.409  65.760  1.00  0.00    -0.290 C  
BRANCH   5   6
HETATM    6  C   UNL     1     -12.336  12.790  64.980  1.00  0.00    -0.559 C  
HETATM    7  C   UNL     1     -12.215  12.950  63.472  1.00  0.00    -0.595 C  
ENDBRANCH   5   6
ENDBRANCH   4   5
BRANCH   4   8
HETATM    8  C   UNL     1     -10.032  12.799  67.835  1.00  0.00    -0.229 C  
BRANCH   8   9
HETATM    9  C   UNL     1     -11.177  13.573  68.528  1.00  0.00    -0.310 C  
BRANCH   9  10
HETATM   10  C   UNL     1     -11.849  12.833  69.656  1.00  0.00    -0.384 A  
HETATM   11  C   UNL     1     -12.502  13.489  70.694  1.00  0.00    -0.405 A  
HETATM   12  C   UNL     1     -12.702  14.957  70.949  1.00  0.00    -0.420 C  
HETATM   13  C   UNL     1     -13.509  14.963  72.249  1.00  0.00    -0.409 C  
HETATM   14  N   UNL     1     -13.697  13.640  72.628  1.00  0.00    -0.530 N  
HETATM   15  O   UNL     1     -13.915  15.943  72.851  1.00  0.00    -0.592 OA 
HETATM   16  H   UNL     1     -14.204  13.348  73.464  1.00  0.00     0.000 HD 
HETATM   17  C   UNL     1     -13.107  12.768  71.727  1.00  0.00    -0.356 A  
HETATM   18  C   UNL     1     -13.095  11.393  71.788  1.00  0.00    -0.523 A  
HETATM   19  C   UNL     1     -12.435  10.718  70.763  1.00  0.00    -0.481 A  
HETATM   20  C   UNL     1     -11.817  11.426  69.715  1.00  0.00    -0.435 A  
ENDBRANCH   9  10
ENDBRANCH   8   9
ENDBRANCH   4   8
ENDBRANCH   3   4
ENDBRANCH   2   3
TORSDOF 7
ENDMDL
MODEL       12
REMARK 921   NORMALIZED FREE ENERGY PREDICTED BY IDOCK:   -5.42 KCAL/MOL
REMARK 922        TOTAL FREE ENERGY PREDICTED BY IDOCK:   -8.51 KCAL/MOL
REMARK 923 INTER-LIGAND FREE ENERGY PREDICTED BY IDOCK:   -8.01 KCAL/MOL
REMARK 924 INTRA-LIGAND FREE ENERGY PREDICTED BY IDOCK:   -0.50 KCAL/MOL
REMARK 927      BINDING AFFINITY PREDICTED BY RF-SCORE:    0.00 PKD
ROOT
HETATM    1  C   UNL     1     -12.867  15.730  73.757  1.00  0.00    -0.710 C  
HETATM    2  C   UNL     1     -13.611  15.238  72.526  1.00  0.00    -0.613 C  
ENDROOT
BRANCH   2   3
HETATM    3  C   UNL     1     -13.390  13.749  72.215  1.00  0.00    -0.521 C  
BRANCH   3   4
HETATM    4  N   UNL     1     -12.267  13.397  71.318  1.00  0.00    -0.190 NA 
BRANCH   4   5
HETATM    5  C   UNL     1     -12.471  12.066  70.705  1.00  0.00    -0.279 C  
BRANCH   5   6
HETATM    6  C   UNL     1     -12.915  10.941  71.659  1.00  0.00    -0.569 C  
HETATM    7  C   UNL     1     -12.161   9.636  71.453  1.00  0.00    -0.472 C  
ENDBRANCH   5   6
ENDBRANCH   4   5
BRANCH   4   8
HETATM    8  C   UNL     1     -12.113  14.440  70.271  1.00  0.00    -0.331 C  
BRANCH   8   9
HETATM    9  C   UNL     1     -12.368  14.000  68.811  1.00  0.00    -0.074 C  
BRANCH   9  10
HETATM   10  C   UNL     1     -11.673  14.836  67.766  1.00  0.00    -0.368 A  
HETATM   11  C   UNL     1     -11.781  14.571  66.406  1.00  0.00    -0.372 A  
HETATM   12  C   UNL     1     -12.543  13.499  65.676  1.00  0.00    -0.512 C  
HETATM   13  C   UNL     1     -12.229  13.805  64.211  1.00  0.00    -0.400 C  
HETATM   14  N   UNL     1     -11.388  14.910  64.187  1.00  0.00    -0.610 N  
HETATM   15  O   UNL     1     -12.634  13.195  63.235  1.00  0.00    -0.700 OA 
HETATM   16  H   UNL     1     -11.018  15.333  63.336  1.00  0.00     0.000 HD 
HETATM   17  C   UNL     1     -11.116  15.364  65.468  1.00  0.00    -0.298 A  
HETATM   18  C   UNL     1     -10.323  16.434  65.819  1.00  0.00    -0.388 A  
HETATM   19  C   UNL     1     -10.192  16.707  67.178  1.00  0.00    -0.290 A  
HETATM   20  C   UNL     1     -10.853  15.918  68.139  1.00  0.00    -0.317 A  
ENDBRANCH   9  10
ENDBRANCH   8   9
ENDBRANCH   4   8
ENDBRANCH   3   4
ENDBRANCH   2   3
TORSDOF 7
ENDMDL
MODEL       13
REMARK 921   NORMALIZED FREE ENERGY PREDICTED BY IDOCK:   -5.38 KCAL/MOL
REMARK 922        TOTAL FREE ENERGY PREDICTED BY IDOCK:   -8.46 KCAL/MOL
REMARK 923 INTER-LIGAND FREE ENERGY PREDICTED BY IDOCK:   -7.57 KCAL/MOL
REMARK 924 INTRA-LIGAND FREE ENERGY PREDICTED BY IDOCK:   -0.89 KCAL/MOL
REMARK 927      BINDING AFFINITY PREDICTED BY RF-SCORE:    0.00 PKD
ROOT
HETATM    1  C   UNL     1      -9.011   8.918  71.172  1.00  0.00    -0.305 C  
HETATM    2  C   UNL     1      -9.545   8.438  72.512  1.00  0.00    -0.358 C  
ENDROOT
BRANCH   2   3
HETATM    3  C   UNL     1     -11.066   8.218  72.535  1.00  0.00    -0.368 C  
BRANCH   3   4
HETATM    4  N   UNL     1     -11.770   8.165  71.235  1.00  0.00    -0.276 NA 
BRANCH   4   5
HETATM    5  C   UNL     1     -12.045   6.767  70.834  1.00  0.00    -0.367 C  
BRANCH   5   6
HETATM    6  C   UNL     1     -11.373   6.291  69.532  1.00  0.00    -0.475 C  
HETATM    7  C   UNL     1     -10.257   5.282  69.759  1.00  0.00    -0.364 C  
ENDBRANCH   5   6
ENDBRANCH   4   5
BRANCH   4   8
HETATM    8  C   UNL     1     -13.031   8.947  71.312  1.00  0.00    -0.211 C  
BRANCH   8   9
HETATM    9  C   UNL     1     -12.944  10.338  71.982  1.00  0.00    -0.503 C  
BRANCH   9  10
HETATM   10  C   UNL     1     -12.551  11.463  71.058  1.00  0.00    -0.487 A  
HETATM   11  C   UNL     1     -12.939  12.779  71.277  1.00  0.00    -0.310 A  
HETATM   12  C   UNL     1     -13.766  13.383  72.379  1.00  0.00    -0.698 C  
HETATM   13  C   UNL     1     -13.786  14.867  72.005  1.00  0.00    -0.460 C  
HETATM   14  N   UNL     1     -13.058  15.011  70.832  1.00  0.00    -0.472 N  
HETATM   15  O   UNL     1     -14.341  15.765  72.617  1.00  0.00    -0.507 OA 
HETATM   16  H   UNL     1     -12.909  15.899  70.353  1.00  0.00     0.000 HD 
HETATM   17  C   UNL     1     -12.562  13.793  70.394  1.00  0.00    -0.256 A  
HETATM   18  C   UNL     1     -11.800  13.563  69.271  1.00  0.00    -0.392 A  
HETATM   19  C   UNL     1     -11.410  12.248  69.027  1.00  0.00    -0.333 A  
HETATM   20  C   UNL     1     -11.784  11.212  69.904  1.00  0.00    -0.433 A  
ENDBRANCH   9  10
ENDBRANCH   8   9
ENDBRANCH   4   8
ENDBRANCH   3   4
ENDBRANCH   2   3
TORSDOF 7
ENDMDL
MODEL       14
REMARK 921   NORMALIZED FREE ENERGY PREDICTED BY IDOCK:   -5.32 KCAL/MOL
REMARK 922        TOTAL FREE ENERGY PREDICTED BY IDOCK:   -8.38 KCAL/MOL
REMARK 923 INTER-LIGAND FREE ENERGY PREDICTED BY IDOCK:   -7.49 KCAL/MOL
REMARK 924 INTRA-LIGAND FREE ENERGY PREDICTED BY IDOCK:   -0.89 KCAL/MOL
REMARK 927      BINDING AFFINITY PREDICTED BY RF-SCORE:    0.00 PKD
ROOT
HETATM    1  C   UNL     1     -11.982   9.353  71.478  1.00  0.00    -0.456 C  
HETATM    2  C   UNL     1     -11.722  10.620  70.679  1.00  0.00    -0.454 C  
ENDROOT
BRANCH   2   3
HETATM    3  C   UNL     1     -10.932  10.390  69.382  1.00  0.00    -0.251 C  
BRANCH   3   4
HETATM    4  N   UNL     1     -10.773  11.540  68.464  1.00  0.00    -0.199 NA 
BRANCH   4   5
HETATM    5  C   UNL     1     -10.872  12.823  69.194  1.00  0.00    -0.075 C  
BRANCH   5   6
HETATM    6  C   UNL     1     -11.962  13.797  68.709  1.00  0.00    -0.400 C  
HETATM    7  C   UNL     1     -11.625  15.260  68.958  1.00  0.00    -0.360 C  
ENDBRANCH   5   6
ENDBRANCH   4   5
BRANCH   4   8
HETATM    8  C   UNL     1      -9.473  11.440  67.752  1.00  0.00    -0.165 C  
BRANCH   8   9
HETATM    9  C   UNL     1      -9.151  12.560  66.736  1.00  0.00    -0.214 C  
BRANCH   9  10
HETATM   10  C   UNL     1     -10.163  12.723  65.630  1.00  0.00    -0.292 A  
HETATM   11  C   UNL     1     -10.593  13.970  65.190  1.00  0.00    -0.400 A  
HETATM   12  C   UNL     1     -10.206  15.352  65.640  1.00  0.00    -0.403 C  
HETATM   13  C   UNL     1     -11.046  16.247  64.727  1.00  0.00    -0.281 C  
HETATM   14  N   UNL     1     -11.793  15.417  63.902  1.00  0.00    -0.908 N  
HETATM   15  O   UNL     1     -11.066  17.467  64.720  1.00  0.00    -0.973 OA 
HETATM   16  H   UNL     1     -12.446  15.748  63.192  1.00  0.00     0.000 HD 
HETATM   17  C   UNL     1     -11.538  14.081  64.168  1.00  0.00    -0.266 A  
HETATM   18  C   UNL     1     -12.099  12.989  63.544  1.00  0.00    -0.617 A  
HETATM   19  C   UNL     1     -11.690  11.730  63.980  1.00  0.00    -0.421 A  
HETATM   20  C   UNL     1     -10.740  11.598  65.011  1.00  0.00    -0.351 A  
ENDBRANCH   9  10
ENDBRANCH   8   9
ENDBRANCH   4   8
ENDBRANCH   3   4
ENDBRANCH   2   3
TORSDOF 7
ENDMDL
MODEL       15
REMARK 921   NORMALIZED FREE ENERGY PREDICTED BY IDOCK:   -5.27 KCAL/MOL
REMARK 922        TOTAL FREE ENERGY PREDICTED BY IDOCK:   -8.32 KCAL/MOL
REMARK 923 INTER-LIGAND FREE ENERGY PREDICTED BY IDOCK:   -7.65 KCAL/MOL
REMARK 924 INTRA-LIGAND FREE ENERGY PREDICTED BY IDOCK:   -0.66 KCAL/MOL
REMARK 927      BINDING AFFINITY PREDICTED BY RF-SCORE:    0.00 PKD
ROOT
HETATM    1  C   UNL     1     -12.147  12.612  63.616  1.00  0.00    -0.632 C  
HETATM    2  C   UNL     1     -12.519  13.060  65.020  1.00  0.00    -0.534 C  
ENDROOT
BRANCH   2   3
HETATM    3  C   UNL     1     -11.485  12.683  66.092  1.00  0.00    -0.365 C  
BRANCH   3   4
HETATM    4  N   UNL     1     -10.589  13.753  66.586  1.00  0.00    -0.273 NA 
BRANCH   4   5
HETATM    5  C   UNL     1     -11.252  15.075  66.522  1.00  0.00    -0.312 C  
BRANCH   5   6
HETATM    6  C   UNL     1     -10.529  16.157  65.699  1.00  0.00    -0.402 C  
HETATM    7  C   UNL     1     -10.179  17.400  66.502  1.00  0.00    -0.329 C  
ENDBRANCH   5   6
ENDBRANCH   4   5
BRANCH   4   8
HETATM    8  C   UNL     1     -10.158  13.448  67.975  1.00  0.00    -0.241 C  
BRANCH   8   9
HETATM    9  C   UNL     1     -10.791  12.204  68.640  1.00  0.00    -0.268 C  
BRANCH   9  10
HETATM   10  C   UNL     1     -11.705  12.502  69.801  1.00  0.00    -0.355 A  
HETATM   11  C   UNL     1     -12.178  11.510  70.653  1.00  0.00    -0.473 A  
HETATM   12  C   UNL     1     -11.933  10.026  70.655  1.00  0.00    -0.401 C  
HETATM   13  C   UNL     1     -12.745   9.557  71.864  1.00  0.00    -0.411 C  
HETATM   14  N   UNL     1     -13.352  10.676  72.418  1.00  0.00    -0.524 N  
HETATM   15  O   UNL     1     -12.849   8.412  72.271  1.00  0.00    -0.342 OA 
HETATM   16  H   UNL     1     -13.957  10.655  73.239  1.00  0.00     0.000 HD 
HETATM   17  C   UNL     1     -13.030  11.825  71.713  1.00  0.00    -0.361 A  
HETATM   18  C   UNL     1     -13.452  13.108  71.980  1.00  0.00    -0.598 A  
HETATM   19  C   UNL     1     -12.999  14.114  71.131  1.00  0.00    -0.419 A  
HETATM   20  C   UNL     1     -12.142  13.817  70.054  1.00  0.00    -0.416 A  
ENDBRANCH   9  10
ENDBRANCH   8   9
ENDBRANCH   4   8
ENDBRANCH   3   4
ENDBRANCH   2   3
TORSDOF 7
ENDMDL
MODEL       16
REMARK 921   NORMALIZED FREE ENERGY PREDICTED BY IDOCK:   -5.27 KCAL/MOL
REMARK 922        TOTAL FREE ENERGY PREDICTED BY IDOCK:   -8.31 KCAL/MOL
REMARK 923 INTER-LIGAND FREE ENERGY PREDICTED BY IDOCK:   -7.71 KCAL/MOL
REMARK 924 INTRA-LIGAND FREE ENERGY PREDICTED BY IDOCK:   -0.59 KCAL/MOL
REMARK 927      BINDING AFFINITY PREDICTED BY RF-SCORE:    0.00 PKD
ROOT
HETATM    1  C   UNL     1     -11.221   9.484  71.135  1.00  0.00    -0.446 C  
HETATM    2  C   UNL     1     -12.586  10.106  70.887  1.00  0.00    -0.454 C  
ENDROOT
BRANCH   2   3
HETATM    3  C   UNL     1     -12.920  11.275  71.827  1.00  0.00    -0.414 C  
BRANCH   3   4
HETATM    4  N   UNL     1     -13.173  12.597  71.212  1.00  0.00    -0.141 NA 
BRANCH   4   5
HETATM    5  C   UNL     1     -13.642  13.573  72.220  1.00  0.00    -0.592 C  
BRANCH   5   6
HETATM    6  C   UNL     1     -12.755  14.816  72.423  1.00  0.00    -0.432 C  
HETATM    7  C   UNL     1     -12.909  15.455  73.795  1.00  0.00    -0.651 C  
ENDBRANCH   5   6
ENDBRANCH   4   5
BRANCH   4   8
HETATM    8  C   UNL     1     -11.940  13.085  70.541  1.00  0.00    -0.212 C  
BRANCH   8   9
HETATM    9  C   UNL     1     -12.095  13.594  69.089  1.00  0.00    -0.361 C  
BRANCH   9  10
HETATM   10  C   UNL     1     -11.550  12.667  68.032  1.00  0.00    -0.394 A  
HETATM   11  C   UNL     1     -11.731  12.897  66.673  1.00  0.00    -0.452 A  
HETATM   12  C   UNL     1     -12.440  14.014  65.957  1.00  0.00    -0.489 C  
HETATM   13  C   UNL     1     -12.241  13.645  64.485  1.00  0.00    -0.401 C  
HETATM   14  N   UNL     1     -11.517  12.461  64.447  1.00  0.00    -0.329 N  
HETATM   15  O   UNL     1     -12.644  14.268  63.517  1.00  0.00    -0.814 OA 
HETATM   16  H   UNL     1     -11.242  11.983  63.589  1.00  0.00     0.000 HD 
HETATM   17  C   UNL     1     -11.217  12.012  65.723  1.00  0.00    -0.334 A  
HETATM   18  C   UNL     1     -10.515  10.876  66.060  1.00  0.00    -0.287 A  
HETATM   19  C   UNL     1     -10.333  10.622  67.417  1.00  0.00    -0.262 A  
HETATM   20  C   UNL     1     -10.846  11.501  68.390  1.00  0.00    -0.250 A  
ENDBRANCH   9  10
ENDBRANCH   8   9
ENDBRANCH   4   8
ENDBRANCH   3   4
ENDBRANCH   2   3
TORSDOF 7
ENDMDL
MODEL       17
REMARK 921   NORMALIZED FREE ENERGY PREDICTED BY IDOCK:   -5.27 KCAL/MOL
REMARK 922        TOTAL FREE ENERGY PREDICTED BY IDOCK:   -8.31 KCAL/MOL
REMARK 923 INTER-LIGAND FREE ENERGY PREDICTED BY IDOCK:   -7.82 KCAL/MOL
REMARK 924 INTRA-LIGAND FREE ENERGY PREDICTED BY IDOCK:   -0.49 KCAL/MOL
REMARK 927      BINDING AFFINITY PREDICTED BY RF-SCORE:    0.00 PKD
ROOT
HETATM    1  C   UNL     1     -13.960  14.459  72.193  1.00  0.00    -0.607 C  
HETATM    2  C   UNL     1     -13.351  13.070  72.312  1.00  0.00    -0.606 C  
ENDROOT
BRANCH   2   3
HETATM    3  C   UNL     1     -12.450  12.680  71.131  1.00  0.00    -0.228 C  
BRANCH   3   4
HETATM    4  N   UNL     1     -12.265  11.237  70.859  1.00  0.00    -0.371 NA 
BRANCH   4   5
HETATM    5  C   UNL     1     -13.247  10.423  71.608  1.00  0.00    -0.400 C  
BRANCH   5   6
HETATM    6  C   UNL     1     -12.850   8.958  71.876  1.00  0.00    -0.437 C  
HETATM    7  C   UNL     1     -11.348   8.746  71.984  1.00  0.00    -0.441 C  
ENDBRANCH   5   6
ENDBRANCH   4   5
BRANCH   4   8
HETATM    8  C   UNL     1     -12.374  10.981  69.399  1.00  0.00    -0.153 C  
BRANCH   8   9
HETATM    9  C   UNL     1     -11.822  12.077  68.459  1.00  0.00    -0.369 C  
BRANCH   9  10
HETATM   10  C   UNL     1     -11.235  11.568  67.167  1.00  0.00    -0.365 A  
HETATM   11  C   UNL     1     -11.522  12.149  65.937  1.00  0.00    -0.418 A  
HETATM   12  C   UNL     1     -12.397  13.322  65.591  1.00  0.00    -0.521 C  
HETATM   13  C   UNL     1     -12.243  13.416  64.072  1.00  0.00    -0.405 C  
HETATM   14  N   UNL     1     -11.390  12.394  63.676  1.00  0.00    -0.448 N  
HETATM   15  O   UNL     1     -12.772  14.231  63.335  1.00  0.00    -0.733 OA 
HETATM   16  H   UNL     1     -11.112  12.219  62.711  1.00  0.00     0.000 HD 
HETATM   17  C   UNL     1     -10.965  11.643  64.761  1.00  0.00    -0.289 A  
HETATM   18  C   UNL     1     -10.118  10.559  64.738  1.00  0.00    -0.406 A  
HETATM   19  C   UNL     1      -9.828   9.955  65.960  1.00  0.00    -0.330 A  
HETATM   20  C   UNL     1     -10.382  10.448  67.157  1.00  0.00    -0.290 A  
ENDBRANCH   9  10
ENDBRANCH   8   9
ENDBRANCH   4   8
ENDBRANCH   3   4
ENDBRANCH   2   3
TORSDOF 7
ENDMDL
MODEL       18
REMARK 921   NORMALIZED FREE ENERGY PREDICTED BY IDOCK:   -5.26 KCAL/MOL
REMARK 922        TOTAL FREE ENERGY PREDICTED BY IDOCK:   -8.30 KCAL/MOL
REMARK 923 INTER-LIGAND FREE ENERGY PREDICTED BY IDOCK:   -7.25 KCAL/MOL
REMARK 924 INTRA-LIGAND FREE ENERGY PREDICTED BY IDOCK:   -1.05 KCAL/MOL
REMARK 927      BINDING AFFINITY PREDICTED BY RF-SCORE:    0.00 PKD
ROOT
HETATM    1  C   UNL     1      -9.597  11.240  67.515  1.00  0.00    -0.181 C  
HETATM    2  C   UNL     1     -10.975  10.712  67.882  1.00  0.00    -0.351 C  
ENDROOT
BRANCH   2   3
HETATM    3  C   UNL     1     -11.247  10.674  69.393  1.00  0.00    -0.270 C  
BRANCH   3   4
HETATM    4  N   UNL     1     -12.251  11.618  69.932  1.00  0.00    -0.267 NA 
BRANCH   4   5
HETATM    5  C   UNL     1     -12.733  11.184  71.262  1.00  0.00    -0.426 C  
BRANCH   5   6
HETATM    6  C   UNL     1     -12.603   9.680  71.571  1.00  0.00    -0.483 C  
HETATM    7  C   UNL     1     -13.783   9.116  72.350  1.00  0.00    -0.543 C  
ENDBRANCH   5   6
ENDBRANCH   4   5
BRANCH   4   8
HETATM    8  C   UNL     1     -11.669  12.984  70.005  1.00  0.00    -0.215 C  
BRANCH   8   9
HETATM    9  C   UNL     1     -12.214  14.025  68.999  1.00  0.00    -0.280 C  
BRANCH   9  10
HETATM   10  C   UNL     1     -11.194  14.559  68.026  1.00  0.00    -0.308 A  
HETATM   11  C   UNL     1     -11.368  14.486  66.649  1.00  0.00    -0.359 A  
HETATM   12  C   UNL     1     -12.499  13.921  65.835  1.00  0.00    -0.519 C  
HETATM   13  C   UNL     1     -12.041  14.184  64.399  1.00  0.00    -0.463 C  
HETATM   14  N   UNL     1     -10.802  14.808  64.465  1.00  0.00    -0.625 N  
HETATM   15  O   UNL     1     -12.643  13.899  63.378  1.00  0.00    -0.853 OA 
HETATM   16  H   UNL     1     -10.260  15.098  63.651  1.00  0.00     0.000 HD 
HETATM   17  C   UNL     1     -10.396  14.986  65.778  1.00  0.00    -0.335 A  
HETATM   18  C   UNL     1      -9.227  15.568  66.214  1.00  0.00    -0.364 A  
HETATM   19  C   UNL     1      -9.029  15.639  67.591  1.00  0.00    -0.183 A  
HETATM   20  C   UNL     1      -9.996  15.138  68.485  1.00  0.00    -0.223 A  
ENDBRANCH   9  10
ENDBRANCH   8   9
ENDBRANCH   4   8
ENDBRANCH   3   4
ENDBRANCH   2   3
TORSDOF 7
ENDMDL
MODEL       19
REMARK 921   NORMALIZED FREE ENERGY PREDICTED BY IDOCK:   -5.25 KCAL/MOL
REMARK 922        TOTAL FREE ENERGY PREDICTED BY IDOCK:   -8.28 KCAL/MOL
REMARK 923 INTER-LIGAND FREE ENERGY PREDICTED BY IDOCK:   -7.87 KCAL/MOL
REMARK 924 INTRA-LIGAND FREE ENERGY PREDICTED BY IDOCK:   -0.41 KCAL/MOL
REMARK 927      BINDING AFFINITY PREDICTED BY RF-SCORE:    0.00 PKD
ROOT
HETATM    1  C   UNL     1     -11.576   7.132  71.772  1.00  0.00    -0.314 C  
HETATM    2  C   UNL     1     -11.111   8.514  72.204  1.00  0.00    -0.436 C  
ENDROOT
BRANCH   2   3
HETATM    3  C   UNL     1     -10.625   9.400  71.046  1.00  0.00    -0.330 C  
BRANCH   3   4
HETATM    4  N   UNL     1     -11.651   9.972  70.145  1.00  0.00    -0.262 NA 
BRANCH   4   5
HETATM    5  C   UNL     1     -12.031  11.338  70.570  1.00  0.00    -0.371 C  
BRANCH   5   6
HETATM    6  C   UNL     1     -13.008  11.431  71.757  1.00  0.00    -0.519 C  
HETATM    7  C   UNL     1     -13.351  12.860  72.150  1.00  0.00    -0.615 C  
ENDBRANCH   5   6
ENDBRANCH   4   5
BRANCH   4   8
HETATM    8  C   UNL     1     -11.147   9.977  68.748  1.00  0.00    -0.173 C  
BRANCH   8   9
HETATM    9  C   UNL     1     -11.313  11.294  67.955  1.00  0.00    -0.372 C  
BRANCH   9  10
HETATM   10  C   UNL     1     -10.899  11.219  66.507  1.00  0.00    -0.319 A  
HETATM   11  C   UNL     1     -11.301  12.161  65.567  1.00  0.00    -0.393 A  
HETATM   12  C   UNL     1     -12.161  13.385  65.716  1.00  0.00    -0.507 C  
HETATM   13  C   UNL     1     -12.179  13.955  64.296  1.00  0.00    -0.408 C  
HETATM   14  N   UNL     1     -11.419  13.110  63.499  1.00  0.00    -0.647 N  
HETATM   15  O   UNL     1     -12.756  14.963  63.922  1.00  0.00    -0.789 OA 
HETATM   16  H   UNL     1     -11.260  13.249  62.501  1.00  0.00     0.000 HD 
HETATM   17  C   UNL     1     -10.904  12.053  64.232  1.00  0.00    -0.339 A  
HETATM   18  C   UNL     1     -10.109  11.030  63.767  1.00  0.00    -0.420 A  
HETATM   19  C   UNL     1      -9.706  10.069  64.692  1.00  0.00    -0.339 A  
HETATM   20  C   UNL     1     -10.098  10.159  66.042  1.00  0.00    -0.317 A  
ENDBRANCH   9  10
ENDBRANCH   8   9
ENDBRANCH   4   8
ENDBRANCH   3   4
ENDBRANCH   2   3
TORSDOF 7
ENDMDL
MODEL       20
REMARK 921   NORMALIZED FREE ENERGY PREDICTED BY IDOCK:   -5.24 KCAL/MOL
REMARK 922        TOTAL FREE ENERGY PREDICTED BY IDOCK:   -8.27 KCAL/MOL
REMARK 923 INTER-LIGAND FREE ENERGY PREDICTED BY IDOCK:   -7.95 KCAL/MOL
REMARK 924 INTRA-LIGAND FREE ENERGY PREDICTED BY IDOCK:   -0.32 KCAL/MOL
REMARK 927      BINDING AFFINITY PREDICTED BY RF-SCORE:    0.00 PKD
ROOT
HETATM    1  C   UNL     1     -13.058  10.432  71.832  1.00  0.00    -0.563 C  
HETATM    2  C   UNL     1     -13.102  11.951  71.862  1.00  0.00    -0.474 C  
ENDROOT
BRANCH   2   3
HETATM    3  C   UNL     1     -12.300  12.622  70.735  1.00  0.00    -0.283 C  
BRANCH   3   4
HETATM    4  N   UNL     1     -12.500  14.073  70.523  1.00  0.00    -0.350 NA 
BRANCH   4   5
HETATM    5  C   UNL     1     -11.910  14.860  71.628  1.00  0.00    -0.366 C  
BRANCH   5   6
HETATM    6  C   UNL     1     -12.871  15.799  72.380  1.00  0.00    -0.539 C  
HETATM    7  C   UNL     1     -12.646  15.822  73.885  1.00  0.00    -0.754 C  
ENDBRANCH   5   6
ENDBRANCH   4   5
BRANCH   4   8
HETATM    8  C   UNL     1     -11.913  14.476  69.219  1.00  0.00    -0.319 C  
BRANCH   8   9
HETATM    9  C   UNL     1     -10.870  13.517  68.601  1.00  0.00    -0.281 C  
BRANCH   9  10
HETATM   10  C   UNL     1     -11.111  13.167  67.154  1.00  0.00    -0.305 A  
HETATM   11  C   UNL     1     -11.189  14.132  66.156  1.00  0.00    -0.326 A  
HETATM   12  C   UNL     1     -11.063  15.628  66.232  1.00  0.00    -0.127 C  
HETATM   13  C   UNL     1     -11.239  16.052  64.772  1.00  0.00    -0.339 C  
HETATM   14  N   UNL     1     -11.444  14.899  64.026  1.00  0.00    -0.538 N  
HETATM   15  O   UNL     1     -11.211  17.190  64.335  1.00  0.00    -1.143 OA 
HETATM   16  H   UNL     1     -11.593  14.886  63.017  1.00  0.00     0.000 HD 
HETATM   17  C   UNL     1     -11.421  13.769  64.827  1.00  0.00    -0.356 A  
HETATM   18  C   UNL     1     -11.588  12.463  64.425  1.00  0.00    -0.418 A  
HETATM   19  C   UNL     1     -11.525  11.482  65.413  1.00  0.00    -0.080 A  
HETATM   20  C   UNL     1     -11.295  11.828  66.759  1.00  0.00    -0.385 A  
ENDBRANCH   9  10
ENDBRANCH   8   9
ENDBRANCH   4   8
ENDBRANCH   3   4
ENDBRANCH   2   3
TORSDOF 7
ENDMDL
MODEL       21
REMARK 921   NORMALIZED FREE ENERGY PREDICTED BY IDOCK:   -5.24 KCAL/MOL
REMARK 922        TOTAL FREE ENERGY PREDICTED BY IDOCK:   -8.26 KCAL/MOL
REMARK 923 INTER-LIGAND FREE ENERGY PREDICTED BY IDOCK:   -7.67 KCAL/MOL
REMARK 924 INTRA-LIGAND FREE ENERGY PREDICTED BY IDOCK:   -0.59 KCAL/MOL
REMARK 927      BINDING AFFINITY PREDICTED BY RF-SCORE:    0.00 PKD
ROOT
HETATM    1  C   UNL     1     -10.272  20.007  66.450  1.00  0.00    -0.598 C  
HETATM    2  C   UNL     1     -10.419  18.893  67.473  1.00  0.00    -0.522 C  
ENDROOT
BRANCH   2   3
HETATM    3  C   UNL     1     -10.534  17.490  66.857  1.00  0.00    -0.285 C  
BRANCH   3   4
HETATM    4  N   UNL     1     -10.163  16.336  67.707  1.00  0.00    -0.263 NA 
BRANCH   4   5
HETATM    5  C   UNL     1      -9.170  16.727  68.732  1.00  0.00    -0.260 C  
BRANCH   5   6
HETATM    6  C   UNL     1      -7.728  16.235  68.502  1.00  0.00    -0.189 C  
HETATM    7  C   UNL     1      -7.529  15.545  67.161  1.00  0.00    -0.244 C  
ENDBRANCH   5   6
ENDBRANCH   4   5
BRANCH   4   8
HETATM    8  C   UNL     1     -11.380  15.768  68.344  1.00  0.00    -0.372 C  
BRANCH   8   9
HETATM    9  C   UNL     1     -11.194  14.465  69.155  1.00  0.00    -0.300 C  
BRANCH   9  10
HETATM   10  C   UNL     1     -12.148  14.297  70.311  1.00  0.00    -0.403 A  
HETATM   11  C   UNL     1     -12.450  13.054  70.854  1.00  0.00    -0.396 A  
HETATM   12  C   UNL     1     -11.959  11.681  70.485  1.00  0.00    -0.413 C  
HETATM   13  C   UNL     1     -12.684  10.786  71.492  1.00  0.00    -0.431 C  
HETATM   14  N   UNL     1     -13.471  11.607  72.288  1.00  0.00    -0.536 N  
HETATM   15  O   UNL     1     -12.596   9.573  71.585  1.00  0.00    -0.336 OA 
HETATM   16  H   UNL     1     -14.066  11.274  73.047  1.00  0.00     0.000 HD 
HETATM   17  C   UNL     1     -13.344  12.937  71.920  1.00  0.00    -0.435 A  
HETATM   18  C   UNL     1     -13.976  14.020  72.490  1.00  0.00    -0.553 A  
HETATM   19  C   UNL     1     -13.696  15.273  71.951  1.00  0.00    -0.601 A  
HETATM   20  C   UNL     1     -12.799  15.411  70.875  1.00  0.00    -0.536 A  
ENDBRANCH   9  10
ENDBRANCH   8   9
ENDBRANCH   4   8
ENDBRANCH   3   4
ENDBRANCH   2   3
TORSDOF 7
ENDMDL
MODEL       22
REMARK 921   NORMALIZED FREE ENERGY PREDICTED BY IDOCK:   -5.23 KCAL/MOL
REMARK 922        TOTAL FREE ENERGY PREDICTED BY IDOCK:   -8.25 KCAL/MOL
REMARK 923 INTER-LIGAND FREE ENERGY PREDICTED BY IDOCK:   -6.75 KCAL/MOL
REMARK 924 INTRA-LIGAND FREE ENERGY PREDICTED BY IDOCK:   -1.50 KCAL/MOL
REMARK 927      BINDING AFFINITY PREDICTED BY RF-SCORE:    0.00 PKD
ROOT
HETATM    1  C   UNL     1     -10.637  19.562  67.285  1.00  0.00    -0.610 C  
HETATM    2  C   UNL     1     -10.018  18.175  67.369  1.00  0.00    -0.329 C  
ENDROOT
BRANCH   2   3
HETATM    3  C   UNL     1     -10.338  17.274  66.166  1.00  0.00    -0.317 C  
BRANCH   3   4
HETATM    4  N   UNL     1      -9.359  16.218  65.823  1.00  0.00    -0.474 NA 
BRANCH   4   5
HETATM    5  C   UNL     1      -8.457  15.937  66.962  1.00  0.00    -0.217 C  
BRANCH   5   6
HETATM    6  C   UNL     1      -8.031  14.467  67.142  1.00  0.00    -0.167 C  
HETATM    7  C   UNL     1      -8.091  13.990  68.585  1.00  0.00    -0.113 C  
ENDBRANCH   5   6
ENDBRANCH   4   5
BRANCH   4   8
HETATM    8  C   UNL     1     -10.076  14.986  65.403  1.00  0.00    -0.362 C  
BRANCH   8   9
HETATM    9  C   UNL     1     -11.477  14.755  66.015  1.00  0.00    -0.316 C  
BRANCH   9  10
HETATM   10  C   UNL     1     -11.510  13.794  67.177  1.00  0.00    -0.365 A  
HETATM   11  C   UNL     1     -11.694  14.216  68.489  1.00  0.00    -0.380 A  
HETATM   12  C   UNL     1     -11.894  15.596  69.052  1.00  0.00    -0.379 C  
HETATM   13  C   UNL     1     -12.041  15.325  70.551  1.00  0.00    -0.354 C  
HETATM   14  N   UNL     1     -11.920  13.955  70.741  1.00  0.00    -0.479 N  
HETATM   15  O   UNL     1     -12.227  16.154  71.427  1.00  0.00    -0.423 OA 
HETATM   16  H   UNL     1     -11.977  13.493  71.648  1.00  0.00     0.000 HD 
HETATM   17  C   UNL     1     -11.712  13.296  69.539  1.00  0.00    -0.322 A  
HETATM   18  C   UNL     1     -11.549  11.942  69.353  1.00  0.00    -0.388 A  
HETATM   19  C   UNL     1     -11.351  11.501  68.046  1.00  0.00    -0.368 A  
HETATM   20  C   UNL     1     -11.327  12.413  66.974  1.00  0.00    -0.388 A  
ENDBRANCH   9  10
ENDBRANCH   8   9
ENDBRANCH   4   8
ENDBRANCH   3   4
ENDBRANCH   2   3
TORSDOF 7
ENDMDL
MODEL       23
REMARK 921   NORMALIZED FREE ENERGY PREDICTED BY IDOCK:   -5.22 KCAL/MOL
REMARK 922        TOTAL FREE ENERGY PREDICTED BY IDOCK:   -8.24 KCAL/MOL
REMARK 923 INTER-LIGAND FREE ENERGY PREDICTED BY IDOCK:   -7.48 KCAL/MOL
REMARK 924 INTRA-LIGAND FREE ENERGY PREDICTED BY IDOCK:   -0.76 KCAL/MOL
REMARK 927      BINDING AFFINITY PREDICTED BY RF-SCORE:    0.00 PKD
ROOT
HETATM    1  C   UNL     1     -13.624   9.279  72.196  1.00  0.00    -0.536 C  
HETATM    2  C   UNL     1     -12.975  10.512  71.587  1.00  0.00    -0.581 C  
ENDROOT
BRANCH   2   3
HETATM    3  C   UNL     1     -12.202  10.234  70.289  1.00  0.00    -0.221 C  
BRANCH   3   4
HETATM    4  N   UNL     1     -10.724  10.251  70.355  1.00  0.00    -0.267 NA 
BRANCH   4   5
HETATM    5  C   UNL     1     -10.188   8.903  70.651  1.00  0.00    -0.217 C  
BRANCH   5   6
HETATM    6  C   UNL     1     -10.808   7.738  69.857  1.00  0.00    -0.228 C  
HETATM    7  C   UNL     1     -11.479   6.693  70.735  1.00  0.00    -0.407 C  
ENDBRANCH   5   6
ENDBRANCH   4   5
BRANCH   4   8
HETATM    8  C   UNL     1     -10.168  10.767  69.077  1.00  0.00    -0.213 C  
BRANCH   8   9
HETATM    9  C   UNL     1     -11.162  11.462  68.119  1.00  0.00    -0.343 C  
BRANCH   9  10
HETATM   10  C   UNL     1     -10.858  11.284  66.653  1.00  0.00    -0.325 A  
HETATM   11  C   UNL     1     -11.297  12.181  65.686  1.00  0.00    -0.395 A  
HETATM   12  C   UNL     1     -12.104  13.443  65.818  1.00  0.00    -0.481 C  
HETATM   13  C   UNL     1     -12.207  13.926  64.370  1.00  0.00    -0.413 C  
HETATM   14  N   UNL     1     -11.534  13.007  63.575  1.00  0.00    -0.646 N  
HETATM   15  O   UNL     1     -12.776  14.930  63.975  1.00  0.00    -0.792 OA 
HETATM   16  H   UNL     1     -11.445  13.079  62.562  1.00  0.00     0.000 HD 
HETATM   17  C   UNL     1     -11.001  11.978  64.336  1.00  0.00    -0.333 A  
HETATM   18  C   UNL     1     -10.276  10.900  63.881  1.00  0.00    -0.418 A  
HETATM   19  C   UNL     1      -9.838   9.983  64.834  1.00  0.00    -0.352 A  
HETATM   20  C   UNL     1     -10.128  10.168  66.199  1.00  0.00    -0.314 A  
ENDBRANCH   9  10
ENDBRANCH   8   9
ENDBRANCH   4   8
ENDBRANCH   3   4
ENDBRANCH   2   3
TORSDOF 7
ENDMDL
MODEL       24
REMARK 921   NORMALIZED FREE ENERGY PREDICTED BY IDOCK:   -5.20 KCAL/MOL
REMARK 922        TOTAL FREE ENERGY PREDICTED BY IDOCK:   -8.21 KCAL/MOL
REMARK 923 INTER-LIGAND FREE ENERGY PREDICTED BY IDOCK:   -6.83 KCAL/MOL
REMARK 924 INTRA-LIGAND FREE ENERGY PREDICTED BY IDOCK:   -1.38 KCAL/MOL
REMARK 927      BINDING AFFINITY PREDICTED BY RF-SCORE:    0.00 PKD
ROOT
HETATM    1  C   UNL     1     -10.258  19.686  66.184  1.00  0.00    -0.604 C  
HETATM    2  C   UNL     1     -10.624  18.631  67.216  1.00  0.00    -0.480 C  
ENDROOT
BRANCH   2   3
HETATM    3  C   UNL     1      -9.496  17.630  67.511  1.00  0.00    -0.256 C  
BRANCH   3   4
HETATM    4  N   UNL     1      -9.512  16.950  68.826  1.00  0.00    -0.262 NA 
BRANCH   4   5
HETATM    5  C   UNL     1     -10.894  16.611  69.234  1.00  0.00    -0.310 C  
BRANCH   5   6
HETATM    6  C   UNL     1     -11.034  15.512  70.305  1.00  0.00    -0.352 C  
HETATM    7  C   UNL     1     -12.190  14.558  70.047  1.00  0.00    -0.396 C  
ENDBRANCH   5   6
ENDBRANCH   4   5
BRANCH   4   8
HETATM    8  C   UNL     1      -8.667  15.729  68.772  1.00  0.00    -0.203 C  
BRANCH   8   9
HETATM    9  C   UNL     1      -8.615  14.980  67.420  1.00  0.00    -0.208 C  
BRANCH   9  10
HETATM   10  C   UNL     1      -9.630  13.875  67.269  1.00  0.00    -0.243 A  
HETATM   11  C   UNL     1     -10.633  13.910  66.307  1.00  0.00    -0.289 A  
HETATM   12  C   UNL     1     -10.948  14.944  65.261  1.00  0.00    -0.389 C  
HETATM   13  C   UNL     1     -12.160  14.340  64.549  1.00  0.00    -0.480 C  
HETATM   14  N   UNL     1     -12.446  13.130  65.169  1.00  0.00    -0.492 N  
HETATM   15  O   UNL     1     -12.772  14.825  63.612  1.00  0.00    -0.713 OA 
HETATM   16  H   UNL     1     -13.211  12.512  64.898  1.00  0.00     0.000 HD 
HETATM   17  C   UNL     1     -11.561  12.871  66.203  1.00  0.00    -0.372 A  
HETATM   18  C   UNL     1     -11.547  11.769  67.028  1.00  0.00    -0.321 A  
HETATM   19  C   UNL     1     -10.557  11.722  68.006  1.00  0.00    -0.235 A  
HETATM   20  C   UNL     1      -9.615  12.761  68.129  1.00  0.00    -0.223 A  
ENDBRANCH   9  10
ENDBRANCH   8   9
ENDBRANCH   4   8
ENDBRANCH   3   4
ENDBRANCH   2   3
TORSDOF 7
ENDMDL
MODEL       25
REMARK 921   NORMALIZED FREE ENERGY PREDICTED BY IDOCK:   -5.17 KCAL/MOL
REMARK 922        TOTAL FREE ENERGY PREDICTED BY IDOCK:   -8.17 KCAL/MOL
REMARK 923 INTER-LIGAND FREE ENERGY PREDICTED BY IDOCK:   -7.68 KCAL/MOL
REMARK 924 INTRA-LIGAND FREE ENERGY PREDICTED BY IDOCK:   -0.50 KCAL/MOL
REMARK 927      BINDING AFFINITY PREDICTED BY RF-SCORE:    0.00 PKD
ROOT
HETATM    1  C   UNL     1     -11.953   8.097  71.989  1.00  0.00    -0.390 C  
HETATM    2  C   UNL     1     -11.126   9.338  71.696  1.00  0.00    -0.438 C  
ENDROOT
BRANCH   2   3
HETATM    3  C   UNL     1     -11.183   9.795  70.230  1.00  0.00    -0.288 C  
BRANCH   3   4
HETATM    4  N   UNL     1     -12.119  10.890  69.890  1.00  0.00    -0.333 NA 
BRANCH   4   5
HETATM    5  C   UNL     1     -12.743  11.455  71.108  1.00  0.00    -0.377 C  
BRANCH   5   6
HETATM    6  C   UNL     1     -12.662  12.986  71.263  1.00  0.00    -0.385 C  
HETATM    7  C   UNL     1     -13.701  13.555  72.217  1.00  0.00    -0.700 C  
ENDBRANCH   5   6
ENDBRANCH   4   5
BRANCH   4   8
HETATM    8  C   UNL     1     -11.402  11.947  69.129  1.00  0.00    -0.279 C  
BRANCH   8   9
HETATM    9  C   UNL     1     -10.727  11.513  67.808  1.00  0.00    -0.249 C  
BRANCH   9  10
HETATM   10  C   UNL     1     -11.254  12.198  66.572  1.00  0.00    -0.378 A  
HETATM   11  C   UNL     1     -10.879  11.815  65.289  1.00  0.00    -0.343 A  
HETATM   12  C   UNL     1      -9.950  10.726  64.827  1.00  0.00    -0.382 C  
HETATM   13  C   UNL     1     -10.013  10.860  63.304  1.00  0.00    -0.349 C  
HETATM   14  N   UNL     1     -10.874  11.910  63.013  1.00  0.00    -0.673 N  
HETATM   15  O   UNL     1      -9.418  10.176  62.487  1.00  0.00    -0.301 OA 
HETATM   16  H   UNL     1     -11.101  12.222  62.069  1.00  0.00     0.000 HD 
HETATM   17  C   UNL     1     -11.383  12.480  64.169  1.00  0.00    -0.380 A  
HETATM   18  C   UNL     1     -12.261  13.536  64.256  1.00  0.00    -0.450 A  
HETATM   19  C   UNL     1     -12.639  13.943  65.534  1.00  0.00    -0.560 A  
HETATM   20  C   UNL     1     -12.140  13.287  66.676  1.00  0.00    -0.421 A  
ENDBRANCH   9  10
ENDBRANCH   8   9
ENDBRANCH   4   8
ENDBRANCH   3   4
ENDBRANCH   2   3
TORSDOF 7
ENDMDL
MODEL       26
REMARK 921   NORMALIZED FREE ENERGY PREDICTED BY IDOCK:   -5.17 KCAL/MOL
REMARK 922        TOTAL FREE ENERGY PREDICTED BY IDOCK:   -8.17 KCAL/MOL
REMARK 923 INTER-LIGAND FREE ENERGY PREDICTED BY IDOCK:   -7.30 KCAL/MOL
REMARK 924 INTRA-LIGAND FREE ENERGY PREDICTED BY IDOCK:   -0.88 KCAL/MOL
REMARK 927      BINDING AFFINITY PREDICTED BY RF-SCORE:    0.00 PKD
ROOT
HETATM    1  C   UNL     1      -9.153  15.885  68.982  1.00  0.00    -0.240 C  
HETATM    2  C   UNL     1     -10.462  16.232  68.292  1.00  0.00    -0.284 C  
ENDROOT
BRANCH   2   3
HETATM    3  C   UNL     1     -11.671  15.435  68.808  1.00  0.00    -0.351 C  
BRANCH   3   4
HETATM    4  N   UNL     1     -11.403  14.148  69.486  1.00  0.00    -0.263 NA 
BRANCH   4   5
HETATM    5  C   UNL     1     -12.100  14.076  70.789  1.00  0.00    -0.345 C  
BRANCH   5   6
HETATM    6  C   UNL     1     -12.793  15.369  71.259  1.00  0.00    -0.519 C  
HETATM    7  C   UNL     1     -12.115  16.023  72.453  1.00  0.00    -0.629 C  
ENDBRANCH   5   6
ENDBRANCH   4   5
BRANCH   4   8
HETATM    8  C   UNL     1     -11.814  13.021  68.608  1.00  0.00    -0.318 C  
BRANCH   8   9
HETATM    9  C   UNL     1     -10.766  12.520  67.587  1.00  0.00    -0.242 C  
BRANCH   9  10
HETATM   10  C   UNL     1     -11.190  12.622  66.144  1.00  0.00    -0.350 A  
HETATM   11  C   UNL     1     -10.663  11.802  65.152  1.00  0.00    -0.343 A  
HETATM   12  C   UNL     1      -9.641  10.702  65.234  1.00  0.00    -0.293 C  
HETATM   13  C   UNL     1      -9.547  10.225  63.784  1.00  0.00    -0.284 C  
HETATM   14  N   UNL     1     -10.419  11.002  63.033  1.00  0.00    -0.788 N  
HETATM   15  O   UNL     1      -8.838   9.330  63.355  1.00  0.00    -0.212 OA 
HETATM   16  H   UNL     1     -10.559  10.901  62.027  1.00  0.00     0.000 HD 
HETATM   17  C   UNL     1     -11.074  11.932  63.824  1.00  0.00    -0.436 A  
HETATM   18  C   UNL     1     -12.004  12.862  63.415  1.00  0.00    -0.612 A  
HETATM   19  C   UNL     1     -12.535  13.701  64.392  1.00  0.00    -0.316 A  
HETATM   20  C   UNL     1     -12.131  13.587  65.736  1.00  0.00    -0.473 A  
ENDBRANCH   9  10
ENDBRANCH   8   9
ENDBRANCH   4   8
ENDBRANCH   3   4
ENDBRANCH   2   3
TORSDOF 7
ENDMDL
MODEL       27
REMARK 921   NORMALIZED FREE ENERGY PREDICTED BY IDOCK:   -5.16 KCAL/MOL
REMARK 922        TOTAL FREE ENERGY PREDICTED BY IDOCK:   -8.16 KCAL/MOL
REMARK 923 INTER-LIGAND FREE ENERGY PREDICTED BY IDOCK:   -7.21 KCAL/MOL
REMARK 924 INTRA-LIGAND FREE ENERGY PREDICTED BY IDOCK:   -0.95 KCAL/MOL
REMARK 927      BINDING AFFINITY PREDICTED BY RF-SCORE:    0.00 PKD
ROOT
HETATM    1  C   UNL     1     -10.603  19.095  65.968  1.00  0.00    -0.524 C  
HETATM    2  C   UNL     1     -10.648  19.463  67.442  1.00  0.00    -0.603 C  
ENDROOT
BRANCH   2   3
HETATM    3  C   UNL     1      -9.443  18.957  68.249  1.00  0.00    -0.348 C  
BRANCH   3   4
HETATM    4  N   UNL     1      -8.256  18.500  67.493  1.00  0.00    -0.251 NA 
BRANCH   4   5
HETATM    5  C   UNL     1      -7.052  19.273  67.871  1.00  0.00    -0.243 C  
BRANCH   5   6
HETATM    6  C   UNL     1      -7.039  20.755  67.450  1.00  0.00    -0.412 C  
HETATM    7  C   UNL     1      -6.322  21.006  66.132  1.00  0.00    -0.282 C  
ENDBRANCH   5   6
ENDBRANCH   4   5
BRANCH   4   8
HETATM    8  C   UNL     1      -8.040  17.048  67.723  1.00  0.00    -0.190 C  
BRANCH   8   9
HETATM    9  C   UNL     1      -8.615  16.084  66.659  1.00  0.00    -0.316 C  
BRANCH   9  10
HETATM   10  C   UNL     1      -9.779  15.248  67.125  1.00  0.00    -0.220 A  
HETATM   11  C   UNL     1     -10.736  14.747  66.249  1.00  0.00    -0.313 A  
HETATM   12  C   UNL     1     -10.859  14.881  64.756  1.00  0.00    -0.382 C  
HETATM   13  C   UNL     1     -12.126  14.079  64.453  1.00  0.00    -0.458 C  
HETATM   14  N   UNL     1     -12.610  13.593  65.660  1.00  0.00    -0.491 N  
HETATM   15  O   UNL     1     -12.629  13.898  63.356  1.00  0.00    -0.853 OA 
HETATM   16  H   UNL     1     -13.450  13.023  65.755  1.00  0.00     0.000 HD 
HETATM   17  C   UNL     1     -11.806  13.982  66.719  1.00  0.00    -0.424 A  
HETATM   18  C   UNL     1     -11.984  13.682  68.051  1.00  0.00    -0.385 A  
HETATM   19  C   UNL     1     -11.042  14.185  68.946  1.00  0.00    -0.288 A  
HETATM   20  C   UNL     1      -9.958  14.960  68.491  1.00  0.00    -0.223 A  
ENDBRANCH   9  10
ENDBRANCH   8   9
ENDBRANCH   4   8
ENDBRANCH   3   4
ENDBRANCH   2   3
TORSDOF 7
ENDMDL
MODEL       28
REMARK 921   NORMALIZED FREE ENERGY PREDICTED BY IDOCK:   -5.15 KCAL/MOL
REMARK 922        TOTAL FREE ENERGY PREDICTED BY IDOCK:   -8.14 KCAL/MOL
REMARK 923 INTER-LIGAND FREE ENERGY PREDICTED BY IDOCK:   -7.33 KCAL/MOL
REMARK 924 INTRA-LIGAND FREE ENERGY PREDICTED BY IDOCK:   -0.81 KCAL/MOL
REMARK 927      BINDING AFFINITY PREDICTED BY RF-SCORE:    0.00 PKD
ROOT
HETATM    1  C   UNL     1     -10.437  15.907  65.963  1.00  0.00    -0.357 C  
HETATM    2  C   UNL     1     -10.571  16.096  67.465  1.00  0.00    -0.314 C  
ENDROOT
BRANCH   2   3
HETATM    3  C   UNL     1     -11.670  15.235  68.107  1.00  0.00    -0.279 C  
BRANCH   3   4
HETATM    4  N   UNL     1     -11.336  14.522  69.360  1.00  0.00    -0.266 NA 
BRANCH   4   5
HETATM    5  C   UNL     1     -12.502  14.467  70.270  1.00  0.00    -0.348 C  
BRANCH   5   6
HETATM    6  C   UNL     1     -12.202  14.662  71.768  1.00  0.00    -0.409 C  
HETATM    7  C   UNL     1     -11.739  16.068  72.118  1.00  0.00    -0.587 C  
ENDBRANCH   5   6
ENDBRANCH   4   5
BRANCH   4   8
HETATM    8  C   UNL     1     -10.850  13.153  69.047  1.00  0.00    -0.161 C  
BRANCH   8   9
HETATM    9  C   UNL     1     -11.781  12.266  68.189  1.00  0.00    -0.408 C  
BRANCH   9  10
HETATM   10  C   UNL     1     -11.134  11.662  66.968  1.00  0.00    -0.359 A  
HETATM   11  C   UNL     1     -11.430  12.089  65.678  1.00  0.00    -0.372 A  
HETATM   12  C   UNL     1     -12.371  13.158  65.195  1.00  0.00    -0.525 C  
HETATM   13  C   UNL     1     -12.190  13.100  63.677  1.00  0.00    -0.479 C  
HETATM   14  N   UNL     1     -11.263  12.102  63.406  1.00  0.00    -0.638 N  
HETATM   15  O   UNL     1     -12.754  13.795  62.848  1.00  0.00    -0.558 OA 
HETATM   16  H   UNL     1     -10.952  11.844  62.470  1.00  0.00     0.000 HD 
HETATM   17  C   UNL     1     -10.815  11.500  64.572  1.00  0.00    -0.327 A  
HETATM   18  C   UNL     1      -9.898  10.479  64.679  1.00  0.00    -0.404 A  
HETATM   19  C   UNL     1      -9.597  10.029  65.962  1.00  0.00    -0.279 A  
HETATM   20  C   UNL     1     -10.209  10.608  67.091  1.00  0.00    -0.261 A  
ENDBRANCH   9  10
ENDBRANCH   8   9
ENDBRANCH   4   8
ENDBRANCH   3   4
ENDBRANCH   2   3
TORSDOF 7
ENDMDL
MODEL       29
REMARK 921   NORMALIZED FREE ENERGY PREDICTED BY IDOCK:   -5.15 KCAL/MOL
REMARK 922        TOTAL FREE ENERGY PREDICTED BY IDOCK:   -8.14 KCAL/MOL
REMARK 923 INTER-LIGAND FREE ENERGY PREDICTED BY IDOCK:   -6.72 KCAL/MOL
REMARK 924 INTRA-LIGAND FREE ENERGY PREDICTED BY IDOCK:   -1.41 KCAL/MOL
REMARK 927      BINDING AFFINITY PREDICTED BY RF-SCORE:    0.00 PKD
ROOT
HETATM    1  C   UNL     1     -10.225   9.300  66.685  1.00  0.00    -0.323 C  
HETATM    2  C   UNL     1     -10.767   9.299  68.106  1.00  0.00    -0.205 C  
ENDROOT
BRANCH   2   3
HETATM    3  C   UNL     1     -10.283  10.480  68.960  1.00  0.00    -0.216 C  
BRANCH   3   4
HETATM    4  N   UNL     1     -10.547  11.846  68.453  1.00  0.00    -0.211 NA 
BRANCH   4   5
HETATM    5  C   UNL     1     -11.485  12.571  69.339  1.00  0.00    -0.263 C  
BRANCH   5   6
HETATM    6  C   UNL     1     -12.218  13.772  68.712  1.00  0.00    -0.221 C  
HETATM    7  C   UNL     1     -11.911  15.095  69.397  1.00  0.00    -0.357 C  
ENDBRANCH   5   6
ENDBRANCH   4   5
BRANCH   4   8
HETATM    8  C   UNL     1      -9.268  12.591  68.321  1.00  0.00    -0.186 C  
BRANCH   8   9
HETATM    9  C   UNL     1      -8.802  12.920  66.884  1.00  0.00    -0.188 C  
BRANCH   9  10
HETATM   10  C   UNL     1      -9.621  13.971  66.178  1.00  0.00    -0.263 A  
HETATM   11  C   UNL     1     -10.625  13.649  65.272  1.00  0.00    -0.354 A  
HETATM   12  C   UNL     1     -11.123  12.311  64.798  1.00  0.00    -0.356 C  
HETATM   13  C   UNL     1     -12.238  12.696  63.824  1.00  0.00    -0.514 C  
HETATM   14  N   UNL     1     -12.301  14.083  63.790  1.00  0.00    -0.976 N  
HETATM   15  O   UNL     1     -12.944  11.933  63.186  1.00  0.00    -0.640 OA 
HETATM   16  H   UNL     1     -12.958  14.615  63.219  1.00  0.00     0.000 HD 
HETATM   17  C   UNL     1     -11.358  14.651  64.631  1.00  0.00    -0.369 A  
HETATM   18  C   UNL     1     -11.139  15.994  64.846  1.00  0.00    -0.381 A  
HETATM   19  C   UNL     1     -10.128  16.336  65.742  1.00  0.00    -0.373 A  
HETATM   20  C   UNL     1      -9.377  15.340  66.396  1.00  0.00    -0.328 A  
ENDBRANCH   9  10
ENDBRANCH   8   9
ENDBRANCH   4   8
ENDBRANCH   3   4
ENDBRANCH   2   3
TORSDOF 7
ENDMDL
MODEL       30
REMARK 921   NORMALIZED FREE ENERGY PREDICTED BY IDOCK:   -5.09 KCAL/MOL
REMARK 922        TOTAL FREE ENERGY PREDICTED BY IDOCK:   -8.06 KCAL/MOL
REMARK 923 INTER-LIGAND FREE ENERGY PREDICTED BY IDOCK:   -7.26 KCAL/MOL
REMARK 924 INTRA-LIGAND FREE ENERGY PREDICTED BY IDOCK:   -0.79 KCAL/MOL
REMARK 927      BINDING AFFINITY PREDICTED BY RF-SCORE:    0.00 PKD
ROOT
HETATM    1  C   UNL     1      -8.440   9.037  70.914  1.00  0.00    -0.253 C  
HETATM    2  C   UNL     1      -9.041   8.373  72.142  1.00  0.00    -0.309 C  
ENDROOT
BRANCH   2   3
HETATM    3  C   UNL     1     -10.545   8.631  72.319  1.00  0.00    -0.305 C  
BRANCH   3   4
HETATM    4  N   UNL     1     -11.368   8.747  71.094  1.00  0.00    -0.270 NA 
BRANCH   4   5
HETATM    5  C   UNL     1     -12.149   7.512  70.857  1.00  0.00    -0.226 C  
BRANCH   5   6
HETATM    6  C   UNL     1     -11.473   6.442  69.979  1.00  0.00    -0.496 C  
HETATM    7  C   UNL     1     -10.776   7.013  68.753  1.00  0.00    -0.226 C  
ENDBRANCH   5   6
ENDBRANCH   4   5
BRANCH   4   8
HETATM    8  C   UNL     1     -12.268   9.925  71.202  1.00  0.00    -0.373 C  
BRANCH   8   9
HETATM    9  C   UNL     1     -11.854  11.188  70.413  1.00  0.00    -0.462 C  
BRANCH   9  10
HETATM   10  C   UNL     1     -12.496  12.468  70.885  1.00  0.00    -0.361 A  
HETATM   11  C   UNL     1     -12.300  13.684  70.239  1.00  0.00    -0.392 A  
HETATM   12  C   UNL     1     -11.487  14.022  69.020  1.00  0.00    -0.337 C  
HETATM   13  C   UNL     1     -11.730  15.525  68.864  1.00  0.00    -0.370 C  
HETATM   14  N   UNL     1     -12.570  15.920  69.897  1.00  0.00    -0.551 N  
HETATM   15  O   UNL     1     -11.272  16.251  67.998  1.00  0.00    -0.334 OA 
HETATM   16  H   UNL     1     -12.896  16.876  70.038  1.00  0.00     0.000 HD 
HETATM   17  C   UNL     1     -12.906  14.850  70.711  1.00  0.00    -0.372 A  
HETATM   18  C   UNL     1     -13.717  14.876  71.823  1.00  0.00    -0.530 A  
HETATM   19  C   UNL     1     -13.916  13.670  72.491  1.00  0.00    -0.572 A  
HETATM   20  C   UNL     1     -13.311  12.484  72.033  1.00  0.00    -0.528 A  
ENDBRANCH   9  10
ENDBRANCH   8   9
ENDBRANCH   4   8
ENDBRANCH   3   4
ENDBRANCH   2   3
TORSDOF 7
ENDMDL
MODEL       31
REMARK 921   NORMALIZED FREE ENERGY PREDICTED BY IDOCK:   -5.09 KCAL/MOL
REMARK 922        TOTAL FREE ENERGY PREDICTED BY IDOCK:   -8.06 KCAL/MOL
REMARK 923 INTER-LIGAND FREE ENERGY PREDICTED BY IDOCK:   -7.21 KCAL/MOL
REMARK 924 INTRA-LIGAND FREE ENERGY PREDICTED BY IDOCK:   -0.85 KCAL/MOL
REMARK 927      BINDING AFFINITY PREDICTED BY RF-SCORE:    0.00 PKD
ROOT
HETATM    1  C   UNL     1     -10.857   6.962  68.319  1.00  0.00    -0.244 C  
HETATM    2  C   UNL     1      -9.676   7.546  69.077  1.00  0.00    -0.162 C  
ENDROOT
BRANCH   2   3
HETATM    3  C   UNL     1     -10.074   8.506  70.209  1.00  0.00    -0.186 C  
BRANCH   3   4
HETATM    4  N   UNL     1     -11.149   9.484  69.931  1.00  0.00    -0.234 NA 
BRANCH   4   5
HETATM    5  C   UNL     1     -11.810   9.920  71.181  1.00  0.00    -0.386 C  
BRANCH   5   6
HETATM    6  C   UNL     1     -12.415   8.803  72.052  1.00  0.00    -0.452 C  
HETATM    7  C   UNL     1     -13.894   8.562  71.790  1.00  0.00    -0.462 C  
ENDBRANCH   5   6
ENDBRANCH   4   5
BRANCH   4   8
HETATM    8  C   UNL     1     -10.592  10.651  69.197  1.00  0.00    -0.226 C  
BRANCH   8   9
HETATM    9  C   UNL     1     -11.504  11.300  68.131  1.00  0.00    -0.376 C  
BRANCH   9  10
HETATM   10  C   UNL     1     -11.007  11.178  66.713  1.00  0.00    -0.309 A  
HETATM   11  C   UNL     1     -11.333  12.101  65.726  1.00  0.00    -0.402 A  
HETATM   12  C   UNL     1     -12.176  13.345  65.792  1.00  0.00    -0.507 C  
HETATM   13  C   UNL     1     -12.099  13.876  64.359  1.00  0.00    -0.443 C  
HETATM   14  N   UNL     1     -11.309  12.995  63.631  1.00  0.00    -0.592 N  
HETATM   15  O   UNL     1     -12.631  14.884  63.925  1.00  0.00    -0.831 OA 
HETATM   16  H   UNL     1     -11.089  13.105  62.641  1.00  0.00     0.000 HD 
HETATM   17  C   UNL     1     -10.860  11.950  64.421  1.00  0.00    -0.332 A  
HETATM   18  C   UNL     1     -10.059  10.900  64.031  1.00  0.00    -0.419 A  
HETATM   19  C   UNL     1      -9.731   9.957  65.003  1.00  0.00    -0.359 A  
HETATM   20  C   UNL     1     -10.201  10.091  66.324  1.00  0.00    -0.285 A  
ENDBRANCH   9  10
ENDBRANCH   8   9
ENDBRANCH   4   8
ENDBRANCH   3   4
ENDBRANCH   2   3
TORSDOF 7
ENDMDL
MODEL       32
REMARK 921   NORMALIZED FREE ENERGY PREDICTED BY IDOCK:   -5.07 KCAL/MOL
REMARK 922        TOTAL FREE ENERGY PREDICTED BY IDOCK:   -8.02 KCAL/MOL
REMARK 923 INTER-LIGAND FREE ENERGY PREDICTED BY IDOCK:   -7.31 KCAL/MOL
REMARK 924 INTRA-LIGAND FREE ENERGY PREDICTED BY IDOCK:   -0.72 KCAL/MOL
REMARK 927      BINDING AFFINITY PREDICTED BY RF-SCORE:    0.00 PKD
ROOT
HETATM    1  C   UNL     1     -14.155   8.676  72.050  1.00  0.00    -0.523 C  
HETATM    2  C   UNL     1     -13.248   9.894  72.128  1.00  0.00    -0.511 C  
ENDROOT
BRANCH   2   3
HETATM    3  C   UNL     1     -12.796  10.424  70.758  1.00  0.00    -0.364 C  
BRANCH   3   4
HETATM    4  N   UNL     1     -11.341  10.482  70.492  1.00  0.00    -0.325 NA 
BRANCH   4   5
HETATM    5  C   UNL     1     -10.643   9.326  71.096  1.00  0.00    -0.332 C  
BRANCH   5   6
HETATM    6  C   UNL     1     -10.406   8.118  70.170  1.00  0.00    -0.215 C  
HETATM    7  C   UNL     1     -11.265   6.910  70.515  1.00  0.00    -0.353 C  
ENDBRANCH   5   6
ENDBRANCH   4   5
BRANCH   4   8
HETATM    8  C   UNL     1     -11.099  10.535  69.027  1.00  0.00    -0.249 C  
BRANCH   8   9
HETATM    9  C   UNL     1     -11.897  11.593  68.230  1.00  0.00    -0.335 C  
BRANCH   9  10
HETATM   10  C   UNL     1     -11.061  12.681  67.607  1.00  0.00    -0.303 A  
HETATM   11  C   UNL     1     -11.301  13.166  66.326  1.00  0.00    -0.348 A  
HETATM   12  C   UNL     1     -12.350  12.785  65.318  1.00  0.00    -0.546 C  
HETATM   13  C   UNL     1     -12.040  13.717  64.145  1.00  0.00    -0.433 C  
HETATM   14  N   UNL     1     -10.942  14.488  64.505  1.00  0.00    -0.608 N  
HETATM   15  O   UNL     1     -12.637  13.777  63.083  1.00  0.00    -0.793 OA 
HETATM   16  H   UNL     1     -10.517  15.197  63.908  1.00  0.00     0.000 HD 
HETATM   17  C   UNL     1     -10.499  14.170  65.779  1.00  0.00    -0.311 A  
HETATM   18  C   UNL     1      -9.439  14.732  66.453  1.00  0.00    -0.328 A  
HETATM   19  C   UNL     1      -9.174  14.251  67.734  1.00  0.00    -0.194 A  
HETATM   20  C   UNL     1      -9.970  13.237  68.301  1.00  0.00    -0.236 A  
ENDBRANCH   9  10
ENDBRANCH   8   9
ENDBRANCH   4   8
ENDBRANCH   3   4
ENDBRANCH   2   3
TORSDOF 7
ENDMDL
MODEL       33
REMARK 921   NORMALIZED FREE ENERGY PREDICTED BY IDOCK:   -5.04 KCAL/MOL
REMARK 922        TOTAL FREE ENERGY PREDICTED BY IDOCK:   -7.99 KCAL/MOL
REMARK 923 INTER-LIGAND FREE ENERGY PREDICTED BY IDOCK:   -7.45 KCAL/MOL
REMARK 924 INTRA-LIGAND FREE ENERGY PREDICTED BY IDOCK:   -0.54 KCAL/MOL
REMARK 927      BINDING AFFINITY PREDICTED BY RF-SCORE:    0.00 PKD
ROOT
HETATM    1  C   UNL     1     -14.409   7.193  71.611  1.00  0.00    -0.528 C  
HETATM    2  C   UNL     1     -12.912   7.133  71.351  1.00  0.00    -0.419 C  
ENDROOT
BRANCH   2   3
HETATM    3  C   UNL     1     -12.068   7.900  72.380  1.00  0.00    -0.286 C  
BRANCH   3   4
HETATM    4  N   UNL     1     -11.424   9.157  71.938  1.00  0.00    -0.371 NA 
BRANCH   4   5
HETATM    5  C   UNL     1     -10.484   8.910  70.822  1.00  0.00    -0.227 C  
BRANCH   5   6
HETATM    6  C   UNL     1      -8.997   8.785  71.203  1.00  0.00    -0.280 C  
HETATM    7  C   UNL     1      -8.069   9.591  70.307  1.00  0.00    -0.200 C  
ENDBRANCH   5   6
ENDBRANCH   4   5
BRANCH   4   8
HETATM    8  C   UNL     1     -12.463  10.142  71.542  1.00  0.00    -0.427 C  
BRANCH   8   9
HETATM    9  C   UNL     1     -12.052  11.201  70.493  1.00  0.00    -0.474 C  
BRANCH   9  10
HETATM   10  C   UNL     1     -12.532  12.600  70.782  1.00  0.00    -0.357 A  
HETATM   11  C   UNL     1     -12.227  13.679  69.960  1.00  0.00    -0.395 A  
HETATM   12  C   UNL     1     -11.423  13.743  68.690  1.00  0.00    -0.336 C  
HETATM   13  C   UNL     1     -11.505  15.225  68.319  1.00  0.00    -0.347 C  
HETATM   14  N   UNL     1     -12.260  15.858  69.297  1.00  0.00    -0.468 N  
HETATM   15  O   UNL     1     -11.001  15.762  67.347  1.00  0.00    -0.320 OA 
HETATM   16  H   UNL     1     -12.475  16.856  69.302  1.00  0.00     0.000 HD 
HETATM   17  C   UNL     1     -12.684  14.963  70.266  1.00  0.00    -0.271 A  
HETATM   18  C   UNL     1     -13.447  15.241  71.377  1.00  0.00    -0.588 A  
HETATM   19  C   UNL     1     -13.754  14.175  72.220  1.00  0.00    -0.623 A  
HETATM   20  C   UNL     1     -13.300  12.874  71.930  1.00  0.00    -0.530 A  
ENDBRANCH   9  10
ENDBRANCH   8   9
ENDBRANCH   4   8
ENDBRANCH   3   4
ENDBRANCH   2   3
TORSDOF 7
ENDMDL
MODEL       34
REMARK 921   NORMALIZED FREE ENERGY PREDICTED BY IDOCK:   -4.99 KCAL/MOL
REMARK 922        TOTAL FREE ENERGY PREDICTED BY IDOCK:   -7.92 KCAL/MOL
REMARK 923 INTER-LIGAND FREE ENERGY PREDICTED BY IDOCK:   -7.34 KCAL/MOL
REMARK 924 INTRA-LIGAND FREE ENERGY PREDICTED BY IDOCK:   -0.58 KCAL/MOL
REMARK 927      BINDING AFFINITY PREDICTED BY RF-SCORE:    0.00 PKD
ROOT
HETATM    1  C   UNL     1     -14.356   7.345  71.501  1.00  0.00    -0.594 C  
HETATM    2  C   UNL     1     -12.846   7.197  71.600  1.00  0.00    -0.420 C  
ENDROOT
BRANCH   2   3
HETATM    3  C   UNL     1     -12.158   8.324  72.387  1.00  0.00    -0.369 C  
BRANCH   3   4
HETATM    4  N   UNL     1     -10.955   8.943  71.786  1.00  0.00    -0.339 NA 
BRANCH   4   5
HETATM    5  C   UNL     1     -10.078   7.919  71.175  1.00  0.00    -0.184 C  
BRANCH   5   6
HETATM    6  C   UNL     1      -8.982   7.335  72.086  1.00  0.00    -0.148 C  
HETATM    7  C   UNL     1      -8.601   8.248  73.241  1.00  0.00    -0.273 C  
ENDBRANCH   5   6
ENDBRANCH   4   5
BRANCH   4   8
HETATM    8  C   UNL     1     -11.361   9.956  70.778  1.00  0.00    -0.353 C  
BRANCH   8   9
HETATM    9  C   UNL     1     -12.362  11.038  71.246  1.00  0.00    -0.426 C  
BRANCH   9  10
HETATM   10  C   UNL     1     -12.286  12.341  70.491  1.00  0.00    -0.387 A  
HETATM   11  C   UNL     1     -12.668  13.553  71.055  1.00  0.00    -0.399 A  
HETATM   12  C   UNL     1     -13.202  13.868  72.425  1.00  0.00    -0.587 C  
HETATM   13  C   UNL     1     -13.396  15.384  72.367  1.00  0.00    -0.458 C  
HETATM   14  N   UNL     1     -13.014  15.804  71.099  1.00  0.00    -0.524 N  
HETATM   15  O   UNL     1     -13.813  16.101  73.262  1.00  0.00    -0.559 OA 
HETATM   16  H   UNL     1     -13.042  16.773  70.782  1.00  0.00     0.000 HD 
HETATM   17  C   UNL     1     -12.590  14.739  70.321  1.00  0.00    -0.315 A  
HETATM   18  C   UNL     1     -12.143  14.787  69.020  1.00  0.00    -0.256 A  
HETATM   19  C   UNL     1     -11.767  13.581  68.434  1.00  0.00    -0.393 A  
HETATM   20  C   UNL     1     -11.841  12.374  69.156  1.00  0.00    -0.352 A  
ENDBRANCH   9  10
ENDBRANCH   8   9
ENDBRANCH   4   8
ENDBRANCH   3   4
ENDBRANCH   2   3
TORSDOF 7
ENDMDL
MODEL       35
REMARK 921   NORMALIZED FREE ENERGY PREDICTED BY IDOCK:   -4.99 KCAL/MOL
REMARK 922        TOTAL FREE ENERGY PREDICTED BY IDOCK:   -7.92 KCAL/MOL
REMARK 923 INTER-LIGAND FREE ENERGY PREDICTED BY IDOCK:   -6.59 KCAL/MOL
REMARK 924 INTRA-LIGAND FREE ENERGY PREDICTED BY IDOCK:   -1.33 KCAL/MOL
REMARK 927      BINDING AFFINITY PREDICTED BY RF-SCORE:    0.00 PKD
ROOT
HETATM    1  C   UNL     1     -10.212  20.119  67.202  1.00  0.00    -0.554 C  
HETATM    2  C   UNL     1     -10.534  18.719  67.697  1.00  0.00    -0.495 C  
ENDROOT
BRANCH   2   3
HETATM    3  C   UNL     1      -9.396  17.707  67.495  1.00  0.00    -0.248 C  
BRANCH   3   4
HETATM    4  N   UNL     1      -9.687  16.283  67.777  1.00  0.00    -0.232 NA 
BRANCH   4   5
HETATM    5  C   UNL     1      -8.440  15.516  67.993  1.00  0.00    -0.143 C  
BRANCH   5   6
HETATM    6  C   UNL     1      -8.263  14.252  67.130  1.00  0.00    -0.184 C  
HETATM    7  C   UNL     1      -7.918  13.010  67.937  1.00  0.00    -0.157 C  
ENDBRANCH   5   6
ENDBRANCH   4   5
BRANCH   4   8
HETATM    8  C   UNL     1     -10.581  16.177  68.959  1.00  0.00    -0.273 C  
BRANCH   8   9
HETATM    9  C   UNL     1     -11.908  15.409  68.759  1.00  0.00    -0.339 C  
BRANCH   9  10
HETATM   10  C   UNL     1     -11.752  13.995  68.257  1.00  0.00    -0.392 A  
HETATM   11  C   UNL     1     -11.936  13.653  66.923  1.00  0.00    -0.454 A  
HETATM   12  C   UNL     1     -12.297  14.504  65.736  1.00  0.00    -0.249 C  
HETATM   13  C   UNL     1     -12.319  13.488  64.592  1.00  0.00    -0.372 C  
HETATM   14  N   UNL     1     -12.012  12.246  65.132  1.00  0.00    -0.370 N  
HETATM   15  O   UNL     1     -12.563  13.717  63.419  1.00  0.00    -0.842 OA 
HETATM   16  H   UNL     1     -11.958  11.382  64.592  1.00  0.00     0.000 HD 
HETATM   17  C   UNL     1     -11.791  12.331  66.497  1.00  0.00    -0.306 A  
HETATM   18  C   UNL     1     -11.467  11.300  67.351  1.00  0.00    -0.300 A  
HETATM   19  C   UNL     1     -11.290  11.622  68.695  1.00  0.00    -0.326 A  
HETATM   20  C   UNL     1     -11.435  12.948  69.144  1.00  0.00    -0.360 A  
ENDBRANCH   9  10
ENDBRANCH   8   9
ENDBRANCH   4   8
ENDBRANCH   3   4
ENDBRANCH   2   3
TORSDOF 7
ENDMDL
MODEL       36
REMARK 921   NORMALIZED FREE ENERGY PREDICTED BY IDOCK:   -4.99 KCAL/MOL
REMARK 922        TOTAL FREE ENERGY PREDICTED BY IDOCK:   -7.91 KCAL/MOL
REMARK 923 INTER-LIGAND FREE ENERGY PREDICTED BY IDOCK:   -7.37 KCAL/MOL
REMARK 924 INTRA-LIGAND FREE ENERGY PREDICTED BY IDOCK:   -0.54 KCAL/MOL
REMARK 927      BINDING AFFINITY PREDICTED BY RF-SCORE:    0.00 PKD
ROOT
HETATM    1  C   UNL     1     -13.056  10.431  71.839  1.00  0.00    -0.563 C  
HETATM    2  C   UNL     1     -13.095  11.950  71.907  1.00  0.00    -0.474 C  
ENDROOT
BRANCH   2   3
HETATM    3  C   UNL     1     -12.312  12.645  70.782  1.00  0.00    -0.283 C  
BRANCH   3   4
HETATM    4  N   UNL     1     -12.496  14.104  70.621  1.00  0.00    -0.341 NA 
BRANCH   4   5
HETATM    5  C   UNL     1     -11.843  14.848  71.721  1.00  0.00    -0.356 C  
BRANCH   5   6
HETATM    6  C   UNL     1     -12.784  15.582  72.696  1.00  0.00    -0.510 C  
HETATM    7  C   UNL     1     -12.346  15.488  74.150  1.00  0.00    -0.806 C  
ENDBRANCH   5   6
ENDBRANCH   4   5
BRANCH   4   8
HETATM    8  C   UNL     1     -11.961  14.538  69.304  1.00  0.00    -0.319 C  
BRANCH   8   9
HETATM    9  C   UNL     1     -11.068  13.525  68.551  1.00  0.00    -0.300 C  
BRANCH   9  10
HETATM   10  C   UNL     1     -11.445  13.298  67.109  1.00  0.00    -0.380 A  
HETATM   11  C   UNL     1     -10.958  12.225  66.371  1.00  0.00    -0.326 A  
HETATM   12  C   UNL     1     -10.026  11.111  66.763  1.00  0.00    -0.242 C  
HETATM   13  C   UNL     1      -9.933  10.287  65.478  1.00  0.00    -0.296 C  
HETATM   14  N   UNL     1     -10.723  10.913  64.523  1.00  0.00    -0.278 N  
HETATM   15  O   UNL     1      -9.284   9.268  65.311  1.00  0.00    -0.224 OA 
HETATM   16  H   UNL     1     -10.845  10.578  63.567  1.00  0.00     0.000 HD 
HETATM   17  C   UNL     1     -11.325  12.052  65.034  1.00  0.00    -0.310 A  
HETATM   18  C   UNL     1     -12.170  12.913  64.371  1.00  0.00    -0.484 A  
HETATM   19  C   UNL     1     -12.658  14.001  65.091  1.00  0.00    -0.453 A  
HETATM   20  C   UNL     1     -12.298  14.194  66.439  1.00  0.00    -0.431 A  
ENDBRANCH   9  10
ENDBRANCH   8   9
ENDBRANCH   4   8
ENDBRANCH   3   4
ENDBRANCH   2   3
TORSDOF 7
ENDMDL
MODEL       37
REMARK 921   NORMALIZED FREE ENERGY PREDICTED BY IDOCK:   -4.97 KCAL/MOL
REMARK 922        TOTAL FREE ENERGY PREDICTED BY IDOCK:   -7.89 KCAL/MOL
REMARK 923 INTER-LIGAND FREE ENERGY PREDICTED BY IDOCK:   -7.22 KCAL/MOL
REMARK 924 INTRA-LIGAND FREE ENERGY PREDICTED BY IDOCK:   -0.67 KCAL/MOL
REMARK 927      BINDING AFFINITY PREDICTED BY RF-SCORE:    0.00 PKD
ROOT
HETATM    1  C   UNL     1     -14.371   7.510  71.574  1.00  0.00    -0.603 C  
HETATM    2  C   UNL     1     -13.810   8.731  72.286  1.00  0.00    -0.505 C  
ENDROOT
BRANCH   2   3
HETATM    3  C   UNL     1     -12.280   8.724  72.426  1.00  0.00    -0.326 C  
BRANCH   3   4
HETATM    4  N   UNL     1     -11.488   9.301  71.317  1.00  0.00    -0.317 NA 
BRANCH   4   5
HETATM    5  C   UNL     1     -10.857   8.239  70.503  1.00  0.00    -0.232 C  
BRANCH   5   6
HETATM    6  C   UNL     1     -10.703   6.865  71.183  1.00  0.00    -0.252 C  
HETATM    7  C   UNL     1      -9.255   6.429  71.351  1.00  0.00    -0.150 C  
ENDBRANCH   5   6
ENDBRANCH   4   5
BRANCH   4   8
HETATM    8  C   UNL     1     -12.357  10.163  70.473  1.00  0.00    -0.245 C  
BRANCH   8   9
HETATM    9  C   UNL     1     -11.770  11.526  70.038  1.00  0.00    -0.414 C  
BRANCH   9  10
HETATM   10  C   UNL     1     -12.406  12.727  70.691  1.00  0.00    -0.381 A  
HETATM   11  C   UNL     1     -12.142  14.028  70.277  1.00  0.00    -0.425 A  
HETATM   12  C   UNL     1     -11.250  14.542  69.181  1.00  0.00    -0.294 C  
HETATM   13  C   UNL     1     -11.446  16.057  69.276  1.00  0.00    -0.350 C  
HETATM   14  N   UNL     1     -12.334  16.298  70.316  1.00  0.00    -0.320 N  
HETATM   15  O   UNL     1     -10.919  16.905  68.575  1.00  0.00    -0.350 OA 
HETATM   16  H   UNL     1     -12.645  17.226  70.604  1.00  0.00     0.000 HD 
HETATM   17  C   UNL     1     -12.745  15.116  70.912  1.00  0.00    -0.401 A  
HETATM   18  C   UNL     1     -13.618  14.979  71.967  1.00  0.00    -0.522 A  
HETATM   19  C   UNL     1     -13.886  13.683  72.404  1.00  0.00    -0.691 A  
HETATM   20  C   UNL     1     -13.286  12.573  71.779  1.00  0.00    -0.444 A  
ENDBRANCH   9  10
ENDBRANCH   8   9
ENDBRANCH   4   8
ENDBRANCH   3   4
ENDBRANCH   2   3
TORSDOF 7
ENDMDL
MODEL       38
REMARK 921   NORMALIZED FREE ENERGY PREDICTED BY IDOCK:   -4.97 KCAL/MOL
REMARK 922        TOTAL FREE ENERGY PREDICTED BY IDOCK:   -7.88 KCAL/MOL
REMARK 923 INTER-LIGAND FREE ENERGY PREDICTED BY IDOCK:   -7.00 KCAL/MOL
REMARK 924 INTRA-LIGAND FREE ENERGY PREDICTED BY IDOCK:   -0.89 KCAL/MOL
REMARK 927      BINDING AFFINITY PREDICTED BY RF-SCORE:    0.00 PKD
ROOT
HETATM    1  C   UNL     1     -11.185   6.182  70.052  1.00  0.00    -0.471 C  
HETATM    2  C   UNL     1     -10.089   6.689  70.975  1.00  0.00    -0.207 C  
ENDROOT
BRANCH   2   3
HETATM    3  C   UNL     1     -10.563   7.745  71.986  1.00  0.00    -0.228 C  
BRANCH   3   4
HETATM    4  N   UNL     1     -11.650   8.657  71.565  1.00  0.00    -0.282 NA 
BRANCH   4   5
HETATM    5  C   UNL     1     -12.630   8.858  72.655  1.00  0.00    -0.197 C  
BRANCH   5   6
HETATM    6  C   UNL     1     -14.108   8.625  72.288  1.00  0.00    -0.491 C  
HETATM    7  C   UNL     1     -14.362   7.290  71.604  1.00  0.00    -0.583 C  
ENDBRANCH   5   6
ENDBRANCH   4   5
BRANCH   4   8
HETATM    8  C   UNL     1     -11.076   9.957  71.129  1.00  0.00    -0.289 C  
BRANCH   8   9
HETATM    9  C   UNL     1     -11.844  10.719  70.024  1.00  0.00    -0.424 C  
BRANCH   9  10
HETATM   10  C   UNL     1     -12.304  12.101  70.412  1.00  0.00    -0.315 A  
HETATM   11  C   UNL     1     -11.994  13.229  69.660  1.00  0.00    -0.376 A  
HETATM   12  C   UNL     1     -11.203  13.367  68.388  1.00  0.00    -0.311 C  
HETATM   13  C   UNL     1     -11.271  14.871  68.116  1.00  0.00    -0.299 C  
HETATM   14  N   UNL     1     -12.007  15.447  69.143  1.00  0.00    -0.500 N  
HETATM   15  O   UNL     1     -10.770  15.466  67.176  1.00  0.00    -0.303 OA 
HETATM   16  H   UNL     1     -12.209  16.444  69.216  1.00  0.00     0.000 HD 
HETATM   17  C   UNL     1     -12.431  14.494  70.055  1.00  0.00    -0.298 A  
HETATM   18  C   UNL     1     -13.180  14.708  71.191  1.00  0.00    -0.431 A  
HETATM   19  C   UNL     1     -13.491  13.592  71.964  1.00  0.00    -0.584 A  
HETATM   20  C   UNL     1     -13.056  12.308  71.584  1.00  0.00    -0.408 A  
ENDBRANCH   9  10
ENDBRANCH   8   9
ENDBRANCH   4   8
ENDBRANCH   3   4
ENDBRANCH   2   3
TORSDOF 7
ENDMDL
MODEL       39
REMARK 921   NORMALIZED FREE ENERGY PREDICTED BY IDOCK:   -4.96 KCAL/MOL
REMARK 922        TOTAL FREE ENERGY PREDICTED BY IDOCK:   -7.88 KCAL/MOL
REMARK 923 INTER-LIGAND FREE ENERGY PREDICTED BY IDOCK:   -7.10 KCAL/MOL
REMARK 924 INTRA-LIGAND FREE ENERGY PREDICTED BY IDOCK:   -0.77 KCAL/MOL
REMARK 927      BINDING AFFINITY PREDICTED BY RF-SCORE:    0.00 PKD
ROOT
HETATM    1  C   UNL     1     -11.796  14.479  70.334  1.00  0.00    -0.378 C  
HETATM    2  C   UNL     1     -12.126  14.135  68.890  1.00  0.00    -0.339 C  
ENDROOT
BRANCH   2   3
HETATM    3  C   UNL     1     -11.145  13.146  68.243  1.00  0.00    -0.266 C  
BRANCH   3   4
HETATM    4  N   UNL     1     -11.717  12.014  67.481  1.00  0.00    -0.517 NA 
BRANCH   4   5
HETATM    5  C   UNL     1     -11.395  12.123  66.041  1.00  0.00    -0.358 C  
BRANCH   5   6
HETATM    6  C   UNL     1     -12.486  12.743  65.147  1.00  0.00    -0.565 C  
HETATM    7  C   UNL     1     -12.469  12.221  63.718  1.00  0.00    -0.619 C  
ENDBRANCH   5   6
ENDBRANCH   4   5
BRANCH   4   8
HETATM    8  C   UNL     1     -11.216  10.729  68.035  1.00  0.00    -0.307 C  
BRANCH   8   9
HETATM    9  C   UNL     1     -10.660  10.765  69.477  1.00  0.00    -0.235 C  
BRANCH   9  10
HETATM   10  C   UNL     1     -11.558  10.148  70.519  1.00  0.00    -0.411 A  
HETATM   11  C   UNL     1     -11.109   9.186  71.416  1.00  0.00    -0.415 A  
HETATM   12  C   UNL     1      -9.750   8.564  71.583  1.00  0.00    -0.322 C  
HETATM   13  C   UNL     1      -9.964   7.604  72.754  1.00  0.00    -0.241 C  
HETATM   14  N   UNL     1     -11.293   7.710  73.142  1.00  0.00    -0.596 N  
HETATM   15  O   UNL     1      -9.129   6.871  73.259  1.00  0.00    -0.129 OA 
HETATM   16  H   UNL     1     -11.714   7.179  73.904  1.00  0.00     0.000 HD 
HETATM   17  C   UNL     1     -11.974   8.631  72.362  1.00  0.00    -0.340 A  
HETATM   18  C   UNL     1     -13.300   8.988  72.466  1.00  0.00    -0.480 A  
HETATM   19  C   UNL     1     -13.771   9.943  71.567  1.00  0.00    -0.223 A  
HETATM   20  C   UNL     1     -12.916  10.511  70.604  1.00  0.00    -0.362 A  
ENDBRANCH   9  10
ENDBRANCH   8   9
ENDBRANCH   4   8
ENDBRANCH   3   4
ENDBRANCH   2   3
TORSDOF 7
ENDMDL
MODEL       40
REMARK 921   NORMALIZED FREE ENERGY PREDICTED BY IDOCK:   -4.95 KCAL/MOL
REMARK 922        TOTAL FREE ENERGY PREDICTED BY IDOCK:   -7.85 KCAL/MOL
REMARK 923 INTER-LIGAND FREE ENERGY PREDICTED BY IDOCK:   -7.30 KCAL/MOL
REMARK 924 INTRA-LIGAND FREE ENERGY PREDICTED BY IDOCK:   -0.55 KCAL/MOL
REMARK 927      BINDING AFFINITY PREDICTED BY RF-SCORE:    0.00 PKD
ROOT
HETATM    1  C   UNL     1      -9.944   5.136  69.765  1.00  0.00    -0.313 C  
HETATM    2  C   UNL     1     -11.108   6.070  70.054  1.00  0.00    -0.451 C  
ENDROOT
BRANCH   2   3
HETATM    3  C   UNL     1     -10.713   7.553  70.138  1.00  0.00    -0.239 C  
BRANCH   3   4
HETATM    4  N   UNL     1     -11.700   8.492  70.717  1.00  0.00    -0.250 NA 
BRANCH   4   5
HETATM    5  C   UNL     1     -11.799   8.324  72.183  1.00  0.00    -0.369 C  
BRANCH   5   6
HETATM    6  C   UNL     1     -10.465   8.193  72.942  1.00  0.00    -0.338 C  
HETATM    7  C   UNL     1     -10.378   6.945  73.807  1.00  0.00    -0.409 C  
ENDBRANCH   5   6
ENDBRANCH   4   5
BRANCH   4   8
HETATM    8  C   UNL     1     -11.328   9.889  70.372  1.00  0.00    -0.307 C  
BRANCH   8   9
HETATM    9  C   UNL     1     -12.239  11.007  70.929  1.00  0.00    -0.471 C  
BRANCH   9  10
HETATM   10  C   UNL     1     -12.153  12.319  70.192  1.00  0.00    -0.364 A  
HETATM   11  C   UNL     1     -12.671  13.501  70.710  1.00  0.00    -0.316 A  
HETATM   12  C   UNL     1     -13.379  13.771  72.009  1.00  0.00    -0.536 C  
HETATM   13  C   UNL     1     -13.655  15.274  71.932  1.00  0.00    -0.475 C  
HETATM   14  N   UNL     1     -13.154  15.728  70.719  1.00  0.00    -0.701 N  
HETATM   15  O   UNL     1     -14.216  15.956  72.774  1.00  0.00    -0.523 OA 
HETATM   16  H   UNL     1     -13.203  16.696  70.403  1.00  0.00     0.000 HD 
HETATM   17  C   UNL     1     -12.579  14.697  69.993  1.00  0.00    -0.230 A  
HETATM   18  C   UNL     1     -11.987  14.784  68.754  1.00  0.00    -0.292 A  
HETATM   19  C   UNL     1     -11.473  13.608  68.212  1.00  0.00    -0.348 A  
HETATM   20  C   UNL     1     -11.559  12.392  68.918  1.00  0.00    -0.364 A  
ENDBRANCH   9  10
ENDBRANCH   8   9
ENDBRANCH   4   8
ENDBRANCH   3   4
ENDBRANCH   2   3
TORSDOF 7
ENDMDL
MODEL       41
REMARK 921   NORMALIZED FREE ENERGY PREDICTED BY IDOCK:   -4.89 KCAL/MOL
REMARK 922        TOTAL FREE ENERGY PREDICTED BY IDOCK:   -7.77 KCAL/MOL
REMARK 923 INTER-LIGAND FREE ENERGY PREDICTED BY IDOCK:   -7.04 KCAL/MOL
REMARK 924 INTRA-LIGAND FREE ENERGY PREDICTED BY IDOCK:   -0.73 KCAL/MOL
REMARK 927      BINDING AFFINITY PREDICTED BY RF-SCORE:    0.00 PKD
ROOT
HETATM    1  C   UNL     1     -10.511   9.370  71.220  1.00  0.00    -0.385 C  
HETATM    2  C   UNL     1     -11.762  10.227  71.108  1.00  0.00    -0.430 C  
ENDROOT
BRANCH   2   3
HETATM    3  C   UNL     1     -11.918  10.932  69.752  1.00  0.00    -0.351 C  
BRANCH   3   4
HETATM    4  N   UNL     1     -10.723  11.016  68.883  1.00  0.00    -0.199 NA 
BRANCH   4   5
HETATM    5  C   UNL     1     -10.910  10.233  67.641  1.00  0.00    -0.307 C  
BRANCH   5   6
HETATM    6  C   UNL     1      -9.988   9.013  67.463  1.00  0.00    -0.262 C  
HETATM    7  C   UNL     1     -10.603   7.709  67.950  1.00  0.00    -0.233 C  
ENDBRANCH   5   6
ENDBRANCH   4   5
BRANCH   4   8
HETATM    8  C   UNL     1     -10.427  12.438  68.568  1.00  0.00    -0.228 C  
BRANCH   8   9
HETATM    9  C   UNL     1      -9.588  12.707  67.298  1.00  0.00    -0.203 C  
BRANCH   9  10
HETATM   10  C   UNL     1     -10.159  13.751  66.371  1.00  0.00    -0.297 A  
HETATM   11  C   UNL     1     -11.022  13.431  65.329  1.00  0.00    -0.306 A  
HETATM   12  C   UNL     1     -11.570  12.102  64.886  1.00  0.00    -0.371 C  
HETATM   13  C   UNL     1     -12.455  12.486  63.698  1.00  0.00    -0.470 C  
HETATM   14  N   UNL     1     -12.365  13.862  63.539  1.00  0.00    -1.087 N  
HETATM   15  O   UNL     1     -13.118  11.729  63.009  1.00  0.00    -0.508 OA 
HETATM   16  H   UNL     1     -12.854  14.391  62.818  1.00  0.00     0.000 HD 
HETATM   17  C   UNL     1     -11.524  14.426  64.486  1.00  0.00    -0.345 A  
HETATM   18  C   UNL     1     -11.205  15.757  64.625  1.00  0.00    -0.373 A  
HETATM   19  C   UNL     1     -10.332  16.096  65.657  1.00  0.00    -0.405 A  
HETATM   20  C   UNL     1      -9.813  15.108  66.515  1.00  0.00    -0.278 A  
ENDBRANCH   9  10
ENDBRANCH   8   9
ENDBRANCH   4   8
ENDBRANCH   3   4
ENDBRANCH   2   3
TORSDOF 7
ENDMDL
MODEL       42
REMARK 921   NORMALIZED FREE ENERGY PREDICTED BY IDOCK:   -4.88 KCAL/MOL
REMARK 922        TOTAL FREE ENERGY PREDICTED BY IDOCK:   -7.76 KCAL/MOL
REMARK 923 INTER-LIGAND FREE ENERGY PREDICTED BY IDOCK:   -7.19 KCAL/MOL
REMARK 924 INTRA-LIGAND FREE ENERGY PREDICTED BY IDOCK:   -0.57 KCAL/MOL
REMARK 927      BINDING AFFINITY PREDICTED BY RF-SCORE:    0.00 PKD
ROOT
HETATM    1  C   UNL     1     -13.672  14.323  72.572  1.00  0.00    -0.608 C  
HETATM    2  C   UNL     1     -13.325  14.514  71.104  1.00  0.00    -0.415 C  
ENDROOT
BRANCH   2   3
HETATM    3  C   UNL     1     -12.288  13.514  70.571  1.00  0.00    -0.342 C  
BRANCH   3   4
HETATM    4  N   UNL     1     -11.910  13.614  69.144  1.00  0.00    -0.329 NA 
BRANCH   4   5
HETATM    5  C   UNL     1     -10.784  14.555  68.955  1.00  0.00    -0.251 C  
BRANCH   5   6
HETATM    6  C   UNL     1     -11.131  15.908  68.307  1.00  0.00    -0.345 C  
HETATM    7  C   UNL     1     -10.480  17.098  68.996  1.00  0.00    -0.321 C  
ENDBRANCH   5   6
ENDBRANCH   4   5
BRANCH   4   8
HETATM    8  C   UNL     1     -11.564  12.268  68.618  1.00  0.00    -0.323 C  
BRANCH   8   9
HETATM    9  C   UNL     1     -10.522  12.216  67.478  1.00  0.00    -0.229 C  
BRANCH   9  10
HETATM   10  C   UNL     1     -11.100  12.292  66.087  1.00  0.00    -0.349 A  
HETATM   11  C   UNL     1     -10.584  11.560  65.023  1.00  0.00    -0.354 A  
HETATM   12  C   UNL     1      -9.434  10.592  64.970  1.00  0.00    -0.293 C  
HETATM   13  C   UNL     1      -9.434  10.157  63.503  1.00  0.00    -0.260 C  
HETATM   14  N   UNL     1     -10.465  10.835  62.867  1.00  0.00    -0.741 N  
HETATM   15  O   UNL     1      -8.669   9.363  62.979  1.00  0.00    -0.213 OA 
HETATM   16  H   UNL     1     -10.694  10.736  61.878  1.00  0.00     0.000 HD 
HETATM   17  C   UNL     1     -11.142  11.663  63.747  1.00  0.00    -0.420 A  
HETATM   18  C   UNL     1     -12.214  12.479  63.462  1.00  0.00    -0.652 A  
HETATM   19  C   UNL     1     -12.738  13.229  64.512  1.00  0.00    -0.229 A  
HETATM   20  C   UNL     1     -12.187  13.141  65.805  1.00  0.00    -0.514 A  
ENDBRANCH   9  10
ENDBRANCH   8   9
ENDBRANCH   4   8
ENDBRANCH   3   4
ENDBRANCH   2   3
TORSDOF 7
ENDMDL
MODEL       43
REMARK 921   NORMALIZED FREE ENERGY PREDICTED BY IDOCK:   -4.88 KCAL/MOL
REMARK 922        TOTAL FREE ENERGY PREDICTED BY IDOCK:   -7.76 KCAL/MOL
REMARK 923 INTER-LIGAND FREE ENERGY PREDICTED BY IDOCK:   -7.06 KCAL/MOL
REMARK 924 INTRA-LIGAND FREE ENERGY PREDICTED BY IDOCK:   -0.70 KCAL/MOL
REMARK 927      BINDING AFFINITY PREDICTED BY RF-SCORE:    0.00 PKD
ROOT
HETATM    1  C   UNL     1      -9.616  10.879  67.840  1.00  0.00    -0.175 C  
HETATM    2  C   UNL     1      -9.632  10.673  69.347  1.00  0.00    -0.120 C  
ENDROOT
BRANCH   2   3
HETATM    3  C   UNL     1     -10.402   9.423  69.799  1.00  0.00    -0.223 C  
BRANCH   3   4
HETATM    4  N   UNL     1     -11.781   9.612  70.300  1.00  0.00    -0.205 NA 
BRANCH   4   5
HETATM    5  C   UNL     1     -11.819   9.586  71.779  1.00  0.00    -0.360 C  
BRANCH   5   6
HETATM    6  C   UNL     1     -12.786   8.570  72.415  1.00  0.00    -0.373 C  
HETATM    7  C   UNL     1     -14.203   8.655  71.867  1.00  0.00    -0.507 C  
ENDBRANCH   5   6
ENDBRANCH   4   5
BRANCH   4   8
HETATM    8  C   UNL     1     -12.333  10.892  69.783  1.00  0.00    -0.256 C  
BRANCH   8   9
HETATM    9  C   UNL     1     -12.778  11.931  70.837  1.00  0.00    -0.301 C  
BRANCH   9  10
HETATM   10  C   UNL     1     -12.370  13.352  70.537  1.00  0.00    -0.401 A  
HETATM   11  C   UNL     1     -12.368  14.348  71.507  1.00  0.00    -0.427 A  
HETATM   12  C   UNL     1     -12.729  14.292  72.966  1.00  0.00    -0.391 C  
HETATM   13  C   UNL     1     -12.488  15.732  73.424  1.00  0.00    -0.528 C  
HETATM   14  N   UNL     1     -12.060  16.454  72.319  1.00  0.00    -0.606 N  
HETATM   15  O   UNL     1     -12.645  16.174  74.550  1.00  0.00    -0.724 OA 
HETATM   16  H   UNL     1     -11.827  17.447  72.336  1.00  0.00     0.000 HD 
HETATM   17  C   UNL     1     -11.991  15.654  71.189  1.00  0.00    -0.409 A  
HETATM   18  C   UNL     1     -11.608  16.037  69.924  1.00  0.00    -0.301 A  
HETATM   19  C   UNL     1     -11.615  15.055  68.935  1.00  0.00    -0.349 A  
HETATM   20  C   UNL     1     -11.995  13.733  69.235  1.00  0.00    -0.399 A  
ENDBRANCH   9  10
ENDBRANCH   8   9
ENDBRANCH   4   8
ENDBRANCH   3   4
ENDBRANCH   2   3
TORSDOF 7
ENDMDL
MODEL       44
REMARK 921   NORMALIZED FREE ENERGY PREDICTED BY IDOCK:   -4.87 KCAL/MOL
REMARK 922        TOTAL FREE ENERGY PREDICTED BY IDOCK:   -7.75 KCAL/MOL
REMARK 923 INTER-LIGAND FREE ENERGY PREDICTED BY IDOCK:   -6.99 KCAL/MOL
REMARK 924 INTRA-LIGAND FREE ENERGY PREDICTED BY IDOCK:   -0.76 KCAL/MOL
REMARK 927      BINDING AFFINITY PREDICTED BY RF-SCORE:    0.00 PKD
ROOT
HETATM    1  C   UNL     1     -12.063  12.231  63.745  1.00  0.00    -0.624 C  
HETATM    2  C   UNL     1     -10.993  12.307  64.822  1.00  0.00    -0.346 C  
ENDROOT
BRANCH   2   3
HETATM    3  C   UNL     1     -11.549  12.481  66.244  1.00  0.00    -0.394 C  
BRANCH   3   4
HETATM    4  N   UNL     1     -10.677  12.084  67.373  1.00  0.00    -0.222 NA 
BRANCH   4   5
HETATM    5  C   UNL     1     -10.578  13.167  68.376  1.00  0.00    -0.251 C  
BRANCH   5   6
HETATM    6  C   UNL     1     -11.890  13.901  68.713  1.00  0.00    -0.396 C  
HETATM    7  C   UNL     1     -12.005  14.300  70.177  1.00  0.00    -0.391 C  
ENDBRANCH   5   6
ENDBRANCH   4   5
BRANCH   4   8
HETATM    8  C   UNL     1     -11.194  10.838  67.995  1.00  0.00    -0.307 C  
BRANCH   8   9
HETATM    9  C   UNL     1     -10.535  10.399  69.323  1.00  0.00    -0.257 C  
BRANCH   9  10
HETATM   10  C   UNL     1     -11.501   9.989  70.405  1.00  0.00    -0.389 A  
HETATM   11  C   UNL     1     -11.491   8.719  70.971  1.00  0.00    -0.337 A  
HETATM   12  C   UNL     1     -10.607   7.534  70.697  1.00  0.00    -0.231 C  
HETATM   13  C   UNL     1     -11.139   6.487  71.678  1.00  0.00    -0.259 C  
HETATM   14  N   UNL     1     -12.190   7.067  72.376  1.00  0.00    -0.505 N  
HETATM   15  O   UNL     1     -10.725   5.349  71.825  1.00  0.00    -0.232 OA 
HETATM   16  H   UNL     1     -12.732   6.592  73.098  1.00  0.00     0.000 HD 
HETATM   17  C   UNL     1     -12.407   8.373  71.967  1.00  0.00    -0.361 A  
HETATM   18  C   UNL     1     -13.363   9.243  72.441  1.00  0.00    -0.521 A  
HETATM   19  C   UNL     1     -13.397  10.517  71.877  1.00  0.00    -0.461 A  
HETATM   20  C   UNL     1     -12.483  10.884  70.870  1.00  0.00    -0.507 A  
ENDBRANCH   9  10
ENDBRANCH   8   9
ENDBRANCH   4   8
ENDBRANCH   3   4
ENDBRANCH   2   3
TORSDOF 7
ENDMDL
MODEL       45
REMARK 921   NORMALIZED FREE ENERGY PREDICTED BY IDOCK:   -4.87 KCAL/MOL
REMARK 922        TOTAL FREE ENERGY PREDICTED BY IDOCK:   -7.75 KCAL/MOL
REMARK 923 INTER-LIGAND FREE ENERGY PREDICTED BY IDOCK:   -6.98 KCAL/MOL
REMARK 924 INTRA-LIGAND FREE ENERGY PREDICTED BY IDOCK:   -0.77 KCAL/MOL
REMARK 927      BINDING AFFINITY PREDICTED BY RF-SCORE:    0.00 PKD
ROOT
HETATM    1  C   UNL     1     -13.995   8.986  72.443  1.00  0.00    -0.517 C  
HETATM    2  C   UNL     1     -13.091  10.014  71.780  1.00  0.00    -0.562 C  
ENDROOT
BRANCH   2   3
HETATM    3  C   UNL     1     -12.128   9.420  70.740  1.00  0.00    -0.203 C  
BRANCH   3   4
HETATM    4  N   UNL     1     -10.707   9.827  70.813  1.00  0.00    -0.321 NA 
BRANCH   4   5
HETATM    5  C   UNL     1      -9.835   8.668  71.110  1.00  0.00    -0.222 C  
BRANCH   5   6
HETATM    6  C   UNL     1      -9.566   8.388  72.601  1.00  0.00    -0.337 C  
HETATM    7  C   UNL     1     -10.566   7.430  73.230  1.00  0.00    -0.442 C  
ENDBRANCH   5   6
ENDBRANCH   4   5
BRANCH   4   8
HETATM    8  C   UNL     1     -10.302  10.475  69.539  1.00  0.00    -0.221 C  
BRANCH   8   9
HETATM    9  C   UNL     1     -11.421  10.720  68.500  1.00  0.00    -0.362 C  
BRANCH   9  10
HETATM   10  C   UNL     1     -11.442  12.106  67.906  1.00  0.00    -0.392 A  
HETATM   11  C   UNL     1     -11.818  13.226  68.640  1.00  0.00    -0.380 A  
HETATM   12  C   UNL     1     -12.257  13.353  70.073  1.00  0.00    -0.367 C  
HETATM   13  C   UNL     1     -12.502  14.857  70.213  1.00  0.00    -0.336 C  
HETATM   14  N   UNL     1     -12.229  15.440  68.983  1.00  0.00    -0.610 N  
HETATM   15  O   UNL     1     -12.872  15.444  71.216  1.00  0.00    -0.382 OA 
HETATM   16  H   UNL     1     -12.311  16.438  68.789  1.00  0.00     0.000 HD 
HETATM   17  C   UNL     1     -11.832  14.493  68.053  1.00  0.00    -0.315 A  
HETATM   18  C   UNL     1     -11.486  14.715  66.739  1.00  0.00    -0.371 A  
HETATM   19  C   UNL     1     -11.117  13.603  65.984  1.00  0.00    -0.297 A  
HETATM   20  C   UNL     1     -11.099  12.317  66.557  1.00  0.00    -0.343 A  
ENDBRANCH   9  10
ENDBRANCH   8   9
ENDBRANCH   4   8
ENDBRANCH   3   4
ENDBRANCH   2   3
TORSDOF 7
ENDMDL
MODEL       46
REMARK 921   NORMALIZED FREE ENERGY PREDICTED BY IDOCK:   -4.87 KCAL/MOL
REMARK 922        TOTAL FREE ENERGY PREDICTED BY IDOCK:   -7.74 KCAL/MOL
REMARK 923 INTER-LIGAND FREE ENERGY PREDICTED BY IDOCK:   -7.26 KCAL/MOL
REMARK 924 INTRA-LIGAND FREE ENERGY PREDICTED BY IDOCK:   -0.49 KCAL/MOL
REMARK 927      BINDING AFFINITY PREDICTED BY RF-SCORE:    0.00 PKD
ROOT
HETATM    1  C   UNL     1     -14.383  15.430  72.135  1.00  0.00    -0.642 C  
HETATM    2  C   UNL     1     -13.342  14.440  72.633  1.00  0.00    -0.599 C  
ENDROOT
BRANCH   2   3
HETATM    3  C   UNL     1     -13.402  13.070  71.940  1.00  0.00    -0.446 C  
BRANCH   3   4
HETATM    4  N   UNL     1     -12.302  12.723  71.013  1.00  0.00    -0.313 NA 
BRANCH   4   5
HETATM    5  C   UNL     1     -12.369  11.300  70.614  1.00  0.00    -0.383 C  
BRANCH   5   6
HETATM    6  C   UNL     1     -13.016  10.341  71.631  1.00  0.00    -0.570 C  
HETATM    7  C   UNL     1     -12.096   9.212  72.072  1.00  0.00    -0.431 C  
ENDBRANCH   5   6
ENDBRANCH   4   5
BRANCH   4   8
HETATM    8  C   UNL     1     -12.352  13.606  69.819  1.00  0.00    -0.228 C  
BRANCH   8   9
HETATM    9  C   UNL     1     -11.102  14.473  69.543  1.00  0.00    -0.285 C  
BRANCH   9  10
HETATM   10  C   UNL     1     -10.814  14.723  68.084  1.00  0.00    -0.256 A  
HETATM   11  C   UNL     1     -10.677  16.004  67.561  1.00  0.00    -0.314 A  
HETATM   12  C   UNL     1     -10.763  17.348  68.230  1.00  0.00    -0.327 C  
HETATM   13  C   UNL     1     -10.503  18.314  67.072  1.00  0.00    -0.385 C  
HETATM   14  N   UNL     1     -10.314  17.551  65.928  1.00  0.00    -0.321 N  
HETATM   15  O   UNL     1     -10.470  19.532  67.133  1.00  0.00    -0.413 OA 
HETATM   16  H   UNL     1     -10.123  17.938  65.004  1.00  0.00     0.000 HD 
HETATM   17  C   UNL     1     -10.418  16.196  66.202  1.00  0.00    -0.325 A  
HETATM   18  C   UNL     1     -10.288  15.157  65.309  1.00  0.00    -0.425 A  
HETATM   19  C   UNL     1     -10.434  13.866  65.813  1.00  0.00    -0.313 A  
HETATM   20  C   UNL     1     -10.698  13.651  67.179  1.00  0.00    -0.279 A  
ENDBRANCH   9  10
ENDBRANCH   8   9
ENDBRANCH   4   8
ENDBRANCH   3   4
ENDBRANCH   2   3
TORSDOF 7
ENDMDL
MODEL       47
REMARK 921   NORMALIZED FREE ENERGY PREDICTED BY IDOCK:   -4.85 KCAL/MOL
REMARK 922        TOTAL FREE ENERGY PREDICTED BY IDOCK:   -7.72 KCAL/MOL
REMARK 923 INTER-LIGAND FREE ENERGY PREDICTED BY IDOCK:   -6.93 KCAL/MOL
REMARK 924 INTRA-LIGAND FREE ENERGY PREDICTED BY IDOCK:   -0.78 KCAL/MOL
REMARK 927      BINDING AFFINITY PREDICTED BY RF-SCORE:    0.00 PKD
ROOT
HETATM    1  C   UNL     1      -7.279  18.237  67.115  1.00  0.00    -0.215 C  
HETATM    2  C   UNL     1      -8.000  16.941  67.450  1.00  0.00    -0.190 C  
ENDROOT
BRANCH   2   3
HETATM    3  C   UNL     1      -8.743  16.314  66.260  1.00  0.00    -0.335 C  
BRANCH   3   4
HETATM    4  N   UNL     1      -9.951  15.511  66.554  1.00  0.00    -0.257 NA 
BRANCH   4   5
HETATM    5  C   UNL     1      -9.913  14.213  65.845  1.00  0.00    -0.311 C  
BRANCH   5   6
HETATM    6  C   UNL     1     -11.090  13.927  64.892  1.00  0.00    -0.370 C  
HETATM    7  C   UNL     1     -12.371  13.532  65.611  1.00  0.00    -0.522 C  
ENDBRANCH   5   6
ENDBRANCH   4   5
BRANCH   4   8
HETATM    8  C   UNL     1     -10.074  15.304  68.021  1.00  0.00    -0.229 C  
BRANCH   8   9
HETATM    9  C   UNL     1     -11.479  15.501  68.634  1.00  0.00    -0.367 C  
BRANCH   9  10
HETATM   10  C   UNL     1     -11.924  14.401  69.564  1.00  0.00    -0.376 A  
HETATM   11  C   UNL     1     -12.396  14.655  70.847  1.00  0.00    -0.406 A  
HETATM   12  C   UNL     1     -12.579  15.954  71.582  1.00  0.00    -0.475 C  
HETATM   13  C   UNL     1     -13.143  15.499  72.929  1.00  0.00    -0.507 C  
HETATM   14  N   UNL     1     -13.232  14.113  72.896  1.00  0.00    -0.523 N  
HETATM   15  O   UNL     1     -13.457  16.213  73.867  1.00  0.00    -0.519 OA 
HETATM   16  H   UNL     1     -13.576  13.541  73.667  1.00  0.00     0.000 HD 
HETATM   17  C   UNL     1     -12.793  13.609  71.683  1.00  0.00    -0.338 A  
HETATM   18  C   UNL     1     -12.741  12.286  71.304  1.00  0.00    -0.351 A  
HETATM   19  C   UNL     1     -12.259  12.011  70.026  1.00  0.00    -0.280 A  
HETATM   20  C   UNL     1     -11.852  13.052  69.170  1.00  0.00    -0.360 A  
ENDBRANCH   9  10
ENDBRANCH   8   9
ENDBRANCH   4   8
ENDBRANCH   3   4
ENDBRANCH   2   3
TORSDOF 7
ENDMDL
MODEL       48
REMARK 921   NORMALIZED FREE ENERGY PREDICTED BY IDOCK:   -4.85 KCAL/MOL
REMARK 922        TOTAL FREE ENERGY PREDICTED BY IDOCK:   -7.71 KCAL/MOL
REMARK 923 INTER-LIGAND FREE ENERGY PREDICTED BY IDOCK:   -7.11 KCAL/MOL
REMARK 924 INTRA-LIGAND FREE ENERGY PREDICTED BY IDOCK:   -0.60 KCAL/MOL
REMARK 927      BINDING AFFINITY PREDICTED BY RF-SCORE:    0.00 PKD
ROOT
HETATM    1  C   UNL     1     -13.245   9.367  71.506  1.00  0.00    -0.456 C  
HETATM    2  C   UNL     1     -12.781  10.749  71.075  1.00  0.00    -0.513 C  
ENDROOT
BRANCH   2   3
HETATM    3  C   UNL     1     -13.199  11.875  72.033  1.00  0.00    -0.356 C  
BRANCH   3   4
HETATM    4  N   UNL     1     -13.372  13.229  71.462  1.00  0.00    -0.298 NA 
BRANCH   4   5
HETATM    5  C   UNL     1     -13.664  14.221  72.521  1.00  0.00    -0.505 C  
BRANCH   5   6
HETATM    6  C   UNL     1     -12.452  14.735  73.321  1.00  0.00    -0.503 C  
HETATM    7  C   UNL     1     -12.403  16.251  73.444  1.00  0.00    -0.631 C  
ENDBRANCH   5   6
ENDBRANCH   4   5
BRANCH   4   8
HETATM    8  C   UNL     1     -12.154  13.615  70.703  1.00  0.00    -0.323 C  
BRANCH   8   9
HETATM    9  C   UNL     1     -12.311  14.761  69.676  1.00  0.00    -0.253 C  
BRANCH   9  10
HETATM   10  C   UNL     1     -11.669  14.503  68.336  1.00  0.00    -0.367 A  
HETATM   11  C   UNL     1     -10.931  15.470  67.664  1.00  0.00    -0.315 A  
HETATM   12  C   UNL     1     -10.600  16.887  68.046  1.00  0.00    -0.367 C  
HETATM   13  C   UNL     1      -9.755  17.362  66.862  1.00  0.00    -0.286 C  
HETATM   14  N   UNL     1      -9.668  16.308  65.963  1.00  0.00    -0.325 N  
HETATM   15  O   UNL     1      -9.249  18.463  66.723  1.00  0.00    -0.275 OA 
HETATM   16  H   UNL     1      -9.162  16.347  65.078  1.00  0.00     0.000 HD 
HETATM   17  C   UNL     1     -10.358  15.196  66.420  1.00  0.00    -0.286 A  
HETATM   18  C   UNL     1     -10.483  13.979  65.789  1.00  0.00    -0.317 A  
HETATM   19  C   UNL     1     -11.229  13.001  66.441  1.00  0.00    -0.332 A  
HETATM   20  C   UNL     1     -11.818  13.259  67.694  1.00  0.00    -0.400 A  
ENDBRANCH   9  10
ENDBRANCH   8   9
ENDBRANCH   4   8
ENDBRANCH   3   4
ENDBRANCH   2   3
TORSDOF 7
ENDMDL
MODEL       49
REMARK 921   NORMALIZED FREE ENERGY PREDICTED BY IDOCK:   -4.84 KCAL/MOL
REMARK 922        TOTAL FREE ENERGY PREDICTED BY IDOCK:   -7.71 KCAL/MOL
REMARK 923 INTER-LIGAND FREE ENERGY PREDICTED BY IDOCK:   -7.07 KCAL/MOL
REMARK 924 INTRA-LIGAND FREE ENERGY PREDICTED BY IDOCK:   -0.64 KCAL/MOL
REMARK 927      BINDING AFFINITY PREDICTED BY RF-SCORE:    0.00 PKD
ROOT
HETATM    1  C   UNL     1     -13.461   9.241  72.029  1.00  0.00    -0.519 C  
HETATM    2  C   UNL     1     -12.906  10.345  71.143  1.00  0.00    -0.511 C  
ENDROOT
BRANCH   2   3
HETATM    3  C   UNL     1     -11.654   9.940  70.351  1.00  0.00    -0.282 C  
BRANCH   3   4
HETATM    4  N   UNL     1     -10.956  10.998  69.586  1.00  0.00    -0.247 NA 
BRANCH   4   5
HETATM    5  C   UNL     1      -9.800  10.445  68.844  1.00  0.00    -0.200 C  
BRANCH   5   6
HETATM    6  C   UNL     1     -10.072   9.178  68.012  1.00  0.00    -0.238 C  
HETATM    7  C   UNL     1      -9.954   9.399  66.512  1.00  0.00    -0.339 C  
ENDBRANCH   5   6
ENDBRANCH   4   5
BRANCH   4   8
HETATM    8  C   UNL     1     -11.909  11.659  68.657  1.00  0.00    -0.308 C  
BRANCH   8   9
HETATM    9  C   UNL     1     -12.015  13.198  68.752  1.00  0.00    -0.316 C  
BRANCH   9  10
HETATM   10  C   UNL     1     -11.077  13.955  67.846  1.00  0.00    -0.278 A  
HETATM   11  C   UNL     1     -11.309  14.097  66.483  1.00  0.00    -0.348 A  
HETATM   12  C   UNL     1     -12.439  13.594  65.626  1.00  0.00    -0.540 C  
HETATM   13  C   UNL     1     -12.065  14.120  64.239  1.00  0.00    -0.444 C  
HETATM   14  N   UNL     1     -10.866  14.810  64.365  1.00  0.00    -0.592 N  
HETATM   15  O   UNL     1     -12.694  13.964  63.206  1.00  0.00    -0.775 OA 
HETATM   16  H   UNL     1     -10.382  15.267  63.592  1.00  0.00     0.000 HD 
HETATM   17  C   UNL     1     -10.412  14.799  65.674  1.00  0.00    -0.349 A  
HETATM   18  C   UNL     1      -9.264  15.382  66.159  1.00  0.00    -0.362 A  
HETATM   19  C   UNL     1      -9.007  15.241  67.521  1.00  0.00    -0.192 A  
HETATM   20  C   UNL     1      -9.898  14.534  68.353  1.00  0.00    -0.227 A  
ENDBRANCH   9  10
ENDBRANCH   8   9
ENDBRANCH   4   8
ENDBRANCH   3   4
ENDBRANCH   2   3
TORSDOF 7
ENDMDL
MODEL       50
REMARK 921   NORMALIZED FREE ENERGY PREDICTED BY IDOCK:   -4.83 KCAL/MOL
REMARK 922        TOTAL FREE ENERGY PREDICTED BY IDOCK:   -7.69 KCAL/MOL
REMARK 923 INTER-LIGAND FREE ENERGY PREDICTED BY IDOCK:   -6.84 KCAL/MOL
REMARK 924 INTRA-LIGAND FREE ENERGY PREDICTED BY IDOCK:   -0.85 KCAL/MOL
REMARK 927      BINDING AFFINITY PREDICTED BY RF-SCORE:    0.00 PKD
ROOT
HETATM    1  C   UNL     1     -11.806  12.983  68.947  1.00  0.00    -0.358 C  
HETATM    2  C   UNL     1     -11.931  11.513  69.311  1.00  0.00    -0.397 C  
ENDROOT
BRANCH   2   3
HETATM    3  C   UNL     1     -11.054  10.581  68.460  1.00  0.00    -0.275 C  
BRANCH   3   4
HETATM    4  N   UNL     1      -9.588  10.767  68.534  1.00  0.00    -0.176 NA 
BRANCH   4   5
HETATM    5  C   UNL     1      -8.937   9.616  69.199  1.00  0.00    -0.154 C  
BRANCH   5   6
HETATM    6  C   UNL     1      -9.384   8.219  68.727  1.00  0.00    -0.143 C  
HETATM    7  C   UNL     1      -8.620   7.082  69.388  1.00  0.00    -0.134 C  
ENDBRANCH   5   6
ENDBRANCH   4   5
BRANCH   4   8
HETATM    8  C   UNL     1      -9.036  10.964  67.168  1.00  0.00    -0.145 C  
BRANCH   8   9
HETATM    9  C   UNL     1      -9.174  12.380  66.562  1.00  0.00    -0.215 C  
BRANCH   9  10
HETATM   10  C   UNL     1     -10.236  12.515  65.501  1.00  0.00    -0.295 A  
HETATM   11  C   UNL     1     -10.704  13.750  65.066  1.00  0.00    -0.391 A  
HETATM   12  C   UNL     1     -10.320  15.143  65.484  1.00  0.00    -0.399 C  
HETATM   13  C   UNL     1     -11.213  16.014  64.599  1.00  0.00    -0.330 C  
HETATM   14  N   UNL     1     -11.982  15.163  63.817  1.00  0.00    -0.842 N  
HETATM   15  O   UNL     1     -11.252  17.233  64.580  1.00  0.00    -1.083 OA 
HETATM   16  H   UNL     1     -12.671  15.476  63.133  1.00  0.00     0.000 HD 
HETATM   17  C   UNL     1     -11.695  13.834  64.086  1.00  0.00    -0.364 A  
HETATM   18  C   UNL     1     -12.266  12.727  63.500  1.00  0.00    -0.613 A  
HETATM   19  C   UNL     1     -11.818  11.480  63.931  1.00  0.00    -0.210 A  
HETATM   20  C   UNL     1     -10.822  11.374  64.920  1.00  0.00    -0.323 A  
ENDBRANCH   9  10
ENDBRANCH   8   9
ENDBRANCH   4   8
ENDBRANCH   3   4
ENDBRANCH   2   3
TORSDOF 7
ENDMDL
MODEL       51
REMARK 921   NORMALIZED FREE ENERGY PREDICTED BY IDOCK:   -4.81 KCAL/MOL
REMARK 922        TOTAL FREE ENERGY PREDICTED BY IDOCK:   -7.66 KCAL/MOL
REMARK 923 INTER-LIGAND FREE ENERGY PREDICTED BY IDOCK:   -6.40 KCAL/MOL
REMARK 924 INTRA-LIGAND FREE ENERGY PREDICTED BY IDOCK:   -1.27 KCAL/MOL
REMARK 927      BINDING AFFINITY PREDICTED BY RF-SCORE:    0.00 PKD
ROOT
HETATM    1  C   UNL     1     -10.899   6.285  66.975  1.00  0.00    -0.458 C  
HETATM    2  C   UNL     1     -10.625   7.401  67.971  1.00  0.00    -0.235 C  
ENDROOT
BRANCH   2   3
HETATM    3  C   UNL     1     -10.242   8.739  67.319  1.00  0.00    -0.263 C  
BRANCH   3   4
HETATM    4  N   UNL     1      -9.975   9.885  68.216  1.00  0.00    -0.147 NA 
BRANCH   4   5
HETATM    5  C   UNL     1     -10.062   9.482  69.637  1.00  0.00    -0.212 C  
BRANCH   5   6
HETATM    6  C   UNL     1     -11.054  10.277  70.508  1.00  0.00    -0.381 C  
HETATM    7  C   UNL     1     -12.020  11.132  69.701  1.00  0.00    -0.429 C  
ENDBRANCH   5   6
ENDBRANCH   4   5
BRANCH   4   8
HETATM    8  C   UNL     1      -8.639  10.461  67.914  1.00  0.00    -0.118 C  
BRANCH   8   9
HETATM    9  C   UNL     1      -8.604  11.663  66.942  1.00  0.00    -0.174 C  
BRANCH   9  10
HETATM   10  C   UNL     1      -9.718  12.661  67.130  1.00  0.00    -0.211 A  
HETATM   11  C   UNL     1     -10.811  12.729  66.274  1.00  0.00    -0.299 A  
HETATM   12  C   UNL     1     -11.153  11.911  65.059  1.00  0.00    -0.360 C  
HETATM   13  C   UNL     1     -12.490  12.511  64.618  1.00  0.00    -0.463 C  
HETATM   14  N   UNL     1     -12.799  13.535  65.505  1.00  0.00    -0.591 N  
HETATM   15  O   UNL     1     -13.165  12.164  63.664  1.00  0.00    -0.770 OA 
HETATM   16  H   UNL     1     -13.639  14.110  65.448  1.00  0.00     0.000 HD 
HETATM   17  C   UNL     1     -11.820  13.674  66.476  1.00  0.00    -0.404 A  
HETATM   18  C   UNL     1     -11.800  14.583  67.509  1.00  0.00    -0.404 A  
HETATM   19  C   UNL     1     -10.706  14.539  68.371  1.00  0.00    -0.246 A  
HETATM   20  C   UNL     1      -9.677  13.595  68.182  1.00  0.00    -0.229 A  
ENDBRANCH   9  10
ENDBRANCH   8   9
ENDBRANCH   4   8
ENDBRANCH   3   4
ENDBRANCH   2   3
TORSDOF 7
ENDMDL
MODEL       52
REMARK 921   NORMALIZED FREE ENERGY PREDICTED BY IDOCK:   -4.80 KCAL/MOL
REMARK 922        TOTAL FREE ENERGY PREDICTED BY IDOCK:   -7.65 KCAL/MOL
REMARK 923 INTER-LIGAND FREE ENERGY PREDICTED BY IDOCK:   -7.06 KCAL/MOL
REMARK 924 INTRA-LIGAND FREE ENERGY PREDICTED BY IDOCK:   -0.59 KCAL/MOL
REMARK 927      BINDING AFFINITY PREDICTED BY RF-SCORE:    0.00 PKD
ROOT
HETATM    1  C   UNL     1     -10.695   9.061  68.403  1.00  0.00    -0.145 C  
HETATM    2  C   UNL     1     -11.075   9.889  69.620  1.00  0.00    -0.279 C  
ENDROOT
BRANCH   2   3
HETATM    3  C   UNL     1     -10.896  11.403  69.426  1.00  0.00    -0.162 C  
BRANCH   3   4
HETATM    4  N   UNL     1     -12.082  12.264  69.632  1.00  0.00    -0.253 NA 
BRANCH   4   5
HETATM    5  C   UNL     1     -12.438  12.347  71.066  1.00  0.00    -0.256 C  
BRANCH   5   6
HETATM    6  C   UNL     1     -13.382  13.498  71.464  1.00  0.00    -0.363 C  
HETATM    7  C   UNL     1     -13.175  13.988  72.890  1.00  0.00    -0.502 C  
ENDBRANCH   5   6
ENDBRANCH   4   5
BRANCH   4   8
HETATM    8  C   UNL     1     -11.825  13.618  69.075  1.00  0.00    -0.352 C  
BRANCH   8   9
HETATM    9  C   UNL     1     -10.576  13.772  68.176  1.00  0.00    -0.260 C  
BRANCH   9  10
HETATM   10  C   UNL     1     -10.796  14.578  66.921  1.00  0.00    -0.305 A  
HETATM   11  C   UNL     1     -11.395  14.044  65.786  1.00  0.00    -0.312 A  
HETATM   12  C   UNL     1     -11.936  12.665  65.524  1.00  0.00    -0.509 C  
HETATM   13  C   UNL     1     -12.454  12.778  64.089  1.00  0.00    -0.369 C  
HETATM   14  N   UNL     1     -12.199  14.072  63.654  1.00  0.00    -1.021 N  
HETATM   15  O   UNL     1     -12.992  11.898  63.437  1.00  0.00    -0.730 OA 
HETATM   16  H   UNL     1     -12.439  14.425  62.728  1.00  0.00     0.000 HD 
HETATM   17  C   UNL     1     -11.574  14.820  64.639  1.00  0.00    -0.399 A  
HETATM   18  C   UNL     1     -11.176  16.135  64.555  1.00  0.00    -0.275 A  
HETATM   19  C   UNL     1     -10.562  16.686  65.678  1.00  0.00    -0.282 A  
HETATM   20  C   UNL     1     -10.370  15.918  66.843  1.00  0.00    -0.291 A  
ENDBRANCH   9  10
ENDBRANCH   8   9
ENDBRANCH   4   8
ENDBRANCH   3   4
ENDBRANCH   2   3
TORSDOF 7
ENDMDL
MODEL       53
REMARK 921   NORMALIZED FREE ENERGY PREDICTED BY IDOCK:   -4.78 KCAL/MOL
REMARK 922        TOTAL FREE ENERGY PREDICTED BY IDOCK:   -7.61 KCAL/MOL
REMARK 923 INTER-LIGAND FREE ENERGY PREDICTED BY IDOCK:   -7.01 KCAL/MOL
REMARK 924 INTRA-LIGAND FREE ENERGY PREDICTED BY IDOCK:   -0.61 KCAL/MOL
REMARK 927      BINDING AFFINITY PREDICTED BY RF-SCORE:    0.00 PKD
ROOT
HETATM    1  C   UNL     1      -6.508  20.122  67.715  1.00  0.00    -0.275 C  
HETATM    2  C   UNL     1      -7.082  19.023  68.595  1.00  0.00    -0.341 C  
ENDROOT
BRANCH   2   3
HETATM    3  C   UNL     1      -8.085  18.108  67.876  1.00  0.00    -0.247 C  
BRANCH   3   4
HETATM    4  N   UNL     1      -9.340  17.777  68.586  1.00  0.00    -0.289 NA 
BRANCH   4   5
HETATM    5  C   UNL     1     -10.516  18.325  67.874  1.00  0.00    -0.388 C  
BRANCH   5   6
HETATM    6  C   UNL     1     -10.376  19.763  67.340  1.00  0.00    -0.582 C  
HETATM    7  C   UNL     1     -10.644  19.885  65.848  1.00  0.00    -0.523 C  
ENDBRANCH   5   6
ENDBRANCH   4   5
BRANCH   4   8
HETATM    8  C   UNL     1      -9.459  16.304  68.740  1.00  0.00    -0.237 C  
BRANCH   8   9
HETATM    9  C   UNL     1      -9.205  15.451  67.476  1.00  0.00    -0.201 C  
BRANCH   9  10
HETATM   10  C   UNL     1     -10.003  14.175  67.401  1.00  0.00    -0.240 A  
HETATM   11  C   UNL     1     -10.830  13.874  66.325  1.00  0.00    -0.290 A  
HETATM   12  C   UNL     1     -11.123  14.650  65.071  1.00  0.00    -0.401 C  
HETATM   13  C   UNL     1     -12.098  13.732  64.331  1.00  0.00    -0.436 C  
HETATM   14  N   UNL     1     -12.295  12.609  65.123  1.00  0.00    -0.492 N  
HETATM   15  O   UNL     1     -12.616  13.941  63.247  1.00  0.00    -0.824 OA 
HETATM   16  H   UNL     1     -12.903  11.829  64.874  1.00  0.00     0.000 HD 
HETATM   17  C   UNL     1     -11.561  12.683  66.296  1.00  0.00    -0.386 A  
HETATM   18  C   UNL     1     -11.515  11.751  67.308  1.00  0.00    -0.373 A  
HETATM   19  C   UNL     1     -10.701  12.040  68.401  1.00  0.00    -0.255 A  
HETATM   20  C   UNL     1      -9.959  13.236  68.450  1.00  0.00    -0.226 A  
ENDBRANCH   9  10
ENDBRANCH   8   9
ENDBRANCH   4   8
ENDBRANCH   3   4
ENDBRANCH   2   3
TORSDOF 7
ENDMDL
MODEL       54
REMARK 921   NORMALIZED FREE ENERGY PREDICTED BY IDOCK:   -4.75 KCAL/MOL
REMARK 922        TOTAL FREE ENERGY PREDICTED BY IDOCK:   -7.58 KCAL/MOL
REMARK 923 INTER-LIGAND FREE ENERGY PREDICTED BY IDOCK:   -6.89 KCAL/MOL
REMARK 924 INTRA-LIGAND FREE ENERGY PREDICTED BY IDOCK:   -0.69 KCAL/MOL
REMARK 927      BINDING AFFINITY PREDICTED BY RF-SCORE:    0.00 PKD
ROOT
HETATM    1  C   UNL     1     -10.091   7.953  68.296  1.00  0.00    -0.225 C  
HETATM    2  C   UNL     1      -9.099   8.668  69.200  1.00  0.00    -0.142 C  
ENDROOT
BRANCH   2   3
HETATM    3  C   UNL     1      -9.733   9.746  70.093  1.00  0.00    -0.248 C  
BRANCH   3   4
HETATM    4  N   UNL     1     -11.203   9.719  70.260  1.00  0.00    -0.270 NA 
BRANCH   4   5
HETATM    5  C   UNL     1     -11.578   9.273  71.620  1.00  0.00    -0.393 C  
BRANCH   5   6
HETATM    6  C   UNL     1     -12.813   8.356  71.717  1.00  0.00    -0.371 C  
HETATM    7  C   UNL     1     -14.035   9.044  72.306  1.00  0.00    -0.522 C  
ENDBRANCH   5   6
ENDBRANCH   4   5
BRANCH   4   8
HETATM    8  C   UNL     1     -11.767  11.064  69.974  1.00  0.00    -0.355 C  
BRANCH   8   9
HETATM    9  C   UNL     1     -11.909  11.455  68.485  1.00  0.00    -0.364 C  
BRANCH   9  10
HETATM   10  C   UNL     1     -11.555  12.886  68.170  1.00  0.00    -0.378 A  
HETATM   11  C   UNL     1     -11.721  13.433  66.902  1.00  0.00    -0.434 A  
HETATM   12  C   UNL     1     -12.246  12.820  65.634  1.00  0.00    -0.503 C  
HETATM   13  C   UNL     1     -12.163  13.982  64.642  1.00  0.00    -0.435 C  
HETATM   14  N   UNL     1     -11.641  15.074  65.323  1.00  0.00    -0.302 N  
HETATM   15  O   UNL     1     -12.489  13.962  63.467  1.00  0.00    -0.810 OA 
HETATM   16  H   UNL     1     -11.475  15.988  64.902  1.00  0.00     0.000 HD 
HETATM   17  C   UNL     1     -11.374  14.762  66.647  1.00  0.00    -0.347 A  
HETATM   18  C   UNL     1     -10.853  15.599  67.608  1.00  0.00    -0.307 A  
HETATM   19  C   UNL     1     -10.668  15.065  68.881  1.00  0.00    -0.240 A  
HETATM   20  C   UNL     1     -11.009  13.727  69.158  1.00  0.00    -0.246 A  
ENDBRANCH   9  10
ENDBRANCH   8   9
ENDBRANCH   4   8
ENDBRANCH   3   4
ENDBRANCH   2   3
TORSDOF 7
ENDMDL
MODEL       55
REMARK 921   NORMALIZED FREE ENERGY PREDICTED BY IDOCK:   -4.74 KCAL/MOL
REMARK 922        TOTAL FREE ENERGY PREDICTED BY IDOCK:   -7.56 KCAL/MOL
REMARK 923 INTER-LIGAND FREE ENERGY PREDICTED BY IDOCK:   -6.79 KCAL/MOL
REMARK 924 INTRA-LIGAND FREE ENERGY PREDICTED BY IDOCK:   -0.77 KCAL/MOL
REMARK 927      BINDING AFFINITY PREDICTED BY RF-SCORE:    0.00 PKD
ROOT
HETATM    1  C   UNL     1      -8.239  10.683  68.429  1.00  0.00    -0.125 C  
HETATM    2  C   UNL     1      -8.894   9.715  67.457  1.00  0.00    -0.129 C  
ENDROOT
BRANCH   2   3
HETATM    3  C   UNL     1     -10.203  10.236  66.843  1.00  0.00    -0.230 C  
BRANCH   3   4
HETATM    4  N   UNL     1     -10.268  11.671  66.489  1.00  0.00    -0.209 NA 
BRANCH   4   5
HETATM    5  C   UNL     1     -10.412  11.855  65.028  1.00  0.00    -0.289 C  
BRANCH   5   6
HETATM    6  C   UNL     1     -10.047  10.640  64.153  1.00  0.00    -0.402 C  
HETATM    7  C   UNL     1      -9.562  11.018  62.762  1.00  0.00    -0.337 C  
ENDBRANCH   5   6
ENDBRANCH   4   5
BRANCH   4   8
HETATM    8  C   UNL     1     -11.394  12.317  67.213  1.00  0.00    -0.328 C  
BRANCH   8   9
HETATM    9  C   UNL     1     -11.070  12.929  68.595  1.00  0.00    -0.307 C  
BRANCH   9  10
HETATM   10  C   UNL     1     -11.788  12.287  69.756  1.00  0.00    -0.388 A  
HETATM   11  C   UNL     1     -12.505  13.025  70.691  1.00  0.00    -0.347 A  
HETATM   12  C   UNL     1     -12.742  14.507  70.791  1.00  0.00    -0.425 C  
HETATM   13  C   UNL     1     -13.616  14.620  72.042  1.00  0.00    -0.400 C  
HETATM   14  N   UNL     1     -13.801  13.336  72.538  1.00  0.00    -0.550 N  
HETATM   15  O   UNL     1     -14.069  15.645  72.524  1.00  0.00    -0.558 OA 
HETATM   16  H   UNL     1     -14.345  13.115  73.372  1.00  0.00     0.000 HD 
HETATM   17  C   UNL     1     -13.150  12.395  71.757  1.00  0.00    -0.342 A  
HETATM   18  C   UNL     1     -13.119  11.033  71.952  1.00  0.00    -0.525 A  
HETATM   19  C   UNL     1     -12.395  10.277  71.033  1.00  0.00    -0.483 A  
HETATM   20  C   UNL     1     -11.735  10.894  69.953  1.00  0.00    -0.418 A  
ENDBRANCH   9  10
ENDBRANCH   8   9
ENDBRANCH   4   8
ENDBRANCH   3   4
ENDBRANCH   2   3
TORSDOF 7
ENDMDL
MODEL       56
REMARK 921   NORMALIZED FREE ENERGY PREDICTED BY IDOCK:   -4.73 KCAL/MOL
REMARK 922        TOTAL FREE ENERGY PREDICTED BY IDOCK:   -7.55 KCAL/MOL
REMARK 923 INTER-LIGAND FREE ENERGY PREDICTED BY IDOCK:   -6.74 KCAL/MOL
REMARK 924 INTRA-LIGAND FREE ENERGY PREDICTED BY IDOCK:   -0.81 KCAL/MOL
REMARK 927      BINDING AFFINITY PREDICTED BY RF-SCORE:    0.00 PKD
ROOT
HETATM    1  C   UNL     1     -10.816  12.997  64.150  1.00  0.00    -0.433 C  
HETATM    2  C   UNL     1     -11.970  13.586  64.945  1.00  0.00    -0.410 C  
ENDROOT
BRANCH   2   3
HETATM    3  C   UNL     1     -11.560  14.722  65.894  1.00  0.00    -0.286 C  
BRANCH   3   4
HETATM    4  N   UNL     1     -10.117  14.885  66.183  1.00  0.00    -0.282 NA 
BRANCH   4   5
HETATM    5  C   UNL     1      -9.683  16.282  65.960  1.00  0.00    -0.339 C  
BRANCH   5   6
HETATM    6  C   UNL     1     -10.804  17.310  65.717  1.00  0.00    -0.023 C  
HETATM    7  C   UNL     1     -10.479  18.700  66.243  1.00  0.00    -0.468 C  
ENDBRANCH   5   6
ENDBRANCH   4   5
BRANCH   4   8
HETATM    8  C   UNL     1      -9.833  14.463  67.579  1.00  0.00    -0.220 C  
BRANCH   8   9
HETATM    9  C   UNL     1     -10.769  15.021  68.677  1.00  0.00    -0.244 C  
BRANCH   9  10
HETATM   10  C   UNL     1     -11.492  13.973  69.484  1.00  0.00    -0.331 A  
HETATM   11  C   UNL     1     -12.283  14.292  70.582  1.00  0.00    -0.427 A  
HETATM   12  C   UNL     1     -12.607  15.625  71.199  1.00  0.00    -0.511 C  
HETATM   13  C   UNL     1     -13.533  15.241  72.355  1.00  0.00    -0.463 C  
HETATM   14  N   UNL     1     -13.663  13.859  72.342  1.00  0.00    -0.541 N  
HETATM   15  O   UNL     1     -14.060  16.002  73.150  1.00  0.00    -0.450 OA 
HETATM   16  H   UNL     1     -14.225  13.328  73.008  1.00  0.00     0.000 HD 
HETATM   17  C   UNL     1     -12.932  13.293  71.310  1.00  0.00    -0.270 A  
HETATM   18  C   UNL     1     -12.831  11.955  71.001  1.00  0.00    -0.291 A  
HETATM   19  C   UNL     1     -12.033  11.614  69.912  1.00  0.00    -0.414 A  
HETATM   20  C   UNL     1     -11.369  12.607  69.166  1.00  0.00    -0.339 A  
ENDBRANCH   9  10
ENDBRANCH   8   9
ENDBRANCH   4   8
ENDBRANCH   3   4
ENDBRANCH   2   3
TORSDOF 7
ENDMDL
MODEL       57
REMARK 921   NORMALIZED FREE ENERGY PREDICTED BY IDOCK:   -4.72 KCAL/MOL
REMARK 922        TOTAL FREE ENERGY PREDICTED BY IDOCK:   -7.54 KCAL/MOL
REMARK 923 INTER-LIGAND FREE ENERGY PREDICTED BY IDOCK:   -6.92 KCAL/MOL
REMARK 924 INTRA-LIGAND FREE ENERGY PREDICTED BY IDOCK:   -0.62 KCAL/MOL
REMARK 927      BINDING AFFINITY PREDICTED BY RF-SCORE:    0.00 PKD
ROOT
HETATM    1  C   UNL     1     -13.202  10.197  71.947  1.00  0.00    -0.557 C  
HETATM    2  C   UNL     1     -12.472  10.501  70.649  1.00  0.00    -0.456 C  
ENDROOT
BRANCH   2   3
HETATM    3  C   UNL     1     -11.034   9.962  70.600  1.00  0.00    -0.337 C  
BRANCH   3   4
HETATM    4  N   UNL     1     -10.453   9.682  69.268  1.00  0.00    -0.208 NA 
BRANCH   4   5
HETATM    5  C   UNL     1     -10.435   8.229  68.989  1.00  0.00    -0.197 C  
BRANCH   5   6
HETATM    6  C   UNL     1     -10.507   7.301  70.217  1.00  0.00    -0.231 C  
HETATM    7  C   UNL     1     -11.510   6.168  70.064  1.00  0.00    -0.369 C  
ENDBRANCH   5   6
ENDBRANCH   4   5
BRANCH   4   8
HETATM    8  C   UNL     1     -11.218  10.408  68.222  1.00  0.00    -0.267 C  
BRANCH   8   9
HETATM    9  C   UNL     1     -10.490  11.572  67.511  1.00  0.00    -0.229 C  
BRANCH   9  10
HETATM   10  C   UNL     1     -10.927  11.819  66.090  1.00  0.00    -0.355 A  
HETATM   11  C   UNL     1     -10.346  11.169  65.007  1.00  0.00    -0.362 A  
HETATM   12  C   UNL     1      -9.244  10.147  64.957  1.00  0.00    -0.266 C  
HETATM   13  C   UNL     1      -9.123   9.860  63.459  1.00  0.00    -0.256 C  
HETATM   14  N   UNL     1     -10.054  10.656  62.806  1.00  0.00    -0.746 N  
HETATM   15  O   UNL     1      -8.350   9.080  62.927  1.00  0.00    -0.180 OA 
HETATM   16  H   UNL     1     -10.191  10.669  61.796  1.00  0.00     0.000 HD 
HETATM   17  C   UNL     1     -10.773  11.430  63.703  1.00  0.00    -0.401 A  
HETATM   18  C   UNL     1     -11.772  12.330  63.408  1.00  0.00    -0.542 A  
HETATM   19  C   UNL     1     -12.358  13.001  64.479  1.00  0.00    -0.461 A  
HETATM   20  C   UNL     1     -11.940  12.754  65.800  1.00  0.00    -0.502 A  
ENDBRANCH   9  10
ENDBRANCH   8   9
ENDBRANCH   4   8
ENDBRANCH   3   4
ENDBRANCH   2   3
TORSDOF 7
ENDMDL
MODEL       58
REMARK 921   NORMALIZED FREE ENERGY PREDICTED BY IDOCK:   -4.72 KCAL/MOL
REMARK 922        TOTAL FREE ENERGY PREDICTED BY IDOCK:   -7.54 KCAL/MOL
REMARK 923 INTER-LIGAND FREE ENERGY PREDICTED BY IDOCK:   -6.64 KCAL/MOL
REMARK 924 INTRA-LIGAND FREE ENERGY PREDICTED BY IDOCK:   -0.90 KCAL/MOL
REMARK 927      BINDING AFFINITY PREDICTED BY RF-SCORE:    0.00 PKD
ROOT
HETATM    1  C   UNL     1     -11.176  11.978  63.700  1.00  0.00    -0.528 C  
HETATM    2  C   UNL     1     -10.305  11.841  64.939  1.00  0.00    -0.334 C  
ENDROOT
BRANCH   2   3
HETATM    3  C   UNL     1     -10.146  13.143  65.738  1.00  0.00    -0.285 C  
BRANCH   3   4
HETATM    4  N   UNL     1     -11.262  14.114  65.695  1.00  0.00    -0.303 NA 
BRANCH   4   5
HETATM    5  C   UNL     1     -12.011  14.123  66.971  1.00  0.00    -0.439 C  
BRANCH   5   6
HETATM    6  C   UNL     1     -11.274  13.546  68.194  1.00  0.00    -0.302 C  
HETATM    7  C   UNL     1     -10.978  14.581  69.269  1.00  0.00    -0.282 C  
ENDBRANCH   5   6
ENDBRANCH   4   5
BRANCH   4   8
HETATM    8  C   UNL     1     -10.739  15.469  65.383  1.00  0.00    -0.405 C  
BRANCH   8   9
HETATM    9  C   UNL     1      -9.440  15.894  66.106  1.00  0.00    -0.375 C  
BRANCH   9  10
HETATM   10  C   UNL     1      -9.414  17.328  66.572  1.00  0.00    -0.286 A  
HETATM   11  C   UNL     1      -8.496  17.792  67.508  1.00  0.00    -0.227 A  
HETATM   12  C   UNL     1      -7.391  17.073  68.232  1.00  0.00    -0.203 C  
HETATM   13  C   UNL     1      -6.779  18.182  69.090  1.00  0.00    -0.246 C  
HETATM   14  N   UNL     1      -7.497  19.344  68.843  1.00  0.00    -0.359 N  
HETATM   15  O   UNL     1      -5.836  18.074  69.857  1.00  0.00    -0.238 OA 
HETATM   16  H   UNL     1      -7.306  20.244  69.284  1.00  0.00     0.000 HD 
HETATM   17  C   UNL     1      -8.509  19.126  67.921  1.00  0.00    -0.300 A  
HETATM   18  C   UNL     1      -9.411  20.049  67.444  1.00  0.00    -0.508 A  
HETATM   19  C   UNL     1     -10.347  19.601  66.515  1.00  0.00    -0.601 A  
HETATM   20  C   UNL     1     -10.352  18.259  66.088  1.00  0.00    -0.414 A  
ENDBRANCH   9  10
ENDBRANCH   8   9
ENDBRANCH   4   8
ENDBRANCH   3   4
ENDBRANCH   2   3
TORSDOF 7
ENDMDL
MODEL       59
REMARK 921   NORMALIZED FREE ENERGY PREDICTED BY IDOCK:   -4.72 KCAL/MOL
REMARK 922        TOTAL FREE ENERGY PREDICTED BY IDOCK:   -7.53 KCAL/MOL
REMARK 923 INTER-LIGAND FREE ENERGY PREDICTED BY IDOCK:   -6.86 KCAL/MOL
REMARK 924 INTRA-LIGAND FREE ENERGY PREDICTED BY IDOCK:   -0.67 KCAL/MOL
REMARK 927      BINDING AFFINITY PREDICTED BY RF-SCORE:    0.00 PKD
ROOT
HETATM    1  C   UNL     1     -10.697  15.433  65.412  1.00  0.00    -0.416 C  
HETATM    2  C   UNL     1     -11.701  14.305  65.587  1.00  0.00    -0.358 C  
ENDROOT
BRANCH   2   3
HETATM    3  C   UNL     1     -12.150  14.088  67.041  1.00  0.00    -0.420 C  
BRANCH   3   4
HETATM    4  N   UNL     1     -11.256  14.580  68.113  1.00  0.00    -0.272 NA 
BRANCH   4   5
HETATM    5  C   UNL     1     -11.908  15.647  68.903  1.00  0.00    -0.352 C  
BRANCH   5   6
HETATM    6  C   UNL     1     -11.784  15.529  70.434  1.00  0.00    -0.363 C  
HETATM    7  C   UNL     1     -13.112  15.279  71.134  1.00  0.00    -0.546 C  
ENDBRANCH   5   6
ENDBRANCH   4   5
BRANCH   4   8
HETATM    8  C   UNL     1     -10.853  13.449  68.989  1.00  0.00    -0.183 C  
BRANCH   8   9
HETATM    9  C   UNL     1     -11.672  12.145  68.860  1.00  0.00    -0.381 C  
BRANCH   9  10
HETATM   10  C   UNL     1     -11.083  10.953  69.572  1.00  0.00    -0.326 A  
HETATM   11  C   UNL     1     -11.781  10.243  70.542  1.00  0.00    -0.418 A  
HETATM   12  C   UNL     1     -13.169  10.441  71.088  1.00  0.00    -0.399 C  
HETATM   13  C   UNL     1     -13.290   9.306  72.108  1.00  0.00    -0.468 C  
HETATM   14  N   UNL     1     -12.091   8.606  72.096  1.00  0.00    -0.366 N  
HETATM   15  O   UNL     1     -14.257   9.057  72.809  1.00  0.00    -0.572 OA 
HETATM   16  H   UNL     1     -11.893   7.795  72.683  1.00  0.00     0.000 HD 
HETATM   17  C   UNL     1     -11.199   9.149  71.186  1.00  0.00    -0.325 A  
HETATM   18  C   UNL     1      -9.922   8.712  70.913  1.00  0.00    -0.257 A  
HETATM   19  C   UNL     1      -9.202   9.418  69.952  1.00  0.00    -0.226 A  
HETATM   20  C   UNL     1      -9.771  10.525  69.294  1.00  0.00    -0.215 A  
ENDBRANCH   9  10
ENDBRANCH   8   9
ENDBRANCH   4   8
ENDBRANCH   3   4
ENDBRANCH   2   3
TORSDOF 7
ENDMDL
MODEL       60
REMARK 921   NORMALIZED FREE ENERGY PREDICTED BY IDOCK:   -4.71 KCAL/MOL
REMARK 922        TOTAL FREE ENERGY PREDICTED BY IDOCK:   -7.51 KCAL/MOL
REMARK 923 INTER-LIGAND FREE ENERGY PREDICTED BY IDOCK:   -6.12 KCAL/MOL
REMARK 924 INTRA-LIGAND FREE ENERGY PREDICTED BY IDOCK:   -1.39 KCAL/MOL
REMARK 927      BINDING AFFINITY PREDICTED BY RF-SCORE:    0.00 PKD
ROOT
HETATM    1  C   UNL     1     -10.198  19.843  68.231  1.00  0.00    -0.562 C  
HETATM    2  C   UNL     1     -10.584  18.677  67.335  1.00  0.00    -0.490 C  
ENDROOT
BRANCH   2   3
HETATM    3  C   UNL     1     -10.636  17.323  68.059  1.00  0.00    -0.394 C  
BRANCH   3   4
HETATM    4  N   UNL     1      -9.837  16.213  67.492  1.00  0.00    -0.235 NA 
BRANCH   4   5
HETATM    5  C   UNL     1      -9.690  16.356  66.027  1.00  0.00    -0.326 C  
BRANCH   5   6
HETATM    6  C   UNL     1     -10.759  15.654  65.167  1.00  0.00    -0.463 C  
HETATM    7  C   UNL     1     -10.503  14.167  64.974  1.00  0.00    -0.447 C  
ENDBRANCH   5   6
ENDBRANCH   4   5
BRANCH   4   8
HETATM    8  C   UNL     1      -8.506  16.162  68.151  1.00  0.00    -0.175 C  
BRANCH   8   9
HETATM    9  C   UNL     1      -7.322  16.777  67.371  1.00  0.00    -0.187 C  
BRANCH   9  10
HETATM   10  C   UNL     1      -6.951  18.179  67.783  1.00  0.00    -0.207 A  
HETATM   11  C   UNL     1      -6.736  19.196  66.859  1.00  0.00    -0.204 A  
HETATM   12  C   UNL     1      -6.810  19.183  65.357  1.00  0.00    -0.239 C  
HETATM   13  C   UNL     1      -6.472  20.631  64.995  1.00  0.00    -0.263 C  
HETATM   14  N   UNL     1      -6.239  21.313  66.182  1.00  0.00    -0.414 N  
HETATM   15  O   UNL     1      -6.411  21.106  63.873  1.00  0.00    -0.316 OA 
HETATM   16  H   UNL     1      -5.990  22.301  66.237  1.00  0.00     0.000 HD 
HETATM   17  C   UNL     1      -6.386  20.481  67.280  1.00  0.00    -0.230 A  
HETATM   18  C   UNL     1      -6.231  20.820  68.605  1.00  0.00    -0.308 A  
HETATM   19  C   UNL     1      -6.431  19.811  69.545  1.00  0.00    -0.383 A  
HETATM   20  C   UNL     1      -6.781  18.509  69.141  1.00  0.00    -0.280 A  
ENDBRANCH   9  10
ENDBRANCH   8   9
ENDBRANCH   4   8
ENDBRANCH   3   4
ENDBRANCH   2   3
TORSDOF 7
ENDMDL
MODEL       61
REMARK 921   NORMALIZED FREE ENERGY PREDICTED BY IDOCK:   -4.70 KCAL/MOL
REMARK 922        TOTAL FREE ENERGY PREDICTED BY IDOCK:   -7.51 KCAL/MOL
REMARK 923 INTER-LIGAND FREE ENERGY PREDICTED BY IDOCK:   -6.69 KCAL/MOL
REMARK 924 INTRA-LIGAND FREE ENERGY PREDICTED BY IDOCK:   -0.82 KCAL/MOL
REMARK 927      BINDING AFFINITY PREDICTED BY RF-SCORE:    0.00 PKD
ROOT
HETATM    1  C   UNL     1      -8.593   9.018  66.520  1.00  0.00    -0.129 C  
HETATM    2  C   UNL     1      -9.670  10.068  66.740  1.00  0.00    -0.239 C  
ENDROOT
BRANCH   2   3
HETATM    3  C   UNL     1     -10.785   9.627  67.701  1.00  0.00    -0.262 C  
BRANCH   3   4
HETATM    4  N   UNL     1     -11.079  10.504  68.856  1.00  0.00    -0.245 NA 
BRANCH   4   5
HETATM    5  C   UNL     1     -10.496   9.958  70.102  1.00  0.00    -0.285 C  
BRANCH   5   6
HETATM    6  C   UNL     1     -11.466   9.786  71.286  1.00  0.00    -0.457 C  
HETATM    7  C   UNL     1     -12.905  10.147  70.949  1.00  0.00    -0.442 C  
ENDBRANCH   5   6
ENDBRANCH   4   5
BRANCH   4   8
HETATM    8  C   UNL     1     -10.565  11.874  68.593  1.00  0.00    -0.234 C  
BRANCH   8   9
HETATM    9  C   UNL     1     -11.613  12.950  68.229  1.00  0.00    -0.374 C  
BRANCH   9  10
HETATM   10  C   UNL     1     -11.674  13.305  66.765  1.00  0.00    -0.434 A  
HETATM   11  C   UNL     1     -11.240  14.533  66.276  1.00  0.00    -0.342 A  
HETATM   12  C   UNL     1     -10.649  15.715  66.993  1.00  0.00    -0.311 C  
HETATM   13  C   UNL     1     -10.394  16.703  65.852  1.00  0.00    -0.340 C  
HETATM   14  N   UNL     1     -10.818  16.098  64.676  1.00  0.00    -0.509 N  
HETATM   15  O   UNL     1      -9.912  17.819  65.948  1.00  0.00    -0.527 OA 
HETATM   16  H   UNL     1     -10.767  16.534  63.755  1.00  0.00     0.000 HD 
HETATM   17  C   UNL     1     -11.319  14.828  64.914  1.00  0.00    -0.410 A  
HETATM   18  C   UNL     1     -11.824  13.948  63.984  1.00  0.00    -0.372 A  
HETATM   19  C   UNL     1     -12.275  12.717  64.456  1.00  0.00    -0.500 A  
HETATM   20  C   UNL     1     -12.206  12.401  65.826  1.00  0.00    -0.277 A  
ENDBRANCH   9  10
ENDBRANCH   8   9
ENDBRANCH   4   8
ENDBRANCH   3   4
ENDBRANCH   2   3
TORSDOF 7
ENDMDL
MODEL       62
REMARK 921   NORMALIZED FREE ENERGY PREDICTED BY IDOCK:   -4.69 KCAL/MOL
REMARK 922        TOTAL FREE ENERGY PREDICTED BY IDOCK:   -7.50 KCAL/MOL
REMARK 923 INTER-LIGAND FREE ENERGY PREDICTED BY IDOCK:   -6.47 KCAL/MOL
REMARK 924 INTRA-LIGAND FREE ENERGY PREDICTED BY IDOCK:   -1.02 KCAL/MOL
REMARK 927      BINDING AFFINITY PREDICTED BY RF-SCORE:    0.00 PKD
ROOT
HETATM    1  C   UNL     1      -5.234  18.969  70.740  1.00  0.00    -0.247 C  
HETATM    2  C   UNL     1      -6.276  19.980  70.289  1.00  0.00    -0.386 C  
ENDROOT
BRANCH   2   3
HETATM    3  C   UNL     1      -6.661  19.862  68.807  1.00  0.00    -0.323 C  
BRANCH   3   4
HETATM    4  N   UNL     1      -7.865  19.067  68.474  1.00  0.00    -0.327 NA 
BRANCH   4   5
HETATM    5  C   UNL     1      -8.889  19.904  67.810  1.00  0.00    -0.321 C  
BRANCH   5   6
HETATM    6  C   UNL     1      -9.134  19.618  66.316  1.00  0.00    -0.429 C  
HETATM    7  C   UNL     1     -10.584  19.295  65.989  1.00  0.00    -0.550 C  
ENDBRANCH   5   6
ENDBRANCH   4   5
BRANCH   4   8
HETATM    8  C   UNL     1      -7.487  17.918  67.611  1.00  0.00    -0.203 C  
BRANCH   8   9
HETATM    9  C   UNL     1      -7.836  16.508  68.142  1.00  0.00    -0.168 C  
BRANCH   9  10
HETATM   10  C   UNL     1      -9.053  15.878  67.515  1.00  0.00    -0.204 A  
HETATM   11  C   UNL     1     -10.217  15.627  68.232  1.00  0.00    -0.223 A  
HETATM   12  C   UNL     1     -10.551  15.889  69.675  1.00  0.00    -0.301 C  
HETATM   13  C   UNL     1     -11.990  15.382  69.782  1.00  0.00    -0.358 C  
HETATM   14  N   UNL     1     -12.355  14.900  68.532  1.00  0.00    -0.586 N  
HETATM   15  O   UNL     1     -12.694  15.390  70.778  1.00  0.00    -0.404 OA 
HETATM   16  H   UNL     1     -13.267  14.498  68.314  1.00  0.00     0.000 HD 
HETATM   17  C   UNL     1     -11.322  15.035  67.618  1.00  0.00    -0.334 A  
HETATM   18  C   UNL     1     -11.334  14.665  66.292  1.00  0.00    -0.347 A  
HETATM   19  C   UNL     1     -10.172  14.898  65.559  1.00  0.00    -0.401 A  
HETATM   20  C   UNL     1      -9.046  15.491  66.161  1.00  0.00    -0.359 A  
ENDBRANCH   9  10
ENDBRANCH   8   9
ENDBRANCH   4   8
ENDBRANCH   3   4
ENDBRANCH   2   3
TORSDOF 7
ENDMDL
MODEL       63
REMARK 921   NORMALIZED FREE ENERGY PREDICTED BY IDOCK:   -4.69 KCAL/MOL
REMARK 922        TOTAL FREE ENERGY PREDICTED BY IDOCK:   -7.49 KCAL/MOL
REMARK 923 INTER-LIGAND FREE ENERGY PREDICTED BY IDOCK:   -7.05 KCAL/MOL
REMARK 924 INTRA-LIGAND FREE ENERGY PREDICTED BY IDOCK:   -0.43 KCAL/MOL
REMARK 927      BINDING AFFINITY PREDICTED BY RF-SCORE:    0.00 PKD
ROOT
HETATM    1  C   UNL     1     -12.785  14.377  71.745  1.00  0.00    -0.427 C  
HETATM    2  C   UNL     1     -12.676  15.403  70.628  1.00  0.00    -0.490 C  
ENDROOT
BRANCH   2   3
HETATM    3  C   UNL     1     -11.643  15.044  69.549  1.00  0.00    -0.311 C  
BRANCH   3   4
HETATM    4  N   UNL     1     -11.562  15.922  68.360  1.00  0.00    -0.355 NA 
BRANCH   4   5
HETATM    5  C   UNL     1     -10.567  16.999  68.560  1.00  0.00    -0.370 C  
BRANCH   5   6
HETATM    6  C   UNL     1     -10.546  18.109  67.493  1.00  0.00    -0.419 C  
HETATM    7  C   UNL     1     -10.125  19.467  68.035  1.00  0.00    -0.516 C  
ENDBRANCH   5   6
ENDBRANCH   4   5
BRANCH   4   8
HETATM    8  C   UNL     1     -11.226  15.114  67.159  1.00  0.00    -0.320 C  
BRANCH   8   9
HETATM    9  C   UNL     1     -11.809  13.683  67.100  1.00  0.00    -0.435 C  
BRANCH   9  10
HETATM   10  C   UNL     1     -11.295  12.836  65.964  1.00  0.00    -0.363 A  
HETATM   11  C   UNL     1     -10.834  11.538  66.151  1.00  0.00    -0.330 A  
HETATM   12  C   UNL     1     -10.735  10.706  67.400  1.00  0.00    -0.326 C  
HETATM   13  C   UNL     1     -10.157   9.389  66.878  1.00  0.00    -0.248 C  
HETATM   14  N   UNL     1      -9.969   9.529  65.510  1.00  0.00    -0.399 N  
HETATM   15  O   UNL     1      -9.902   8.393  67.536  1.00  0.00    -0.159 OA 
HETATM   16  H   UNL     1      -9.592   8.801  64.903  1.00  0.00     0.000 HD 
HETATM   17  C   UNL     1     -10.358  10.786  65.074  1.00  0.00    -0.287 A  
HETATM   18  C   UNL     1     -10.310  11.269  63.786  1.00  0.00    -0.453 A  
HETATM   19  C   UNL     1     -10.757  12.573  63.580  1.00  0.00    -0.469 A  
HETATM   20  C   UNL     1     -11.238  13.347  64.654  1.00  0.00    -0.377 A  
ENDBRANCH   9  10
ENDBRANCH   8   9
ENDBRANCH   4   8
ENDBRANCH   3   4
ENDBRANCH   2   3
TORSDOF 7
ENDMDL
MODEL       64
REMARK 921   NORMALIZED FREE ENERGY PREDICTED BY IDOCK:   -4.68 KCAL/MOL
REMARK 922        TOTAL FREE ENERGY PREDICTED BY IDOCK:   -7.48 KCAL/MOL
REMARK 923 INTER-LIGAND FREE ENERGY PREDICTED BY IDOCK:   -6.65 KCAL/MOL
REMARK 924 INTRA-LIGAND FREE ENERGY PREDICTED BY IDOCK:   -0.83 KCAL/MOL
REMARK 927      BINDING AFFINITY PREDICTED BY RF-SCORE:    0.00 PKD
ROOT
HETATM    1  C   UNL     1     -11.330   6.325  69.696  1.00  0.00    -0.492 C  
HETATM    2  C   UNL     1     -10.651   7.333  70.609  1.00  0.00    -0.240 C  
ENDROOT
BRANCH   2   3
HETATM    3  C   UNL     1     -11.235   8.752  70.517  1.00  0.00    -0.247 C  
BRANCH   3   4
HETATM    4  N   UNL     1     -10.452   9.768  69.779  1.00  0.00    -0.231 NA 
BRANCH   4   5
HETATM    5  C   UNL     1      -9.006   9.641  70.069  1.00  0.00    -0.237 C  
BRANCH   5   6
HETATM    6  C   UNL     1      -8.094   9.365  68.858  1.00  0.00    -0.103 C  
HETATM    7  C   UNL     1      -7.228  10.554  68.468  1.00  0.00    -0.085 C  
ENDBRANCH   5   6
ENDBRANCH   4   5
BRANCH   4   8
HETATM    8  C   UNL     1     -10.708   9.640  68.321  1.00  0.00    -0.217 C  
BRANCH   8   9
HETATM    9  C   UNL     1     -11.208  10.907  67.590  1.00  0.00    -0.379 C  
BRANCH   9  10
HETATM   10  C   UNL     1     -10.758  11.032  66.157  1.00  0.00    -0.257 A  
HETATM   11  C   UNL     1     -11.183  12.064  65.328  1.00  0.00    -0.374 A  
HETATM   12  C   UNL     1     -12.105  13.220  65.602  1.00  0.00    -0.488 C  
HETATM   13  C   UNL     1     -12.117  13.961  64.263  1.00  0.00    -0.440 C  
HETATM   14  N   UNL     1     -11.298  13.257  63.390  1.00  0.00    -0.555 N  
HETATM   15  O   UNL     1     -12.733  14.981  64.000  1.00  0.00    -0.772 OA 
HETATM   16  H   UNL     1     -11.124  13.526  62.422  1.00  0.00     0.000 HD 
HETATM   17  C   UNL     1     -10.750  12.142  64.003  1.00  0.00    -0.384 A  
HETATM   18  C   UNL     1      -9.895  11.221  63.438  1.00  0.00    -0.416 A  
HETATM   19  C   UNL     1      -9.468  10.172  64.249  1.00  0.00    -0.366 A  
HETATM   20  C   UNL     1      -9.896  10.075  65.587  1.00  0.00    -0.363 A  
ENDBRANCH   9  10
ENDBRANCH   8   9
ENDBRANCH   4   8
ENDBRANCH   3   4
ENDBRANCH   2   3
TORSDOF 7
ENDMDL
MODEL       65
REMARK 921   NORMALIZED FREE ENERGY PREDICTED BY IDOCK:   -4.68 KCAL/MOL
REMARK 922        TOTAL FREE ENERGY PREDICTED BY IDOCK:   -7.48 KCAL/MOL
REMARK 923 INTER-LIGAND FREE ENERGY PREDICTED BY IDOCK:   -6.44 KCAL/MOL
REMARK 924 INTRA-LIGAND FREE ENERGY PREDICTED BY IDOCK:   -1.04 KCAL/MOL
REMARK 927      BINDING AFFINITY PREDICTED BY RF-SCORE:    0.00 PKD
ROOT
HETATM    1  C   UNL     1     -11.323   6.257  69.871  1.00  0.00    -0.504 C  
HETATM    2  C   UNL     1     -10.287   6.149  68.764  1.00  0.00    -0.256 C  
ENDROOT
BRANCH   2   3
HETATM    3  C   UNL     1      -9.627   7.486  68.394  1.00  0.00    -0.150 C  
BRANCH   3   4
HETATM    4  N   UNL     1     -10.437   8.715  68.545  1.00  0.00    -0.199 NA 
BRANCH   4   5
HETATM    5  C   UNL     1      -9.824   9.641  69.523  1.00  0.00    -0.206 C  
BRANCH   5   6
HETATM    6  C   UNL     1     -10.544   9.768  70.879  1.00  0.00    -0.344 C  
HETATM    7  C   UNL     1     -12.025  10.092  70.754  1.00  0.00    -0.442 C  
ENDBRANCH   5   6
ENDBRANCH   4   5
BRANCH   4   8
HETATM    8  C   UNL     1     -10.600   9.377  67.225  1.00  0.00    -0.244 C  
BRANCH   8   9
HETATM    9  C   UNL     1      -9.934  10.762  67.057  1.00  0.00    -0.236 C  
BRANCH   9  10
HETATM   10  C   UNL     1     -10.856  11.854  66.578  1.00  0.00    -0.317 A  
HETATM   11  C   UNL     1     -11.281  12.888  67.405  1.00  0.00    -0.331 A  
HETATM   12  C   UNL     1     -10.969  13.176  68.848  1.00  0.00    -0.270 C  
HETATM   13  C   UNL     1     -11.754  14.463  69.108  1.00  0.00    -0.317 C  
HETATM   14  N   UNL     1     -12.409  14.797  67.929  1.00  0.00    -0.539 N  
HETATM   15  O   UNL     1     -11.806  15.087  70.155  1.00  0.00    -0.274 OA 
HETATM   16  H   UNL     1     -13.010  15.613  67.817  1.00  0.00     0.000 HD 
HETATM   17  C   UNL     1     -12.142  13.878  66.927  1.00  0.00    -0.430 A  
HETATM   18  C   UNL     1     -12.621  13.896  65.636  1.00  0.00    -0.553 A  
HETATM   19  C   UNL     1     -12.216  12.861  64.796  1.00  0.00    -0.499 A  
HETATM   20  C   UNL     1     -11.351  11.852  65.260  1.00  0.00    -0.333 A  
ENDBRANCH   9  10
ENDBRANCH   8   9
ENDBRANCH   4   8
ENDBRANCH   3   4
ENDBRANCH   2   3
TORSDOF 7
ENDMDL
MODEL       66
REMARK 921   NORMALIZED FREE ENERGY PREDICTED BY IDOCK:   -4.68 KCAL/MOL
REMARK 922        TOTAL FREE ENERGY PREDICTED BY IDOCK:   -7.48 KCAL/MOL
REMARK 923 INTER-LIGAND FREE ENERGY PREDICTED BY IDOCK:   -6.90 KCAL/MOL
REMARK 924 INTRA-LIGAND FREE ENERGY PREDICTED BY IDOCK:   -0.58 KCAL/MOL
REMARK 927      BINDING AFFINITY PREDICTED BY RF-SCORE:    0.00 PKD
ROOT
HETATM    1  C   UNL     1     -11.882  12.981  63.335  1.00  0.00    -0.543 C  
HETATM    2  C   UNL     1     -11.016  13.353  64.528  1.00  0.00    -0.404 C  
ENDROOT
BRANCH   2   3
HETATM    3  C   UNL     1     -11.060  14.845  64.891  1.00  0.00    -0.414 C  
BRANCH   3   4
HETATM    4  N   UNL     1     -11.001  15.203  66.326  1.00  0.00    -0.340 NA 
BRANCH   4   5
HETATM    5  C   UNL     1     -11.995  14.435  67.108  1.00  0.00    -0.389 C  
BRANCH   5   6
HETATM    6  C   UNL     1     -11.449  13.657  68.320  1.00  0.00    -0.348 C  
HETATM    7  C   UNL     1     -11.599  12.148  68.192  1.00  0.00    -0.397 C  
ENDBRANCH   5   6
ENDBRANCH   4   5
BRANCH   4   8
HETATM    8  C   UNL     1      -9.629  14.969  66.847  1.00  0.00    -0.239 C  
BRANCH   8   9
HETATM    9  C   UNL     1      -9.073  16.023  67.832  1.00  0.00    -0.187 C  
BRANCH   9  10
HETATM   10  C   UNL     1      -9.301  17.456  67.422  1.00  0.00    -0.237 A  
HETATM   11  C   UNL     1      -8.381  18.170  66.663  1.00  0.00    -0.283 A  
HETATM   12  C   UNL     1      -7.051  17.756  66.096  1.00  0.00    -0.347 C  
HETATM   13  C   UNL     1      -6.591  19.021  65.367  1.00  0.00    -0.257 C  
HETATM   14  N   UNL     1      -7.573  19.986  65.548  1.00  0.00    -0.387 N  
HETATM   15  O   UNL     1      -5.553  19.166  64.744  1.00  0.00    -0.191 OA 
HETATM   16  H   UNL     1      -7.527  20.931  65.169  1.00  0.00     0.000 HD 
HETATM   17  C   UNL     1      -8.624  19.499  66.309  1.00  0.00    -0.361 A  
HETATM   18  C   UNL     1      -9.762  20.178  66.682  1.00  0.00    -0.568 A  
HETATM   19  C   UNL     1     -10.691  19.483  67.454  1.00  0.00    -0.589 A  
HETATM   20  C   UNL     1     -10.462  18.143  67.823  1.00  0.00    -0.421 A  
ENDBRANCH   9  10
ENDBRANCH   8   9
ENDBRANCH   4   8
ENDBRANCH   3   4
ENDBRANCH   2   3
TORSDOF 7
ENDMDL
MODEL       67
REMARK 921   NORMALIZED FREE ENERGY PREDICTED BY IDOCK:   -4.67 KCAL/MOL
REMARK 922        TOTAL FREE ENERGY PREDICTED BY IDOCK:   -7.46 KCAL/MOL
REMARK 923 INTER-LIGAND FREE ENERGY PREDICTED BY IDOCK:   -6.70 KCAL/MOL
REMARK 924 INTRA-LIGAND FREE ENERGY PREDICTED BY IDOCK:   -0.77 KCAL/MOL
REMARK 927      BINDING AFFINITY PREDICTED BY RF-SCORE:    0.00 PKD
ROOT
HETATM    1  C   UNL     1     -13.660  15.172  72.611  1.00  0.00    -0.594 C  
HETATM    2  C   UNL     1     -13.382  15.435  71.139  1.00  0.00    -0.580 C  
ENDROOT
BRANCH   2   3
HETATM    3  C   UNL     1     -11.912  15.757  70.829  1.00  0.00    -0.407 C  
BRANCH   3   4
HETATM    4  N   UNL     1     -11.502  15.781  69.407  1.00  0.00    -0.330 NA 
BRANCH   4   5
HETATM    5  C   UNL     1     -10.548  16.882  69.145  1.00  0.00    -0.330 C  
BRANCH   5   6
HETATM    6  C   UNL     1      -9.083  16.467  68.907  1.00  0.00    -0.256 C  
HETATM    7  C   UNL     1      -8.537  16.916  67.560  1.00  0.00    -0.211 C  
ENDBRANCH   5   6
ENDBRANCH   4   5
BRANCH   4   8
HETATM    8  C   UNL     1     -10.908  14.471  69.032  1.00  0.00    -0.254 C  
BRANCH   8   9
HETATM    9  C   UNL     1     -11.883  13.391  68.511  1.00  0.00    -0.401 C  
BRANCH   9  10
HETATM   10  C   UNL     1     -11.857  12.092  69.275  1.00  0.00    -0.377 A  
HETATM   11  C   UNL     1     -11.400  10.905  68.714  1.00  0.00    -0.357 A  
HETATM   12  C   UNL     1     -10.859  10.619  67.340  1.00  0.00    -0.353 C  
HETATM   13  C   UNL     1     -10.540   9.124  67.412  1.00  0.00    -0.244 C  
HETATM   14  N   UNL     1     -10.889   8.685  68.682  1.00  0.00    -0.438 N  
HETATM   15  O   UNL     1     -10.070   8.435  66.521  1.00  0.00    -0.276 OA 
HETATM   16  H   UNL     1     -10.784   7.723  69.007  1.00  0.00     0.000 HD 
HETATM   17  C   UNL     1     -11.398   9.719  69.451  1.00  0.00    -0.045 A  
HETATM   18  C   UNL     1     -11.841   9.645  70.752  1.00  0.00    -0.378 A  
HETATM   19  C   UNL     1     -12.314  10.821  71.329  1.00  0.00    -0.470 A  
HETATM   20  C   UNL     1     -12.327  12.027  70.601  1.00  0.00    -0.394 A  
ENDBRANCH   9  10
ENDBRANCH   8   9
ENDBRANCH   4   8
ENDBRANCH   3   4
ENDBRANCH   2   3
TORSDOF 7
ENDMDL
MODEL       68
REMARK 921   NORMALIZED FREE ENERGY PREDICTED BY IDOCK:   -4.67 KCAL/MOL
REMARK 922        TOTAL FREE ENERGY PREDICTED BY IDOCK:   -7.46 KCAL/MOL
REMARK 923 INTER-LIGAND FREE ENERGY PREDICTED BY IDOCK:   -6.31 KCAL/MOL
REMARK 924 INTRA-LIGAND FREE ENERGY PREDICTED BY IDOCK:   -1.15 KCAL/MOL
REMARK 927      BINDING AFFINITY PREDICTED BY RF-SCORE:    0.00 PKD
ROOT
HETATM    1  C   UNL     1     -12.553  12.296  63.815  1.00  0.00    -0.577 C  
HETATM    2  C   UNL     1     -11.088  11.958  64.036  1.00  0.00    -0.459 C  
ENDROOT
BRANCH   2   3
HETATM    3  C   UNL     1     -10.496  12.554  65.322  1.00  0.00    -0.287 C  
BRANCH   3   4
HETATM    4  N   UNL     1     -10.197  11.624  66.433  1.00  0.00    -0.215 NA 
BRANCH   4   5
HETATM    5  C   UNL     1      -8.778  11.719  66.842  1.00  0.00    -0.189 C  
BRANCH   5   6
HETATM    6  C   UNL     1      -8.492  12.545  68.110  1.00  0.00    -0.180 C  
HETATM    7  C   UNL     1      -7.959  13.941  67.819  1.00  0.00    -0.174 C  
ENDBRANCH   5   6
ENDBRANCH   4   5
BRANCH   4   8
HETATM    8  C   UNL     1     -11.095  11.908  67.583  1.00  0.00    -0.257 C  
BRANCH   8   9
HETATM    9  C   UNL     1     -11.938  13.201  67.502  1.00  0.00    -0.367 C  
BRANCH   9  10
HETATM   10  C   UNL     1     -11.828  14.105  68.704  1.00  0.00    -0.383 A  
HETATM   11  C   UNL     1     -11.358  15.411  68.614  1.00  0.00    -0.337 A  
HETATM   12  C   UNL     1     -10.887  16.200  67.424  1.00  0.00    -0.265 C  
HETATM   13  C   UNL     1     -10.531  17.554  68.042  1.00  0.00    -0.387 C  
HETATM   14  N   UNL     1     -10.783  17.469  69.405  1.00  0.00    -0.310 N  
HETATM   15  O   UNL     1     -10.102  18.533  67.454  1.00  0.00    -0.320 OA 
HETATM   16  H   UNL     1     -10.633  18.231  70.066  1.00  0.00     0.000 HD 
HETATM   17  C   UNL     1     -11.263  16.216  69.751  1.00  0.00    -0.343 A  
HETATM   18  C   UNL     1     -11.616  15.781  71.009  1.00  0.00    -0.453 A  
HETATM   19  C   UNL     1     -12.077  14.471  71.121  1.00  0.00    -0.408 A  
HETATM   20  C   UNL     1     -12.177  13.643  69.987  1.00  0.00    -0.395 A  
ENDBRANCH   9  10
ENDBRANCH   8   9
ENDBRANCH   4   8
ENDBRANCH   3   4
ENDBRANCH   2   3
TORSDOF 7
ENDMDL
MODEL       69
REMARK 921   NORMALIZED FREE ENERGY PREDICTED BY IDOCK:   -4.66 KCAL/MOL
REMARK 922        TOTAL FREE ENERGY PREDICTED BY IDOCK:   -7.44 KCAL/MOL
REMARK 923 INTER-LIGAND FREE ENERGY PREDICTED BY IDOCK:   -6.76 KCAL/MOL
REMARK 924 INTRA-LIGAND FREE ENERGY PREDICTED BY IDOCK:   -0.68 KCAL/MOL
REMARK 927      BINDING AFFINITY PREDICTED BY RF-SCORE:    0.00 PKD
ROOT
HETATM    1  C   UNL     1     -11.714  12.172  63.275  1.00  0.00    -0.441 C  
HETATM    2  C   UNL     1     -10.994  13.190  64.146  1.00  0.00    -0.418 C  
ENDROOT
BRANCH   2   3
HETATM    3  C   UNL     1     -11.269  13.031  65.649  1.00  0.00    -0.283 C  
BRANCH   3   4
HETATM    4  N   UNL     1     -10.945  14.176  66.529  1.00  0.00    -0.305 NA 
BRANCH   4   5
HETATM    5  C   UNL     1     -10.992  15.452  65.782  1.00  0.00    -0.309 C  
BRANCH   5   6
HETATM    6  C   UNL     1      -9.876  16.466  66.101  1.00  0.00    -0.362 C  
HETATM    7  C   UNL     1      -8.528  15.819  66.378  1.00  0.00    -0.313 C  
ENDBRANCH   5   6
ENDBRANCH   4   5
BRANCH   4   8
HETATM    8  C   UNL     1     -11.883  14.207  67.681  1.00  0.00    -0.392 C  
BRANCH   8   9
HETATM    9  C   UNL     1     -11.252  14.165  69.092  1.00  0.00    -0.307 C  
BRANCH   9  10
HETATM   10  C   UNL     1     -11.866  13.158  70.031  1.00  0.00    -0.360 A  
HETATM   11  C   UNL     1     -11.674  11.789  69.886  1.00  0.00    -0.399 A  
HETATM   12  C   UNL     1     -10.883  11.016  68.867  1.00  0.00    -0.262 C  
HETATM   13  C   UNL     1     -11.097   9.567  69.308  1.00  0.00    -0.082 C  
HETATM   14  N   UNL     1     -11.919   9.590  70.428  1.00  0.00    -0.457 N  
HETATM   15  O   UNL     1     -10.639   8.568  68.779  1.00  0.00    -0.208 OA 
HETATM   16  H   UNL     1     -12.227   8.758  70.932  1.00  0.00     0.000 HD 
HETATM   17  C   UNL     1     -12.266  10.886  70.772  1.00  0.00    -0.383 A  
HETATM   18  C   UNL     1     -13.063  11.281  71.822  1.00  0.00    -0.527 A  
HETATM   19  C   UNL     1     -13.277  12.649  71.977  1.00  0.00    -0.531 A  
HETATM   20  C   UNL     1     -12.692  13.575  71.092  1.00  0.00    -0.425 A  
ENDBRANCH   9  10
ENDBRANCH   8   9
ENDBRANCH   4   8
ENDBRANCH   3   4
ENDBRANCH   2   3
TORSDOF 7
ENDMDL
MODEL       70
REMARK 921   NORMALIZED FREE ENERGY PREDICTED BY IDOCK:   -4.66 KCAL/MOL
REMARK 922        TOTAL FREE ENERGY PREDICTED BY IDOCK:   -7.44 KCAL/MOL
REMARK 923 INTER-LIGAND FREE ENERGY PREDICTED BY IDOCK:   -6.93 KCAL/MOL
REMARK 924 INTRA-LIGAND FREE ENERGY PREDICTED BY IDOCK:   -0.51 KCAL/MOL
REMARK 927      BINDING AFFINITY PREDICTED BY RF-SCORE:    0.00 PKD
ROOT
HETATM    1  C   UNL     1      -5.135  19.749  68.515  1.00  0.00    -0.206 C  
HETATM    2  C   UNL     1      -6.548  20.222  68.212  1.00  0.00    -0.335 C  
ENDROOT
BRANCH   2   3
HETATM    3  C   UNL     1      -7.474  19.120  67.675  1.00  0.00    -0.237 C  
BRANCH   3   4
HETATM    4  N   UNL     1      -8.464  18.542  68.611  1.00  0.00    -0.322 NA 
BRANCH   4   5
HETATM    5  C   UNL     1      -9.739  19.291  68.567  1.00  0.00    -0.414 C  
BRANCH   5   6
HETATM    6  C   UNL     1      -9.867  20.348  67.453  1.00  0.00    -0.587 C  
HETATM    7  C   UNL     1     -10.519  19.818  66.185  1.00  0.00    -0.613 C  
ENDBRANCH   5   6
ENDBRANCH   4   5
BRANCH   4   8
HETATM    8  C   UNL     1      -8.685  17.109  68.288  1.00  0.00    -0.241 C  
BRANCH   8   9
HETATM    9  C   UNL     1     -10.143  16.598  68.361  1.00  0.00    -0.268 C  
BRANCH   9  10
HETATM   10  C   UNL     1     -10.611  15.843  67.143  1.00  0.00    -0.316 A  
HETATM   11  C   UNL     1     -11.084  14.537  67.211  1.00  0.00    -0.317 A  
HETATM   12  C   UNL     1     -11.247  13.617  68.390  1.00  0.00    -0.306 C  
HETATM   13  C   UNL     1     -11.825  12.354  67.749  1.00  0.00    -0.298 C  
HETATM   14  N   UNL     1     -11.938  12.592  66.386  1.00  0.00    -0.404 N  
HETATM   15  O   UNL     1     -12.130  11.320  68.321  1.00  0.00    -0.619 OA 
HETATM   16  H   UNL     1     -12.295  11.916  65.711  1.00  0.00     0.000 HD 
HETATM   17  C   UNL     1     -11.502  13.867  66.059  1.00  0.00    -0.340 A  
HETATM   18  C   UNL     1     -11.472  14.438  64.807  1.00  0.00    -0.402 A  
HETATM   19  C   UNL     1     -10.990  15.742  64.717  1.00  0.00    -0.410 A  
HETATM   20  C   UNL     1     -10.561  16.433  65.866  1.00  0.00    -0.294 A  
ENDBRANCH   9  10
ENDBRANCH   8   9
ENDBRANCH   4   8
ENDBRANCH   3   4
ENDBRANCH   2   3
TORSDOF 7
ENDMDL
MODEL       71
REMARK 921   NORMALIZED FREE ENERGY PREDICTED BY IDOCK:   -4.63 KCAL/MOL
REMARK 922        TOTAL FREE ENERGY PREDICTED BY IDOCK:   -7.41 KCAL/MOL
REMARK 923 INTER-LIGAND FREE ENERGY PREDICTED BY IDOCK:   -6.64 KCAL/MOL
REMARK 924 INTRA-LIGAND FREE ENERGY PREDICTED BY IDOCK:   -0.77 KCAL/MOL
REMARK 927      BINDING AFFINITY PREDICTED BY RF-SCORE:    0.00 PKD
ROOT
HETATM    1  C   UNL     1      -8.704  17.927  66.696  1.00  0.00    -0.280 C  
HETATM    2  C   UNL     1      -9.808  16.893  66.845  1.00  0.00    -0.278 C  
ENDROOT
BRANCH   2   3
HETATM    3  C   UNL     1      -9.306  15.494  67.234  1.00  0.00    -0.212 C  
BRANCH   3   4
HETATM    4  N   UNL     1     -10.025  14.785  68.316  1.00  0.00    -0.217 NA 
BRANCH   4   5
HETATM    5  C   UNL     1      -9.815  15.451  69.621  1.00  0.00    -0.258 C  
BRANCH   5   6
HETATM    6  C   UNL     1     -11.069  16.047  70.288  1.00  0.00    -0.380 C  
HETATM    7  C   UNL     1     -11.356  15.472  71.667  1.00  0.00    -0.462 C  
ENDBRANCH   5   6
ENDBRANCH   4   5
BRANCH   4   8
HETATM    8  C   UNL     1     -11.474  14.710  67.993  1.00  0.00    -0.324 C  
BRANCH   8   9
HETATM    9  C   UNL     1     -12.027  13.318  67.609  1.00  0.00    -0.366 C  
BRANCH   9  10
HETATM   10  C   UNL     1     -11.866  12.951  66.156  1.00  0.00    -0.487 A  
HETATM   11  C   UNL     1     -11.158  11.827  65.745  1.00  0.00    -0.351 A  
HETATM   12  C   UNL     1     -10.440  10.777  66.547  1.00  0.00    -0.299 C  
HETATM   13  C   UNL     1      -9.902   9.840  65.464  1.00  0.00    -0.308 C  
HETATM   14  N   UNL     1     -10.291  10.357  64.235  1.00  0.00    -0.385 N  
HETATM   15  O   UNL     1      -9.246   8.826  65.637  1.00  0.00    -0.217 OA 
HETATM   16  H   UNL     1     -10.066   9.933  63.336  1.00  0.00     0.000 HD 
HETATM   17  C   UNL     1     -11.024  11.523  64.388  1.00  0.00    -0.324 A  
HETATM   18  C   UNL     1     -11.567  12.300  63.389  1.00  0.00    -0.530 A  
HETATM   19  C   UNL     1     -12.269  13.437  63.781  1.00  0.00    -0.482 A  
HETATM   20  C   UNL     1     -12.413  13.762  65.144  1.00  0.00    -0.483 A  
ENDBRANCH   9  10
ENDBRANCH   8   9
ENDBRANCH   4   8
ENDBRANCH   3   4
ENDBRANCH   2   3
TORSDOF 7
ENDMDL
MODEL       72
REMARK 921   NORMALIZED FREE ENERGY PREDICTED BY IDOCK:   -4.63 KCAL/MOL
REMARK 922        TOTAL FREE ENERGY PREDICTED BY IDOCK:   -7.41 KCAL/MOL
REMARK 923 INTER-LIGAND FREE ENERGY PREDICTED BY IDOCK:   -6.84 KCAL/MOL
REMARK 924 INTRA-LIGAND FREE ENERGY PREDICTED BY IDOCK:   -0.58 KCAL/MOL
REMARK 927      BINDING AFFINITY PREDICTED BY RF-SCORE:    0.00 PKD
ROOT
HETATM    1  C   UNL     1     -14.112   8.783  71.873  1.00  0.00    -0.488 C  
HETATM    2  C   UNL     1     -12.789   9.521  71.752  1.00  0.00    -0.496 C  
ENDROOT
BRANCH   2   3
HETATM    3  C   UNL     1     -12.795  10.648  70.707  1.00  0.00    -0.352 C  
BRANCH   3   4
HETATM    4  N   UNL     1     -11.495  11.051  70.127  1.00  0.00    -0.304 NA 
BRANCH   4   5
HETATM    5  C   UNL     1     -10.469  10.006  70.340  1.00  0.00    -0.240 C  
BRANCH   5   6
HETATM    6  C   UNL     1     -10.323   8.961  69.217  1.00  0.00    -0.221 C  
HETATM    7  C   UNL     1     -10.642   7.542  69.663  1.00  0.00    -0.243 C  
ENDBRANCH   5   6
ENDBRANCH   4   5
BRANCH   4   8
HETATM    8  C   UNL     1     -11.658  11.340  68.678  1.00  0.00    -0.318 C  
BRANCH   8   9
HETATM    9  C   UNL     1     -10.762  12.453  68.088  1.00  0.00    -0.243 C  
BRANCH   9  10
HETATM   10  C   UNL     1     -10.960  12.711  66.616  1.00  0.00    -0.292 A  
HETATM   11  C   UNL     1     -10.915  13.989  66.070  1.00  0.00    -0.298 A  
HETATM   12  C   UNL     1     -10.676  15.323  66.723  1.00  0.00    -0.313 C  
HETATM   13  C   UNL     1     -10.749  16.290  65.540  1.00  0.00    -0.313 C  
HETATM   14  N   UNL     1     -11.007  15.538  64.402  1.00  0.00    -0.679 N  
HETATM   15  O   UNL     1     -10.611  17.502  65.580  1.00  0.00    -0.612 OA 
HETATM   16  H   UNL     1     -11.108  15.929  63.465  1.00  0.00     0.000 HD 
HETATM   17  C   UNL     1     -11.111  14.189  64.701  1.00  0.00    -0.371 A  
HETATM   18  C   UNL     1     -11.360  13.160  63.821  1.00  0.00    -0.370 A  
HETATM   19  C   UNL     1     -11.422  11.873  64.352  1.00  0.00    -0.393 A  
HETATM   20  C   UNL     1     -11.229  11.651  65.729  1.00  0.00    -0.290 A  
ENDBRANCH   9  10
ENDBRANCH   8   9
ENDBRANCH   4   8
ENDBRANCH   3   4
ENDBRANCH   2   3
TORSDOF 7
ENDMDL
MODEL       73
REMARK 921   NORMALIZED FREE ENERGY PREDICTED BY IDOCK:   -4.62 KCAL/MOL
REMARK 922        TOTAL FREE ENERGY PREDICTED BY IDOCK:   -7.40 KCAL/MOL
REMARK 923 INTER-LIGAND FREE ENERGY PREDICTED BY IDOCK:   -6.83 KCAL/MOL
REMARK 924 INTRA-LIGAND FREE ENERGY PREDICTED BY IDOCK:   -0.56 KCAL/MOL
REMARK 927      BINDING AFFINITY PREDICTED BY RF-SCORE:    0.00 PKD
ROOT
HETATM    1  C   UNL     1      -9.742  20.274  66.878  1.00  0.00    -0.584 C  
HETATM    2  C   UNL     1     -10.658  19.361  67.677  1.00  0.00    -0.575 C  
ENDROOT
BRANCH   2   3
HETATM    3  C   UNL     1     -10.737  17.926  67.134  1.00  0.00    -0.230 C  
BRANCH   3   4
HETATM    4  N   UNL     1     -10.023  16.869  67.886  1.00  0.00    -0.266 NA 
BRANCH   4   5
HETATM    5  C   UNL     1      -8.976  17.449  68.757  1.00  0.00    -0.219 C  
BRANCH   5   6
HETATM    6  C   UNL     1      -7.521  17.248  68.294  1.00  0.00    -0.224 C  
HETATM    7  C   UNL     1      -7.289  15.928  67.575  1.00  0.00    -0.198 C  
ENDBRANCH   5   6
ENDBRANCH   4   5
BRANCH   4   8
HETATM    8  C   UNL     1     -10.993  16.077  68.686  1.00  0.00    -0.323 C  
BRANCH   8   9
HETATM    9  C   UNL     1     -10.431  14.849  69.439  1.00  0.00    -0.231 C  
BRANCH   9  10
HETATM   10  C   UNL     1     -11.428  14.133  70.315  1.00  0.00    -0.193 A  
HETATM   11  C   UNL     1     -11.914  14.685  71.495  1.00  0.00    -0.400 A  
HETATM   12  C   UNL     1     -11.619  16.006  72.151  1.00  0.00    -0.499 C  
HETATM   13  C   UNL     1     -12.501  15.962  73.400  1.00  0.00    -0.541 C  
HETATM   14  N   UNL     1     -13.171  14.746  73.394  1.00  0.00    -0.369 N  
HETATM   15  O   UNL     1     -12.602  16.830  74.252  1.00  0.00    -0.638 OA 
HETATM   16  H   UNL     1     -13.829  14.449  74.115  1.00  0.00     0.000 HD 
HETATM   17  C   UNL     1     -12.831  13.988  72.285  1.00  0.00    -0.315 A  
HETATM   18  C   UNL     1     -13.302  12.736  71.959  1.00  0.00    -0.565 A  
HETATM   19  C   UNL     1     -12.817  12.162  70.787  1.00  0.00    -0.109 A  
HETATM   20  C   UNL     1     -11.890  12.847  69.978  1.00  0.00    -0.356 A  
ENDBRANCH   9  10
ENDBRANCH   8   9
ENDBRANCH   4   8
ENDBRANCH   3   4
ENDBRANCH   2   3
TORSDOF 7
ENDMDL
MODEL       74
REMARK 921   NORMALIZED FREE ENERGY PREDICTED BY IDOCK:   -4.61 KCAL/MOL
REMARK 922        TOTAL FREE ENERGY PREDICTED BY IDOCK:   -7.39 KCAL/MOL
REMARK 923 INTER-LIGAND FREE ENERGY PREDICTED BY IDOCK:   -6.12 KCAL/MOL
REMARK 924 INTRA-LIGAND FREE ENERGY PREDICTED BY IDOCK:   -1.27 KCAL/MOL
REMARK 927      BINDING AFFINITY PREDICTED BY RF-SCORE:    0.00 PKD
ROOT
HETATM    1  C   UNL     1     -11.550  13.952  69.476  1.00  0.00    -0.358 C  
HETATM    2  C   UNL     1     -11.791  15.393  69.054  1.00  0.00    -0.357 C  
ENDROOT
BRANCH   2   3
HETATM    3  C   UNL     1     -10.546  16.288  69.149  1.00  0.00    -0.292 C  
BRANCH   3   4
HETATM    4  N   UNL     1     -10.184  17.086  67.956  1.00  0.00    -0.303 NA 
BRANCH   4   5
HETATM    5  C   UNL     1     -10.215  18.535  68.254  1.00  0.00    -0.376 C  
BRANCH   5   6
HETATM    6  C   UNL     1      -9.433  19.443  67.286  1.00  0.00    -0.398 C  
HETATM    7  C   UNL     1     -10.273  19.966  66.130  1.00  0.00    -0.611 C  
ENDBRANCH   5   6
ENDBRANCH   4   5
BRANCH   4   8
HETATM    8  C   UNL     1      -8.840  16.679  67.468  1.00  0.00    -0.196 C  
BRANCH   8   9
HETATM    9  C   UNL     1      -8.767  16.113  66.031  1.00  0.00    -0.282 C  
BRANCH   9  10
HETATM   10  C   UNL     1     -10.013  15.406  65.564  1.00  0.00    -0.379 A  
HETATM   11  C   UNL     1     -10.225  14.048  65.779  1.00  0.00    -0.343 A  
HETATM   12  C   UNL     1      -9.367  13.022  66.465  1.00  0.00    -0.220 C  
HETATM   13  C   UNL     1     -10.210  11.751  66.349  1.00  0.00    -0.215 C  
HETATM   14  N   UNL     1     -11.373  12.084  65.667  1.00  0.00    -0.340 N  
HETATM   15  O   UNL     1      -9.922  10.643  66.771  1.00  0.00    -0.194 OA 
HETATM   16  H   UNL     1     -12.119  11.424  65.447  1.00  0.00     0.000 HD 
HETATM   17  C   UNL     1     -11.390  13.426  65.324  1.00  0.00    -0.296 A  
HETATM   18  C   UNL     1     -12.383  14.097  64.646  1.00  0.00    -0.432 A  
HETATM   19  C   UNL     1     -12.183  15.455  64.411  1.00  0.00    -0.161 A  
HETATM   20  C   UNL     1     -11.014  16.100  64.858  1.00  0.00    -0.364 A  
ENDBRANCH   9  10
ENDBRANCH   8   9
ENDBRANCH   4   8
ENDBRANCH   3   4
ENDBRANCH   2   3
TORSDOF 7
ENDMDL
MODEL       75
REMARK 921   NORMALIZED FREE ENERGY PREDICTED BY IDOCK:   -4.61 KCAL/MOL
REMARK 922        TOTAL FREE ENERGY PREDICTED BY IDOCK:   -7.38 KCAL/MOL
REMARK 923 INTER-LIGAND FREE ENERGY PREDICTED BY IDOCK:   -6.08 KCAL/MOL
REMARK 924 INTRA-LIGAND FREE ENERGY PREDICTED BY IDOCK:   -1.29 KCAL/MOL
REMARK 927      BINDING AFFINITY PREDICTED BY RF-SCORE:    0.00 PKD
ROOT
HETATM    1  C   UNL     1      -7.746  14.782  69.144  1.00  0.00    -0.144 C  
HETATM    2  C   UNL     1      -7.482  15.672  67.940  1.00  0.00    -0.147 C  
ENDROOT
BRANCH   2   3
HETATM    3  C   UNL     1      -7.254  17.150  68.294  1.00  0.00    -0.204 C  
BRANCH   3   4
HETATM    4  N   UNL     1      -8.451  18.004  68.469  1.00  0.00    -0.310 NA 
BRANCH   4   5
HETATM    5  C   UNL     1      -8.086  19.438  68.482  1.00  0.00    -0.361 C  
BRANCH   5   6
HETATM    6  C   UNL     1      -8.369  20.220  67.185  1.00  0.00    -0.394 C  
HETATM    7  C   UNL     1      -7.159  20.339  66.271  1.00  0.00    -0.306 C  
ENDBRANCH   5   6
ENDBRANCH   4   5
BRANCH   4   8
HETATM    8  C   UNL     1      -9.433  17.721  67.390  1.00  0.00    -0.254 C  
BRANCH   8   9
HETATM    9  C   UNL     1     -10.881  17.410  67.834  1.00  0.00    -0.270 C  
BRANCH   9  10
HETATM   10  C   UNL     1     -11.157  15.955  68.118  1.00  0.00    -0.338 A  
HETATM   11  C   UNL     1     -11.420  15.482  69.399  1.00  0.00    -0.345 A  
HETATM   12  C   UNL     1     -11.497  16.209  70.713  1.00  0.00    -0.408 C  
HETATM   13  C   UNL     1     -11.832  15.086  71.696  1.00  0.00    -0.378 C  
HETATM   14  N   UNL     1     -11.908  13.905  70.970  1.00  0.00    -0.493 N  
HETATM   15  O   UNL     1     -11.999  15.197  72.900  1.00  0.00    -0.379 OA 
HETATM   16  H   UNL     1     -12.117  12.993  71.375  1.00  0.00     0.000 HD 
HETATM   17  C   UNL     1     -11.664  14.125  69.624  1.00  0.00    -0.316 A  
HETATM   18  C   UNL     1     -11.658  13.186  68.617  1.00  0.00    -0.356 A  
HETATM   19  C   UNL     1     -11.385  13.639  67.328  1.00  0.00    -0.346 A  
HETATM   20  C   UNL     1     -11.133  15.002  67.082  1.00  0.00    -0.332 A  
ENDBRANCH   9  10
ENDBRANCH   8   9
ENDBRANCH   4   8
ENDBRANCH   3   4
ENDBRANCH   2   3
TORSDOF 7
ENDMDL
MODEL       76
REMARK 921   NORMALIZED FREE ENERGY PREDICTED BY IDOCK:   -4.61 KCAL/MOL
REMARK 922        TOTAL FREE ENERGY PREDICTED BY IDOCK:   -7.37 KCAL/MOL
REMARK 923 INTER-LIGAND FREE ENERGY PREDICTED BY IDOCK:   -6.82 KCAL/MOL
REMARK 924 INTRA-LIGAND FREE ENERGY PREDICTED BY IDOCK:   -0.55 KCAL/MOL
REMARK 927      BINDING AFFINITY PREDICTED BY RF-SCORE:    0.00 PKD
ROOT
HETATM    1  C   UNL     1     -10.333  19.950  66.086  1.00  0.00    -0.604 C  
HETATM    2  C   UNL     1     -10.679  18.859  67.087  1.00  0.00    -0.506 C  
ENDROOT
BRANCH   2   3
HETATM    3  C   UNL     1     -10.161  17.466  66.697  1.00  0.00    -0.317 C  
BRANCH   3   4
HETATM    4  N   UNL     1      -9.849  16.521  67.792  1.00  0.00    -0.237 NA 
BRANCH   4   5
HETATM    5  C   UNL     1      -8.982  17.153  68.812  1.00  0.00    -0.233 C  
BRANCH   5   6
HETATM    6  C   UNL     1      -7.587  17.597  68.334  1.00  0.00    -0.260 C  
HETATM    7  C   UNL     1      -7.282  19.059  68.625  1.00  0.00    -0.351 C  
ENDBRANCH   5   6
ENDBRANCH   4   5
BRANCH   4   8
HETATM    8  C   UNL     1     -11.109  16.028  68.407  1.00  0.00    -0.351 C  
BRANCH   8   9
HETATM    9  C   UNL     1     -11.692  14.716  67.836  1.00  0.00    -0.379 C  
BRANCH   9  10
HETATM   10  C   UNL     1     -11.929  13.631  68.856  1.00  0.00    -0.392 A  
HETATM   11  C   UNL     1     -11.678  12.290  68.591  1.00  0.00    -0.377 A  
HETATM   12  C   UNL     1     -11.153  11.620  67.351  1.00  0.00    -0.337 C  
HETATM   13  C   UNL     1     -11.116  10.146  67.758  1.00  0.00    -0.227 C  
HETATM   14  N   UNL     1     -11.581  10.063  69.064  1.00  0.00    -0.489 N  
HETATM   15  O   UNL     1     -10.750   9.208  67.069  1.00  0.00    -0.234 OA 
HETATM   16  H   UNL     1     -11.665   9.193  69.590  1.00  0.00     0.000 HD 
HETATM   17  C   UNL     1     -11.918  11.312  69.559  1.00  0.00    -0.351 A  
HETATM   18  C   UNL     1     -12.410  11.603  70.812  1.00  0.00    -0.454 A  
HETATM   19  C   UNL     1     -12.680  12.941  71.092  1.00  0.00    -0.366 A  
HETATM   20  C   UNL     1     -12.448  13.940  70.128  1.00  0.00    -0.355 A  
ENDBRANCH   9  10
ENDBRANCH   8   9
ENDBRANCH   4   8
ENDBRANCH   3   4
ENDBRANCH   2   3
TORSDOF 7
ENDMDL
MODEL       77
REMARK 921   NORMALIZED FREE ENERGY PREDICTED BY IDOCK:   -4.60 KCAL/MOL
REMARK 922        TOTAL FREE ENERGY PREDICTED BY IDOCK:   -7.37 KCAL/MOL
REMARK 923 INTER-LIGAND FREE ENERGY PREDICTED BY IDOCK:   -6.63 KCAL/MOL
REMARK 924 INTRA-LIGAND FREE ENERGY PREDICTED BY IDOCK:   -0.74 KCAL/MOL
REMARK 927      BINDING AFFINITY PREDICTED BY RF-SCORE:    0.00 PKD
ROOT
HETATM    1  C   UNL     1     -11.828  12.600  63.593  1.00  0.00    -0.606 C  
HETATM    2  C   UNL     1     -11.016  11.855  64.640  1.00  0.00    -0.370 C  
ENDROOT
BRANCH   2   3
HETATM    3  C   UNL     1     -11.449  12.141  66.086  1.00  0.00    -0.371 C  
BRANCH   3   4
HETATM    4  N   UNL     1     -11.008  11.192  67.133  1.00  0.00    -0.280 NA 
BRANCH   4   5
HETATM    5  C   UNL     1      -9.666  11.548  67.644  1.00  0.00    -0.174 C  
BRANCH   5   6
HETATM    6  C   UNL     1      -8.494  10.690  67.131  1.00  0.00    -0.128 C  
HETATM    7  C   UNL     1      -8.911   9.294  66.691  1.00  0.00    -0.165 C  
ENDBRANCH   5   6
ENDBRANCH   4   5
BRANCH   4   8
HETATM    8  C   UNL     1     -12.001  11.164  68.238  1.00  0.00    -0.101 C  
BRANCH   8   9
HETATM    9  C   UNL     1     -11.447  11.326  69.672  1.00  0.00    -0.380 C  
BRANCH   9  10
HETATM   10  C   UNL     1     -12.128  12.388  70.498  1.00  0.00    -0.363 A  
HETATM   11  C   UNL     1     -11.935  13.746  70.272  1.00  0.00    -0.397 A  
HETATM   12  C   UNL     1     -11.090  14.457  69.251  1.00  0.00    -0.300 C  
HETATM   13  C   UNL     1     -11.357  15.930  69.565  1.00  0.00    -0.335 C  
HETATM   14  N   UNL     1     -12.237  15.975  70.638  1.00  0.00    -0.475 N  
HETATM   15  O   UNL     1     -10.886  16.896  68.986  1.00  0.00    -0.314 OA 
HETATM   16  H   UNL     1     -12.586  16.835  71.060  1.00  0.00     0.000 HD 
HETATM   17  C   UNL     1     -12.578  14.701  71.063  1.00  0.00    -0.329 A  
HETATM   18  C   UNL     1     -13.424  14.370  72.098  1.00  0.00    -0.507 A  
HETATM   19  C   UNL     1     -13.621  13.014  72.347  1.00  0.00    -0.628 A  
HETATM   20  C   UNL     1     -12.979  12.036  71.563  1.00  0.00    -0.407 A  
ENDBRANCH   9  10
ENDBRANCH   8   9
ENDBRANCH   4   8
ENDBRANCH   3   4
ENDBRANCH   2   3
TORSDOF 7
ENDMDL
MODEL       78
REMARK 921   NORMALIZED FREE ENERGY PREDICTED BY IDOCK:   -4.60 KCAL/MOL
REMARK 922        TOTAL FREE ENERGY PREDICTED BY IDOCK:   -7.36 KCAL/MOL
REMARK 923 INTER-LIGAND FREE ENERGY PREDICTED BY IDOCK:   -6.49 KCAL/MOL
REMARK 924 INTRA-LIGAND FREE ENERGY PREDICTED BY IDOCK:   -0.87 KCAL/MOL
REMARK 927      BINDING AFFINITY PREDICTED BY RF-SCORE:    0.00 PKD
ROOT
HETATM    1  C   UNL     1     -11.733  11.747  69.199  1.00  0.00    -0.388 C  
HETATM    2  C   UNL     1     -11.046  12.513  68.080  1.00  0.00    -0.285 C  
ENDROOT
BRANCH   2   3
HETATM    3  C   UNL     1     -12.013  13.261  67.149  1.00  0.00    -0.348 C  
BRANCH   3   4
HETATM    4  N   UNL     1     -11.634  13.385  65.724  1.00  0.00    -0.322 NA 
BRANCH   4   5
HETATM    5  C   UNL     1     -12.532  12.584  64.862  1.00  0.00    -0.450 C  
BRANCH   5   6
HETATM    6  C   UNL     1     -12.002  12.254  63.454  1.00  0.00    -0.588 C  
HETATM    7  C   UNL     1     -10.556  11.782  63.444  1.00  0.00    -0.479 C  
ENDBRANCH   5   6
ENDBRANCH   4   5
BRANCH   4   8
HETATM    8  C   UNL     1     -11.655  14.815  65.320  1.00  0.00    -0.338 C  
BRANCH   8   9
HETATM    9  C   UNL     1     -10.291  15.463  64.989  1.00  0.00    -0.362 C  
BRANCH   9  10
HETATM   10  C   UNL     1      -9.456  15.829  66.190  1.00  0.00    -0.375 A  
HETATM   11  C   UNL     1      -9.482  17.098  66.757  1.00  0.00    -0.278 A  
HETATM   12  C   UNL     1     -10.267  18.323  66.376  1.00  0.00    -0.417 C  
HETATM   13  C   UNL     1      -9.821  19.345  67.424  1.00  0.00    -0.345 C  
HETATM   14  N   UNL     1      -8.897  18.717  68.250  1.00  0.00    -0.322 N  
HETATM   15  O   UNL     1     -10.198  20.501  67.522  1.00  0.00    -0.348 OA 
HETATM   16  H   UNL     1      -8.432  19.167  69.038  1.00  0.00     0.000 HD 
HETATM   17  C   UNL     1      -8.688  17.402  67.865  1.00  0.00    -0.237 A  
HETATM   18  C   UNL     1      -7.844  16.489  68.456  1.00  0.00    -0.210 A  
HETATM   19  C   UNL     1      -7.795  15.215  67.894  1.00  0.00    -0.144 A  
HETATM   20  C   UNL     1      -8.585  14.890  66.775  1.00  0.00    -0.256 A  
ENDBRANCH   9  10
ENDBRANCH   8   9
ENDBRANCH   4   8
ENDBRANCH   3   4
ENDBRANCH   2   3
TORSDOF 7
ENDMDL
MODEL       79
REMARK 921   NORMALIZED FREE ENERGY PREDICTED BY IDOCK:   -4.59 KCAL/MOL
REMARK 922        TOTAL FREE ENERGY PREDICTED BY IDOCK:   -7.35 KCAL/MOL
REMARK 923 INTER-LIGAND FREE ENERGY PREDICTED BY IDOCK:   -6.66 KCAL/MOL
REMARK 924 INTRA-LIGAND FREE ENERGY PREDICTED BY IDOCK:   -0.68 KCAL/MOL
REMARK 927      BINDING AFFINITY PREDICTED BY RF-SCORE:    0.00 PKD
ROOT
HETATM    1  C   UNL     1     -13.095  10.396  71.619  1.00  0.00    -0.553 C  
HETATM    2  C   UNL     1     -11.667  10.082  71.202  1.00  0.00    -0.472 C  
ENDROOT
BRANCH   2   3
HETATM    3  C   UNL     1     -11.237  10.757  69.891  1.00  0.00    -0.300 C  
BRANCH   3   4
HETATM    4  N   UNL     1     -10.223  10.064  69.065  1.00  0.00    -0.191 NA 
BRANCH   4   5
HETATM    5  C   UNL     1      -9.967   8.697  69.570  1.00  0.00    -0.196 C  
BRANCH   5   6
HETATM    6  C   UNL     1     -10.551   7.544  68.732  1.00  0.00    -0.179 C  
HETATM    7  C   UNL     1     -11.133   6.416  69.572  1.00  0.00    -0.460 C  
ENDBRANCH   5   6
ENDBRANCH   4   5
BRANCH   4   8
HETATM    8  C   UNL     1     -10.669  10.025  67.648  1.00  0.00    -0.284 C  
BRANCH   8   9
HETATM    9  C   UNL     1      -9.664  10.534  66.589  1.00  0.00    -0.232 C  
BRANCH   9  10
HETATM   10  C   UNL     1      -9.623  12.032  66.424  1.00  0.00    -0.239 A  
HETATM   11  C   UNL     1     -10.419  12.703  65.503  1.00  0.00    -0.304 A  
HETATM   12  C   UNL     1     -11.436  12.179  64.526  1.00  0.00    -0.397 C  
HETATM   13  C   UNL     1     -11.934  13.456  63.846  1.00  0.00    -0.465 C  
HETATM   14  N   UNL     1     -11.240  14.522  64.405  1.00  0.00    -0.613 N  
HETATM   15  O   UNL     1     -12.780  13.534  62.971  1.00  0.00    -0.668 OA 
HETATM   16  H   UNL     1     -11.371  15.497  64.136  1.00  0.00     0.000 HD 
HETATM   17  C   UNL     1     -10.347  14.091  65.373  1.00  0.00    -0.359 A  
HETATM   18  C   UNL     1      -9.500  14.872  66.127  1.00  0.00    -0.328 A  
HETATM   19  C   UNL     1      -8.685  14.216  67.047  1.00  0.00    -0.222 A  
HETATM   20  C   UNL     1      -8.741  12.817  67.191  1.00  0.00    -0.202 A  
ENDBRANCH   9  10
ENDBRANCH   8   9
ENDBRANCH   4   8
ENDBRANCH   3   4
ENDBRANCH   2   3
TORSDOF 7
ENDMDL
MODEL       80
REMARK 921   NORMALIZED FREE ENERGY PREDICTED BY IDOCK:   -4.58 KCAL/MOL
REMARK 922        TOTAL FREE ENERGY PREDICTED BY IDOCK:   -7.34 KCAL/MOL
REMARK 923 INTER-LIGAND FREE ENERGY PREDICTED BY IDOCK:   -6.79 KCAL/MOL
REMARK 924 INTRA-LIGAND FREE ENERGY PREDICTED BY IDOCK:   -0.54 KCAL/MOL
REMARK 927      BINDING AFFINITY PREDICTED BY RF-SCORE:    0.00 PKD
ROOT
HETATM    1  C   UNL     1      -6.065  20.588  68.288  1.00  0.00    -0.346 C  
HETATM    2  C   UNL     1      -6.740  19.452  69.040  1.00  0.00    -0.359 C  
ENDROOT
BRANCH   2   3
HETATM    3  C   UNL     1      -7.859  18.758  68.248  1.00  0.00    -0.305 C  
BRANCH   3   4
HETATM    4  N   UNL     1      -9.149  18.535  68.938  1.00  0.00    -0.233 NA 
BRANCH   4   5
HETATM    5  C   UNL     1     -10.142  19.564  68.557  1.00  0.00    -0.445 C  
BRANCH   5   6
HETATM    6  C   UNL     1      -9.964  20.194  67.163  1.00  0.00    -0.595 C  
HETATM    7  C   UNL     1     -10.783  19.510  66.078  1.00  0.00    -0.529 C  
ENDBRANCH   5   6
ENDBRANCH   4   5
BRANCH   4   8
HETATM    8  C   UNL     1      -9.658  17.174  68.628  1.00  0.00    -0.281 C  
BRANCH   8   9
HETATM    9  C   UNL     1     -10.840  16.664  69.485  1.00  0.00    -0.285 C  
BRANCH   9  10
HETATM   10  C   UNL     1     -11.066  15.174  69.429  1.00  0.00    -0.283 A  
HETATM   11  C   UNL     1     -11.874  14.507  70.343  1.00  0.00    -0.378 A  
HETATM   12  C   UNL     1     -12.664  15.029  71.511  1.00  0.00    -0.414 C  
HETATM   13  C   UNL     1     -13.320  13.761  72.062  1.00  0.00    -0.447 C  
HETATM   14  N   UNL     1     -12.904  12.699  71.270  1.00  0.00    -0.319 N  
HETATM   15  O   UNL     1     -14.069  13.686  73.022  1.00  0.00    -0.389 OA 
HETATM   16  H   UNL     1     -13.188  11.730  71.412  1.00  0.00     0.000 HD 
HETATM   17  C   UNL     1     -12.053  13.124  70.263  1.00  0.00    -0.328 A  
HETATM   18  C   UNL     1     -11.453  12.345  69.299  1.00  0.00    -0.349 A  
HETATM   19  C   UNL     1     -10.630  12.994  68.381  1.00  0.00    -0.264 A  
HETATM   20  C   UNL     1     -10.435  14.387  68.447  1.00  0.00    -0.246 A  
ENDBRANCH   9  10
ENDBRANCH   8   9
ENDBRANCH   4   8
ENDBRANCH   3   4
ENDBRANCH   2   3
TORSDOF 7
ENDMDL
MODEL       81
REMARK 921   NORMALIZED FREE ENERGY PREDICTED BY IDOCK:   -4.58 KCAL/MOL
REMARK 922        TOTAL FREE ENERGY PREDICTED BY IDOCK:   -7.34 KCAL/MOL
REMARK 923 INTER-LIGAND FREE ENERGY PREDICTED BY IDOCK:   -6.37 KCAL/MOL
REMARK 924 INTRA-LIGAND FREE ENERGY PREDICTED BY IDOCK:   -0.97 KCAL/MOL
REMARK 927      BINDING AFFINITY PREDICTED BY RF-SCORE:    0.00 PKD
ROOT
HETATM    1  C   UNL     1     -10.159   8.634  66.587  1.00  0.00    -0.364 C  
HETATM    2  C   UNL     1      -9.453   9.918  66.180  1.00  0.00    -0.254 C  
ENDROOT
BRANCH   2   3
HETATM    3  C   UNL     1     -10.305  10.848  65.303  1.00  0.00    -0.268 C  
BRANCH   3   4
HETATM    4  N   UNL     1     -10.521  12.232  65.781  1.00  0.00    -0.248 NA 
BRANCH   4   5
HETATM    5  C   UNL     1     -10.976  13.111  64.681  1.00  0.00    -0.356 C  
BRANCH   5   6
HETATM    6  C   UNL     1     -11.856  14.308  65.090  1.00  0.00    -0.384 C  
HETATM    7  C   UNL     1     -11.251  15.657  64.735  1.00  0.00    -0.391 C  
ENDBRANCH   5   6
ENDBRANCH   4   5
BRANCH   4   8
HETATM    8  C   UNL     1     -11.505  12.232  66.895  1.00  0.00    -0.356 C  
BRANCH   8   9
HETATM    9  C   UNL     1     -10.942  12.458  68.317  1.00  0.00    -0.269 C  
BRANCH   9  10
HETATM   10  C   UNL     1     -10.852  13.902  68.741  1.00  0.00    -0.282 A  
HETATM   11  C   UNL     1     -11.674  14.444  69.722  1.00  0.00    -0.361 A  
HETATM   12  C   UNL     1     -12.760  13.810  70.547  1.00  0.00    -0.293 C  
HETATM   13  C   UNL     1     -13.232  14.971  71.425  1.00  0.00    -0.421 C  
HETATM   14  N   UNL     1     -12.478  16.086  71.082  1.00  0.00    -0.561 N  
HETATM   15  O   UNL     1     -14.111  14.935  72.270  1.00  0.00    -0.450 OA 
HETATM   16  H   UNL     1     -12.583  17.005  71.511  1.00  0.00     0.000 HD 
HETATM   17  C   UNL     1     -11.565  15.789  70.082  1.00  0.00    -0.357 A  
HETATM   18  C   UNL     1     -10.661  16.650  69.502  1.00  0.00    -0.306 A  
HETATM   19  C   UNL     1      -9.836  16.128  68.508  1.00  0.00    -0.226 A  
HETATM   20  C   UNL     1      -9.932  14.775  68.129  1.00  0.00    -0.221 A  
ENDBRANCH   9  10
ENDBRANCH   8   9
ENDBRANCH   4   8
ENDBRANCH   3   4
ENDBRANCH   2   3
TORSDOF 7
ENDMDL
MODEL       82
REMARK 921   NORMALIZED FREE ENERGY PREDICTED BY IDOCK:   -4.58 KCAL/MOL
REMARK 922        TOTAL FREE ENERGY PREDICTED BY IDOCK:   -7.33 KCAL/MOL
REMARK 923 INTER-LIGAND FREE ENERGY PREDICTED BY IDOCK:   -6.39 KCAL/MOL
REMARK 924 INTRA-LIGAND FREE ENERGY PREDICTED BY IDOCK:   -0.95 KCAL/MOL
REMARK 927      BINDING AFFINITY PREDICTED BY RF-SCORE:    0.00 PKD
ROOT
HETATM    1  C   UNL     1      -7.427  14.277  68.371  1.00  0.00    -0.122 C  
HETATM    2  C   UNL     1      -7.778  15.395  69.340  1.00  0.00    -0.227 C  
ENDROOT
BRANCH   2   3
HETATM    3  C   UNL     1      -7.606  16.805  68.754  1.00  0.00    -0.240 C  
BRANCH   3   4
HETATM    4  N   UNL     1      -8.832  17.590  68.487  1.00  0.00    -0.281 NA 
BRANCH   4   5
HETATM    5  C   UNL     1      -8.537  19.039  68.430  1.00  0.00    -0.348 C  
BRANCH   5   6
HETATM    6  C   UNL     1      -8.532  19.674  67.027  1.00  0.00    -0.349 C  
HETATM    7  C   UNL     1      -9.752  20.539  66.747  1.00  0.00    -0.466 C  
ENDBRANCH   5   6
ENDBRANCH   4   5
BRANCH   4   8
HETATM    8  C   UNL     1      -9.457  17.131  67.219  1.00  0.00    -0.245 C  
BRANCH   8   9
HETATM    9  C   UNL     1     -10.963  16.784  67.274  1.00  0.00    -0.040 C  
BRANCH   9  10
HETATM   10  C   UNL     1     -11.269  15.321  67.472  1.00  0.00    -0.317 A  
HETATM   11  C   UNL     1     -11.611  14.481  66.418  1.00  0.00    -0.370 A  
HETATM   12  C   UNL     1     -11.751  14.765  64.948  1.00  0.00    -0.390 C  
HETATM   13  C   UNL     1     -12.134  13.398  64.379  1.00  0.00    -0.416 C  
HETATM   14  N   UNL     1     -12.195  12.507  65.442  1.00  0.00    -0.455 N  
HETATM   15  O   UNL     1     -12.352  13.130  63.209  1.00  0.00    -0.712 OA 
HETATM   16  H   UNL     1     -12.431  11.519  65.351  1.00  0.00     0.000 HD 
HETATM   17  C   UNL     1     -11.895  13.132  66.642  1.00  0.00    -0.391 A  
HETATM   18  C   UNL     1     -11.860  12.556  67.892  1.00  0.00    -0.383 A  
HETATM   19  C   UNL     1     -11.531  13.384  68.962  1.00  0.00    -0.348 A  
HETATM   20  C   UNL     1     -11.244  14.747  68.757  1.00  0.00    -0.286 A  
ENDBRANCH   9  10
ENDBRANCH   8   9
ENDBRANCH   4   8
ENDBRANCH   3   4
ENDBRANCH   2   3
TORSDOF 7
ENDMDL
MODEL       83
REMARK 921   NORMALIZED FREE ENERGY PREDICTED BY IDOCK:   -4.57 KCAL/MOL
REMARK 922        TOTAL FREE ENERGY PREDICTED BY IDOCK:   -7.33 KCAL/MOL
REMARK 923 INTER-LIGAND FREE ENERGY PREDICTED BY IDOCK:   -6.86 KCAL/MOL
REMARK 924 INTRA-LIGAND FREE ENERGY PREDICTED BY IDOCK:   -0.47 KCAL/MOL
REMARK 927      BINDING AFFINITY PREDICTED BY RF-SCORE:    0.00 PKD
ROOT
HETATM    1  C   UNL     1     -12.073  13.029  63.482  1.00  0.00    -0.617 C  
HETATM    2  C   UNL     1     -12.556  13.031  64.923  1.00  0.00    -0.490 C  
ENDROOT
BRANCH   2   3
HETATM    3  C   UNL     1     -11.551  12.434  65.920  1.00  0.00    -0.396 C  
BRANCH   3   4
HETATM    4  N   UNL     1     -10.897  13.360  66.871  1.00  0.00    -0.276 NA 
BRANCH   4   5
HETATM    5  C   UNL     1     -11.224  14.768  66.554  1.00  0.00    -0.342 C  
BRANCH   5   6
HETATM    6  C   UNL     1     -10.070  15.624  65.997  1.00  0.00    -0.355 C  
HETATM    7  C   UNL     1     -10.253  17.116  66.230  1.00  0.00    -0.340 C  
ENDBRANCH   5   6
ENDBRANCH   4   5
BRANCH   4   8
HETATM    8  C   UNL     1     -11.304  13.027  68.260  1.00  0.00    -0.288 C  
BRANCH   8   9
HETATM    9  C   UNL     1     -10.729  11.721  68.857  1.00  0.00    -0.241 C  
BRANCH   9  10
HETATM   10  C   UNL     1     -11.549  11.119  69.970  1.00  0.00    -0.421 A  
HETATM   11  C   UNL     1     -11.523   9.761  70.266  1.00  0.00    -0.317 A  
HETATM   12  C   UNL     1     -10.750   8.638  69.630  1.00  0.00    -0.204 C  
HETATM   13  C   UNL     1     -11.188   7.425  70.454  1.00  0.00    -0.262 C  
HETATM   14  N   UNL     1     -12.095   7.873  71.405  1.00  0.00    -0.302 N  
HETATM   15  O   UNL     1     -10.816   6.272  70.308  1.00  0.00    -0.252 OA 
HETATM   16  H   UNL     1     -12.552   7.272  72.092  1.00  0.00     0.000 HD 
HETATM   17  C   UNL     1     -12.302   9.239  71.300  1.00  0.00    -0.328 A  
HETATM   18  C   UNL     1     -13.133  10.014  72.077  1.00  0.00    -0.541 A  
HETATM   19  C   UNL     1     -13.182  11.376  71.789  1.00  0.00    -0.472 A  
HETATM   20  C   UNL     1     -12.406  11.921  70.748  1.00  0.00    -0.416 A  
ENDBRANCH   9  10
ENDBRANCH   8   9
ENDBRANCH   4   8
ENDBRANCH   3   4
ENDBRANCH   2   3
TORSDOF 7
ENDMDL
MODEL       84
REMARK 921   NORMALIZED FREE ENERGY PREDICTED BY IDOCK:   -4.57 KCAL/MOL
REMARK 922        TOTAL FREE ENERGY PREDICTED BY IDOCK:   -7.32 KCAL/MOL
REMARK 923 INTER-LIGAND FREE ENERGY PREDICTED BY IDOCK:   -6.61 KCAL/MOL
REMARK 924 INTRA-LIGAND FREE ENERGY PREDICTED BY IDOCK:   -0.72 KCAL/MOL
REMARK 927      BINDING AFFINITY PREDICTED BY RF-SCORE:    0.00 PKD
ROOT
HETATM    1  C   UNL     1      -7.838  17.106  67.718  1.00  0.00    -0.189 C  
HETATM    2  C   UNL     1      -8.943  17.047  68.760  1.00  0.00    -0.249 C  
ENDROOT
BRANCH   2   3
HETATM    3  C   UNL     1      -9.138  15.658  69.386  1.00  0.00    -0.278 C  
BRANCH   3   4
HETATM    4  N   UNL     1     -10.506  15.093  69.387  1.00  0.00    -0.246 NA 
BRANCH   4   5
HETATM    5  C   UNL     1     -11.377  15.807  70.347  1.00  0.00    -0.374 C  
BRANCH   5   6
HETATM    6  C   UNL     1     -11.373  15.274  71.793  1.00  0.00    -0.445 C  
HETATM    7  C   UNL     1     -12.099  16.179  72.776  1.00  0.00    -0.653 C  
ENDBRANCH   5   6
ENDBRANCH   4   5
BRANCH   4   8
HETATM    8  C   UNL     1     -11.076  15.152  68.016  1.00  0.00    -0.308 C  
BRANCH   8   9
HETATM    9  C   UNL     1     -12.140  14.088  67.661  1.00  0.00    -0.344 C  
BRANCH   9  10
HETATM   10  C   UNL     1     -11.597  12.700  67.436  1.00  0.00    -0.421 A  
HETATM   11  C   UNL     1     -11.593  11.729  68.431  1.00  0.00    -0.380 A  
HETATM   12  C   UNL     1     -12.081  11.786  69.853  1.00  0.00    -0.359 C  
HETATM   13  C   UNL     1     -11.781  10.376  70.365  1.00  0.00    -0.331 C  
HETATM   14  N   UNL     1     -11.193   9.671  69.323  1.00  0.00    -0.432 N  
HETATM   15  O   UNL     1     -12.009   9.942  71.482  1.00  0.00    -0.379 OA 
HETATM   16  H   UNL     1     -10.887   8.700  69.386  1.00  0.00     0.000 HD 
HETATM   17  C   UNL     1     -11.074  10.456  68.187  1.00  0.00    -0.285 A  
HETATM   18  C   UNL     1     -10.540  10.085  66.974  1.00  0.00    -0.279 A  
HETATM   19  C   UNL     1     -10.524  11.047  65.967  1.00  0.00    -0.304 A  
HETATM   20  C   UNL     1     -11.040  12.337  66.194  1.00  0.00    -0.349 A  
ENDBRANCH   9  10
ENDBRANCH   8   9
ENDBRANCH   4   8
ENDBRANCH   3   4
ENDBRANCH   2   3
TORSDOF 7
ENDMDL
MODEL       85
REMARK 921   NORMALIZED FREE ENERGY PREDICTED BY IDOCK:   -4.57 KCAL/MOL
REMARK 922        TOTAL FREE ENERGY PREDICTED BY IDOCK:   -7.32 KCAL/MOL
REMARK 923 INTER-LIGAND FREE ENERGY PREDICTED BY IDOCK:   -6.77 KCAL/MOL
REMARK 924 INTRA-LIGAND FREE ENERGY PREDICTED BY IDOCK:   -0.55 KCAL/MOL
REMARK 927      BINDING AFFINITY PREDICTED BY RF-SCORE:    0.00 PKD
ROOT
HETATM    1  C   UNL     1      -8.826  16.775  66.317  1.00  0.00    -0.334 C  
HETATM    2  C   UNL     1     -10.259  16.367  66.016  1.00  0.00    -0.373 C  
ENDROOT
BRANCH   2   3
HETATM    3  C   UNL     1     -11.001  15.761  67.217  1.00  0.00    -0.259 C  
BRANCH   3   4
HETATM    4  N   UNL     1     -11.799  14.536  66.981  1.00  0.00    -0.401 NA 
BRANCH   4   5
HETATM    5  C   UNL     1     -12.061  14.340  65.538  1.00  0.00    -0.394 C  
BRANCH   5   6
HETATM    6  C   UNL     1     -12.292  12.886  65.083  1.00  0.00    -0.547 C  
HETATM    7  C   UNL     1     -11.845  12.619  63.653  1.00  0.00    -0.606 C  
ENDBRANCH   5   6
ENDBRANCH   4   5
BRANCH   4   8
HETATM    8  C   UNL     1     -11.094  13.359  67.552  1.00  0.00    -0.274 C  
BRANCH   8   9
HETATM    9  C   UNL     1     -11.660  12.784  68.871  1.00  0.00    -0.362 C  
BRANCH   9  10
HETATM   10  C   UNL     1     -11.075  11.458  69.286  1.00  0.00    -0.313 A  
HETATM   11  C   UNL     1     -11.675  10.644  70.240  1.00  0.00    -0.433 A  
HETATM   12  C   UNL     1     -12.938  10.837  71.034  1.00  0.00    -0.425 C  
HETATM   13  C   UNL     1     -13.001   9.560  71.875  1.00  0.00    -0.425 C  
HETATM   14  N   UNL     1     -11.885   8.797  71.558  1.00  0.00    -0.291 N  
HETATM   15  O   UNL     1     -13.865   9.261  72.683  1.00  0.00    -0.449 OA 
HETATM   16  H   UNL     1     -11.671   7.891  71.974  1.00  0.00     0.000 HD 
HETATM   17  C   UNL     1     -11.100   9.425  70.604  1.00  0.00    -0.289 A  
HETATM   18  C   UNL     1      -9.925   8.958  70.059  1.00  0.00    -0.204 A  
HETATM   19  C   UNL     1      -9.302   9.765  69.109  1.00  0.00    -0.185 A  
HETATM   20  C   UNL     1      -9.865  10.999  68.731  1.00  0.00    -0.206 A  
ENDBRANCH   9  10
ENDBRANCH   8   9
ENDBRANCH   4   8
ENDBRANCH   3   4
ENDBRANCH   2   3
TORSDOF 7
ENDMDL
MODEL       86
REMARK 921   NORMALIZED FREE ENERGY PREDICTED BY IDOCK:   -4.56 KCAL/MOL
REMARK 922        TOTAL FREE ENERGY PREDICTED BY IDOCK:   -7.31 KCAL/MOL
REMARK 923 INTER-LIGAND FREE ENERGY PREDICTED BY IDOCK:   -6.71 KCAL/MOL
REMARK 924 INTRA-LIGAND FREE ENERGY PREDICTED BY IDOCK:   -0.60 KCAL/MOL
REMARK 927      BINDING AFFINITY PREDICTED BY RF-SCORE:    0.00 PKD
ROOT
HETATM    1  C   UNL     1     -10.988   6.254  68.581  1.00  0.00    -0.423 C  
HETATM    2  C   UNL     1     -10.987   7.186  69.782  1.00  0.00    -0.256 C  
ENDROOT
BRANCH   2   3
HETATM    3  C   UNL     1     -12.000   6.802  70.872  1.00  0.00    -0.383 C  
BRANCH   3   4
HETATM    4  N   UNL     1     -11.926   7.525  72.161  1.00  0.00    -0.294 NA 
BRANCH   4   5
HETATM    5  C   UNL     1     -10.827   7.002  73.003  1.00  0.00    -0.309 C  
BRANCH   5   6
HETATM    6  C   UNL     1     -10.936   5.522  73.418  1.00  0.00    -0.324 C  
HETATM    7  C   UNL     1      -9.957   4.613  72.690  1.00  0.00    -0.213 C  
ENDBRANCH   5   6
ENDBRANCH   4   5
BRANCH   4   8
HETATM    8  C   UNL     1     -11.750   8.980  71.913  1.00  0.00    -0.374 C  
BRANCH   8   9
HETATM    9  C   UNL     1     -12.992   9.752  71.411  1.00  0.00    -0.490 C  
BRANCH   9  10
HETATM   10  C   UNL     1     -12.763  11.220  71.154  1.00  0.00    -0.492 A  
HETATM   11  C   UNL     1     -12.043  11.682  70.057  1.00  0.00    -0.395 A  
HETATM   12  C   UNL     1     -11.371  10.929  68.942  1.00  0.00    -0.354 C  
HETATM   13  C   UNL     1     -10.787  12.055  68.086  1.00  0.00    -0.221 C  
HETATM   14  N   UNL     1     -11.114  13.257  68.699  1.00  0.00    -0.256 N  
HETATM   15  O   UNL     1     -10.147  11.929  67.055  1.00  0.00    -0.203 OA 
HETATM   16  H   UNL     1     -10.848  14.175  68.342  1.00  0.00     0.000 HD 
HETATM   17  C   UNL     1     -11.846  13.050  69.857  1.00  0.00    -0.307 A  
HETATM   18  C   UNL     1     -12.335  14.011  70.712  1.00  0.00    -0.443 A  
HETATM   19  C   UNL     1     -13.049  13.568  71.823  1.00  0.00    -0.475 A  
HETATM   20  C   UNL     1     -13.256  12.193  72.045  1.00  0.00    -0.496 A  
ENDBRANCH   9  10
ENDBRANCH   8   9
ENDBRANCH   4   8
ENDBRANCH   3   4
ENDBRANCH   2   3
TORSDOF 7
ENDMDL
MODEL       87
REMARK 921   NORMALIZED FREE ENERGY PREDICTED BY IDOCK:   -4.56 KCAL/MOL
REMARK 922        TOTAL FREE ENERGY PREDICTED BY IDOCK:   -7.31 KCAL/MOL
REMARK 923 INTER-LIGAND FREE ENERGY PREDICTED BY IDOCK:   -6.11 KCAL/MOL
REMARK 924 INTRA-LIGAND FREE ENERGY PREDICTED BY IDOCK:   -1.19 KCAL/MOL
REMARK 927      BINDING AFFINITY PREDICTED BY RF-SCORE:    0.00 PKD
ROOT
HETATM    1  C   UNL     1      -9.961  20.040  66.439  1.00  0.00    -0.601 C  
HETATM    2  C   UNL     1     -10.413  18.631  66.090  1.00  0.00    -0.473 C  
ENDROOT
BRANCH   2   3
HETATM    3  C   UNL     1     -10.508  17.688  67.299  1.00  0.00    -0.338 C  
BRANCH   3   4
HETATM    4  N   UNL     1      -9.820  16.381  67.204  1.00  0.00    -0.244 NA 
BRANCH   4   5
HETATM    5  C   UNL     1      -9.540  16.027  65.794  1.00  0.00    -0.276 C  
BRANCH   5   6
HETATM    6  C   UNL     1     -10.550  15.079  65.120  1.00  0.00    -0.440 C  
HETATM    7  C   UNL     1     -11.466  14.368  66.105  1.00  0.00    -0.357 C  
ENDBRANCH   5   6
ENDBRANCH   4   5
BRANCH   4   8
HETATM    8  C   UNL     1      -8.563  16.415  67.996  1.00  0.00    -0.185 C  
BRANCH   8   9
HETATM    9  C   UNL     1      -7.246  16.571  67.201  1.00  0.00    -0.223 C  
BRANCH   9  10
HETATM   10  C   UNL     1      -6.828  17.996  66.940  1.00  0.00    -0.217 A  
HETATM   11  C   UNL     1      -6.577  18.899  67.967  1.00  0.00    -0.237 A  
HETATM   12  C   UNL     1      -6.639  18.725  69.459  1.00  0.00    -0.225 C  
HETATM   13  C   UNL     1      -6.232  20.107  69.973  1.00  0.00    -0.349 C  
HETATM   14  N   UNL     1      -5.996  20.910  68.866  1.00  0.00    -0.325 N  
HETATM   15  O   UNL     1      -6.134  20.451  71.140  1.00  0.00    -0.566 OA 
HETATM   16  H   UNL     1      -5.709  21.888  68.915  1.00  0.00     0.000 HD 
HETATM   17  C   UNL     1      -6.199  20.214  67.685  1.00  0.00    -0.217 A  
HETATM   18  C   UNL     1      -6.057  20.695  66.403  1.00  0.00    -0.259 A  
HETATM   19  C   UNL     1      -6.317  19.808  65.361  1.00  0.00    -0.283 A  
HETATM   20  C   UNL     1      -6.701  18.479  65.624  1.00  0.00    -0.300 A  
ENDBRANCH   9  10
ENDBRANCH   8   9
ENDBRANCH   4   8
ENDBRANCH   3   4
ENDBRANCH   2   3
TORSDOF 7
ENDMDL
MODEL       88
REMARK 921   NORMALIZED FREE ENERGY PREDICTED BY IDOCK:   -4.56 KCAL/MOL
REMARK 922        TOTAL FREE ENERGY PREDICTED BY IDOCK:   -7.30 KCAL/MOL
REMARK 923 INTER-LIGAND FREE ENERGY PREDICTED BY IDOCK:   -6.74 KCAL/MOL
REMARK 924 INTRA-LIGAND FREE ENERGY PREDICTED BY IDOCK:   -0.56 KCAL/MOL
REMARK 927      BINDING AFFINITY PREDICTED BY RF-SCORE:    0.00 PKD
ROOT
HETATM    1  C   UNL     1     -12.105  12.785  63.407  1.00  0.00    -0.619 C  
HETATM    2  C   UNL     1     -12.456  12.809  64.886  1.00  0.00    -0.563 C  
ENDROOT
BRANCH   2   3
HETATM    3  C   UNL     1     -11.460  12.051  65.777  1.00  0.00    -0.320 C  
BRANCH   3   4
HETATM    4  N   UNL     1     -11.289  12.524  67.169  1.00  0.00    -0.304 NA 
BRANCH   4   5
HETATM    5  C   UNL     1     -12.030  13.784  67.399  1.00  0.00    -0.388 C  
BRANCH   5   6
HETATM    6  C   UNL     1     -11.178  15.017  67.752  1.00  0.00    -0.327 C  
HETATM    7  C   UNL     1     -10.596  14.971  69.157  1.00  0.00    -0.251 C  
ENDBRANCH   5   6
ENDBRANCH   4   5
BRANCH   4   8
HETATM    8  C   UNL     1     -11.736  11.471  68.117  1.00  0.00    -0.287 C  
BRANCH   8   9
HETATM    9  C   UNL     1     -10.825  11.203  69.337  1.00  0.00    -0.264 C  
BRANCH   9  10
HETATM   10  C   UNL     1     -11.439  10.338  70.409  1.00  0.00    -0.415 A  
HETATM   11  C   UNL     1     -10.705   9.390  71.113  1.00  0.00    -0.417 A  
HETATM   12  C   UNL     1      -9.254   9.009  71.017  1.00  0.00    -0.331 C  
HETATM   13  C   UNL     1      -9.125   7.917  72.082  1.00  0.00    -0.150 C  
HETATM   14  N   UNL     1     -10.377   7.747  72.657  1.00  0.00    -0.265 N  
HETATM   15  O   UNL     1      -8.114   7.301  72.375  1.00  0.00    -0.098 OA 
HETATM   16  H   UNL     1     -10.583   7.079  73.400  1.00  0.00     0.000 HD 
HETATM   17  C   UNL     1     -11.311   8.602  72.094  1.00  0.00    -0.364 A  
HETATM   18  C   UNL     1     -12.645   8.705  72.420  1.00  0.00    -0.426 A  
HETATM   19  C   UNL     1     -13.399   9.641  71.717  1.00  0.00    -0.505 A  
HETATM   20  C   UNL     1     -12.807  10.443  70.722  1.00  0.00    -0.450 A  
ENDBRANCH   9  10
ENDBRANCH   8   9
ENDBRANCH   4   8
ENDBRANCH   3   4
ENDBRANCH   2   3
TORSDOF 7
ENDMDL
MODEL       89
REMARK 921   NORMALIZED FREE ENERGY PREDICTED BY IDOCK:   -4.55 KCAL/MOL
REMARK 922        TOTAL FREE ENERGY PREDICTED BY IDOCK:   -7.30 KCAL/MOL
REMARK 923 INTER-LIGAND FREE ENERGY PREDICTED BY IDOCK:   -6.70 KCAL/MOL
REMARK 924 INTRA-LIGAND FREE ENERGY PREDICTED BY IDOCK:   -0.60 KCAL/MOL
REMARK 927      BINDING AFFINITY PREDICTED BY RF-SCORE:    0.00 PKD
ROOT
HETATM    1  C   UNL     1      -9.873   9.707  65.720  1.00  0.00    -0.373 C  
HETATM    2  C   UNL     1      -9.360  10.869  66.555  1.00  0.00    -0.195 C  
ENDROOT
BRANCH   2   3
HETATM    3  C   UNL     1      -9.768  10.801  68.035  1.00  0.00    -0.162 C  
BRANCH   3   4
HETATM    4  N   UNL     1     -10.995  10.047  68.374  1.00  0.00    -0.236 NA 
BRANCH   4   5
HETATM    5  C   UNL     1     -10.695   8.918  69.282  1.00  0.00    -0.162 C  
BRANCH   5   6
HETATM    6  C   UNL     1      -9.232   8.795  69.748  1.00  0.00    -0.155 C  
HETATM    7  C   UNL     1      -9.069   8.854  71.260  1.00  0.00    -0.323 C  
ENDBRANCH   5   6
ENDBRANCH   4   5
BRANCH   4   8
HETATM    8  C   UNL     1     -11.995  10.961  68.985  1.00  0.00    -0.251 C  
BRANCH   8   9
HETATM    9  C   UNL     1     -11.747  11.378  70.453  1.00  0.00    -0.362 C  
BRANCH   9  10
HETATM   10  C   UNL     1     -12.454  12.639  70.881  1.00  0.00    -0.368 A  
HETATM   11  C   UNL     1     -12.260  13.858  70.240  1.00  0.00    -0.428 A  
HETATM   12  C   UNL     1     -11.389  14.217  69.068  1.00  0.00    -0.303 C  
HETATM   13  C   UNL     1     -11.669  15.711  68.890  1.00  0.00    -0.384 C  
HETATM   14  N   UNL     1     -12.578  16.083  69.871  1.00  0.00    -0.550 N  
HETATM   15  O   UNL     1     -11.185  16.448  68.047  1.00  0.00    -0.325 OA 
HETATM   16  H   UNL     1     -12.942  17.029  69.989  1.00  0.00     0.000 HD 
HETATM   17  C   UNL     1     -12.927  15.007  70.670  1.00  0.00    -0.345 A  
HETATM   18  C   UNL     1     -13.800  15.012  71.735  1.00  0.00    -0.576 A  
HETATM   19  C   UNL     1     -13.999  13.803  72.397  1.00  0.00    -0.651 A  
HETATM   20  C   UNL     1     -13.333  12.634  71.980  1.00  0.00    -0.555 A  
ENDBRANCH   9  10
ENDBRANCH   8   9
ENDBRANCH   4   8
ENDBRANCH   3   4
ENDBRANCH   2   3
TORSDOF 7
ENDMDL
MODEL       90
REMARK 921   NORMALIZED FREE ENERGY PREDICTED BY IDOCK:   -4.55 KCAL/MOL
REMARK 922        TOTAL FREE ENERGY PREDICTED BY IDOCK:   -7.29 KCAL/MOL
REMARK 923 INTER-LIGAND FREE ENERGY PREDICTED BY IDOCK:   -6.59 KCAL/MOL
REMARK 924 INTRA-LIGAND FREE ENERGY PREDICTED BY IDOCK:   -0.70 KCAL/MOL
REMARK 927      BINDING AFFINITY PREDICTED BY RF-SCORE:    0.00 PKD
ROOT
HETATM    1  C   UNL     1     -11.238  14.736  66.718  1.00  0.00    -0.344 C  
HETATM    2  C   UNL     1     -10.395  13.490  66.939  1.00  0.00    -0.265 C  
ENDROOT
BRANCH   2   3
HETATM    3  C   UNL     1     -11.190  12.281  67.455  1.00  0.00    -0.301 C  
BRANCH   3   4
HETATM    4  N   UNL     1     -10.996  10.988  66.761  1.00  0.00    -0.251 NA 
BRANCH   4   5
HETATM    5  C   UNL     1      -9.773  11.008  65.928  1.00  0.00    -0.224 C  
BRANCH   5   6
HETATM    6  C   UNL     1      -9.938  10.535  64.471  1.00  0.00    -0.413 C  
HETATM    7  C   UNL     1     -10.601  11.565  63.569  1.00  0.00    -0.487 C  
ENDBRANCH   5   6
ENDBRANCH   4   5
BRANCH   4   8
HETATM    8  C   UNL     1     -10.936   9.886  67.756  1.00  0.00    -0.217 C  
BRANCH   8   9
HETATM    9  C   UNL     1     -10.491  10.267  69.187  1.00  0.00    -0.246 C  
BRANCH   9  10
HETATM   10  C   UNL     1     -11.489   9.941  70.269  1.00  0.00    -0.349 A  
HETATM   11  C   UNL     1     -12.208  10.924  70.940  1.00  0.00    -0.485 A  
HETATM   12  C   UNL     1     -12.195  12.420  70.788  1.00  0.00    -0.336 C  
HETATM   13  C   UNL     1     -13.228  12.869  71.824  1.00  0.00    -0.384 C  
HETATM   14  N   UNL     1     -13.713  11.728  72.450  1.00  0.00    -0.367 N  
HETATM   15  O   UNL     1     -13.567  14.015  72.066  1.00  0.00    -0.383 OA 
HETATM   16  H   UNL     1     -14.417  11.732  73.188  1.00  0.00     0.000 HD 
HETATM   17  C   UNL     1     -13.119  10.583  71.943  1.00  0.00    -0.462 A  
HETATM   18  C   UNL     1     -13.359   9.284  72.328  1.00  0.00    -0.547 A  
HETATM   19  C   UNL     1     -12.639   8.286  71.674  1.00  0.00    -0.355 A  
HETATM   20  C   UNL     1     -11.714   8.609  70.663  1.00  0.00    -0.178 A  
ENDBRANCH   9  10
ENDBRANCH   8   9
ENDBRANCH   4   8
ENDBRANCH   3   4
ENDBRANCH   2   3
TORSDOF 7
ENDMDL
MODEL       91
REMARK 921   NORMALIZED FREE ENERGY PREDICTED BY IDOCK:   -4.55 KCAL/MOL
REMARK 922        TOTAL FREE ENERGY PREDICTED BY IDOCK:   -7.29 KCAL/MOL
REMARK 923 INTER-LIGAND FREE ENERGY PREDICTED BY IDOCK:   -6.23 KCAL/MOL
REMARK 924 INTRA-LIGAND FREE ENERGY PREDICTED BY IDOCK:   -1.06 KCAL/MOL
REMARK 927      BINDING AFFINITY PREDICTED BY RF-SCORE:    0.00 PKD
ROOT
HETATM    1  C   UNL     1     -10.427  19.996  65.722  1.00  0.00    -0.469 C  
HETATM    2  C   UNL     1     -10.471  18.900  66.774  1.00  0.00    -0.497 C  
ENDROOT
BRANCH   2   3
HETATM    3  C   UNL     1      -9.425  17.793  66.567  1.00  0.00    -0.290 C  
BRANCH   3   4
HETATM    4  N   UNL     1      -9.909  16.396  66.517  1.00  0.00    -0.259 NA 
BRANCH   4   5
HETATM    5  C   UNL     1     -10.758  16.168  65.326  1.00  0.00    -0.368 C  
BRANCH   5   6
HETATM    6  C   UNL     1     -10.876  14.708  64.847  1.00  0.00    -0.436 C  
HETATM    7  C   UNL     1     -12.308  14.195  64.812  1.00  0.00    -0.436 C  
ENDBRANCH   5   6
ENDBRANCH   4   5
BRANCH   4   8
HETATM    8  C   UNL     1      -8.752  15.462  66.523  1.00  0.00    -0.300 C  
BRANCH   8   9
HETATM    9  C   UNL     1      -8.533  14.638  67.813  1.00  0.00    -0.178 C  
BRANCH   9  10
HETATM   10  C   UNL     1      -9.724  13.827  68.256  1.00  0.00    -0.231 A  
HETATM   11  C   UNL     1     -10.587  14.255  69.260  1.00  0.00    -0.160 A  
HETATM   12  C   UNL     1     -10.576  15.510  70.088  1.00  0.00    -0.336 C  
HETATM   13  C   UNL     1     -11.808  15.333  70.977  1.00  0.00    -0.345 C  
HETATM   14  N   UNL     1     -12.386  14.114  70.650  1.00  0.00    -0.342 N  
HETATM   15  O   UNL     1     -12.215  16.113  71.823  1.00  0.00    -0.469 OA 
HETATM   16  H   UNL     1     -13.226  13.738  71.091  1.00  0.00     0.000 HD 
HETATM   17  C   UNL     1     -11.676  13.471  69.648  1.00  0.00    -0.314 A  
HETATM   18  C   UNL     1     -11.961  12.250  69.081  1.00  0.00    -0.303 A  
HETATM   19  C   UNL     1     -11.101  11.798  68.082  1.00  0.00    -0.297 A  
HETATM   20  C   UNL     1      -9.996  12.572  67.678  1.00  0.00    -0.201 A  
ENDBRANCH   9  10
ENDBRANCH   8   9
ENDBRANCH   4   8
ENDBRANCH   3   4
ENDBRANCH   2   3
TORSDOF 7
ENDMDL
MODEL       92
REMARK 921   NORMALIZED FREE ENERGY PREDICTED BY IDOCK:   -4.54 KCAL/MOL
REMARK 922        TOTAL FREE ENERGY PREDICTED BY IDOCK:   -7.28 KCAL/MOL
REMARK 923 INTER-LIGAND FREE ENERGY PREDICTED BY IDOCK:   -6.61 KCAL/MOL
REMARK 924 INTRA-LIGAND FREE ENERGY PREDICTED BY IDOCK:   -0.67 KCAL/MOL
REMARK 927      BINDING AFFINITY PREDICTED BY RF-SCORE:    0.00 PKD
ROOT
HETATM    1  C   UNL     1      -9.397  15.541  69.381  1.00  0.00    -0.279 C  
HETATM    2  C   UNL     1     -10.695  16.280  69.099  1.00  0.00    -0.305 C  
ENDROOT
BRANCH   2   3
HETATM    3  C   UNL     1     -11.956  15.507  69.515  1.00  0.00    -0.350 C  
BRANCH   3   4
HETATM    4  N   UNL     1     -11.769  14.224  70.228  1.00  0.00    -0.285 NA 
BRANCH   4   5
HETATM    5  C   UNL     1     -12.496  14.219  71.517  1.00  0.00    -0.356 C  
BRANCH   5   6
HETATM    6  C   UNL     1     -13.164  15.546  71.924  1.00  0.00    -0.553 C  
HETATM    7  C   UNL     1     -12.918  15.931  73.375  1.00  0.00    -0.693 C  
ENDBRANCH   5   6
ENDBRANCH   4   5
BRANCH   4   8
HETATM    8  C   UNL     1     -12.218  13.099  69.368  1.00  0.00    -0.137 C  
BRANCH   8   9
HETATM    9  C   UNL     1     -11.308  11.850  69.327  1.00  0.00    -0.338 C  
BRANCH   9  10
HETATM   10  C   UNL     1     -11.653  10.782  70.335  1.00  0.00    -0.431 A  
HETATM   11  C   UNL     1     -10.743   9.808  70.731  1.00  0.00    -0.393 A  
HETATM   12  C   UNL     1      -9.316   9.577  70.314  1.00  0.00    -0.305 C  
HETATM   13  C   UNL     1      -8.921   8.354  71.144  1.00  0.00    -0.167 C  
HETATM   14  N   UNL     1     -10.028   7.988  71.899  1.00  0.00    -0.182 N  
HETATM   15  O   UNL     1      -7.838   7.793  71.146  1.00  0.00    -0.085 OA 
HETATM   16  H   UNL     1     -10.047   7.199  72.546  1.00  0.00     0.000 HD 
HETATM   17  C   UNL     1     -11.102   8.831  71.661  1.00  0.00    -0.327 A  
HETATM   18  C   UNL     1     -12.352   8.764  72.233  1.00  0.00    -0.448 A  
HETATM   19  C   UNL     1     -13.282   9.724  71.840  1.00  0.00    -0.545 A  
HETATM   20  C   UNL     1     -12.940  10.716  70.901  1.00  0.00    -0.429 A  
ENDBRANCH   9  10
ENDBRANCH   8   9
ENDBRANCH   4   8
ENDBRANCH   3   4
ENDBRANCH   2   3
TORSDOF 7
ENDMDL
MODEL       93
REMARK 921   NORMALIZED FREE ENERGY PREDICTED BY IDOCK:   -4.54 KCAL/MOL
REMARK 922        TOTAL FREE ENERGY PREDICTED BY IDOCK:   -7.28 KCAL/MOL
REMARK 923 INTER-LIGAND FREE ENERGY PREDICTED BY IDOCK:   -6.42 KCAL/MOL
REMARK 924 INTRA-LIGAND FREE ENERGY PREDICTED BY IDOCK:   -0.86 KCAL/MOL
REMARK 927      BINDING AFFINITY PREDICTED BY RF-SCORE:    0.00 PKD
ROOT
HETATM    1  C   UNL     1     -14.076   8.555  71.874  1.00  0.00    -0.519 C  
HETATM    2  C   UNL     1     -13.316   9.776  71.380  1.00  0.00    -0.449 C  
ENDROOT
BRANCH   2   3
HETATM    3  C   UNL     1     -11.795   9.573  71.297  1.00  0.00    -0.373 C  
BRANCH   3   4
HETATM    4  N   UNL     1     -11.056  10.350  70.278  1.00  0.00    -0.305 NA 
BRANCH   4   5
HETATM    5  C   UNL     1     -10.338   9.456  69.342  1.00  0.00    -0.212 C  
BRANCH   5   6
HETATM    6  C   UNL     1      -9.509  10.148  68.244  1.00  0.00    -0.147 C  
HETATM    7  C   UNL     1      -9.828   9.655  66.841  1.00  0.00    -0.257 C  
ENDBRANCH   5   6
ENDBRANCH   4   5
BRANCH   4   8
HETATM    8  C   UNL     1     -11.994  11.236  69.541  1.00  0.00    -0.351 C  
BRANCH   8   9
HETATM    9  C   UNL     1     -11.736  12.757  69.641  1.00  0.00    -0.372 C  
BRANCH   9  10
HETATM   10  C   UNL     1     -11.553  13.457  68.318  1.00  0.00    -0.379 A  
HETATM   11  C   UNL     1     -11.179  14.792  68.226  1.00  0.00    -0.299 A  
HETATM   12  C   UNL     1     -10.879  15.800  69.301  1.00  0.00    -0.255 C  
HETATM   13  C   UNL     1     -10.526  17.052  68.496  1.00  0.00    -0.373 C  
HETATM   14  N   UNL     1     -10.641  16.728  67.151  1.00  0.00    -0.294 N  
HETATM   15  O   UNL     1     -10.205  18.140  68.945  1.00  0.00    -0.379 OA 
HETATM   16  H   UNL     1     -10.464  17.379  66.386  1.00  0.00     0.000 HD 
HETATM   17  C   UNL     1     -11.027  15.408  66.981  1.00  0.00    -0.306 A  
HETATM   18  C   UNL     1     -11.236  14.752  65.789  1.00  0.00    -0.337 A  
HETATM   19  C   UNL     1     -11.624  13.415  65.861  1.00  0.00    -0.370 A  
HETATM   20  C   UNL     1     -11.785  12.778  67.106  1.00  0.00    -0.443 A  
ENDBRANCH   9  10
ENDBRANCH   8   9
ENDBRANCH   4   8
ENDBRANCH   3   4
ENDBRANCH   2   3
TORSDOF 7
ENDMDL
MODEL       94
REMARK 921   NORMALIZED FREE ENERGY PREDICTED BY IDOCK:   -4.54 KCAL/MOL
REMARK 922        TOTAL FREE ENERGY PREDICTED BY IDOCK:   -7.27 KCAL/MOL
REMARK 923 INTER-LIGAND FREE ENERGY PREDICTED BY IDOCK:   -6.30 KCAL/MOL
REMARK 924 INTRA-LIGAND FREE ENERGY PREDICTED BY IDOCK:   -0.98 KCAL/MOL
REMARK 927      BINDING AFFINITY PREDICTED BY RF-SCORE:    0.00 PKD
ROOT
HETATM    1  C   UNL     1      -5.964  20.463  69.710  1.00  0.00    -0.384 C  
HETATM    2  C   UNL     1      -6.228  19.318  68.746  1.00  0.00    -0.270 C  
ENDROOT
BRANCH   2   3
HETATM    3  C   UNL     1      -7.718  19.068  68.465  1.00  0.00    -0.333 C  
BRANCH   3   4
HETATM    4  N   UNL     1      -8.154  17.666  68.285  1.00  0.00    -0.268 NA 
BRANCH   4   5
HETATM    5  C   UNL     1      -7.371  16.749  69.142  1.00  0.00    -0.213 C  
BRANCH   5   6
HETATM    6  C   UNL     1      -7.570  15.243  68.884  1.00  0.00    -0.152 C  
HETATM    7  C   UNL     1      -7.322  14.837  67.439  1.00  0.00    -0.214 C  
ENDBRANCH   5   6
ENDBRANCH   4   5
BRANCH   4   8
HETATM    8  C   UNL     1      -9.606  17.548  68.579  1.00  0.00    -0.305 C  
BRANCH   8   9
HETATM    9  C   UNL     1     -10.509  17.050  67.427  1.00  0.00    -0.322 C  
BRANCH   9  10
HETATM   10  C   UNL     1     -11.047  15.652  67.603  1.00  0.00    -0.305 A  
HETATM   11  C   UNL     1     -11.508  14.890  66.536  1.00  0.00    -0.286 A  
HETATM   12  C   UNL     1     -11.587  15.211  65.069  1.00  0.00    -0.294 C  
HETATM   13  C   UNL     1     -12.178  13.929  64.479  1.00  0.00    -0.417 C  
HETATM   14  N   UNL     1     -12.391  13.047  65.530  1.00  0.00    -0.469 N  
HETATM   15  O   UNL     1     -12.424  13.713  63.303  1.00  0.00    -0.801 OA 
HETATM   16  H   UNL     1     -12.781  12.110  65.424  1.00  0.00     0.000 HD 
HETATM   17  C   UNL     1     -12.007  13.602  66.740  1.00  0.00    -0.414 A  
HETATM   18  C   UNL     1     -12.076  13.013  67.982  1.00  0.00    -0.220 A  
HETATM   19  C   UNL     1     -11.630  13.765  69.066  1.00  0.00    -0.356 A  
HETATM   20  C   UNL     1     -11.127  15.068  68.882  1.00  0.00    -0.274 A  
ENDBRANCH   9  10
ENDBRANCH   8   9
ENDBRANCH   4   8
ENDBRANCH   3   4
ENDBRANCH   2   3
TORSDOF 7
ENDMDL
MODEL       95
REMARK 921   NORMALIZED FREE ENERGY PREDICTED BY IDOCK:   -4.53 KCAL/MOL
REMARK 922        TOTAL FREE ENERGY PREDICTED BY IDOCK:   -7.27 KCAL/MOL
REMARK 923 INTER-LIGAND FREE ENERGY PREDICTED BY IDOCK:   -6.45 KCAL/MOL
REMARK 924 INTRA-LIGAND FREE ENERGY PREDICTED BY IDOCK:   -0.82 KCAL/MOL
REMARK 927      BINDING AFFINITY PREDICTED BY RF-SCORE:    0.00 PKD
ROOT
HETATM    1  C   UNL     1     -10.676  12.537  63.791  1.00  0.00    -0.483 C  
HETATM    2  C   UNL     1     -11.924  13.384  63.985  1.00  0.00    -0.520 C  
ENDROOT
BRANCH   2   3
HETATM    3  C   UNL     1     -11.641  14.805  64.495  1.00  0.00    -0.361 C  
BRANCH   3   4
HETATM    4  N   UNL     1     -10.934  14.940  65.788  1.00  0.00    -0.335 NA 
BRANCH   4   5
HETATM    5  C   UNL     1     -10.516  16.340  66.024  1.00  0.00    -0.331 C  
BRANCH   5   6
HETATM    6  C   UNL     1      -9.001  16.583  66.151  1.00  0.00    -0.344 C  
HETATM    7  C   UNL     1      -8.486  16.478  67.579  1.00  0.00    -0.189 C  
ENDBRANCH   5   6
ENDBRANCH   4   5
BRANCH   4   8
HETATM    8  C   UNL     1     -11.805  14.459  66.891  1.00  0.00    -0.410 C  
BRANCH   8   9
HETATM    9  C   UNL     1     -11.093  13.887  68.139  1.00  0.00    -0.278 C  
BRANCH   9  10
HETATM   10  C   UNL     1     -10.921  12.389  68.139  1.00  0.00    -0.263 A  
HETATM   11  C   UNL     1     -11.367  11.588  69.184  1.00  0.00    -0.351 A  
HETATM   12  C   UNL     1     -12.072  11.951  70.462  1.00  0.00    -0.422 C  
HETATM   13  C   UNL     1     -12.271  10.589  71.131  1.00  0.00    -0.391 C  
HETATM   14  N   UNL     1     -11.719   9.629  70.294  1.00  0.00    -0.421 N  
HETATM   15  O   UNL     1     -12.810  10.376  72.205  1.00  0.00    -0.392 OA 
HETATM   16  H   UNL     1     -11.710   8.629  70.493  1.00  0.00     0.000 HD 
HETATM   17  C   UNL     1     -11.183  10.204  69.152  1.00  0.00    -0.183 A  
HETATM   18  C   UNL     1     -10.559   9.554  68.111  1.00  0.00    -0.265 A  
HETATM   19  C   UNL     1     -10.095  10.342  67.060  1.00  0.00    -0.268 A  
HETATM   20  C   UNL     1     -10.268  11.739  67.075  1.00  0.00    -0.240 A  
ENDBRANCH   9  10
ENDBRANCH   8   9
ENDBRANCH   4   8
ENDBRANCH   3   4
ENDBRANCH   2   3
TORSDOF 7
ENDMDL
MODEL       96
REMARK 921   NORMALIZED FREE ENERGY PREDICTED BY IDOCK:   -4.53 KCAL/MOL
REMARK 922        TOTAL FREE ENERGY PREDICTED BY IDOCK:   -7.26 KCAL/MOL
REMARK 923 INTER-LIGAND FREE ENERGY PREDICTED BY IDOCK:   -6.60 KCAL/MOL
REMARK 924 INTRA-LIGAND FREE ENERGY PREDICTED BY IDOCK:   -0.67 KCAL/MOL
REMARK 927      BINDING AFFINITY PREDICTED BY RF-SCORE:    0.00 PKD
ROOT
HETATM    1  C   UNL     1     -12.137  12.944  63.474  1.00  0.00    -0.633 C  
HETATM    2  C   UNL     1     -11.211  11.845  63.970  1.00  0.00    -0.470 C  
ENDROOT
BRANCH   2   3
HETATM    3  C   UNL     1     -10.655  12.086  65.381  1.00  0.00    -0.278 C  
BRANCH   3   4
HETATM    4  N   UNL     1     -11.291  11.358  66.502  1.00  0.00    -0.352 NA 
BRANCH   4   5
HETATM    5  C   UNL     1     -10.388  10.317  67.042  1.00  0.00    -0.243 C  
BRANCH   5   6
HETATM    6  C   UNL     1     -10.002   9.184  66.071  1.00  0.00    -0.293 C  
HETATM    7  C   UNL     1      -8.500   9.022  65.893  1.00  0.00    -0.150 C  
ENDBRANCH   5   6
ENDBRANCH   4   5
BRANCH   4   8
HETATM    8  C   UNL     1     -11.684  12.316  67.567  1.00  0.00    -0.332 C  
BRANCH   8   9
HETATM    9  C   UNL     1     -12.253  13.676  67.101  1.00  0.00    -0.340 C  
BRANCH   9  10
HETATM   10  C   UNL     1     -11.587  14.884  67.711  1.00  0.00    -0.358 A  
HETATM   11  C   UNL     1     -11.819  15.281  69.023  1.00  0.00    -0.342 A  
HETATM   12  C   UNL     1     -12.698  14.679  70.085  1.00  0.00    -0.268 C  
HETATM   13  C   UNL     1     -12.465  15.610  71.276  1.00  0.00    -0.444 C  
HETATM   14  N   UNL     1     -11.570  16.591  70.870  1.00  0.00    -0.548 N  
HETATM   15  O   UNL     1     -12.970  15.518  72.383  1.00  0.00    -0.359 OA 
HETATM   16  H   UNL     1     -11.237  17.348  71.466  1.00  0.00     0.000 HD 
HETATM   17  C   UNL     1     -11.189  16.410  69.550  1.00  0.00    -0.250 A  
HETATM   18  C   UNL     1     -10.320  17.191  68.823  1.00  0.00    -0.353 A  
HETATM   19  C   UNL     1     -10.084  16.816  67.502  1.00  0.00    -0.276 A  
HETATM   20  C   UNL     1     -10.711  15.682  66.951  1.00  0.00    -0.307 A  
ENDBRANCH   9  10
ENDBRANCH   8   9
ENDBRANCH   4   8
ENDBRANCH   3   4
ENDBRANCH   2   3
TORSDOF 7
ENDMDL
MODEL       97
REMARK 921   NORMALIZED FREE ENERGY PREDICTED BY IDOCK:   -4.52 KCAL/MOL
REMARK 922        TOTAL FREE ENERGY PREDICTED BY IDOCK:   -7.26 KCAL/MOL
REMARK 923 INTER-LIGAND FREE ENERGY PREDICTED BY IDOCK:   -6.67 KCAL/MOL
REMARK 924 INTRA-LIGAND FREE ENERGY PREDICTED BY IDOCK:   -0.58 KCAL/MOL
REMARK 927      BINDING AFFINITY PREDICTED BY RF-SCORE:    0.00 PKD
ROOT
HETATM    1  C   UNL     1     -12.094  13.889  70.665  1.00  0.00    -0.417 C  
HETATM    2  C   UNL     1     -12.281  14.551  69.310  1.00  0.00    -0.264 C  
ENDROOT
BRANCH   2   3
HETATM    3  C   UNL     1     -10.965  14.875  68.586  1.00  0.00    -0.257 C  
BRANCH   3   4
HETATM    4  N   UNL     1     -10.742  14.257  67.261  1.00  0.00    -0.275 NA 
BRANCH   4   5
HETATM    5  C   UNL     1     -11.742  13.199  66.991  1.00  0.00    -0.377 C  
BRANCH   5   6
HETATM    6  C   UNL     1     -11.442  12.272  65.798  1.00  0.00    -0.417 C  
HETATM    7  C   UNL     1     -12.363  12.495  64.608  1.00  0.00    -0.547 C  
ENDBRANCH   5   6
ENDBRANCH   4   5
BRANCH   4   8
HETATM    8  C   UNL     1     -10.784  15.301  66.204  1.00  0.00    -0.320 C  
BRANCH   8   9
HETATM    9  C   UNL     1      -9.480  16.096  65.962  1.00  0.00    -0.374 C  
BRANCH   9  10
HETATM   10  C   UNL     1      -9.499  17.514  66.474  1.00  0.00    -0.285 A  
HETATM   11  C   UNL     1      -8.627  17.963  67.459  1.00  0.00    -0.239 A  
HETATM   12  C   UNL     1      -7.538  17.240  68.203  1.00  0.00    -0.211 C  
HETATM   13  C   UNL     1      -6.980  18.332  69.119  1.00  0.00    -0.217 C  
HETATM   14  N   UNL     1      -7.709  19.489  68.881  1.00  0.00    -0.359 N  
HETATM   15  O   UNL     1      -6.065  18.215  69.919  1.00  0.00    -0.229 OA 
HETATM   16  H   UNL     1      -7.551  20.377  69.357  1.00  0.00     0.000 HD 
HETATM   17  C   UNL     1      -8.679  19.283  67.913  1.00  0.00    -0.313 A  
HETATM   18  C   UNL     1      -9.579  20.206  67.430  1.00  0.00    -0.551 A  
HETATM   19  C   UNL     1     -10.470  19.772  66.451  1.00  0.00    -0.618 A  
HETATM   20  C   UNL     1     -10.434  18.444  65.983  1.00  0.00    -0.400 A  
ENDBRANCH   9  10
ENDBRANCH   8   9
ENDBRANCH   4   8
ENDBRANCH   3   4
ENDBRANCH   2   3
TORSDOF 7
ENDMDL
MODEL       98
REMARK 921   NORMALIZED FREE ENERGY PREDICTED BY IDOCK:   -4.51 KCAL/MOL
REMARK 922        TOTAL FREE ENERGY PREDICTED BY IDOCK:   -7.24 KCAL/MOL
REMARK 923 INTER-LIGAND FREE ENERGY PREDICTED BY IDOCK:   -6.29 KCAL/MOL
REMARK 924 INTRA-LIGAND FREE ENERGY PREDICTED BY IDOCK:   -0.95 KCAL/MOL
REMARK 927      BINDING AFFINITY PREDICTED BY RF-SCORE:    0.00 PKD
ROOT
HETATM    1  C   UNL     1     -12.200  14.223  64.433  1.00  0.00    -0.471 C  
HETATM    2  C   UNL     1     -11.764  12.981  63.672  1.00  0.00    -0.550 C  
ENDROOT
BRANCH   2   3
HETATM    3  C   UNL     1     -10.458  12.357  64.191  1.00  0.00    -0.389 C  
BRANCH   3   4
HETATM    4  N   UNL     1     -10.566  11.147  65.036  1.00  0.00    -0.293 NA 
BRANCH   4   5
HETATM    5  C   UNL     1      -9.632  10.094  64.580  1.00  0.00    -0.315 C  
BRANCH   5   6
HETATM    6  C   UNL     1      -8.968   9.252  65.686  1.00  0.00    -0.243 C  
HETATM    7  C   UNL     1      -8.177   8.066  65.156  1.00  0.00    -0.147 C  
ENDBRANCH   5   6
ENDBRANCH   4   5
BRANCH   4   8
HETATM    8  C   UNL     1     -10.308  11.500  66.456  1.00  0.00    -0.232 C  
BRANCH   8   9
HETATM    9  C   UNL     1      -9.520  12.804  66.715  1.00  0.00    -0.243 C  
BRANCH   9  10
HETATM   10  C   UNL     1     -10.249  13.831  67.543  1.00  0.00    -0.241 A  
HETATM   11  C   UNL     1     -10.180  15.193  67.274  1.00  0.00    -0.243 A  
HETATM   12  C   UNL     1      -9.444  15.940  66.195  1.00  0.00    -0.375 C  
HETATM   13  C   UNL     1      -9.818  17.395  66.483  1.00  0.00    -0.304 C  
HETATM   14  N   UNL     1     -10.649  17.400  67.595  1.00  0.00    -0.365 N  
HETATM   15  O   UNL     1      -9.455  18.378  65.858  1.00  0.00    -0.496 OA 
HETATM   16  H   UNL     1     -11.050  18.241  68.010  1.00  0.00     0.000 HD 
HETATM   17  C   UNL     1     -10.864  16.115  68.069  1.00  0.00    -0.333 A  
HETATM   18  C   UNL     1     -11.632  15.748  69.151  1.00  0.00    -0.399 A  
HETATM   19  C   UNL     1     -11.704  14.388  69.445  1.00  0.00    -0.362 A  
HETATM   20  C   UNL     1     -11.019  13.443  68.656  1.00  0.00    -0.288 A  
ENDBRANCH   9  10
ENDBRANCH   8   9
ENDBRANCH   4   8
ENDBRANCH   3   4
ENDBRANCH   2   3
TORSDOF 7
ENDMDL
MODEL       99
REMARK 921   NORMALIZED FREE ENERGY PREDICTED BY IDOCK:   -4.51 KCAL/MOL
REMARK 922        TOTAL FREE ENERGY PREDICTED BY IDOCK:   -7.24 KCAL/MOL
REMARK 923 INTER-LIGAND FREE ENERGY PREDICTED BY IDOCK:   -6.68 KCAL/MOL
REMARK 924 INTRA-LIGAND FREE ENERGY PREDICTED BY IDOCK:   -0.56 KCAL/MOL
REMARK 927      BINDING AFFINITY PREDICTED BY RF-SCORE:    0.00 PKD
ROOT
HETATM    1  C   UNL     1      -7.605   9.246  70.419  1.00  0.00    -0.132 C  
HETATM    2  C   UNL     1      -9.113   9.319  70.599  1.00  0.00    -0.309 C  
ENDROOT
BRANCH   2   3
HETATM    3  C   UNL     1      -9.844  10.043  69.458  1.00  0.00    -0.229 C  
BRANCH   3   4
HETATM    4  N   UNL     1     -11.323  10.085  69.510  1.00  0.00    -0.206 NA 
BRANCH   4   5
HETATM    5  C   UNL     1     -11.798  10.466  70.858  1.00  0.00    -0.377 C  
BRANCH   5   6
HETATM    6  C   UNL     1     -12.843   9.533  71.497  1.00  0.00    -0.464 C  
HETATM    7  C   UNL     1     -12.349   8.107  71.688  1.00  0.00    -0.347 C  
ENDBRANCH   5   6
ENDBRANCH   4   5
BRANCH   4   8
HETATM    8  C   UNL     1     -11.836  11.031  68.485  1.00  0.00    -0.216 C  
BRANCH   8   9
HETATM    9  C   UNL     1     -10.787  11.909  67.764  1.00  0.00    -0.254 C  
BRANCH   9  10
HETATM   10  C   UNL     1     -11.218  12.435  66.418  1.00  0.00    -0.365 A  
HETATM   11  C   UNL     1     -10.795  11.863  65.224  1.00  0.00    -0.347 A  
HETATM   12  C   UNL     1      -9.893  10.687  64.969  1.00  0.00    -0.353 C  
HETATM   13  C   UNL     1      -9.870  10.609  63.441  1.00  0.00    -0.321 C  
HETATM   14  N   UNL     1     -10.667  11.640  62.960  1.00  0.00    -0.673 N  
HETATM   15  O   UNL     1      -9.265   9.797  62.761  1.00  0.00    -0.273 OA 
HETATM   16  H   UNL     1     -10.831  11.826  61.971  1.00  0.00     0.000 HD 
HETATM   17  C   UNL     1     -11.210  12.383  63.996  1.00  0.00    -0.396 A  
HETATM   18  C   UNL     1     -12.044  13.473  63.887  1.00  0.00    -0.493 A  
HETATM   19  C   UNL     1     -12.469  14.067  65.073  1.00  0.00    -0.446 A  
HETATM   20  C   UNL     1     -12.059  13.559  66.321  1.00  0.00    -0.476 A  
ENDBRANCH   9  10
ENDBRANCH   8   9
ENDBRANCH   4   8
ENDBRANCH   3   4
ENDBRANCH   2   3
TORSDOF 7
ENDMDL
MODEL      100
REMARK 921   NORMALIZED FREE ENERGY PREDICTED BY IDOCK:   -4.51 KCAL/MOL
REMARK 922        TOTAL FREE ENERGY PREDICTED BY IDOCK:   -7.24 KCAL/MOL
REMARK 923 INTER-LIGAND FREE ENERGY PREDICTED BY IDOCK:   -6.34 KCAL/MOL
REMARK 924 INTRA-LIGAND FREE ENERGY PREDICTED BY IDOCK:   -0.90 KCAL/MOL
REMARK 927      BINDING AFFINITY PREDICTED BY RF-SCORE:    0.00 PKD
ROOT
HETATM    1  C   UNL     1      -6.130  20.098  68.517  1.00  0.00    -0.317 C  
HETATM    2  C   UNL     1      -7.516  20.039  67.896  1.00  0.00    -0.330 C  
ENDROOT
BRANCH   2   3
HETATM    3  C   UNL     1      -8.577  19.387  68.797  1.00  0.00    -0.335 C  
BRANCH   3   4
HETATM    4  N   UNL     1      -9.150  18.096  68.356  1.00  0.00    -0.302 NA 
BRANCH   4   5
HETATM    5  C   UNL     1     -10.513  17.904  68.899  1.00  0.00    -0.157 C  
BRANCH   5   6
HETATM    6  C   UNL     1     -11.008  16.448  68.991  1.00  0.00    -0.325 C  
HETATM    7  C   UNL     1     -11.522  16.068  70.371  1.00  0.00    -0.392 C  
ENDBRANCH   5   6
ENDBRANCH   4   5
BRANCH   4   8
HETATM    8  C   UNL     1      -9.162  18.030  66.872  1.00  0.00    -0.269 C  
BRANCH   8   9
HETATM    9  C   UNL     1      -8.293  16.930  66.219  1.00  0.00    -0.331 C  
BRANCH   9  10
HETATM   10  C   UNL     1      -8.787  15.522  66.434  1.00  0.00    -0.359 A  
HETATM   11  C   UNL     1      -9.900  15.013  65.774  1.00  0.00    -0.386 A  
HETATM   12  C   UNL     1     -10.817  15.653  64.768  1.00  0.00    -0.377 C  
HETATM   13  C   UNL     1     -11.806  14.528  64.457  1.00  0.00    -0.446 C  
HETATM   14  N   UNL     1     -11.445  13.431  65.227  1.00  0.00    -0.294 N  
HETATM   15  O   UNL     1     -12.746  14.578  63.680  1.00  0.00    -0.754 OA 
HETATM   16  H   UNL     1     -11.936  12.537  65.220  1.00  0.00     0.000 HD 
HETATM   17  C   UNL     1     -10.332  13.705  66.005  1.00  0.00    -0.304 A  
HETATM   18  C   UNL     1      -9.703  12.853  66.885  1.00  0.00    -0.240 A  
HETATM   19  C   UNL     1      -8.593  13.349  67.565  1.00  0.00    -0.200 A  
HETATM   20  C   UNL     1      -8.144  14.665  67.347  1.00  0.00    -0.216 A  
ENDBRANCH   9  10
ENDBRANCH   8   9
ENDBRANCH   4   8
ENDBRANCH   3   4
ENDBRANCH   2   3
TORSDOF 7
ENDMDL
MODEL      101
REMARK 921   NORMALIZED FREE ENERGY PREDICTED BY IDOCK:   -4.51 KCAL/MOL
REMARK 922        TOTAL FREE ENERGY PREDICTED BY IDOCK:   -7.24 KCAL/MOL
REMARK 923 INTER-LIGAND FREE ENERGY PREDICTED BY IDOCK:   -6.56 KCAL/MOL
REMARK 924 INTRA-LIGAND FREE ENERGY PREDICTED BY IDOCK:   -0.67 KCAL/MOL
REMARK 927      BINDING AFFINITY PREDICTED BY RF-SCORE:    0.00 PKD
ROOT
HETATM    1  C   UNL     1      -7.920   9.348  64.689  1.00  0.00    -0.124 C  
HETATM    2  C   UNL     1      -9.334   9.535  65.213  1.00  0.00    -0.317 C  
ENDROOT
BRANCH   2   3
HETATM    3  C   UNL     1      -9.772  11.004  65.318  1.00  0.00    -0.239 C  
BRANCH   3   4
HETATM    4  N   UNL     1      -9.934  11.576  66.673  1.00  0.00    -0.203 NA 
BRANCH   4   5
HETATM    5  C   UNL     1     -10.459  12.958  66.611  1.00  0.00    -0.263 C  
BRANCH   5   6
HETATM    6  C   UNL     1     -11.993  13.102  66.637  1.00  0.00    -0.451 C  
HETATM    7  C   UNL     1     -12.550  13.881  65.456  1.00  0.00    -0.560 C  
ENDBRANCH   5   6
ENDBRANCH   4   5
BRANCH   4   8
HETATM    8  C   UNL     1     -10.831  10.709  67.481  1.00  0.00    -0.296 C  
BRANCH   8   9
HETATM    9  C   UNL     1     -10.276  10.205  68.833  1.00  0.00    -0.213 C  
BRANCH   9  10
HETATM   10  C   UNL     1     -11.248  10.274  69.983  1.00  0.00    -0.376 A  
HETATM   11  C   UNL     1     -11.551   9.170  70.772  1.00  0.00    -0.329 A  
HETATM   12  C   UNL     1     -11.044   7.756  70.709  1.00  0.00    -0.265 C  
HETATM   13  C   UNL     1     -11.780   7.086  71.871  1.00  0.00    -0.296 C  
HETATM   14  N   UNL     1     -12.587   8.049  72.463  1.00  0.00    -0.575 N  
HETATM   15  O   UNL     1     -11.685   5.921  72.219  1.00  0.00    -0.307 OA 
HETATM   16  H   UNL     1     -13.193   7.877  73.266  1.00  0.00     0.000 HD 
HETATM   17  C   UNL     1     -12.464   9.272  71.824  1.00  0.00    -0.381 A  
HETATM   18  C   UNL     1     -13.113  10.444  72.143  1.00  0.00    -0.427 A  
HETATM   19  C   UNL     1     -12.832  11.558  71.356  1.00  0.00    -0.489 A  
HETATM   20  C   UNL     1     -11.917  11.475  70.289  1.00  0.00    -0.455 A  
ENDBRANCH   9  10
ENDBRANCH   8   9
ENDBRANCH   4   8
ENDBRANCH   3   4
ENDBRANCH   2   3
TORSDOF 7
ENDMDL
MODEL      102
REMARK 921   NORMALIZED FREE ENERGY PREDICTED BY IDOCK:   -4.51 KCAL/MOL
REMARK 922        TOTAL FREE ENERGY PREDICTED BY IDOCK:   -7.23 KCAL/MOL
REMARK 923 INTER-LIGAND FREE ENERGY PREDICTED BY IDOCK:   -6.28 KCAL/MOL
REMARK 924 INTRA-LIGAND FREE ENERGY PREDICTED BY IDOCK:   -0.95 KCAL/MOL
REMARK 927      BINDING AFFINITY PREDICTED BY RF-SCORE:    0.00 PKD
ROOT
HETATM    1  C   UNL     1     -10.844  12.828  66.990  1.00  0.00    -0.282 C  
HETATM    2  C   UNL     1     -11.363  11.399  67.033  1.00  0.00    -0.309 C  
ENDROOT
BRANCH   2   3
HETATM    3  C   UNL     1     -10.271  10.332  66.859  1.00  0.00    -0.230 C  
BRANCH   3   4
HETATM    4  N   UNL     1     -10.386   9.098  67.667  1.00  0.00    -0.240 NA 
BRANCH   4   5
HETATM    5  C   UNL     1     -10.438   7.898  66.803  1.00  0.00    -0.247 C  
BRANCH   5   6
HETATM    6  C   UNL     1     -11.019   6.624  67.447  1.00  0.00    -0.434 C  
HETATM    7  C   UNL     1     -10.646   5.347  66.710  1.00  0.00    -0.339 C  
ENDBRANCH   5   6
ENDBRANCH   4   5
BRANCH   4   8
HETATM    8  C   UNL     1      -9.246   9.011  68.618  1.00  0.00    -0.136 C  
BRANCH   8   9
HETATM    9  C   UNL     1      -9.393   9.785  69.948  1.00  0.00    -0.262 C  
BRANCH   9  10
HETATM   10  C   UNL     1     -10.749   9.679  70.597  1.00  0.00    -0.388 A  
HETATM   11  C   UNL     1     -11.172   8.531  71.258  1.00  0.00    -0.321 A  
HETATM   12  C   UNL     1     -10.470   7.221  71.489  1.00  0.00    -0.220 C  
HETATM   13  C   UNL     1     -11.503   6.425  72.288  1.00  0.00    -0.298 C  
HETATM   14  N   UNL     1     -12.622   7.233  72.444  1.00  0.00    -0.505 N  
HETATM   15  O   UNL     1     -11.379   5.288  72.712  1.00  0.00    -0.285 OA 
HETATM   16  H   UNL     1     -13.469   6.954  72.939  1.00  0.00     0.000 HD 
HETATM   17  C   UNL     1     -12.440   8.467  71.840  1.00  0.00    -0.352 A  
HETATM   18  C   UNL     1     -13.338   9.510  71.798  1.00  0.00    -0.501 A  
HETATM   19  C   UNL     1     -12.937  10.665  71.129  1.00  0.00    -0.483 A  
HETATM   20  C   UNL     1     -11.663  10.747  70.533  1.00  0.00    -0.449 A  
ENDBRANCH   9  10
ENDBRANCH   8   9
ENDBRANCH   4   8
ENDBRANCH   3   4
ENDBRANCH   2   3
TORSDOF 7
ENDMDL
MODEL      103
REMARK 921   NORMALIZED FREE ENERGY PREDICTED BY IDOCK:   -4.51 KCAL/MOL
REMARK 922        TOTAL FREE ENERGY PREDICTED BY IDOCK:   -7.23 KCAL/MOL
REMARK 923 INTER-LIGAND FREE ENERGY PREDICTED BY IDOCK:   -6.71 KCAL/MOL
REMARK 924 INTRA-LIGAND FREE ENERGY PREDICTED BY IDOCK:   -0.52 KCAL/MOL
REMARK 927      BINDING AFFINITY PREDICTED BY RF-SCORE:    0.00 PKD
ROOT
HETATM    1  C   UNL     1      -9.665  17.823  67.709  1.00  0.00    -0.285 C  
HETATM    2  C   UNL     1     -10.861  16.895  67.837  1.00  0.00    -0.310 C  
ENDROOT
BRANCH   2   3
HETATM    3  C   UNL     1     -10.549  15.425  67.519  1.00  0.00    -0.283 C  
BRANCH   3   4
HETATM    4  N   UNL     1     -11.576  14.649  66.789  1.00  0.00    -0.371 NA 
BRANCH   4   5
HETATM    5  C   UNL     1     -11.075  14.213  65.466  1.00  0.00    -0.310 C  
BRANCH   5   6
HETATM    6  C   UNL     1     -12.147  13.832  64.428  1.00  0.00    -0.474 C  
HETATM    7  C   UNL     1     -12.045  12.391  63.950  1.00  0.00    -0.587 C  
ENDBRANCH   5   6
ENDBRANCH   4   5
BRANCH   4   8
HETATM    8  C   UNL     1     -11.996  13.479  67.602  1.00  0.00    -0.336 C  
BRANCH   8   9
HETATM    9  C   UNL     1     -11.103  13.117  68.811  1.00  0.00    -0.309 C  
BRANCH   9  10
HETATM   10  C   UNL     1     -11.778  12.285  69.872  1.00  0.00    -0.346 A  
HETATM   11  C   UNL     1     -11.644  10.903  69.933  1.00  0.00    -0.410 A  
HETATM   12  C   UNL     1     -10.869   9.957  69.057  1.00  0.00    -0.242 C  
HETATM   13  C   UNL     1     -11.156   8.598  69.700  1.00  0.00    -0.013 C  
HETATM   14  N   UNL     1     -11.996   8.819  70.784  1.00  0.00    -0.455 N  
HETATM   15  O   UNL     1     -10.732   7.514  69.333  1.00  0.00    -0.229 OA 
HETATM   16  H   UNL     1     -12.350   8.084  71.396  1.00  0.00     0.000 HD 
HETATM   17  C   UNL     1     -12.292  10.165  70.926  1.00  0.00    -0.363 A  
HETATM   18  C   UNL     1     -13.090  10.742  71.888  1.00  0.00    -0.557 A  
HETATM   19  C   UNL     1     -13.247  12.125  71.836  1.00  0.00    -0.474 A  
HETATM   20  C   UNL     1     -12.604  12.886  70.840  1.00  0.00    -0.355 A  
ENDBRANCH   9  10
ENDBRANCH   8   9
ENDBRANCH   4   8
ENDBRANCH   3   4
ENDBRANCH   2   3
TORSDOF 7
ENDMDL
MODEL      104
REMARK 921   NORMALIZED FREE ENERGY PREDICTED BY IDOCK:   -4.50 KCAL/MOL
REMARK 922        TOTAL FREE ENERGY PREDICTED BY IDOCK:   -7.23 KCAL/MOL
REMARK 923 INTER-LIGAND FREE ENERGY PREDICTED BY IDOCK:   -6.24 KCAL/MOL
REMARK 924 INTRA-LIGAND FREE ENERGY PREDICTED BY IDOCK:   -0.99 KCAL/MOL
REMARK 927      BINDING AFFINITY PREDICTED BY RF-SCORE:    0.00 PKD
ROOT
HETATM    1  C   UNL     1     -12.021  13.745  70.997  1.00  0.00    -0.206 C  
HETATM    2  C   UNL     1     -12.260  15.048  70.251  1.00  0.00    -0.390 C  
ENDROOT
BRANCH   2   3
HETATM    3  C   UNL     1     -10.994  15.898  70.058  1.00  0.00    -0.358 C  
BRANCH   3   4
HETATM    4  N   UNL     1     -10.446  16.008  68.688  1.00  0.00    -0.239 NA 
BRANCH   4   5
HETATM    5  C   UNL     1     -10.666  17.362  68.132  1.00  0.00    -0.343 C  
BRANCH   5   6
HETATM    6  C   UNL     1      -9.415  18.250  67.995  1.00  0.00    -0.298 C  
HETATM    7  C   UNL     1      -9.226  18.820  66.597  1.00  0.00    -0.333 C  
ENDBRANCH   5   6
ENDBRANCH   4   5
BRANCH   4   8
HETATM    8  C   UNL     1      -8.998  15.673  68.697  1.00  0.00    -0.202 C  
BRANCH   8   9
HETATM    9  C   UNL     1      -8.509  14.682  67.616  1.00  0.00    -0.187 C  
BRANCH   9  10
HETATM   10  C   UNL     1      -9.447  13.535  67.337  1.00  0.00    -0.225 A  
HETATM   11  C   UNL     1     -10.436  13.600  66.362  1.00  0.00    -0.288 A  
HETATM   12  C   UNL     1     -10.802  14.709  65.415  1.00  0.00    -0.365 C  
HETATM   13  C   UNL     1     -11.961  14.101  64.623  1.00  0.00    -0.445 C  
HETATM   14  N   UNL     1     -12.177  12.821  65.116  1.00  0.00    -0.454 N  
HETATM   15  O   UNL     1     -12.590  14.636  63.724  1.00  0.00    -0.820 OA 
HETATM   16  H   UNL     1     -12.895  12.185  64.770  1.00  0.00     0.000 HD 
HETATM   17  C   UNL     1     -11.291  12.519  66.138  1.00  0.00    -0.343 A  
HETATM   18  C   UNL     1     -11.218  11.345  66.853  1.00  0.00    -0.331 A  
HETATM   19  C   UNL     1     -10.241  11.265  67.843  1.00  0.00    -0.201 A  
HETATM   20  C   UNL     1      -9.371  12.345  68.086  1.00  0.00    -0.209 A  
ENDBRANCH   9  10
ENDBRANCH   8   9
ENDBRANCH   4   8
ENDBRANCH   3   4
ENDBRANCH   2   3
TORSDOF 7
ENDMDL
MODEL      105
REMARK 921   NORMALIZED FREE ENERGY PREDICTED BY IDOCK:   -4.47 KCAL/MOL
REMARK 922        TOTAL FREE ENERGY PREDICTED BY IDOCK:   -7.18 KCAL/MOL
REMARK 923 INTER-LIGAND FREE ENERGY PREDICTED BY IDOCK:   -6.38 KCAL/MOL
REMARK 924 INTRA-LIGAND FREE ENERGY PREDICTED BY IDOCK:   -0.81 KCAL/MOL
REMARK 927      BINDING AFFINITY PREDICTED BY RF-SCORE:    0.00 PKD
ROOT
HETATM    1  C   UNL     1      -5.172  18.636  64.594  1.00  0.00    -0.210 C  
HETATM    2  C   UNL     1      -5.218  17.956  65.953  1.00  0.00    -0.235 C  
ENDROOT
BRANCH   2   3
HETATM    3  C   UNL     1      -5.680  18.874  67.096  1.00  0.00    -0.155 C  
BRANCH   3   4
HETATM    4  N   UNL     1      -6.962  18.548  67.760  1.00  0.00    -0.212 NA 
BRANCH   4   5
HETATM    5  C   UNL     1      -8.074  19.343  67.192  1.00  0.00    -0.266 C  
BRANCH   5   6
HETATM    6  C   UNL     1      -9.275  19.590  68.124  1.00  0.00    -0.411 C  
HETATM    7  C   UNL     1     -10.622  19.370  67.450  1.00  0.00    -0.603 C  
ENDBRANCH   5   6
ENDBRANCH   4   5
BRANCH   4   8
HETATM    8  C   UNL     1      -7.239  17.094  67.634  1.00  0.00    -0.157 C  
BRANCH   8   9
HETATM    9  C   UNL     1      -8.361  16.683  66.651  1.00  0.00    -0.296 C  
BRANCH   9  10
HETATM   10  C   UNL     1      -9.481  15.884  67.267  1.00  0.00    -0.217 A  
HETATM   11  C   UNL     1     -10.475  15.282  66.504  1.00  0.00    -0.299 A  
HETATM   12  C   UNL     1     -10.683  15.257  65.015  1.00  0.00    -0.461 C  
HETATM   13  C   UNL     1     -11.949  14.410  64.869  1.00  0.00    -0.426 C  
HETATM   14  N   UNL     1     -12.355  14.046  66.146  1.00  0.00    -0.466 N  
HETATM   15  O   UNL     1     -12.508  14.108  63.828  1.00  0.00    -0.791 OA 
HETATM   16  H   UNL     1     -13.178  13.478  66.348  1.00  0.00     0.000 HD 
HETATM   17  C   UNL     1     -11.501  14.556  67.112  1.00  0.00    -0.368 A  
HETATM   18  C   UNL     1     -11.599  14.394  68.475  1.00  0.00    -0.347 A  
HETATM   19  C   UNL     1     -10.620  15.001  69.258  1.00  0.00    -0.249 A  
HETATM   20  C   UNL     1      -9.578  15.739  68.664  1.00  0.00    -0.207 A  
ENDBRANCH   9  10
ENDBRANCH   8   9
ENDBRANCH   4   8
ENDBRANCH   3   4
ENDBRANCH   2   3
TORSDOF 7
ENDMDL
MODEL      106
REMARK 921   NORMALIZED FREE ENERGY PREDICTED BY IDOCK:   -4.47 KCAL/MOL
REMARK 922        TOTAL FREE ENERGY PREDICTED BY IDOCK:   -7.18 KCAL/MOL
REMARK 923 INTER-LIGAND FREE ENERGY PREDICTED BY IDOCK:   -6.30 KCAL/MOL
REMARK 924 INTRA-LIGAND FREE ENERGY PREDICTED BY IDOCK:   -0.88 KCAL/MOL
REMARK 927      BINDING AFFINITY PREDICTED BY RF-SCORE:    0.00 PKD
ROOT
HETATM    1  C   UNL     1      -8.108  16.209  66.759  1.00  0.00    -0.305 C  
HETATM    2  C   UNL     1      -9.196  16.622  67.737  1.00  0.00    -0.214 C  
ENDROOT
BRANCH   2   3
HETATM    3  C   UNL     1      -9.161  15.858  69.069  1.00  0.00    -0.242 C  
BRANCH   3   4
HETATM    4  N   UNL     1     -10.308  14.977  69.384  1.00  0.00    -0.241 NA 
BRANCH   4   5
HETATM    5  C   UNL     1     -11.529  15.769  69.654  1.00  0.00    -0.346 C  
BRANCH   5   6
HETATM    6  C   UNL     1     -12.022  15.777  71.114  1.00  0.00    -0.469 C  
HETATM    7  C   UNL     1     -13.476  15.358  71.267  1.00  0.00    -0.598 C  
ENDBRANCH   5   6
ENDBRANCH   4   5
BRANCH   4   8
HETATM    8  C   UNL     1     -10.536  14.027  68.264  1.00  0.00    -0.244 C  
BRANCH   8   9
HETATM    9  C   UNL     1     -11.850  13.213  68.301  1.00  0.00    -0.384 C  
BRANCH   9  10
HETATM   10  C   UNL     1     -11.805  11.976  69.162  1.00  0.00    -0.369 A  
HETATM   11  C   UNL     1     -11.334  10.756  68.690  1.00  0.00    -0.356 A  
HETATM   12  C   UNL     1     -10.794  10.373  67.340  1.00  0.00    -0.344 C  
HETATM   13  C   UNL     1     -10.456   8.892  67.524  1.00  0.00    -0.269 C  
HETATM   14  N   UNL     1     -10.796   8.546  68.826  1.00  0.00    -0.432 N  
HETATM   15  O   UNL     1      -9.980   8.143  66.687  1.00  0.00    -0.247 OA 
HETATM   16  H   UNL     1     -10.678   7.614  69.222  1.00  0.00     0.000 HD 
HETATM   17  C   UNL     1     -11.315   9.630  69.516  1.00  0.00    -0.040 A  
HETATM   18  C   UNL     1     -11.754   9.650  70.821  1.00  0.00    -0.390 A  
HETATM   19  C   UNL     1     -12.240  10.861  71.308  1.00  0.00    -0.395 A  
HETATM   20  C   UNL     1     -12.270  12.007  70.490  1.00  0.00    -0.414 A  
ENDBRANCH   9  10
ENDBRANCH   8   9
ENDBRANCH   4   8
ENDBRANCH   3   4
ENDBRANCH   2   3
TORSDOF 7
ENDMDL
MODEL      107
REMARK 921   NORMALIZED FREE ENERGY PREDICTED BY IDOCK:   -4.47 KCAL/MOL
REMARK 922        TOTAL FREE ENERGY PREDICTED BY IDOCK:   -7.18 KCAL/MOL
REMARK 923 INTER-LIGAND FREE ENERGY PREDICTED BY IDOCK:   -6.24 KCAL/MOL
REMARK 924 INTRA-LIGAND FREE ENERGY PREDICTED BY IDOCK:   -0.94 KCAL/MOL
REMARK 927      BINDING AFFINITY PREDICTED BY RF-SCORE:    0.00 PKD
ROOT
HETATM    1  C   UNL     1      -8.636   9.252  65.079  1.00  0.00    -0.200 C  
HETATM    2  C   UNL     1      -9.964   9.785  65.594  1.00  0.00    -0.352 C  
ENDROOT
BRANCH   2   3
HETATM    3  C   UNL     1     -10.523  10.961  64.779  1.00  0.00    -0.303 C  
BRANCH   3   4
HETATM    4  N   UNL     1     -10.985  12.153  65.525  1.00  0.00    -0.291 NA 
BRANCH   4   5
HETATM    5  C   UNL     1     -12.303  12.612  65.034  1.00  0.00    -0.497 C  
BRANCH   5   6
HETATM    6  C   UNL     1     -12.516  14.137  64.988  1.00  0.00    -0.434 C  
HETATM    7  C   UNL     1     -11.225  14.926  64.837  1.00  0.00    -0.415 C  
ENDBRANCH   5   6
ENDBRANCH   4   5
BRANCH   4   8
HETATM    8  C   UNL     1     -11.043  11.846  66.978  1.00  0.00    -0.302 C  
BRANCH   8   9
HETATM    9  C   UNL     1     -10.158  12.711  67.905  1.00  0.00    -0.222 C  
BRANCH   9  10
HETATM   10  C   UNL     1     -10.917  13.606  68.851  1.00  0.00    -0.281 A  
HETATM   11  C   UNL     1     -10.662  14.969  68.953  1.00  0.00    -0.240 A  
HETATM   12  C   UNL     1      -9.670  15.835  68.227  1.00  0.00    -0.201 C  
HETATM   13  C   UNL     1      -9.940  17.220  68.819  1.00  0.00    -0.325 C  
HETATM   14  N   UNL     1     -10.955  17.081  69.757  1.00  0.00    -0.325 N  
HETATM   15  O   UNL     1      -9.372  18.260  68.530  1.00  0.00    -0.305 OA 
HETATM   16  H   UNL     1     -11.336  17.849  70.309  1.00  0.00     0.000 HD 
HETATM   17  C   UNL     1     -11.382  15.766  69.847  1.00  0.00    -0.349 A  
HETATM   18  C   UNL     1     -12.366  15.267  70.670  1.00  0.00    -0.427 A  
HETATM   19  C   UNL     1     -12.628  13.901  70.590  1.00  0.00    -0.405 A  
HETATM   20  C   UNL     1     -11.912  13.081  69.697  1.00  0.00    -0.367 A  
ENDBRANCH   9  10
ENDBRANCH   8   9
ENDBRANCH   4   8
ENDBRANCH   3   4
ENDBRANCH   2   3
TORSDOF 7
ENDMDL
MODEL      108
REMARK 921   NORMALIZED FREE ENERGY PREDICTED BY IDOCK:   -4.46 KCAL/MOL
REMARK 922        TOTAL FREE ENERGY PREDICTED BY IDOCK:   -7.17 KCAL/MOL
REMARK 923 INTER-LIGAND FREE ENERGY PREDICTED BY IDOCK:   -5.94 KCAL/MOL
REMARK 924 INTRA-LIGAND FREE ENERGY PREDICTED BY IDOCK:   -1.23 KCAL/MOL
REMARK 927      BINDING AFFINITY PREDICTED BY RF-SCORE:    0.00 PKD
ROOT
HETATM    1  C   UNL     1      -7.573  12.418  67.677  1.00  0.00    -0.141 C  
HETATM    2  C   UNL     1      -8.195  13.707  68.188  1.00  0.00    -0.158 C  
ENDROOT
BRANCH   2   3
HETATM    3  C   UNL     1      -8.264  14.826  67.137  1.00  0.00    -0.211 C  
BRANCH   3   4
HETATM    4  N   UNL     1      -9.604  15.245  66.670  1.00  0.00    -0.242 NA 
BRANCH   4   5
HETATM    5  C   UNL     1      -9.546  16.559  65.992  1.00  0.00    -0.290 C  
BRANCH   5   6
HETATM    6  C   UNL     1      -9.326  17.782  66.901  1.00  0.00    -0.272 C  
HETATM    7  C   UNL     1      -8.051  18.551  66.587  1.00  0.00    -0.280 C  
ENDBRANCH   5   6
ENDBRANCH   4   5
BRANCH   4   8
HETATM    8  C   UNL     1     -10.168  14.211  65.764  1.00  0.00    -0.332 C  
BRANCH   8   9
HETATM    9  C   UNL     1     -11.545  13.624  66.153  1.00  0.00    -0.369 C  
BRANCH   9  10
HETATM   10  C   UNL     1     -11.502  12.564  67.224  1.00  0.00    -0.416 A  
HETATM   11  C   UNL     1     -11.770  12.842  68.560  1.00  0.00    -0.371 A  
HETATM   12  C   UNL     1     -12.142  14.134  69.234  1.00  0.00    -0.364 C  
HETATM   13  C   UNL     1     -12.300  13.714  70.696  1.00  0.00    -0.368 C  
HETATM   14  N   UNL     1     -12.029  12.354  70.770  1.00  0.00    -0.458 N  
HETATM   15  O   UNL     1     -12.604  14.434  71.633  1.00  0.00    -0.324 OA 
HETATM   16  H   UNL     1     -12.058  11.808  71.631  1.00  0.00     0.000 HD 
HETATM   17  C   UNL     1     -11.713  11.834  69.525  1.00  0.00    -0.343 A  
HETATM   18  C   UNL     1     -11.391  10.529  69.228  1.00  0.00    -0.325 A  
HETATM   19  C   UNL     1     -11.107  10.233  67.897  1.00  0.00    -0.341 A  
HETATM   20  C   UNL     1     -11.157  11.236  66.909  1.00  0.00    -0.339 A  
ENDBRANCH   9  10
ENDBRANCH   8   9
ENDBRANCH   4   8
ENDBRANCH   3   4
ENDBRANCH   2   3
TORSDOF 7
ENDMDL
MODEL      109
REMARK 921   NORMALIZED FREE ENERGY PREDICTED BY IDOCK:   -4.44 KCAL/MOL
REMARK 922        TOTAL FREE ENERGY PREDICTED BY IDOCK:   -7.14 KCAL/MOL
REMARK 923 INTER-LIGAND FREE ENERGY PREDICTED BY IDOCK:   -6.33 KCAL/MOL
REMARK 924 INTRA-LIGAND FREE ENERGY PREDICTED BY IDOCK:   -0.81 KCAL/MOL
REMARK 927      BINDING AFFINITY PREDICTED BY RF-SCORE:    0.00 PKD
ROOT
HETATM    1  C   UNL     1      -8.955  10.811  64.739  1.00  0.00    -0.194 C  
HETATM    2  C   UNL     1      -9.773   9.617  65.205  1.00  0.00    -0.330 C  
ENDROOT
BRANCH   2   3
HETATM    3  C   UNL     1      -9.262   8.979  66.506  1.00  0.00    -0.179 C  
BRANCH   3   4
HETATM    4  N   UNL     1     -10.181   8.960  67.666  1.00  0.00    -0.222 NA 
BRANCH   4   5
HETATM    5  C   UNL     1      -9.721   8.001  68.695  1.00  0.00    -0.159 C  
BRANCH   5   6
HETATM    6  C   UNL     1     -10.710   7.710  69.840  1.00  0.00    -0.253 C  
HETATM    7  C   UNL     1     -11.402   6.361  69.716  1.00  0.00    -0.494 C  
ENDBRANCH   5   6
ENDBRANCH   4   5
BRANCH   4   8
HETATM    8  C   UNL     1     -10.299  10.327  68.238  1.00  0.00    -0.181 C  
BRANCH   8   9
HETATM    9  C   UNL     1     -11.704  10.971  68.210  1.00  0.00    -0.301 C  
BRANCH   9  10
HETATM   10  C   UNL     1     -11.710  12.469  68.036  1.00  0.00    -0.410 A  
HETATM   11  C   UNL     1     -11.869  13.076  66.795  1.00  0.00    -0.451 A  
HETATM   12  C   UNL     1     -12.063  12.473  65.431  1.00  0.00    -0.494 C  
HETATM   13  C   UNL     1     -12.178  13.708  64.535  1.00  0.00    -0.401 C  
HETATM   14  N   UNL     1     -12.048  14.826  65.348  1.00  0.00    -0.231 N  
HETATM   15  O   UNL     1     -12.349  13.719  63.327  1.00  0.00    -0.756 OA 
HETATM   16  H   UNL     1     -12.084  15.789  65.013  1.00  0.00     0.000 HD 
HETATM   17  C   UNL     1     -11.862  14.467  66.674  1.00  0.00    -0.398 A  
HETATM   18  C   UNL     1     -11.698  15.312  67.748  1.00  0.00    -0.206 A  
HETATM   19  C   UNL     1     -11.525  14.723  68.998  1.00  0.00    -0.316 A  
HETATM   20  C   UNL     1     -11.526  13.322  69.141  1.00  0.00    -0.357 A  
ENDBRANCH   9  10
ENDBRANCH   8   9
ENDBRANCH   4   8
ENDBRANCH   3   4
ENDBRANCH   2   3
TORSDOF 7
ENDMDL
MODEL      110
REMARK 921   NORMALIZED FREE ENERGY PREDICTED BY IDOCK:   -4.44 KCAL/MOL
REMARK 922        TOTAL FREE ENERGY PREDICTED BY IDOCK:   -7.14 KCAL/MOL
REMARK 923 INTER-LIGAND FREE ENERGY PREDICTED BY IDOCK:   -6.51 KCAL/MOL
REMARK 924 INTRA-LIGAND FREE ENERGY PREDICTED BY IDOCK:   -0.63 KCAL/MOL
REMARK 927      BINDING AFFINITY PREDICTED BY RF-SCORE:    0.00 PKD
ROOT
HETATM    1  C   UNL     1     -10.181   4.675  72.025  1.00  0.00    -0.258 C  
HETATM    2  C   UNL     1     -10.721   5.877  72.783  1.00  0.00    -0.274 C  
ENDROOT
BRANCH   2   3
HETATM    3  C   UNL     1     -11.500   6.870  71.906  1.00  0.00    -0.272 C  
BRANCH   3   4
HETATM    4  N   UNL     1     -10.726   7.928  71.218  1.00  0.00    -0.226 NA 
BRANCH   4   5
HETATM    5  C   UNL     1     -10.843   7.804  69.748  1.00  0.00    -0.209 C  
BRANCH   5   6
HETATM    6  C   UNL     1     -11.464   6.495  69.226  1.00  0.00    -0.307 C  
HETATM    7  C   UNL     1     -10.975   6.102  67.840  1.00  0.00    -0.399 C  
ENDBRANCH   5   6
ENDBRANCH   4   5
BRANCH   4   8
HETATM    8  C   UNL     1     -11.190   9.266  71.671  1.00  0.00    -0.379 C  
BRANCH   8   9
HETATM    9  C   UNL     1     -12.497   9.797  71.040  1.00  0.00    -0.414 C  
BRANCH   9  10
HETATM   10  C   UNL     1     -12.645  11.298  71.058  1.00  0.00    -0.495 A  
HETATM   11  C   UNL     1     -12.049  12.118  70.107  1.00  0.00    -0.368 A  
HETATM   12  C   UNL     1     -11.190  11.775  68.922  1.00  0.00    -0.311 C  
HETATM   13  C   UNL     1     -10.897  13.148  68.314  1.00  0.00    -0.253 C  
HETATM   14  N   UNL     1     -11.529  14.097  69.106  1.00  0.00    -0.277 N  
HETATM   15  O   UNL     1     -10.229  13.377  67.319  1.00  0.00    -0.238 OA 
HETATM   16  H   UNL     1     -11.500  15.102  68.933  1.00  0.00     0.000 HD 
HETATM   17  C   UNL     1     -12.203  13.505  70.162  1.00  0.00    -0.330 A  
HETATM   18  C   UNL     1     -12.934  14.140  71.140  1.00  0.00    -0.419 A  
HETATM   19  C   UNL     1     -13.529  13.336  72.110  1.00  0.00    -0.655 A  
HETATM   20  C   UNL     1     -13.384  11.935  72.073  1.00  0.00    -0.425 A  
ENDBRANCH   9  10
ENDBRANCH   8   9
ENDBRANCH   4   8
ENDBRANCH   3   4
ENDBRANCH   2   3
TORSDOF 7
ENDMDL
MODEL      111
REMARK 921   NORMALIZED FREE ENERGY PREDICTED BY IDOCK:   -4.42 KCAL/MOL
REMARK 922        TOTAL FREE ENERGY PREDICTED BY IDOCK:   -7.11 KCAL/MOL
REMARK 923 INTER-LIGAND FREE ENERGY PREDICTED BY IDOCK:   -5.95 KCAL/MOL
REMARK 924 INTRA-LIGAND FREE ENERGY PREDICTED BY IDOCK:   -1.17 KCAL/MOL
REMARK 927      BINDING AFFINITY PREDICTED BY RF-SCORE:    0.00 PKD
ROOT
HETATM    1  C   UNL     1     -10.577  16.394  65.563  1.00  0.00    -0.346 C  
HETATM    2  C   UNL     1      -9.539  15.296  65.728  1.00  0.00    -0.359 C  
ENDROOT
BRANCH   2   3
HETATM    3  C   UNL     1      -9.428  14.751  67.160  1.00  0.00    -0.227 C  
BRANCH   3   4
HETATM    4  N   UNL     1      -9.308  13.286  67.328  1.00  0.00    -0.217 NA 
BRANCH   4   5
HETATM    5  C   UNL     1      -8.022  12.924  67.964  1.00  0.00    -0.158 C  
BRANCH   5   6
HETATM    6  C   UNL     1      -7.765  11.419  68.165  1.00  0.00    -0.118 C  
HETATM    7  C   UNL     1      -7.286  11.067  69.566  1.00  0.00    -0.091 C  
ENDBRANCH   5   6
ENDBRANCH   4   5
BRANCH   4   8
HETATM    8  C   UNL     1     -10.451  12.776  68.128  1.00  0.00    -0.236 C  
BRANCH   8   9
HETATM    9  C   UNL     1     -11.523  11.962  67.367  1.00  0.00    -0.393 C  
BRANCH   9  10
HETATM   10  C   UNL     1     -11.593  12.235  65.886  1.00  0.00    -0.450 A  
HETATM   11  C   UNL     1     -10.843  11.519  64.959  1.00  0.00    -0.336 A  
HETATM   12  C   UNL     1      -9.866  10.393  65.154  1.00  0.00    -0.378 C  
HETATM   13  C   UNL     1      -9.430  10.079  63.722  1.00  0.00    -0.208 C  
HETATM   14  N   UNL     1     -10.101  10.955  62.880  1.00  0.00    -0.696 N  
HETATM   15  O   UNL     1      -8.636   9.221  63.373  1.00  0.00    -0.200 OA 
HETATM   16  H   UNL     1      -9.998  10.971  61.866  1.00  0.00     0.000 HD 
HETATM   17  C   UNL     1     -10.928  11.807  63.595  1.00  0.00    -0.439 A  
HETATM   18  C   UNL     1     -11.738  12.798  63.087  1.00  0.00    -0.256 A  
HETATM   19  C   UNL     1     -12.488  13.535  64.002  1.00  0.00    -0.294 A  
HETATM   20  C   UNL     1     -12.413  13.262  65.381  1.00  0.00    -0.543 A  
ENDBRANCH   9  10
ENDBRANCH   8   9
ENDBRANCH   4   8
ENDBRANCH   3   4
ENDBRANCH   2   3
TORSDOF 7
ENDMDL
MODEL      112
REMARK 921   NORMALIZED FREE ENERGY PREDICTED BY IDOCK:   -4.42 KCAL/MOL
REMARK 922        TOTAL FREE ENERGY PREDICTED BY IDOCK:   -7.11 KCAL/MOL
REMARK 923 INTER-LIGAND FREE ENERGY PREDICTED BY IDOCK:   -6.28 KCAL/MOL
REMARK 924 INTRA-LIGAND FREE ENERGY PREDICTED BY IDOCK:   -0.82 KCAL/MOL
REMARK 927      BINDING AFFINITY PREDICTED BY RF-SCORE:    0.00 PKD
ROOT
HETATM    1  C   UNL     1      -7.176  16.653  69.039  1.00  0.00    -0.222 C  
HETATM    2  C   UNL     1      -7.087  16.255  67.574  1.00  0.00    -0.178 C  
ENDROOT
BRANCH   2   3
HETATM    3  C   UNL     1      -8.393  15.679  67.003  1.00  0.00    -0.228 C  
BRANCH   3   4
HETATM    4  N   UNL     1      -9.660  16.087  67.648  1.00  0.00    -0.218 NA 
BRANCH   4   5
HETATM    5  C   UNL     1     -10.357  17.121  66.851  1.00  0.00    -0.308 C  
BRANCH   5   6
HETATM    6  C   UNL     1      -9.963  18.581  67.143  1.00  0.00    -0.357 C  
HETATM    7  C   UNL     1     -10.072  18.958  68.612  1.00  0.00    -0.447 C  
ENDBRANCH   5   6
ENDBRANCH   4   5
BRANCH   4   8
HETATM    8  C   UNL     1     -10.531  14.898  67.842  1.00  0.00    -0.250 C  
BRANCH   8   9
HETATM    9  C   UNL     1     -10.100  13.598  67.126  1.00  0.00    -0.245 C  
BRANCH   9  10
HETATM   10  C   UNL     1     -10.805  13.329  65.821  1.00  0.00    -0.286 A  
HETATM   11  C   UNL     1     -10.466  12.263  64.995  1.00  0.00    -0.322 A  
HETATM   12  C   UNL     1      -9.420  11.195  65.159  1.00  0.00    -0.257 C  
HETATM   13  C   UNL     1      -9.605  10.351  63.896  1.00  0.00    -0.312 C  
HETATM   14  N   UNL     1     -10.629  10.928  63.157  1.00  0.00    -0.740 N  
HETATM   15  O   UNL     1      -8.973   9.355  63.586  1.00  0.00    -0.218 OA 
HETATM   16  H   UNL     1     -10.964  10.571  62.262  1.00  0.00     0.000 HD 
HETATM   17  C   UNL     1     -11.137  12.052  63.789  1.00  0.00    -0.439 A  
HETATM   18  C   UNL     1     -12.153  12.867  63.344  1.00  0.00    -0.610 A  
HETATM   19  C   UNL     1     -12.499  13.948  64.151  1.00  0.00    -0.286 A  
HETATM   20  C   UNL     1     -11.832  14.180  65.370  1.00  0.00    -0.362 A  
ENDBRANCH   9  10
ENDBRANCH   8   9
ENDBRANCH   4   8
ENDBRANCH   3   4
ENDBRANCH   2   3
TORSDOF 7
ENDMDL
MODEL      113
REMARK 921   NORMALIZED FREE ENERGY PREDICTED BY IDOCK:   -4.41 KCAL/MOL
REMARK 922        TOTAL FREE ENERGY PREDICTED BY IDOCK:   -7.10 KCAL/MOL
REMARK 923 INTER-LIGAND FREE ENERGY PREDICTED BY IDOCK:   -5.52 KCAL/MOL
REMARK 924 INTRA-LIGAND FREE ENERGY PREDICTED BY IDOCK:   -1.58 KCAL/MOL
REMARK 927      BINDING AFFINITY PREDICTED BY RF-SCORE:    0.00 PKD
ROOT
HETATM    1  C   UNL     1     -10.632   9.897  67.695  1.00  0.00    -0.325 C  
HETATM    2  C   UNL     1      -9.733   9.280  66.635  1.00  0.00    -0.281 C  
ENDROOT
BRANCH   2   3
HETATM    3  C   UNL     1      -8.682   8.310  67.195  1.00  0.00    -0.123 C  
BRANCH   3   4
HETATM    4  N   UNL     1      -8.796   7.924  68.619  1.00  0.00    -0.135 NA 
BRANCH   4   5
HETATM    5  C   UNL     1      -8.620   6.465  68.793  1.00  0.00    -0.123 C  
BRANCH   5   6
HETATM    6  C   UNL     1      -9.691   5.749  69.638  1.00  0.00    -0.208 C  
HETATM    7  C   UNL     1     -11.089   6.322  69.460  1.00  0.00    -0.476 C  
ENDBRANCH   5   6
ENDBRANCH   4   5
BRANCH   4   8
HETATM    8  C   UNL     1      -7.798   8.673  69.425  1.00  0.00    -0.096 C  
BRANCH   8   9
HETATM    9  C   UNL     1      -8.335   9.448  70.650  1.00  0.00    -0.217 C  
BRANCH   9  10
HETATM   10  C   UNL     1      -8.952   8.587  71.723  1.00  0.00    -0.288 A  
HETATM   11  C   UNL     1     -10.315   8.600  71.998  1.00  0.00    -0.416 A  
HETATM   12  C   UNL     1     -11.432   9.386  71.368  1.00  0.00    -0.449 C  
HETATM   13  C   UNL     1     -12.659   8.903  72.143  1.00  0.00    -0.399 C  
HETATM   14  N   UNL     1     -12.221   7.974  73.078  1.00  0.00    -0.502 N  
HETATM   15  O   UNL     1     -13.813   9.263  71.979  1.00  0.00    -0.403 OA 
HETATM   16  H   UNL     1     -12.832   7.489  73.735  1.00  0.00     0.000 HD 
HETATM   17  C   UNL     1     -10.849   7.793  73.005  1.00  0.00    -0.389 A  
HETATM   18  C   UNL     1     -10.081   6.952  73.778  1.00  0.00    -0.373 A  
HETATM   19  C   UNL     1      -8.711   6.934  73.526  1.00  0.00    -0.156 A  
HETATM   20  C   UNL     1      -8.153   7.742  72.517  1.00  0.00    -0.156 A  
ENDBRANCH   9  10
ENDBRANCH   8   9
ENDBRANCH   4   8
ENDBRANCH   3   4
ENDBRANCH   2   3
TORSDOF 7
ENDMDL
MODEL      114
REMARK 921   NORMALIZED FREE ENERGY PREDICTED BY IDOCK:   -4.40 KCAL/MOL
REMARK 922        TOTAL FREE ENERGY PREDICTED BY IDOCK:   -7.08 KCAL/MOL
REMARK 923 INTER-LIGAND FREE ENERGY PREDICTED BY IDOCK:   -6.21 KCAL/MOL
REMARK 924 INTRA-LIGAND FREE ENERGY PREDICTED BY IDOCK:   -0.87 KCAL/MOL
REMARK 927      BINDING AFFINITY PREDICTED BY RF-SCORE:    0.00 PKD
ROOT
HETATM    1  C   UNL     1     -10.553  12.099  63.474  1.00  0.00    -0.501 C  
HETATM    2  C   UNL     1     -11.228  13.180  64.303  1.00  0.00    -0.422 C  
ENDROOT
BRANCH   2   3
HETATM    3  C   UNL     1     -12.214  12.639  65.350  1.00  0.00    -0.459 C  
BRANCH   3   4
HETATM    4  N   UNL     1     -12.239  13.302  66.673  1.00  0.00    -0.344 NA 
BRANCH   4   5
HETATM    5  C   UNL     1     -11.805  12.374  67.742  1.00  0.00    -0.298 C  
BRANCH   5   6
HETATM    6  C   UNL     1     -10.376  11.814  67.615  1.00  0.00    -0.219 C  
HETATM    7  C   UNL     1     -10.332  10.312  67.378  1.00  0.00    -0.282 C  
ENDBRANCH   5   6
ENDBRANCH   4   5
BRANCH   4   8
HETATM    8  C   UNL     1     -11.377  14.512  66.647  1.00  0.00    -0.356 C  
BRANCH   8   9
HETATM    9  C   UNL     1     -11.380  15.393  67.917  1.00  0.00    -0.328 C  
BRANCH   9  10
HETATM   10  C   UNL     1     -10.039  15.975  68.287  1.00  0.00    -0.229 A  
HETATM   11  C   UNL     1      -9.741  17.324  68.129  1.00  0.00    -0.284 A  
HETATM   12  C   UNL     1     -10.583  18.455  67.607  1.00  0.00    -0.437 C  
HETATM   13  C   UNL     1      -9.640  19.654  67.723  1.00  0.00    -0.354 C  
HETATM   14  N   UNL     1      -8.437  19.189  68.239  1.00  0.00    -0.319 N  
HETATM   15  O   UNL     1      -9.887  20.809  67.417  1.00  0.00    -0.464 OA 
HETATM   16  H   UNL     1      -7.623  19.776  68.419  1.00  0.00     0.000 HD 
HETATM   17  C   UNL     1      -8.484  17.824  68.476  1.00  0.00    -0.296 A  
HETATM   18  C   UNL     1      -7.477  17.035  68.983  1.00  0.00    -0.211 A  
HETATM   19  C   UNL     1      -7.752  15.678  69.137  1.00  0.00    -0.212 A  
HETATM   20  C   UNL     1      -9.012  15.153  68.790  1.00  0.00    -0.197 A  
ENDBRANCH   9  10
ENDBRANCH   8   9
ENDBRANCH   4   8
ENDBRANCH   3   4
ENDBRANCH   2   3
TORSDOF 7
ENDMDL
MODEL      115
REMARK 921   NORMALIZED FREE ENERGY PREDICTED BY IDOCK:   -4.40 KCAL/MOL
REMARK 922        TOTAL FREE ENERGY PREDICTED BY IDOCK:   -7.08 KCAL/MOL
REMARK 923 INTER-LIGAND FREE ENERGY PREDICTED BY IDOCK:   -5.72 KCAL/MOL
REMARK 924 INTRA-LIGAND FREE ENERGY PREDICTED BY IDOCK:   -1.36 KCAL/MOL
REMARK 927      BINDING AFFINITY PREDICTED BY RF-SCORE:    0.00 PKD
ROOT
HETATM    1  C   UNL     1      -9.315  10.328  65.233  1.00  0.00    -0.267 C  
HETATM    2  C   UNL     1     -10.394  10.001  66.252  1.00  0.00    -0.235 C  
ENDROOT
BRANCH   2   3
HETATM    3  C   UNL     1     -10.136  10.593  67.646  1.00  0.00    -0.177 C  
BRANCH   3   4
HETATM    4  N   UNL     1     -10.244  12.062  67.797  1.00  0.00    -0.198 NA 
BRANCH   4   5
HETATM    5  C   UNL     1     -11.355  12.424  68.706  1.00  0.00    -0.293 C  
BRANCH   5   6
HETATM    6  C   UNL     1     -12.011  13.796  68.460  1.00  0.00    -0.402 C  
HETATM    7  C   UNL     1     -11.667  14.833  69.519  1.00  0.00    -0.358 C  
ENDBRANCH   5   6
ENDBRANCH   4   5
BRANCH   4   8
HETATM    8  C   UNL     1      -8.957  12.613  68.294  1.00  0.00    -0.176 C  
BRANCH   8   9
HETATM    9  C   UNL     1      -8.196  13.565  67.342  1.00  0.00    -0.187 C  
BRANCH   9  10
HETATM   10  C   UNL     1      -8.502  15.029  67.532  1.00  0.00    -0.188 A  
HETATM   11  C   UNL     1      -9.354  15.729  66.686  1.00  0.00    -0.284 A  
HETATM   12  C   UNL     1     -10.127  15.271  65.480  1.00  0.00    -0.408 C  
HETATM   13  C   UNL     1     -10.856  16.545  65.047  1.00  0.00    -0.229 C  
HETATM   14  N   UNL     1     -10.490  17.553  65.928  1.00  0.00    -0.324 N  
HETATM   15  O   UNL     1     -11.617  16.663  64.101  1.00  0.00    -1.102 OA 
HETATM   16  H   UNL     1     -10.828  18.514  65.875  1.00  0.00     0.000 HD 
HETATM   17  C   UNL     1      -9.607  17.088  66.890  1.00  0.00    -0.257 A  
HETATM   18  C   UNL     1      -9.041  17.810  67.916  1.00  0.00    -0.259 A  
HETATM   19  C   UNL     1      -8.175  17.128  68.768  1.00  0.00    -0.238 A  
HETATM   20  C   UNL     1      -7.905  15.759  68.577  1.00  0.00    -0.139 A  
ENDBRANCH   9  10
ENDBRANCH   8   9
ENDBRANCH   4   8
ENDBRANCH   3   4
ENDBRANCH   2   3
TORSDOF 7
ENDMDL
MODEL      116
REMARK 921   NORMALIZED FREE ENERGY PREDICTED BY IDOCK:   -4.39 KCAL/MOL
REMARK 922        TOTAL FREE ENERGY PREDICTED BY IDOCK:   -7.08 KCAL/MOL
REMARK 923 INTER-LIGAND FREE ENERGY PREDICTED BY IDOCK:   -6.41 KCAL/MOL
REMARK 924 INTRA-LIGAND FREE ENERGY PREDICTED BY IDOCK:   -0.66 KCAL/MOL
REMARK 927      BINDING AFFINITY PREDICTED BY RF-SCORE:    0.00 PKD
ROOT
HETATM    1  C   UNL     1     -11.004   6.137  67.829  1.00  0.00    -0.400 C  
HETATM    2  C   UNL     1     -10.477   7.448  67.268  1.00  0.00    -0.385 C  
ENDROOT
BRANCH   2   3
HETATM    3  C   UNL     1      -9.616   8.249  68.257  1.00  0.00    -0.147 C  
BRANCH   3   4
HETATM    4  N   UNL     1     -10.090   9.598  68.641  1.00  0.00    -0.172 NA 
BRANCH   4   5
HETATM    5  C   UNL     1     -10.108   9.758  70.112  1.00  0.00    -0.265 C  
BRANCH   5   6
HETATM    6  C   UNL     1     -11.493   9.698  70.783  1.00  0.00    -0.399 C  
HETATM    7  C   UNL     1     -12.285  10.991  70.660  1.00  0.00    -0.481 C  
ENDBRANCH   5   6
ENDBRANCH   4   5
BRANCH   4   8
HETATM    8  C   UNL     1      -9.229  10.632  68.010  1.00  0.00    -0.148 C  
BRANCH   8   9
HETATM    9  C   UNL     1      -9.843  12.042  67.850  1.00  0.00    -0.196 C  
BRANCH   9  10
HETATM   10  C   UNL     1     -10.310  12.375  66.455  1.00  0.00    -0.248 A  
HETATM   11  C   UNL     1     -10.329  13.676  65.966  1.00  0.00    -0.305 A  
HETATM   12  C   UNL     1      -9.930  14.971  66.617  1.00  0.00    -0.266 C  
HETATM   13  C   UNL     1     -10.196  15.996  65.513  1.00  0.00    -0.360 C  
HETATM   14  N   UNL     1     -10.690  15.305  64.414  1.00  0.00    -0.525 N  
HETATM   15  O   UNL     1     -10.015  17.200  65.577  1.00  0.00    -0.565 OA 
HETATM   16  H   UNL     1     -10.956  15.742  63.532  1.00  0.00     0.000 HD 
HETATM   17  C   UNL     1     -10.777  13.946  64.671  1.00  0.00    -0.407 A  
HETATM   18  C   UNL     1     -11.221  12.966  63.812  1.00  0.00    -0.452 A  
HETATM   19  C   UNL     1     -11.220  11.657  64.288  1.00  0.00    -0.392 A  
HETATM   20  C   UNL     1     -10.776  11.365  65.592  1.00  0.00    -0.301 A  
ENDBRANCH   9  10
ENDBRANCH   8   9
ENDBRANCH   4   8
ENDBRANCH   3   4
ENDBRANCH   2   3
TORSDOF 7
ENDMDL
MODEL      117
REMARK 921   NORMALIZED FREE ENERGY PREDICTED BY IDOCK:   -4.39 KCAL/MOL
REMARK 922        TOTAL FREE ENERGY PREDICTED BY IDOCK:   -7.07 KCAL/MOL
REMARK 923 INTER-LIGAND FREE ENERGY PREDICTED BY IDOCK:   -6.42 KCAL/MOL
REMARK 924 INTRA-LIGAND FREE ENERGY PREDICTED BY IDOCK:   -0.65 KCAL/MOL
REMARK 927      BINDING AFFINITY PREDICTED BY RF-SCORE:    0.00 PKD
ROOT
HETATM    1  C   UNL     1     -11.632   8.824  71.935  1.00  0.00    -0.432 C  
HETATM    2  C   UNL     1     -10.953   9.494  70.751  1.00  0.00    -0.389 C  
ENDROOT
BRANCH   2   3
HETATM    3  C   UNL     1      -9.835   8.654  70.115  1.00  0.00    -0.180 C  
BRANCH   3   4
HETATM    4  N   UNL     1      -9.965   8.316  68.680  1.00  0.00    -0.185 NA 
BRANCH   4   5
HETATM    5  C   UNL     1     -10.588   6.986  68.500  1.00  0.00    -0.202 C  
BRANCH   5   6
HETATM    6  C   UNL     1     -11.032   6.633  67.067  1.00  0.00    -0.463 C  
HETATM    7  C   UNL     1     -10.549   5.268  66.600  1.00  0.00    -0.334 C  
ENDBRANCH   5   6
ENDBRANCH   4   5
BRANCH   4   8
HETATM    8  C   UNL     1     -10.757   9.364  67.985  1.00  0.00    -0.190 C  
BRANCH   8   9
HETATM    9  C   UNL     1      -9.964  10.386  67.138  1.00  0.00    -0.239 C  
BRANCH   9  10
HETATM   10  C   UNL     1     -10.783  11.527  66.590  1.00  0.00    -0.311 A  
HETATM   11  C   UNL     1     -11.267  12.552  67.396  1.00  0.00    -0.344 A  
HETATM   12  C   UNL     1     -11.119  12.785  68.874  1.00  0.00    -0.310 C  
HETATM   13  C   UNL     1     -11.884  14.094  69.083  1.00  0.00    -0.341 C  
HETATM   14  N   UNL     1     -12.381  14.487  67.848  1.00  0.00    -0.599 N  
HETATM   15  O   UNL     1     -12.038  14.688  70.137  1.00  0.00    -0.289 OA 
HETATM   16  H   UNL     1     -12.935  15.329  67.693  1.00  0.00     0.000 HD 
HETATM   17  C   UNL     1     -12.029  13.588  66.853  1.00  0.00    -0.399 A  
HETATM   18  C   UNL     1     -12.350  13.663  65.516  1.00  0.00    -0.519 A  
HETATM   19  C   UNL     1     -11.885  12.638  64.695  1.00  0.00    -0.437 A  
HETATM   20  C   UNL     1     -11.117  11.583  65.224  1.00  0.00    -0.257 A  
ENDBRANCH   9  10
ENDBRANCH   8   9
ENDBRANCH   4   8
ENDBRANCH   3   4
ENDBRANCH   2   3
TORSDOF 7
ENDMDL
MODEL      118
REMARK 921   NORMALIZED FREE ENERGY PREDICTED BY IDOCK:   -4.38 KCAL/MOL
REMARK 922        TOTAL FREE ENERGY PREDICTED BY IDOCK:   -7.06 KCAL/MOL
REMARK 923 INTER-LIGAND FREE ENERGY PREDICTED BY IDOCK:   -5.94 KCAL/MOL
REMARK 924 INTRA-LIGAND FREE ENERGY PREDICTED BY IDOCK:   -1.12 KCAL/MOL
REMARK 927      BINDING AFFINITY PREDICTED BY RF-SCORE:    0.00 PKD
ROOT
HETATM    1  C   UNL     1     -10.367  19.637  67.009  1.00  0.00    -0.581 C  
HETATM    2  C   UNL     1     -10.297  18.212  67.536  1.00  0.00    -0.405 C  
ENDROOT
BRANCH   2   3
HETATM    3  C   UNL     1      -9.651  17.217  66.560  1.00  0.00    -0.279 C  
BRANCH   3   4
HETATM    4  N   UNL     1     -10.237  15.861  66.477  1.00  0.00    -0.279 NA 
BRANCH   4   5
HETATM    5  C   UNL     1     -11.023  15.694  65.234  1.00  0.00    -0.364 C  
BRANCH   5   6
HETATM    6  C   UNL     1     -11.213  14.247  64.741  1.00  0.00    -0.387 C  
HETATM    7  C   UNL     1     -12.413  13.547  65.360  1.00  0.00    -0.540 C  
ENDBRANCH   5   6
ENDBRANCH   4   5
BRANCH   4   8
HETATM    8  C   UNL     1      -9.160  14.840  66.558  1.00  0.00    -0.260 C  
BRANCH   8   9
HETATM    9  C   UNL     1      -8.911  14.204  67.945  1.00  0.00    -0.182 C  
BRANCH   9  10
HETATM   10  C   UNL     1     -10.057  13.384  68.481  1.00  0.00    -0.208 A  
HETATM   11  C   UNL     1     -10.297  12.078  68.070  1.00  0.00    -0.206 A  
HETATM   12  C   UNL     1      -9.558  11.212  67.087  1.00  0.00    -0.192 C  
HETATM   13  C   UNL     1     -10.353   9.905  67.131  1.00  0.00    -0.243 C  
HETATM   14  N   UNL     1     -11.395  10.082  68.031  1.00  0.00    -0.521 N  
HETATM   15  O   UNL     1     -10.123   8.891  66.493  1.00  0.00    -0.277 OA 
HETATM   16  H   UNL     1     -12.087   9.368  68.257  1.00  0.00     0.000 HD 
HETATM   17  C   UNL     1     -11.374  11.353  68.584  1.00  0.00    -0.265 A  
HETATM   18  C   UNL     1     -12.253  11.870  69.509  1.00  0.00    -0.197 A  
HETATM   19  C   UNL     1     -12.036  13.182  69.925  1.00  0.00    -0.387 A  
HETATM   20  C   UNL     1     -10.957  13.930  69.416  1.00  0.00    -0.169 A  
ENDBRANCH   9  10
ENDBRANCH   8   9
ENDBRANCH   4   8
ENDBRANCH   3   4
ENDBRANCH   2   3
TORSDOF 7
ENDMDL
MODEL      119
REMARK 921   NORMALIZED FREE ENERGY PREDICTED BY IDOCK:   -4.37 KCAL/MOL
REMARK 922        TOTAL FREE ENERGY PREDICTED BY IDOCK:   -7.04 KCAL/MOL
REMARK 923 INTER-LIGAND FREE ENERGY PREDICTED BY IDOCK:   -6.07 KCAL/MOL
REMARK 924 INTRA-LIGAND FREE ENERGY PREDICTED BY IDOCK:   -0.97 KCAL/MOL
REMARK 927      BINDING AFFINITY PREDICTED BY RF-SCORE:    0.00 PKD
ROOT
HETATM    1  C   UNL     1     -10.231  19.780  66.136  1.00  0.00    -0.618 C  
HETATM    2  C   UNL     1     -10.448  18.498  66.924  1.00  0.00    -0.434 C  
ENDROOT
BRANCH   2   3
HETATM    3  C   UNL     1     -10.823  17.287  66.057  1.00  0.00     0.011 C  
BRANCH   3   4
HETATM    4  N   UNL     1     -10.120  16.011  66.322  1.00  0.00    -0.293 NA 
BRANCH   4   5
HETATM    5  C   UNL     1      -8.657  16.166  66.168  1.00  0.00    -0.296 C  
BRANCH   5   6
HETATM    6  C   UNL     1      -7.810  15.889  67.424  1.00  0.00    -0.195 C  
HETATM    7  C   UNL     1      -7.153  17.134  68.001  1.00  0.00    -0.179 C  
ENDBRANCH   5   6
ENDBRANCH   4   5
BRANCH   4   8
HETATM    8  C   UNL     1     -10.456  15.526  67.686  1.00  0.00    -0.279 C  
BRANCH   8   9
HETATM    9  C   UNL     1     -11.088  14.118  67.785  1.00  0.00    -0.292 C  
BRANCH   9  10
HETATM   10  C   UNL     1     -10.434  13.068  66.922  1.00  0.00    -0.258 A  
HETATM   11  C   UNL     1     -11.040  12.559  65.780  1.00  0.00    -0.343 A  
HETATM   12  C   UNL     1     -12.368  12.880  65.151  1.00  0.00    -0.547 C  
HETATM   13  C   UNL     1     -12.386  11.967  63.924  1.00  0.00    -0.450 C  
HETATM   14  N   UNL     1     -11.199  11.245  63.924  1.00  0.00    -0.486 N  
HETATM   15  O   UNL     1     -13.275  11.880  63.093  1.00  0.00    -0.539 OA 
HETATM   16  H   UNL     1     -10.945  10.556  63.217  1.00  0.00     0.000 HD 
HETATM   17  C   UNL     1     -10.406  11.581  65.010  1.00  0.00    -0.281 A  
HETATM   18  C   UNL     1      -9.169  11.065  65.324  1.00  0.00    -0.229 A  
HETATM   19  C   UNL     1      -8.551  11.554  66.473  1.00  0.00    -0.172 A  
HETATM   20  C   UNL     1      -9.175  12.538  67.264  1.00  0.00    -0.190 A  
ENDBRANCH   9  10
ENDBRANCH   8   9
ENDBRANCH   4   8
ENDBRANCH   3   4
ENDBRANCH   2   3
TORSDOF 7
ENDMDL
MODEL      120
REMARK 921   NORMALIZED FREE ENERGY PREDICTED BY IDOCK:   -4.36 KCAL/MOL
REMARK 922        TOTAL FREE ENERGY PREDICTED BY IDOCK:   -7.03 KCAL/MOL
REMARK 923 INTER-LIGAND FREE ENERGY PREDICTED BY IDOCK:   -6.19 KCAL/MOL
REMARK 924 INTRA-LIGAND FREE ENERGY PREDICTED BY IDOCK:   -0.84 KCAL/MOL
REMARK 927      BINDING AFFINITY PREDICTED BY RF-SCORE:    0.00 PKD
ROOT
HETATM    1  C   UNL     1      -7.701  17.916  66.335  1.00  0.00    -0.311 C  
HETATM    2  C   UNL     1      -8.190  16.754  67.185  1.00  0.00    -0.210 C  
ENDROOT
BRANCH   2   3
HETATM    3  C   UNL     1      -8.815  15.608  66.375  1.00  0.00    -0.330 C  
BRANCH   3   4
HETATM    4  N   UNL     1     -10.258  15.340  66.569  1.00  0.00    -0.266 NA 
BRANCH   4   5
HETATM    5  C   UNL     1     -10.858  16.310  67.512  1.00  0.00    -0.268 C  
BRANCH   5   6
HETATM    6  C   UNL     1     -11.452  15.721  68.805  1.00  0.00    -0.391 C  
HETATM    7  C   UNL     1     -10.505  15.786  69.993  1.00  0.00    -0.313 C  
ENDBRANCH   5   6
ENDBRANCH   4   5
BRANCH   4   8
HETATM    8  C   UNL     1     -10.958  15.379  65.259  1.00  0.00    -0.387 C  
BRANCH   8   9
HETATM    9  C   UNL     1     -11.880  14.183  64.929  1.00  0.00    -0.407 C  
BRANCH   9  10
HETATM   10  C   UNL     1     -11.216  12.831  65.004  1.00  0.00    -0.333 A  
HETATM   11  C   UNL     1     -11.223  12.060  66.161  1.00  0.00    -0.394 A  
HETATM   12  C   UNL     1     -11.833  12.327  67.510  1.00  0.00    -0.331 C  
HETATM   13  C   UNL     1     -11.471  11.064  68.295  1.00  0.00    -0.304 C  
HETATM   14  N   UNL     1     -10.745  10.240  67.445  1.00  0.00    -0.275 N  
HETATM   15  O   UNL     1     -11.760  10.819  69.454  1.00  0.00    -0.277 OA 
HETATM   16  H   UNL     1     -10.373   9.327  67.709  1.00  0.00     0.000 HD 
HETATM   17  C   UNL     1     -10.590  10.816  66.195  1.00  0.00    -0.175 A  
HETATM   18  C   UNL     1      -9.928  10.282  65.112  1.00  0.00    -0.395 A  
HETATM   19  C   UNL     1      -9.899  11.046  63.947  1.00  0.00    -0.368 A  
HETATM   20  C   UNL     1     -10.529  12.304  63.894  1.00  0.00    -0.458 A  
ENDBRANCH   9  10
ENDBRANCH   8   9
ENDBRANCH   4   8
ENDBRANCH   3   4
ENDBRANCH   2   3
TORSDOF 7
ENDMDL
MODEL      121
REMARK 921   NORMALIZED FREE ENERGY PREDICTED BY IDOCK:   -4.36 KCAL/MOL
REMARK 922        TOTAL FREE ENERGY PREDICTED BY IDOCK:   -7.02 KCAL/MOL
REMARK 923 INTER-LIGAND FREE ENERGY PREDICTED BY IDOCK:   -5.98 KCAL/MOL
REMARK 924 INTRA-LIGAND FREE ENERGY PREDICTED BY IDOCK:   -1.04 KCAL/MOL
REMARK 927      BINDING AFFINITY PREDICTED BY RF-SCORE:    0.00 PKD
ROOT
HETATM    1  C   UNL     1     -12.513  13.909  70.898  1.00  0.00    -0.447 C  
HETATM    2  C   UNL     1     -12.440  15.343  70.400  1.00  0.00    -0.447 C  
ENDROOT
BRANCH   2   3
HETATM    3  C   UNL     1     -11.024  15.938  70.414  1.00  0.00    -0.350 C  
BRANCH   3   4
HETATM    4  N   UNL     1     -10.293  15.998  69.129  1.00  0.00    -0.230 NA 
BRANCH   4   5
HETATM    5  C   UNL     1      -9.297  14.908  69.030  1.00  0.00    -0.179 C  
BRANCH   5   6
HETATM    6  C   UNL     1      -9.768  13.621  68.327  1.00  0.00    -0.231 C  
HETATM    7  C   UNL     1      -8.919  13.241  67.123  1.00  0.00    -0.229 C  
ENDBRANCH   5   6
ENDBRANCH   4   5
BRANCH   4   8
HETATM    8  C   UNL     1     -11.256  15.933  67.999  1.00  0.00    -0.319 C  
BRANCH   8   9
HETATM    9  C   UNL     1     -10.789  16.536  66.654  1.00  0.00    -0.053 C  
BRANCH   9  10
HETATM   10  C   UNL     1     -10.035  17.836  66.771  1.00  0.00    -0.333 A  
HETATM   11  C   UNL     1      -8.658  17.917  66.597  1.00  0.00    -0.283 A  
HETATM   12  C   UNL     1      -7.649  16.850  66.274  1.00  0.00    -0.312 C  
HETATM   13  C   UNL     1      -6.337  17.636  66.218  1.00  0.00    -0.244 C  
HETATM   14  N   UNL     1      -6.637  18.964  66.493  1.00  0.00    -0.190 N  
HETATM   15  O   UNL     1      -5.228  17.188  65.981  1.00  0.00    -0.344 OA 
HETATM   16  H   UNL     1      -5.946  19.715  66.523  1.00  0.00     0.000 HD 
HETATM   17  C   UNL     1      -7.992  19.139  66.721  1.00  0.00    -0.269 A  
HETATM   18  C   UNL     1      -8.638  20.317  67.020  1.00  0.00    -0.398 A  
HETATM   19  C   UNL     1     -10.017  20.254  67.209  1.00  0.00    -0.580 A  
HETATM   20  C   UNL     1     -10.705  19.031  67.092  1.00  0.00    -0.541 A  
ENDBRANCH   9  10
ENDBRANCH   8   9
ENDBRANCH   4   8
ENDBRANCH   3   4
ENDBRANCH   2   3
TORSDOF 7
ENDMDL
MODEL      122
REMARK 921   NORMALIZED FREE ENERGY PREDICTED BY IDOCK:   -4.35 KCAL/MOL
REMARK 922        TOTAL FREE ENERGY PREDICTED BY IDOCK:   -7.02 KCAL/MOL
REMARK 923 INTER-LIGAND FREE ENERGY PREDICTED BY IDOCK:   -5.89 KCAL/MOL
REMARK 924 INTRA-LIGAND FREE ENERGY PREDICTED BY IDOCK:   -1.13 KCAL/MOL
REMARK 927      BINDING AFFINITY PREDICTED BY RF-SCORE:    0.00 PKD
ROOT
HETATM    1  C   UNL     1      -8.134  12.975  68.432  1.00  0.00    -0.131 C  
HETATM    2  C   UNL     1      -8.880  11.799  67.821  1.00  0.00    -0.163 C  
ENDROOT
BRANCH   2   3
HETATM    3  C   UNL     1      -8.821  11.751  66.287  1.00  0.00    -0.142 C  
BRANCH   3   4
HETATM    4  N   UNL     1     -10.106  11.765  65.552  1.00  0.00    -0.240 NA 
BRANCH   4   5
HETATM    5  C   UNL     1     -10.268  10.539  64.739  1.00  0.00    -0.303 C  
BRANCH   5   6
HETATM    6  C   UNL     1     -10.203  10.725  63.211  1.00  0.00    -0.243 C  
HETATM    7  C   UNL     1      -8.802  11.013  62.693  1.00  0.00    -0.334 C  
ENDBRANCH   5   6
ENDBRANCH   4   5
BRANCH   4   8
HETATM    8  C   UNL     1     -11.232  11.912  66.509  1.00  0.00    -0.327 C  
BRANCH   8   9
HETATM    9  C   UNL     1     -12.018  13.243  66.456  1.00  0.00    -0.448 C  
BRANCH   9  10
HETATM   10  C   UNL     1     -11.686  14.220  67.555  1.00  0.00    -0.415 A  
HETATM   11  C   UNL     1     -11.011  15.412  67.315  1.00  0.00    -0.317 A  
HETATM   12  C   UNL     1     -10.488  15.997  66.032  1.00  0.00    -0.356 C  
HETATM   13  C   UNL     1      -9.874  17.320  66.495  1.00  0.00    -0.298 C  
HETATM   14  N   UNL     1     -10.053  17.403  67.870  1.00  0.00    -0.309 N  
HETATM   15  O   UNL     1      -9.324  18.153  65.794  1.00  0.00    -0.476 OA 
HETATM   16  H   UNL     1      -9.738  18.184  68.444  1.00  0.00     0.000 HD 
HETATM   17  C   UNL     1     -10.714  16.288  68.361  1.00  0.00    -0.311 A  
HETATM   18  C   UNL     1     -11.057  16.036  69.670  1.00  0.00    -0.331 A  
HETATM   19  C   UNL     1     -11.722  14.841  69.933  1.00  0.00    -0.352 A  
HETATM   20  C   UNL     1     -12.029  13.943  68.892  1.00  0.00    -0.393 A  
ENDBRANCH   9  10
ENDBRANCH   8   9
ENDBRANCH   4   8
ENDBRANCH   3   4
ENDBRANCH   2   3
TORSDOF 7
ENDMDL
MODEL      123
REMARK 921   NORMALIZED FREE ENERGY PREDICTED BY IDOCK:   -4.35 KCAL/MOL
REMARK 922        TOTAL FREE ENERGY PREDICTED BY IDOCK:   -7.02 KCAL/MOL
REMARK 923 INTER-LIGAND FREE ENERGY PREDICTED BY IDOCK:   -6.49 KCAL/MOL
REMARK 924 INTRA-LIGAND FREE ENERGY PREDICTED BY IDOCK:   -0.52 KCAL/MOL
REMARK 927      BINDING AFFINITY PREDICTED BY RF-SCORE:    0.00 PKD
ROOT
HETATM    1  C   UNL     1     -10.210   5.721  67.895  1.00  0.00    -0.231 C  
HETATM    2  C   UNL     1     -11.007   6.317  69.044  1.00  0.00    -0.437 C  
ENDROOT
BRANCH   2   3
HETATM    3  C   UNL     1     -10.362   7.563  69.671  1.00  0.00    -0.225 C  
BRANCH   3   4
HETATM    4  N   UNL     1     -11.266   8.599  70.220  1.00  0.00    -0.226 NA 
BRANCH   4   5
HETATM    5  C   UNL     1     -11.238   8.602  71.699  1.00  0.00    -0.309 C  
BRANCH   5   6
HETATM    6  C   UNL     1     -12.515   8.106  72.403  1.00  0.00    -0.309 C  
HETATM    7  C   UNL     1     -13.691   9.062  72.274  1.00  0.00    -0.550 C  
ENDBRANCH   5   6
ENDBRANCH   4   5
BRANCH   4   8
HETATM    8  C   UNL     1     -10.888   9.932  69.684  1.00  0.00    -0.253 C  
BRANCH   8   9
HETATM    9  C   UNL     1     -11.948  11.051  69.797  1.00  0.00    -0.428 C  
BRANCH   9  10
HETATM   10  C   UNL     1     -11.768  12.195  68.831  1.00  0.00    -0.381 A  
HETATM   11  C   UNL     1     -11.713  13.521  69.246  1.00  0.00    -0.382 A  
HETATM   12  C   UNL     1     -11.803  14.118  70.624  1.00  0.00    -0.333 C  
HETATM   13  C   UNL     1     -11.656  15.615  70.348  1.00  0.00    -0.349 C  
HETATM   14  N   UNL     1     -11.516  15.774  68.975  1.00  0.00    -0.367 N  
HETATM   15  O   UNL     1     -11.664  16.513  71.174  1.00  0.00    -0.297 OA 
HETATM   16  H   UNL     1     -11.401  16.674  68.510  1.00  0.00     0.000 HD 
HETATM   17  C   UNL     1     -11.552  14.554  68.320  1.00  0.00    -0.329 A  
HETATM   18  C   UNL     1     -11.443  14.336  66.965  1.00  0.00    -0.377 A  
HETATM   19  C   UNL     1     -11.508  13.014  66.528  1.00  0.00    -0.385 A  
HETATM   20  C   UNL     1     -11.673  11.959  67.446  1.00  0.00    -0.326 A  
ENDBRANCH   9  10
ENDBRANCH   8   9
ENDBRANCH   4   8
ENDBRANCH   3   4
ENDBRANCH   2   3
TORSDOF 7
ENDMDL
MODEL      124
REMARK 921   NORMALIZED FREE ENERGY PREDICTED BY IDOCK:   -4.34 KCAL/MOL
REMARK 922        TOTAL FREE ENERGY PREDICTED BY IDOCK:   -7.00 KCAL/MOL
REMARK 923 INTER-LIGAND FREE ENERGY PREDICTED BY IDOCK:   -6.32 KCAL/MOL
REMARK 924 INTRA-LIGAND FREE ENERGY PREDICTED BY IDOCK:   -0.68 KCAL/MOL
REMARK 927      BINDING AFFINITY PREDICTED BY RF-SCORE:    0.00 PKD
ROOT
HETATM    1  C   UNL     1     -11.880  14.947  64.648  1.00  0.00    -0.412 C  
HETATM    2  C   UNL     1     -10.606  14.124  64.748  1.00  0.00    -0.439 C  
ENDROOT
BRANCH   2   3
HETATM    3  C   UNL     1     -10.262  13.676  66.177  1.00  0.00    -0.304 C  
BRANCH   3   4
HETATM    4  N   UNL     1     -10.481  14.650  67.270  1.00  0.00    -0.264 NA 
BRANCH   4   5
HETATM    5  C   UNL     1     -11.334  14.075  68.334  1.00  0.00    -0.291 C  
BRANCH   5   6
HETATM    6  C   UNL     1     -11.794  12.620  68.122  1.00  0.00    -0.366 C  
HETATM    7  C   UNL     1     -11.739  11.775  69.385  1.00  0.00    -0.405 C  
ENDBRANCH   5   6
ENDBRANCH   4   5
BRANCH   4   8
HETATM    8  C   UNL     1      -9.173  15.086  67.825  1.00  0.00    -0.181 C  
BRANCH   8   9
HETATM    9  C   UNL     1      -9.209  16.208  68.888  1.00  0.00    -0.234 C  
BRANCH   9  10
HETATM   10  C   UNL     1      -8.559  17.501  68.466  1.00  0.00    -0.276 A  
HETATM   11  C   UNL     1      -9.122  18.344  67.515  1.00  0.00    -0.278 A  
HETATM   12  C   UNL     1     -10.399  18.218  66.731  1.00  0.00    -0.403 C  
HETATM   13  C   UNL     1     -10.400  19.494  65.888  1.00  0.00    -0.470 C  
HETATM   14  N   UNL     1      -9.243  20.198  66.196  1.00  0.00    -0.590 N  
HETATM   15  O   UNL     1     -11.254  19.838  65.087  1.00  0.00    -0.296 OA 
HETATM   16  H   UNL     1      -8.985  21.091  65.777  1.00  0.00     0.000 HD 
HETATM   17  C   UNL     1      -8.485  19.531  67.145  1.00  0.00    -0.295 A  
HETATM   18  C   UNL     1      -7.283  19.935  67.681  1.00  0.00    -0.312 A  
HETATM   19  C   UNL     1      -6.697  19.098  68.627  1.00  0.00    -0.312 A  
HETATM   20  C   UNL     1      -7.322  17.896  69.011  1.00  0.00    -0.194 A  
ENDBRANCH   9  10
ENDBRANCH   8   9
ENDBRANCH   4   8
ENDBRANCH   3   4
ENDBRANCH   2   3
TORSDOF 7
ENDMDL
MODEL      125
REMARK 921   NORMALIZED FREE ENERGY PREDICTED BY IDOCK:   -4.33 KCAL/MOL
REMARK 922        TOTAL FREE ENERGY PREDICTED BY IDOCK:   -6.99 KCAL/MOL
REMARK 923 INTER-LIGAND FREE ENERGY PREDICTED BY IDOCK:   -6.28 KCAL/MOL
REMARK 924 INTRA-LIGAND FREE ENERGY PREDICTED BY IDOCK:   -0.71 KCAL/MOL
REMARK 927      BINDING AFFINITY PREDICTED BY RF-SCORE:    0.00 PKD
ROOT
HETATM    1  C   UNL     1     -10.432  15.529  65.152  1.00  0.00    -0.431 C  
HETATM    2  C   UNL     1     -11.521  14.478  65.300  1.00  0.00    -0.355 C  
ENDROOT
BRANCH   2   3
HETATM    3  C   UNL     1     -12.045  14.319  66.736  1.00  0.00    -0.417 C  
BRANCH   3   4
HETATM    4  N   UNL     1     -11.107  14.607  67.843  1.00  0.00    -0.280 NA 
BRANCH   4   5
HETATM    5  C   UNL     1     -11.615  15.699  68.703  1.00  0.00    -0.382 C  
BRANCH   5   6
HETATM    6  C   UNL     1     -11.561  15.446  70.222  1.00  0.00    -0.346 C  
HETATM    7  C   UNL     1     -12.925  15.494  70.895  1.00  0.00    -0.526 C  
ENDBRANCH   5   6
ENDBRANCH   4   5
BRANCH   4   8
HETATM    8  C   UNL     1     -10.876  13.374  68.640  1.00  0.00    -0.263 C  
BRANCH   8   9
HETATM    9  C   UNL     1     -11.907  12.235  68.471  1.00  0.00    -0.359 C  
BRANCH   9  10
HETATM   10  C   UNL     1     -11.599  10.981  69.249  1.00  0.00    -0.384 A  
HETATM   11  C   UNL     1     -11.007   9.867  68.664  1.00  0.00    -0.222 A  
HETATM   12  C   UNL     1     -10.554   9.631  67.250  1.00  0.00    -0.315 C  
HETATM   13  C   UNL     1      -9.990   8.210  67.313  1.00  0.00    -0.218 C  
HETATM   14  N   UNL     1     -10.145   7.759  68.617  1.00  0.00    -0.194 N  
HETATM   15  O   UNL     1      -9.496   7.580  66.393  1.00  0.00    -0.184 OA 
HETATM   16  H   UNL     1      -9.855   6.837  68.945  1.00  0.00     0.000 HD 
HETATM   17  C   UNL     1     -10.744   8.720  69.416  1.00  0.00    -0.169 A  
HETATM   18  C   UNL     1     -11.049   8.615  70.754  1.00  0.00    -0.295 A  
HETATM   19  C   UNL     1     -11.654   9.716  71.355  1.00  0.00    -0.472 A  
HETATM   20  C   UNL     1     -11.930  10.881  70.614  1.00  0.00    -0.467 A  
ENDBRANCH   9  10
ENDBRANCH   8   9
ENDBRANCH   4   8
ENDBRANCH   3   4
ENDBRANCH   2   3
TORSDOF 7
ENDMDL
MODEL      126
REMARK 921   NORMALIZED FREE ENERGY PREDICTED BY IDOCK:   -4.32 KCAL/MOL
REMARK 922        TOTAL FREE ENERGY PREDICTED BY IDOCK:   -6.98 KCAL/MOL
REMARK 923 INTER-LIGAND FREE ENERGY PREDICTED BY IDOCK:   -5.79 KCAL/MOL
REMARK 924 INTRA-LIGAND FREE ENERGY PREDICTED BY IDOCK:   -1.19 KCAL/MOL
REMARK 927      BINDING AFFINITY PREDICTED BY RF-SCORE:    0.00 PKD
ROOT
HETATM    1  C   UNL     1      -9.745  20.591  67.256  1.00  0.00    -0.600 C  
HETATM    2  C   UNL     1     -10.332  19.292  67.785  1.00  0.00    -0.531 C  
ENDROOT
BRANCH   2   3
HETATM    3  C   UNL     1      -9.368  18.097  67.716  1.00  0.00    -0.267 C  
BRANCH   3   4
HETATM    4  N   UNL     1      -9.960  16.742  67.653  1.00  0.00    -0.256 NA 
BRANCH   4   5
HETATM    5  C   UNL     1     -11.132  16.630  68.549  1.00  0.00    -0.301 C  
BRANCH   5   6
HETATM    6  C   UNL     1     -10.876  15.982  69.923  1.00  0.00    -0.351 C  
HETATM    7  C   UNL     1     -11.641  14.684  70.134  1.00  0.00    -0.336 C  
ENDBRANCH   5   6
ENDBRANCH   4   5
BRANCH   4   8
HETATM    8  C   UNL     1     -10.338  16.423  66.252  1.00  0.00    -0.329 C  
BRANCH   8   9
HETATM    9  C   UNL     1      -9.860  15.061  65.698  1.00  0.00    -0.380 C  
BRANCH   9  10
HETATM   10  C   UNL     1     -10.143  13.879  66.591  1.00  0.00    -0.273 A  
HETATM   11  C   UNL     1      -9.176  13.323  67.421  1.00  0.00    -0.216 A  
HETATM   12  C   UNL     1      -7.738  13.705  67.639  1.00  0.00    -0.184 C  
HETATM   13  C   UNL     1      -7.277  12.687  68.684  1.00  0.00    -0.108 C  
HETATM   14  N   UNL     1      -8.358  11.862  68.966  1.00  0.00    -0.362 N  
HETATM   15  O   UNL     1      -6.166  12.605  69.181  1.00  0.00    -0.084 OA 
HETATM   16  H   UNL     1      -8.333  11.089  69.631  1.00  0.00     0.000 HD 
HETATM   17  C   UNL     1      -9.474  12.223  68.228  1.00  0.00    -0.209 A  
HETATM   18  C   UNL     1     -10.714  11.626  68.254  1.00  0.00    -0.246 A  
HETATM   19  C   UNL     1     -11.693  12.162  67.420  1.00  0.00    -0.374 A  
HETATM   20  C   UNL     1     -11.411  13.269  66.597  1.00  0.00    -0.384 A  
ENDBRANCH   9  10
ENDBRANCH   8   9
ENDBRANCH   4   8
ENDBRANCH   3   4
ENDBRANCH   2   3
TORSDOF 7
ENDMDL
MODEL      127
REMARK 921   NORMALIZED FREE ENERGY PREDICTED BY IDOCK:   -4.32 KCAL/MOL
REMARK 922        TOTAL FREE ENERGY PREDICTED BY IDOCK:   -6.97 KCAL/MOL
REMARK 923 INTER-LIGAND FREE ENERGY PREDICTED BY IDOCK:   -6.30 KCAL/MOL
REMARK 924 INTRA-LIGAND FREE ENERGY PREDICTED BY IDOCK:   -0.68 KCAL/MOL
REMARK 927      BINDING AFFINITY PREDICTED BY RF-SCORE:    0.00 PKD
ROOT
HETATM    1  C   UNL     1      -6.710  19.432  69.380  1.00  0.00    -0.354 C  
HETATM    2  C   UNL     1      -7.447  18.739  68.245  1.00  0.00    -0.300 C  
ENDROOT
BRANCH   2   3
HETATM    3  C   UNL     1      -8.945  18.523  68.513  1.00  0.00    -0.323 C  
BRANCH   3   4
HETATM    4  N   UNL     1      -9.510  17.190  68.206  1.00  0.00    -0.267 NA 
BRANCH   4   5
HETATM    5  C   UNL     1     -10.745  16.943  68.983  1.00  0.00    -0.308 C  
BRANCH   5   6
HETATM    6  C   UNL     1     -10.682  15.796  70.009  1.00  0.00    -0.347 C  
HETATM    7  C   UNL     1     -11.896  15.732  70.924  1.00  0.00    -0.451 C  
ENDBRANCH   5   6
ENDBRANCH   4   5
BRANCH   4   8
HETATM    8  C   UNL     1      -9.775  17.079  66.748  1.00  0.00    -0.269 C  
BRANCH   8   9
HETATM    9  C   UNL     1      -9.251  15.808  66.042  1.00  0.00    -0.379 C  
BRANCH   9  10
HETATM   10  C   UNL     1     -10.302  14.767  65.750  1.00  0.00    -0.358 A  
HETATM   11  C   UNL     1     -10.519  13.672  66.578  1.00  0.00    -0.281 A  
HETATM   12  C   UNL     1      -9.843  13.267  67.859  1.00  0.00    -0.234 C  
HETATM   13  C   UNL     1     -10.581  11.980  68.234  1.00  0.00    -0.212 C  
HETATM   14  N   UNL     1     -11.528  11.742  67.246  1.00  0.00    -0.316 N  
HETATM   15  O   UNL     1     -10.380  11.283  69.214  1.00  0.00    -0.176 OA 
HETATM   16  H   UNL     1     -12.165  10.945  67.241  1.00  0.00     0.000 HD 
HETATM   17  C   UNL     1     -11.497  12.724  66.270  1.00  0.00    -0.354 A  
HETATM   18  C   UNL     1     -12.292  12.805  65.149  1.00  0.00    -0.555 A  
HETATM   19  C   UNL     1     -12.082  13.889  64.299  1.00  0.00    -0.477 A  
HETATM   20  C   UNL     1     -11.098  14.854  64.592  1.00  0.00    -0.335 A  
ENDBRANCH   9  10
ENDBRANCH   8   9
ENDBRANCH   4   8
ENDBRANCH   3   4
ENDBRANCH   2   3
TORSDOF 7
ENDMDL
MODEL      128
REMARK 921   NORMALIZED FREE ENERGY PREDICTED BY IDOCK:   -4.32 KCAL/MOL
REMARK 922        TOTAL FREE ENERGY PREDICTED BY IDOCK:   -6.97 KCAL/MOL
REMARK 923 INTER-LIGAND FREE ENERGY PREDICTED BY IDOCK:   -6.31 KCAL/MOL
REMARK 924 INTRA-LIGAND FREE ENERGY PREDICTED BY IDOCK:   -0.66 KCAL/MOL
REMARK 927      BINDING AFFINITY PREDICTED BY RF-SCORE:    0.00 PKD
ROOT
HETATM    1  C   UNL     1      -8.526   9.958  64.001  1.00  0.00    -0.183 C  
HETATM    2  C   UNL     1      -9.029   9.264  65.257  1.00  0.00    -0.260 C  
ENDROOT
BRANCH   2   3
HETATM    3  C   UNL     1     -10.001  10.113  66.092  1.00  0.00    -0.246 C  
BRANCH   3   4
HETATM    4  N   UNL     1      -9.497  11.394  66.634  1.00  0.00    -0.185 NA 
BRANCH   4   5
HETATM    5  C   UNL     1     -10.400  12.513  66.284  1.00  0.00    -0.250 C  
BRANCH   5   6
HETATM    6  C   UNL     1     -11.729  12.126  65.608  1.00  0.00    -0.385 C  
HETATM    7  C   UNL     1     -12.577  13.323  65.205  1.00  0.00    -0.512 C  
ENDBRANCH   5   6
ENDBRANCH   4   5
BRANCH   4   8
HETATM    8  C   UNL     1      -9.338  11.289  68.108  1.00  0.00    -0.181 C  
BRANCH   8   9
HETATM    9  C   UNL     1     -10.581  10.838  68.909  1.00  0.00    -0.246 C  
BRANCH   9  10
HETATM   10  C   UNL     1     -10.293   9.881  70.039  1.00  0.00    -0.320 A  
HETATM   11  C   UNL     1     -11.266   9.492  70.953  1.00  0.00    -0.411 A  
HETATM   12  C   UNL     1     -12.718   9.870  71.055  1.00  0.00    -0.425 C  
HETATM   13  C   UNL     1     -13.185   9.073  72.275  1.00  0.00    -0.460 C  
HETATM   14  N   UNL     1     -12.089   8.367  72.755  1.00  0.00    -0.499 N  
HETATM   15  O   UNL     1     -14.309   9.056  72.748  1.00  0.00    -0.596 OA 
HETATM   16  H   UNL     1     -12.114   7.751  73.567  1.00  0.00     0.000 HD 
HETATM   17  C   UNL     1     -10.959   8.609  71.991  1.00  0.00    -0.362 A  
HETATM   18  C   UNL     1      -9.702   8.080  72.178  1.00  0.00    -0.283 A  
HETATM   19  C   UNL     1      -8.710   8.468  71.279  1.00  0.00    -0.228 A  
HETATM   20  C   UNL     1      -8.999   9.359  70.228  1.00  0.00    -0.277 A  
ENDBRANCH   9  10
ENDBRANCH   8   9
ENDBRANCH   4   8
ENDBRANCH   3   4
ENDBRANCH   2   3
TORSDOF 7
ENDMDL
MODEL      129
REMARK 921   NORMALIZED FREE ENERGY PREDICTED BY IDOCK:   -4.32 KCAL/MOL
REMARK 922        TOTAL FREE ENERGY PREDICTED BY IDOCK:   -6.97 KCAL/MOL
REMARK 923 INTER-LIGAND FREE ENERGY PREDICTED BY IDOCK:   -6.33 KCAL/MOL
REMARK 924 INTRA-LIGAND FREE ENERGY PREDICTED BY IDOCK:   -0.63 KCAL/MOL
REMARK 927      BINDING AFFINITY PREDICTED BY RF-SCORE:    0.00 PKD
ROOT
HETATM    1  C   UNL     1     -13.155   8.618  71.911  1.00  0.00    -0.409 C  
HETATM    2  C   UNL     1     -11.808   8.761  71.219  1.00  0.00    -0.358 C  
ENDROOT
BRANCH   2   3
HETATM    3  C   UNL     1     -11.409  10.215  70.925  1.00  0.00    -0.340 C  
BRANCH   3   4
HETATM    4  N   UNL     1     -12.419  11.087  70.286  1.00  0.00    -0.301 NA 
BRANCH   4   5
HETATM    5  C   UNL     1     -12.433  12.431  70.905  1.00  0.00    -0.274 C  
BRANCH   5   6
HETATM    6  C   UNL     1     -13.356  12.605  72.126  1.00  0.00    -0.570 C  
HETATM    7  C   UNL     1     -13.910  14.014  72.274  1.00  0.00    -0.655 C  
ENDBRANCH   5   6
ENDBRANCH   4   5
BRANCH   4   8
HETATM    8  C   UNL     1     -12.151  11.184  68.827  1.00  0.00    -0.162 C  
BRANCH   8   9
HETATM    9  C   UNL     1     -10.708  11.550  68.411  1.00  0.00    -0.241 C  
BRANCH   9  10
HETATM   10  C   UNL     1     -10.602  12.379  67.156  1.00  0.00    -0.247 A  
HETATM   11  C   UNL     1     -10.465  13.762  67.185  1.00  0.00    -0.272 A  
HETATM   12  C   UNL     1     -10.387  14.712  68.348  1.00  0.00    -0.237 C  
HETATM   13  C   UNL     1     -10.230  16.070  67.660  1.00  0.00    -0.262 C  
HETATM   14  N   UNL     1     -10.236  15.845  66.290  1.00  0.00    -0.294 N  
HETATM   15  O   UNL     1     -10.122  17.155  68.206  1.00  0.00    -0.279 OA 
HETATM   16  H   UNL     1     -10.148  16.578  65.587  1.00  0.00     0.000 HD 
HETATM   17  C   UNL     1     -10.378  14.497  66.000  1.00  0.00    -0.309 A  
HETATM   18  C   UNL     1     -10.424  13.917  64.753  1.00  0.00    -0.451 A  
HETATM   19  C   UNL     1     -10.573  12.532  64.703  1.00  0.00    -0.343 A  
HETATM   20  C   UNL     1     -10.666  11.774  65.886  1.00  0.00    -0.328 A  
ENDBRANCH   9  10
ENDBRANCH   8   9
ENDBRANCH   4   8
ENDBRANCH   3   4
ENDBRANCH   2   3
TORSDOF 7
ENDMDL
MODEL      130
REMARK 921   NORMALIZED FREE ENERGY PREDICTED BY IDOCK:   -4.32 KCAL/MOL
REMARK 922        TOTAL FREE ENERGY PREDICTED BY IDOCK:   -6.97 KCAL/MOL
REMARK 923 INTER-LIGAND FREE ENERGY PREDICTED BY IDOCK:   -6.16 KCAL/MOL
REMARK 924 INTRA-LIGAND FREE ENERGY PREDICTED BY IDOCK:   -0.80 KCAL/MOL
REMARK 927      BINDING AFFINITY PREDICTED BY RF-SCORE:    0.00 PKD
ROOT
HETATM    1  C   UNL     1     -11.591   8.299  71.908  1.00  0.00    -0.377 C  
HETATM    2  C   UNL     1     -11.386   9.645  71.231  1.00  0.00    -0.458 C  
ENDROOT
BRANCH   2   3
HETATM    3  C   UNL     1     -10.483   9.588  69.989  1.00  0.00    -0.247 C  
BRANCH   3   4
HETATM    4  N   UNL     1     -10.612  10.681  68.999  1.00  0.00    -0.205 NA 
BRANCH   4   5
HETATM    5  C   UNL     1     -10.852  10.144  67.641  1.00  0.00    -0.290 C  
BRANCH   5   6
HETATM    6  C   UNL     1      -9.631  10.101  66.704  1.00  0.00    -0.230 C  
HETATM    7  C   UNL     1      -9.022  11.469  66.435  1.00  0.00    -0.200 C  
ENDBRANCH   5   6
ENDBRANCH   4   5
BRANCH   4   8
HETATM    8  C   UNL     1     -11.708  11.599  69.403  1.00  0.00    -0.340 C  
BRANCH   8   9
HETATM    9  C   UNL     1     -12.132  12.669  68.370  1.00  0.00    -0.135 C  
BRANCH   9  10
HETATM   10  C   UNL     1     -11.621  14.059  68.653  1.00  0.00    -0.360 A  
HETATM   11  C   UNL     1     -11.306  14.958  67.640  1.00  0.00    -0.348 A  
HETATM   12  C   UNL     1     -11.382  14.811  66.145  1.00  0.00    -0.330 C  
HETATM   13  C   UNL     1     -10.900  16.177  65.651  1.00  0.00    -0.238 C  
HETATM   14  N   UNL     1     -10.598  16.942  66.771  1.00  0.00    -0.253 N  
HETATM   15  O   UNL     1     -10.793  16.537  64.491  1.00  0.00    -0.802 OA 
HETATM   16  H   UNL     1     -10.251  17.900  66.736  1.00  0.00     0.000 HD 
HETATM   17  C   UNL     1     -10.828  16.235  67.941  1.00  0.00    -0.330 A  
HETATM   18  C   UNL     1     -10.638  16.680  69.229  1.00  0.00    -0.343 A  
HETATM   19  C   UNL     1     -10.937  15.790  70.258  1.00  0.00    -0.368 A  
HETATM   20  C   UNL     1     -11.417  14.497  69.975  1.00  0.00    -0.311 A  
ENDBRANCH   9  10
ENDBRANCH   8   9
ENDBRANCH   4   8
ENDBRANCH   3   4
ENDBRANCH   2   3
TORSDOF 7
ENDMDL
MODEL      131
REMARK 921   NORMALIZED FREE ENERGY PREDICTED BY IDOCK:   -4.31 KCAL/MOL
REMARK 922        TOTAL FREE ENERGY PREDICTED BY IDOCK:   -6.96 KCAL/MOL
REMARK 923 INTER-LIGAND FREE ENERGY PREDICTED BY IDOCK:   -6.13 KCAL/MOL
REMARK 924 INTRA-LIGAND FREE ENERGY PREDICTED BY IDOCK:   -0.83 KCAL/MOL
REMARK 927      BINDING AFFINITY PREDICTED BY RF-SCORE:    0.00 PKD
ROOT
HETATM    1  C   UNL     1      -7.983  17.185  66.236  1.00  0.00    -0.339 C  
HETATM    2  C   UNL     1      -9.170  17.137  67.185  1.00  0.00    -0.242 C  
ENDROOT
BRANCH   2   3
HETATM    3  C   UNL     1      -9.328  15.797  67.920  1.00  0.00    -0.200 C  
BRANCH   3   4
HETATM    4  N   UNL     1     -10.679  15.196  67.965  1.00  0.00    -0.258 NA 
BRANCH   4   5
HETATM    5  C   UNL     1     -11.639  16.092  68.648  1.00  0.00    -0.343 C  
BRANCH   5   6
HETATM    6  C   UNL     1     -12.118  15.637  70.040  1.00  0.00    -0.379 C  
HETATM    7  C   UNL     1     -11.428  14.376  70.538  1.00  0.00    -0.202 C  
ENDBRANCH   5   6
ENDBRANCH   4   5
BRANCH   4   8
HETATM    8  C   UNL     1     -11.140  14.887  66.586  1.00  0.00    -0.329 C  
BRANCH   8   9
HETATM    9  C   UNL     1     -12.121  13.702  66.432  1.00  0.00    -0.478 C  
BRANCH   9  10
HETATM   10  C   UNL     1     -11.539  12.351  66.764  1.00  0.00    -0.444 A  
HETATM   11  C   UNL     1     -10.889  11.565  65.819  1.00  0.00    -0.319 A  
HETATM   12  C   UNL     1     -10.611  11.818  64.363  1.00  0.00    -0.368 C  
HETATM   13  C   UNL     1      -9.856  10.555  63.943  1.00  0.00    -0.310 C  
HETATM   14  N   UNL     1      -9.764   9.735  65.060  1.00  0.00    -0.394 N  
HETATM   15  O   UNL     1      -9.416  10.304  62.834  1.00  0.00    -0.302 OA 
HETATM   16  H   UNL     1      -9.309   8.822  65.067  1.00  0.00     0.000 HD 
HETATM   17  C   UNL     1     -10.370  10.315  66.163  1.00  0.00    -0.183 A  
HETATM   18  C   UNL     1     -10.467   9.787  67.431  1.00  0.00    -0.319 A  
HETATM   19  C   UNL     1     -11.126  10.554  68.389  1.00  0.00    -0.335 A  
HETATM   20  C   UNL     1     -11.658  11.815  68.061  1.00  0.00    -0.386 A  
ENDBRANCH   9  10
ENDBRANCH   8   9
ENDBRANCH   4   8
ENDBRANCH   3   4
ENDBRANCH   2   3
TORSDOF 7
ENDMDL
MODEL      132
REMARK 921   NORMALIZED FREE ENERGY PREDICTED BY IDOCK:   -4.31 KCAL/MOL
REMARK 922        TOTAL FREE ENERGY PREDICTED BY IDOCK:   -6.96 KCAL/MOL
REMARK 923 INTER-LIGAND FREE ENERGY PREDICTED BY IDOCK:   -6.12 KCAL/MOL
REMARK 924 INTRA-LIGAND FREE ENERGY PREDICTED BY IDOCK:   -0.84 KCAL/MOL
REMARK 927      BINDING AFFINITY PREDICTED BY RF-SCORE:    0.00 PKD
ROOT
HETATM    1  C   UNL     1      -6.464  15.954  69.487  1.00  0.00    -0.186 C  
HETATM    2  C   UNL     1      -7.109  17.188  68.876  1.00  0.00    -0.242 C  
ENDROOT
BRANCH   2   3
HETATM    3  C   UNL     1      -7.388  17.066  67.370  1.00  0.00    -0.158 C  
BRANCH   3   4
HETATM    4  N   UNL     1      -8.743  17.423  66.894  1.00  0.00    -0.236 NA 
BRANCH   4   5
HETATM    5  C   UNL     1      -8.720  18.677  66.109  1.00  0.00    -0.125 C  
BRANCH   5   6
HETATM    6  C   UNL     1      -9.541  19.849  66.680  1.00  0.00    -0.527 C  
HETATM    7  C   UNL     1     -10.576  19.422  67.710  1.00  0.00    -0.538 C  
ENDBRANCH   5   6
ENDBRANCH   4   5
BRANCH   4   8
HETATM    8  C   UNL     1      -9.303  16.308  66.086  1.00  0.00    -0.339 C  
BRANCH   8   9
HETATM    9  C   UNL     1     -10.819  16.041  66.229  1.00  0.00    -0.166 C  
BRANCH   9  10
HETATM   10  C   UNL     1     -11.172  14.778  66.972  1.00  0.00    -0.347 A  
HETATM   11  C   UNL     1     -11.588  14.784  68.299  1.00  0.00    -0.348 A  
HETATM   12  C   UNL     1     -11.784  15.928  69.256  1.00  0.00    -0.360 C  
HETATM   13  C   UNL     1     -12.260  15.221  70.527  1.00  0.00    -0.371 C  
HETATM   14  N   UNL     1     -12.295  13.860  70.258  1.00  0.00    -0.343 N  
HETATM   15  O   UNL     1     -12.552  15.748  71.587  1.00  0.00    -0.418 OA 
HETATM   16  H   UNL     1     -12.577  13.148  70.931  1.00  0.00     0.000 HD 
HETATM   17  C   UNL     1     -11.899  13.592  68.957  1.00  0.00    -0.352 A  
HETATM   18  C   UNL     1     -11.815  12.358  68.352  1.00  0.00    -0.361 A  
HETATM   19  C   UNL     1     -11.389  12.330  67.026  1.00  0.00    -0.395 A  
HETATM   20  C   UNL     1     -11.068  13.521  66.346  1.00  0.00    -0.311 A  
ENDBRANCH   9  10
ENDBRANCH   8   9
ENDBRANCH   4   8
ENDBRANCH   3   4
ENDBRANCH   2   3
TORSDOF 7
ENDMDL
MODEL      133
REMARK 921   NORMALIZED FREE ENERGY PREDICTED BY IDOCK:   -4.29 KCAL/MOL
REMARK 922        TOTAL FREE ENERGY PREDICTED BY IDOCK:   -6.93 KCAL/MOL
REMARK 923 INTER-LIGAND FREE ENERGY PREDICTED BY IDOCK:   -6.22 KCAL/MOL
REMARK 924 INTRA-LIGAND FREE ENERGY PREDICTED BY IDOCK:   -0.71 KCAL/MOL
REMARK 927      BINDING AFFINITY PREDICTED BY RF-SCORE:    0.00 PKD
ROOT
HETATM    1  C   UNL     1      -6.784   8.704  71.179  1.00  0.00    -0.068 C  
HETATM    2  C   UNL     1      -7.829   9.502  70.416  1.00  0.00    -0.190 C  
ENDROOT
BRANCH   2   3
HETATM    3  C   UNL     1      -8.651   8.665  69.423  1.00  0.00    -0.127 C  
BRANCH   3   4
HETATM    4  N   UNL     1     -10.122   8.832  69.442  1.00  0.00    -0.197 NA 
BRANCH   4   5
HETATM    5  C   UNL     1     -10.749   7.924  70.427  1.00  0.00    -0.233 C  
BRANCH   5   6
HETATM    6  C   UNL     1     -11.111   8.547  71.789  1.00  0.00    -0.378 C  
HETATM    7  C   UNL     1     -10.259   8.030  72.939  1.00  0.00    -0.384 C  
ENDBRANCH   5   6
ENDBRANCH   4   5
BRANCH   4   8
HETATM    8  C   UNL     1     -10.465  10.247  69.739  1.00  0.00    -0.259 C  
BRANCH   8   9
HETATM    9  C   UNL     1     -11.821  10.760  69.202  1.00  0.00    -0.347 C  
BRANCH   9  10
HETATM   10  C   UNL     1     -11.744  12.034  68.400  1.00  0.00    -0.390 A  
HETATM   11  C   UNL     1     -11.980  13.284  68.962  1.00  0.00    -0.336 A  
HETATM   12  C   UNL     1     -12.334  13.671  70.371  1.00  0.00    -0.415 C  
HETATM   13  C   UNL     1     -12.433  15.195  70.283  1.00  0.00    -0.342 C  
HETATM   14  N   UNL     1     -12.169  15.554  68.968  1.00  0.00    -0.611 N  
HETATM   15  O   UNL     1     -12.698  15.962  71.194  1.00  0.00    -0.465 OA 
HETATM   16  H   UNL     1     -12.169  16.514  68.623  1.00  0.00     0.000 HD 
HETATM   17  C   UNL     1     -11.907  14.442  68.184  1.00  0.00    -0.327 A  
HETATM   18  C   UNL     1     -11.608  14.425  66.841  1.00  0.00    -0.404 A  
HETATM   19  C   UNL     1     -11.380  13.181  66.257  1.00  0.00    -0.348 A  
HETATM   20  C   UNL     1     -11.452  12.001  67.024  1.00  0.00    -0.402 A  
ENDBRANCH   9  10
ENDBRANCH   8   9
ENDBRANCH   4   8
ENDBRANCH   3   4
ENDBRANCH   2   3
TORSDOF 7
ENDMDL
MODEL      134
REMARK 921   NORMALIZED FREE ENERGY PREDICTED BY IDOCK:   -4.28 KCAL/MOL
REMARK 922        TOTAL FREE ENERGY PREDICTED BY IDOCK:   -6.91 KCAL/MOL
REMARK 923 INTER-LIGAND FREE ENERGY PREDICTED BY IDOCK:   -5.70 KCAL/MOL
REMARK 924 INTRA-LIGAND FREE ENERGY PREDICTED BY IDOCK:   -1.21 KCAL/MOL
REMARK 927      BINDING AFFINITY PREDICTED BY RF-SCORE:    0.00 PKD
ROOT
HETATM    1  C   UNL     1      -7.665  13.500  67.686  1.00  0.00    -0.180 C  
HETATM    2  C   UNL     1      -7.888  14.734  68.546  1.00  0.00    -0.130 C  
ENDROOT
BRANCH   2   3
HETATM    3  C   UNL     1      -7.609  16.060  67.822  1.00  0.00    -0.140 C  
BRANCH   3   4
HETATM    4  N   UNL     1      -8.772  16.823  67.318  1.00  0.00    -0.196 NA 
BRANCH   4   5
HETATM    5  C   UNL     1      -8.493  18.276  67.307  1.00  0.00    -0.250 C  
BRANCH   5   6
HETATM    6  C   UNL     1      -8.499  18.978  68.679  1.00  0.00    -0.394 C  
HETATM    7  C   UNL     1      -7.137  19.515  69.092  1.00  0.00    -0.392 C  
ENDBRANCH   5   6
ENDBRANCH   4   5
BRANCH   4   8
HETATM    8  C   UNL     1      -9.136  16.348  65.958  1.00  0.00    -0.282 C  
BRANCH   8   9
HETATM    9  C   UNL     1     -10.602  15.903  65.748  1.00  0.00    -0.368 C  
BRANCH   9  10
HETATM   10  C   UNL     1     -10.841  14.421  65.895  1.00  0.00    -0.304 A  
HETATM   11  C   UNL     1     -11.276  13.851  67.086  1.00  0.00    -0.328 A  
HETATM   12  C   UNL     1     -11.598  14.483  68.412  1.00  0.00    -0.356 C  
HETATM   13  C   UNL     1     -12.023  13.282  69.259  1.00  0.00    -0.303 C  
HETATM   14  N   UNL     1     -11.920  12.151  68.460  1.00  0.00    -0.294 N  
HETATM   15  O   UNL     1     -12.383  13.303  70.425  1.00  0.00    -0.333 OA 
HETATM   16  H   UNL     1     -12.141  11.206  68.771  1.00  0.00     0.000 HD 
HETATM   17  C   UNL     1     -11.479  12.473  67.186  1.00  0.00    -0.351 A  
HETATM   18  C   UNL     1     -11.264  11.605  66.139  1.00  0.00    -0.314 A  
HETATM   19  C   UNL     1     -10.817  12.157  64.940  1.00  0.00    -0.352 A  
HETATM   20  C   UNL     1     -10.603  13.544  64.820  1.00  0.00    -0.429 A  
ENDBRANCH   9  10
ENDBRANCH   8   9
ENDBRANCH   4   8
ENDBRANCH   3   4
ENDBRANCH   2   3
TORSDOF 7
ENDMDL
MODEL      135
REMARK 921   NORMALIZED FREE ENERGY PREDICTED BY IDOCK:   -4.28 KCAL/MOL
REMARK 922        TOTAL FREE ENERGY PREDICTED BY IDOCK:   -6.91 KCAL/MOL
REMARK 923 INTER-LIGAND FREE ENERGY PREDICTED BY IDOCK:   -6.74 KCAL/MOL
REMARK 924 INTRA-LIGAND FREE ENERGY PREDICTED BY IDOCK:   -0.17 KCAL/MOL
REMARK 927      BINDING AFFINITY PREDICTED BY RF-SCORE:    0.00 PKD
ROOT
HETATM    1  C   UNL     1      -9.234   7.934  73.595  1.00  0.00    -0.320 C  
HETATM    2  C   UNL     1     -10.621   7.392  73.287  1.00  0.00    -0.442 C  
ENDROOT
BRANCH   2   3
HETATM    3  C   UNL     1     -11.490   8.341  72.447  1.00  0.00    -0.394 C  
BRANCH   3   4
HETATM    4  N   UNL     1     -10.819   9.127  71.388  1.00  0.00    -0.322 NA 
BRANCH   4   5
HETATM    5  C   UNL     1     -10.527   8.288  70.205  1.00  0.00    -0.225 C  
BRANCH   5   6
HETATM    6  C   UNL     1     -11.074   6.848  70.243  1.00  0.00    -0.342 C  
HETATM    7  C   UNL     1     -11.152   6.191  68.874  1.00  0.00    -0.417 C  
ENDBRANCH   5   6
ENDBRANCH   4   5
BRANCH   4   8
HETATM    8  C   UNL     1     -11.664  10.290  71.012  1.00  0.00    -0.370 C  
BRANCH   8   9
HETATM    9  C   UNL     1     -11.564  10.775  69.547  1.00  0.00    -0.375 C  
BRANCH   9  10
HETATM   10  C   UNL     1     -11.775  12.255  69.355  1.00  0.00    -0.392 A  
HETATM   11  C   UNL     1     -11.764  12.853  68.100  1.00  0.00    -0.395 A  
HETATM   12  C   UNL     1     -11.566  12.255  66.734  1.00  0.00    -0.434 C  
HETATM   13  C   UNL     1     -11.688  13.473  65.816  1.00  0.00    -0.345 C  
HETATM   14  N   UNL     1     -11.914  14.581  66.622  1.00  0.00    -0.376 N  
HETATM   15  O   UNL     1     -11.600  13.480  64.599  1.00  0.00    -0.341 OA 
HETATM   16  H   UNL     1     -12.033  15.531  66.272  1.00  0.00     0.000 HD 
HETATM   17  C   UNL     1     -11.956  14.229  67.962  1.00  0.00    -0.318 A  
HETATM   18  C   UNL     1     -12.160  15.069  69.033  1.00  0.00    -0.243 A  
HETATM   19  C   UNL     1     -12.162  14.490  70.301  1.00  0.00    -0.391 A  
HETATM   20  C   UNL     1     -11.968  13.105  70.461  1.00  0.00    -0.303 A  
ENDBRANCH   9  10
ENDBRANCH   8   9
ENDBRANCH   4   8
ENDBRANCH   3   4
ENDBRANCH   2   3
TORSDOF 7
ENDMDL
MODEL      136
REMARK 921   NORMALIZED FREE ENERGY PREDICTED BY IDOCK:   -4.27 KCAL/MOL
REMARK 922        TOTAL FREE ENERGY PREDICTED BY IDOCK:   -6.90 KCAL/MOL
REMARK 923 INTER-LIGAND FREE ENERGY PREDICTED BY IDOCK:   -6.29 KCAL/MOL
REMARK 924 INTRA-LIGAND FREE ENERGY PREDICTED BY IDOCK:   -0.61 KCAL/MOL
REMARK 927      BINDING AFFINITY PREDICTED BY RF-SCORE:    0.00 PKD
ROOT
HETATM    1  C   UNL     1      -9.519  10.727  63.746  1.00  0.00    -0.320 C  
HETATM    2  C   UNL     1      -8.967  10.670  65.162  1.00  0.00    -0.217 C  
ENDROOT
BRANCH   2   3
HETATM    3  C   UNL     1     -10.046  10.724  66.255  1.00  0.00    -0.232 C  
BRANCH   3   4
HETATM    4  N   UNL     1     -10.063  11.910  67.141  1.00  0.00    -0.203 NA 
BRANCH   4   5
HETATM    5  C   UNL     1     -10.570  13.102  66.426  1.00  0.00    -0.286 C  
BRANCH   5   6
HETATM    6  C   UNL     1     -12.090  13.150  66.180  1.00  0.00    -0.479 C  
HETATM    7  C   UNL     1     -12.486  12.793  64.755  1.00  0.00    -0.539 C  
ENDBRANCH   5   6
ENDBRANCH   4   5
BRANCH   4   8
HETATM    8  C   UNL     1     -10.889  11.628  68.343  1.00  0.00    -0.219 C  
BRANCH   8   9
HETATM    9  C   UNL     1     -10.337  10.577  69.334  1.00  0.00    -0.258 C  
BRANCH   9  10
HETATM   10  C   UNL     1     -11.336  10.072  70.344  1.00  0.00    -0.392 A  
HETATM   11  C   UNL     1     -11.016   9.106  71.291  1.00  0.00    -0.400 A  
HETATM   12  C   UNL     1      -9.724   8.378  71.547  1.00  0.00    -0.276 C  
HETATM   13  C   UNL     1     -10.078   7.478  72.732  1.00  0.00    -0.240 C  
HETATM   14  N   UNL     1     -11.411   7.709  73.047  1.00  0.00    -0.609 N  
HETATM   15  O   UNL     1      -9.335   6.696  73.301  1.00  0.00    -0.130 OA 
HETATM   16  H   UNL     1     -11.913   7.240  73.800  1.00  0.00     0.000 HD 
HETATM   17  C   UNL     1     -11.971   8.657  72.206  1.00  0.00    -0.368 A  
HETATM   18  C   UNL     1     -13.265   9.127  72.229  1.00  0.00    -0.528 A  
HETATM   19  C   UNL     1     -13.608  10.087  71.280  1.00  0.00    -0.236 A  
HETATM   20  C   UNL     1     -12.660  10.550  70.348  1.00  0.00    -0.364 A  
ENDBRANCH   9  10
ENDBRANCH   8   9
ENDBRANCH   4   8
ENDBRANCH   3   4
ENDBRANCH   2   3
TORSDOF 7
ENDMDL
MODEL      137
REMARK 921   NORMALIZED FREE ENERGY PREDICTED BY IDOCK:   -4.26 KCAL/MOL
REMARK 922        TOTAL FREE ENERGY PREDICTED BY IDOCK:   -6.89 KCAL/MOL
REMARK 923 INTER-LIGAND FREE ENERGY PREDICTED BY IDOCK:   -5.90 KCAL/MOL
REMARK 924 INTRA-LIGAND FREE ENERGY PREDICTED BY IDOCK:   -0.99 KCAL/MOL
REMARK 927      BINDING AFFINITY PREDICTED BY RF-SCORE:    0.00 PKD
ROOT
HETATM    1  C   UNL     1      -7.165  19.509  69.179  1.00  0.00    -0.382 C  
HETATM    2  C   UNL     1      -7.735  18.474  68.222  1.00  0.00    -0.313 C  
ENDROOT
BRANCH   2   3
HETATM    3  C   UNL     1      -9.204  18.113  68.495  1.00  0.00    -0.314 C  
BRANCH   3   4
HETATM    4  N   UNL     1      -9.588  16.687  68.391  1.00  0.00    -0.226 NA 
BRANCH   4   5
HETATM    5  C   UNL     1      -8.714  15.837  69.229  1.00  0.00    -0.261 C  
BRANCH   5   6
HETATM    6  C   UNL     1      -8.111  14.598  68.540  1.00  0.00    -0.146 C  
HETATM    7  C   UNL     1      -8.328  14.575  67.035  1.00  0.00    -0.195 C  
ENDBRANCH   5   6
ENDBRANCH   4   5
BRANCH   4   8
HETATM    8  C   UNL     1     -11.013  16.521  68.780  1.00  0.00    -0.330 C  
BRANCH   8   9
HETATM    9  C   UNL     1     -11.729  15.252  68.263  1.00  0.00    -0.320 C  
BRANCH   9  10
HETATM   10  C   UNL     1     -12.086  14.247  69.329  1.00  0.00    -0.351 A  
HETATM   11  C   UNL     1     -11.880  12.882  69.167  1.00  0.00    -0.353 A  
HETATM   12  C   UNL     1     -11.302  12.111  68.011  1.00  0.00    -0.353 C  
HETATM   13  C   UNL     1     -11.362  10.667  68.511  1.00  0.00    -0.284 C  
HETATM   14  N   UNL     1     -11.919  10.688  69.782  1.00  0.00    -0.395 N  
HETATM   15  O   UNL     1     -10.993   9.671  67.909  1.00  0.00    -0.243 OA 
HETATM   16  H   UNL     1     -12.079   9.859  70.354  1.00  0.00     0.000 HD 
HETATM   17  C   UNL     1     -12.230  11.981  70.174  1.00  0.00    -0.231 A  
HETATM   18  C   UNL     1     -12.793  12.373  71.368  1.00  0.00    -0.360 A  
HETATM   19  C   UNL     1     -13.019  13.736  71.545  1.00  0.00    -0.444 A  
HETATM   20  C   UNL     1     -12.675  14.660  70.539  1.00  0.00    -0.394 A  
ENDBRANCH   9  10
ENDBRANCH   8   9
ENDBRANCH   4   8
ENDBRANCH   3   4
ENDBRANCH   2   3
TORSDOF 7
ENDMDL
MODEL      138
REMARK 921   NORMALIZED FREE ENERGY PREDICTED BY IDOCK:   -4.26 KCAL/MOL
REMARK 922        TOTAL FREE ENERGY PREDICTED BY IDOCK:   -6.88 KCAL/MOL
REMARK 923 INTER-LIGAND FREE ENERGY PREDICTED BY IDOCK:   -6.27 KCAL/MOL
REMARK 924 INTRA-LIGAND FREE ENERGY PREDICTED BY IDOCK:   -0.61 KCAL/MOL
REMARK 927      BINDING AFFINITY PREDICTED BY RF-SCORE:    0.00 PKD
ROOT
HETATM    1  C   UNL     1     -11.902  15.163  64.219  1.00  0.00    -0.263 C  
HETATM    2  C   UNL     1     -11.064  16.226  64.911  1.00  0.00    -0.301 C  
ENDROOT
BRANCH   2   3
HETATM    3  C   UNL     1      -9.894  15.662  65.732  1.00  0.00    -0.351 C  
BRANCH   3   4
HETATM    4  N   UNL     1      -9.780  16.092  67.144  1.00  0.00    -0.230 NA 
BRANCH   4   5
HETATM    5  C   UNL     1     -10.565  17.322  67.392  1.00  0.00    -0.303 C  
BRANCH   5   6
HETATM    6  C   UNL     1      -9.810  18.654  67.224  1.00  0.00    -0.345 C  
HETATM    7  C   UNL     1     -10.722  19.836  66.934  1.00  0.00    -0.541 C  
ENDBRANCH   5   6
ENDBRANCH   4   5
BRANCH   4   8
HETATM    8  C   UNL     1     -10.224  14.995  68.042  1.00  0.00    -0.228 C  
BRANCH   8   9
HETATM    9  C   UNL     1     -11.456  14.181  67.586  1.00  0.00    -0.364 C  
BRANCH   9  10
HETATM   10  C   UNL     1     -11.262  12.685  67.582  1.00  0.00    -0.329 A  
HETATM   11  C   UNL     1     -11.634  11.882  68.655  1.00  0.00    -0.366 A  
HETATM   12  C   UNL     1     -12.268  12.241  69.970  1.00  0.00    -0.267 C  
HETATM   13  C   UNL     1     -12.407  10.880  70.655  1.00  0.00    -0.376 C  
HETATM   14  N   UNL     1     -11.890   9.924  69.790  1.00  0.00    -0.463 N  
HETATM   15  O   UNL     1     -12.879  10.664  71.759  1.00  0.00    -0.437 OA 
HETATM   16  H   UNL     1     -11.854   8.925  69.993  1.00  0.00     0.000 HD 
HETATM   17  C   UNL     1     -11.430  10.501  68.618  1.00  0.00    -0.223 A  
HETATM   18  C   UNL     1     -10.859   9.856  67.544  1.00  0.00    -0.307 A  
HETATM   19  C   UNL     1     -10.468  10.646  66.464  1.00  0.00    -0.285 A  
HETATM   20  C   UNL     1     -10.662  12.040  66.484  1.00  0.00    -0.293 A  
ENDBRANCH   9  10
ENDBRANCH   8   9
ENDBRANCH   4   8
ENDBRANCH   3   4
ENDBRANCH   2   3
TORSDOF 7
ENDMDL
MODEL      139
REMARK 921   NORMALIZED FREE ENERGY PREDICTED BY IDOCK:   -4.23 KCAL/MOL
REMARK 922        TOTAL FREE ENERGY PREDICTED BY IDOCK:   -6.84 KCAL/MOL
REMARK 923 INTER-LIGAND FREE ENERGY PREDICTED BY IDOCK:   -6.14 KCAL/MOL
REMARK 924 INTRA-LIGAND FREE ENERGY PREDICTED BY IDOCK:   -0.71 KCAL/MOL
REMARK 927      BINDING AFFINITY PREDICTED BY RF-SCORE:    0.00 PKD
ROOT
HETATM    1  C   UNL     1     -11.700  11.871  63.724  1.00  0.00    -0.554 C  
HETATM    2  C   UNL     1     -10.474  11.012  63.988  1.00  0.00    -0.433 C  
ENDROOT
BRANCH   2   3
HETATM    3  C   UNL     1      -9.585  11.525  65.131  1.00  0.00    -0.210 C  
BRANCH   3   4
HETATM    4  N   UNL     1      -9.945  11.125  66.510  1.00  0.00    -0.207 NA 
BRANCH   4   5
HETATM    5  C   UNL     1      -9.384   9.797  66.844  1.00  0.00    -0.149 C  
BRANCH   5   6
HETATM    6  C   UNL     1     -10.384   8.753  67.374  1.00  0.00    -0.349 C  
HETATM    7  C   UNL     1     -10.013   7.321  67.020  1.00  0.00    -0.293 C  
ENDBRANCH   5   6
ENDBRANCH   4   5
BRANCH   4   8
HETATM    8  C   UNL     1      -9.470  12.153  67.473  1.00  0.00    -0.180 C  
BRANCH   8   9
HETATM    9  C   UNL     1     -10.546  13.075  68.090  1.00  0.00    -0.257 C  
BRANCH   9  10
HETATM   10  C   UNL     1     -10.229  14.548  68.027  1.00  0.00    -0.233 A  
HETATM   11  C   UNL     1     -10.524  15.328  66.915  1.00  0.00    -0.289 A  
HETATM   12  C   UNL     1     -11.174  14.962  65.609  1.00  0.00    -0.347 C  
HETATM   13  C   UNL     1     -11.194  16.296  64.861  1.00  0.00    -0.236 C  
HETATM   14  N   UNL     1     -10.608  17.246  65.687  1.00  0.00    -0.264 N  
HETATM   15  O   UNL     1     -11.638  16.498  63.743  1.00  0.00    -1.109 OA 
HETATM   16  H   UNL     1     -10.488  18.228  65.440  1.00  0.00     0.000 HD 
HETATM   17  C   UNL     1     -10.208  16.688  66.891  1.00  0.00    -0.291 A  
HETATM   18  C   UNL     1      -9.594  17.334  67.941  1.00  0.00    -0.269 A  
HETATM   19  C   UNL     1      -9.280  16.566  69.061  1.00  0.00    -0.237 A  
HETATM   20  C   UNL     1      -9.588  15.193  69.102  1.00  0.00    -0.232 A  
ENDBRANCH   9  10
ENDBRANCH   8   9
ENDBRANCH   4   8
ENDBRANCH   3   4
ENDBRANCH   2   3
TORSDOF 7
ENDMDL
MODEL      140
REMARK 921   NORMALIZED FREE ENERGY PREDICTED BY IDOCK:   -4.22 KCAL/MOL
REMARK 922        TOTAL FREE ENERGY PREDICTED BY IDOCK:   -6.83 KCAL/MOL
REMARK 923 INTER-LIGAND FREE ENERGY PREDICTED BY IDOCK:   -5.99 KCAL/MOL
REMARK 924 INTRA-LIGAND FREE ENERGY PREDICTED BY IDOCK:   -0.84 KCAL/MOL
REMARK 927      BINDING AFFINITY PREDICTED BY RF-SCORE:    0.00 PKD
ROOT
HETATM    1  C   UNL     1     -12.049   7.770  71.744  1.00  0.00    -0.332 C  
HETATM    2  C   UNL     1     -10.984   6.950  71.034  1.00  0.00    -0.287 C  
ENDROOT
BRANCH   2   3
HETATM    3  C   UNL     1     -10.524   7.547  69.695  1.00  0.00    -0.234 C  
BRANCH   3   4
HETATM    4  N   UNL     1     -10.150   8.979  69.677  1.00  0.00    -0.190 NA 
BRANCH   4   5
HETATM    5  C   UNL     1      -8.727   9.154  69.312  1.00  0.00    -0.139 C  
BRANCH   5   6
HETATM    6  C   UNL     1      -8.410  10.328  68.366  1.00  0.00    -0.119 C  
HETATM    7  C   UNL     1      -7.393  11.308  68.934  1.00  0.00    -0.115 C  
ENDBRANCH   5   6
ENDBRANCH   4   5
BRANCH   4   8
HETATM    8  C   UNL     1     -11.029   9.717  68.734  1.00  0.00    -0.148 C  
BRANCH   8   9
HETATM    9  C   UNL     1     -11.886  10.857  69.331  1.00  0.00    -0.400 C  
BRANCH   9  10
HETATM   10  C   UNL     1     -11.782  12.175  68.606  1.00  0.00    -0.382 A  
HETATM   11  C   UNL     1     -12.015  13.393  69.234  1.00  0.00    -0.367 A  
HETATM   12  C   UNL     1     -12.388  13.702  70.658  1.00  0.00    -0.440 C  
HETATM   13  C   UNL     1     -12.470  15.230  70.656  1.00  0.00    -0.406 C  
HETATM   14  N   UNL     1     -12.180  15.661  69.369  1.00  0.00    -0.551 N  
HETATM   15  O   UNL     1     -12.743  15.946  71.605  1.00  0.00    -0.451 OA 
HETATM   16  H   UNL     1     -12.164  16.639  69.080  1.00  0.00     0.000 HD 
HETATM   17  C   UNL     1     -11.916  14.593  68.527  1.00  0.00    -0.263 A  
HETATM   18  C   UNL     1     -11.594  14.650  67.189  1.00  0.00    -0.394 A  
HETATM   19  C   UNL     1     -11.369  13.439  66.539  1.00  0.00    -0.346 A  
HETATM   20  C   UNL     1     -11.466  12.218  67.234  1.00  0.00    -0.426 A  
ENDBRANCH   9  10
ENDBRANCH   8   9
ENDBRANCH   4   8
ENDBRANCH   3   4
ENDBRANCH   2   3
TORSDOF 7
ENDMDL
MODEL      141
REMARK 921   NORMALIZED FREE ENERGY PREDICTED BY IDOCK:   -4.20 KCAL/MOL
REMARK 922        TOTAL FREE ENERGY PREDICTED BY IDOCK:   -6.80 KCAL/MOL
REMARK 923 INTER-LIGAND FREE ENERGY PREDICTED BY IDOCK:   -5.90 KCAL/MOL
REMARK 924 INTRA-LIGAND FREE ENERGY PREDICTED BY IDOCK:   -0.91 KCAL/MOL
REMARK 927      BINDING AFFINITY PREDICTED BY RF-SCORE:    0.00 PKD
ROOT
HETATM    1  C   UNL     1     -10.394   7.349  71.025  1.00  0.00    -0.201 C  
HETATM    2  C   UNL     1     -10.953   6.220  70.173  1.00  0.00    -0.411 C  
ENDROOT
BRANCH   2   3
HETATM    3  C   UNL     1     -10.940   6.511  68.664  1.00  0.00    -0.293 C  
BRANCH   3   4
HETATM    4  N   UNL     1      -9.891   7.419  68.151  1.00  0.00    -0.151 NA 
BRANCH   4   5
HETATM    5  C   UNL     1      -8.875   6.675  67.373  1.00  0.00    -0.116 C  
BRANCH   5   6
HETATM    6  C   UNL     1      -9.403   5.850  66.184  1.00  0.00    -0.150 C  
HETATM    7  C   UNL     1      -8.337   5.528  65.147  1.00  0.00    -0.146 C  
ENDBRANCH   5   6
ENDBRANCH   4   5
BRANCH   4   8
HETATM    8  C   UNL     1     -10.509   8.486  67.323  1.00  0.00    -0.296 C  
BRANCH   8   9
HETATM    9  C   UNL     1      -9.595   9.663  66.912  1.00  0.00    -0.217 C  
BRANCH   9  10
HETATM   10  C   UNL     1      -9.549   9.943  65.431  1.00  0.00    -0.350 A  
HETATM   11  C   UNL     1     -10.368  10.888  64.824  1.00  0.00    -0.391 A  
HETATM   12  C   UNL     1     -11.410  11.799  65.412  1.00  0.00    -0.284 C  
HETATM   13  C   UNL     1     -11.905  12.573  64.189  1.00  0.00    -0.411 C  
HETATM   14  N   UNL     1     -11.201  12.104  63.087  1.00  0.00    -0.703 N  
HETATM   15  O   UNL     1     -12.762  13.441  64.173  1.00  0.00    -0.651 OA 
HETATM   16  H   UNL     1     -11.331  12.445  62.135  1.00  0.00     0.000 HD 
HETATM   17  C   UNL     1     -10.302  11.114  63.448  1.00  0.00    -0.360 A  
HETATM   18  C   UNL     1      -9.444  10.429  62.616  1.00  0.00    -0.324 A  
HETATM   19  C   UNL     1      -8.623   9.469  63.204  1.00  0.00    -0.218 A  
HETATM   20  C   UNL     1      -8.677   9.225  64.590  1.00  0.00    -0.223 A  
ENDBRANCH   9  10
ENDBRANCH   8   9
ENDBRANCH   4   8
ENDBRANCH   3   4
ENDBRANCH   2   3
TORSDOF 7
ENDMDL
MODEL      142
REMARK 921   NORMALIZED FREE ENERGY PREDICTED BY IDOCK:   -4.20 KCAL/MOL
REMARK 922        TOTAL FREE ENERGY PREDICTED BY IDOCK:   -6.80 KCAL/MOL
REMARK 923 INTER-LIGAND FREE ENERGY PREDICTED BY IDOCK:   -6.22 KCAL/MOL
REMARK 924 INTRA-LIGAND FREE ENERGY PREDICTED BY IDOCK:   -0.58 KCAL/MOL
REMARK 927      BINDING AFFINITY PREDICTED BY RF-SCORE:    0.00 PKD
ROOT
HETATM    1  C   UNL     1     -11.471   8.616  71.392  1.00  0.00    -0.352 C  
HETATM    2  C   UNL     1     -10.330   9.471  70.864  1.00  0.00    -0.372 C  
ENDROOT
BRANCH   2   3
HETATM    3  C   UNL     1     -10.309   9.609  69.334  1.00  0.00    -0.213 C  
BRANCH   3   4
HETATM    4  N   UNL     1     -10.325  10.977  68.770  1.00  0.00    -0.192 NA 
BRANCH   4   5
HETATM    5  C   UNL     1      -9.935  10.970  67.342  1.00  0.00    -0.182 C  
BRANCH   5   6
HETATM    6  C   UNL     1     -10.405   9.757  66.518  1.00  0.00    -0.262 C  
HETATM    7  C   UNL     1      -9.300   9.124  65.685  1.00  0.00    -0.300 C  
ENDBRANCH   5   6
ENDBRANCH   4   5
BRANCH   4   8
HETATM    8  C   UNL     1     -11.673  11.577  68.944  1.00  0.00    -0.339 C  
BRANCH   8   9
HETATM    9  C   UNL     1     -11.997  12.818  68.079  1.00  0.00    -0.315 C  
BRANCH   9  10
HETATM   10  C   UNL     1     -11.372  14.104  68.557  1.00  0.00    -0.312 A  
HETATM   11  C   UNL     1     -11.797  14.757  69.708  1.00  0.00    -0.362 A  
HETATM   12  C   UNL     1     -12.877  14.400  70.692  1.00  0.00    -0.390 C  
HETATM   13  C   UNL     1     -12.793  15.540  71.708  1.00  0.00    -0.438 C  
HETATM   14  N   UNL     1     -11.785  16.399  71.288  1.00  0.00    -0.639 N  
HETATM   15  O   UNL     1     -13.482  15.681  72.705  1.00  0.00    -0.479 OA 
HETATM   16  H   UNL     1     -11.512  17.249  71.780  1.00  0.00     0.000 HD 
HETATM   17  C   UNL     1     -11.199  15.951  70.115  1.00  0.00    -0.364 A  
HETATM   18  C   UNL     1     -10.173  16.551  69.419  1.00  0.00    -0.264 A  
HETATM   19  C   UNL     1      -9.741  15.917  68.256  1.00  0.00    -0.209 A  
HETATM   20  C   UNL     1     -10.334  14.714  67.828  1.00  0.00    -0.237 A  
ENDBRANCH   9  10
ENDBRANCH   8   9
ENDBRANCH   4   8
ENDBRANCH   3   4
ENDBRANCH   2   3
TORSDOF 7
ENDMDL
MODEL      143
REMARK 921   NORMALIZED FREE ENERGY PREDICTED BY IDOCK:   -4.20 KCAL/MOL
REMARK 922        TOTAL FREE ENERGY PREDICTED BY IDOCK:   -6.80 KCAL/MOL
REMARK 923 INTER-LIGAND FREE ENERGY PREDICTED BY IDOCK:   -5.74 KCAL/MOL
REMARK 924 INTRA-LIGAND FREE ENERGY PREDICTED BY IDOCK:   -1.06 KCAL/MOL
REMARK 927      BINDING AFFINITY PREDICTED BY RF-SCORE:    0.00 PKD
ROOT
HETATM    1  C   UNL     1     -11.116   6.367  69.130  1.00  0.00    -0.428 C  
HETATM    2  C   UNL     1     -10.341   6.807  67.899  1.00  0.00    -0.236 C  
ENDROOT
BRANCH   2   3
HETATM    3  C   UNL     1     -10.813   8.145  67.309  1.00  0.00    -0.060 C  
BRANCH   3   4
HETATM    4  N   UNL     1      -9.842   9.261  67.280  1.00  0.00    -0.170 NA 
BRANCH   4   5
HETATM    5  C   UNL     1     -10.514  10.545  66.977  1.00  0.00    -0.249 C  
BRANCH   5   6
HETATM    6  C   UNL     1     -10.216  11.156  65.595  1.00  0.00    -0.310 C  
HETATM    7  C   UNL     1      -9.631  10.161  64.604  1.00  0.00    -0.379 C  
ENDBRANCH   5   6
ENDBRANCH   4   5
BRANCH   4   8
HETATM    8  C   UNL     1      -9.124   9.338  68.579  1.00  0.00    -0.132 C  
BRANCH   8   9
HETATM    9  C   UNL     1      -9.651  10.369  69.603  1.00  0.00    -0.142 C  
BRANCH   9  10
HETATM   10  C   UNL     1     -10.767   9.872  70.486  1.00  0.00    -0.382 A  
HETATM   11  C   UNL     1     -10.559   8.943  71.500  1.00  0.00    -0.399 A  
HETATM   12  C   UNL     1      -9.300   8.255  71.951  1.00  0.00    -0.282 C  
HETATM   13  C   UNL     1      -9.793   7.383  73.108  1.00  0.00    -0.254 C  
HETATM   14  N   UNL     1     -11.160   7.591  73.233  1.00  0.00    -0.556 N  
HETATM   15  O   UNL     1      -9.118   6.637  73.797  1.00  0.00    -0.135 OA 
HETATM   16  H   UNL     1     -11.750   7.133  73.927  1.00  0.00     0.000 HD 
HETATM   17  C   UNL     1     -11.620   8.499  72.292  1.00  0.00    -0.374 A  
HETATM   18  C   UNL     1     -12.914   8.939  72.126  1.00  0.00    -0.473 A  
HETATM   19  C   UNL     1     -13.145   9.861  71.108  1.00  0.00    -0.453 A  
HETATM   20  C   UNL     1     -12.089  10.317  70.296  1.00  0.00    -0.330 A  
ENDBRANCH   9  10
ENDBRANCH   8   9
ENDBRANCH   4   8
ENDBRANCH   3   4
ENDBRANCH   2   3
TORSDOF 7
ENDMDL
MODEL      144
REMARK 921   NORMALIZED FREE ENERGY PREDICTED BY IDOCK:   -4.20 KCAL/MOL
REMARK 922        TOTAL FREE ENERGY PREDICTED BY IDOCK:   -6.80 KCAL/MOL
REMARK 923 INTER-LIGAND FREE ENERGY PREDICTED BY IDOCK:   -5.91 KCAL/MOL
REMARK 924 INTRA-LIGAND FREE ENERGY PREDICTED BY IDOCK:   -0.89 KCAL/MOL
REMARK 927      BINDING AFFINITY PREDICTED BY RF-SCORE:    0.00 PKD
ROOT
HETATM    1  C   UNL     1      -9.437  10.822  62.787  1.00  0.00    -0.358 C  
HETATM    2  C   UNL     1      -9.382   9.914  64.005  1.00  0.00    -0.280 C  
ENDROOT
BRANCH   2   3
HETATM    3  C   UNL     1      -9.905  10.567  65.294  1.00  0.00    -0.284 C  
BRANCH   3   4
HETATM    4  N   UNL     1     -10.388  11.963  65.208  1.00  0.00    -0.265 NA 
BRANCH   4   5
HETATM    5  C   UNL     1     -11.820  12.055  65.569  1.00  0.00    -0.181 C  
BRANCH   5   6
HETATM    6  C   UNL     1     -12.791  12.374  64.416  1.00  0.00    -0.344 C  
HETATM    7  C   UNL     1     -12.126  13.071  63.238  1.00  0.00    -0.499 C  
ENDBRANCH   5   6
ENDBRANCH   4   5
BRANCH   4   8
HETATM    8  C   UNL     1      -9.568  12.836  66.088  1.00  0.00    -0.212 C  
BRANCH   8   9
HETATM    9  C   UNL     1      -9.747  14.361  65.913  1.00  0.00    -0.305 C  
BRANCH   9  10
HETATM   10  C   UNL     1     -10.212  15.090  67.149  1.00  0.00    -0.249 A  
HETATM   11  C   UNL     1     -10.335  16.474  67.197  1.00  0.00    -0.298 A  
HETATM   12  C   UNL     1     -10.072  17.515  66.145  1.00  0.00    -0.317 C  
HETATM   13  C   UNL     1     -10.422  18.817  66.869  1.00  0.00    -0.414 C  
HETATM   14  N   UNL     1     -10.813  18.483  68.159  1.00  0.00    -0.282 N  
HETATM   15  O   UNL     1     -10.368  19.945  66.408  1.00  0.00    -0.454 OA 
HETATM   16  H   UNL     1     -11.101  19.160  68.866  1.00  0.00     0.000 HD 
HETATM   17  C   UNL     1     -10.761  17.113  68.363  1.00  0.00    -0.347 A  
HETATM   18  C   UNL     1     -11.078  16.434  69.518  1.00  0.00    -0.293 A  
HETATM   19  C   UNL     1     -10.950  15.047  69.493  1.00  0.00    -0.281 A  
HETATM   20  C   UNL     1     -10.518  14.384  68.328  1.00  0.00    -0.245 A  
ENDBRANCH   9  10
ENDBRANCH   8   9
ENDBRANCH   4   8
ENDBRANCH   3   4
ENDBRANCH   2   3
TORSDOF 7
ENDMDL
MODEL      145
REMARK 921   NORMALIZED FREE ENERGY PREDICTED BY IDOCK:   -4.18 KCAL/MOL
REMARK 922        TOTAL FREE ENERGY PREDICTED BY IDOCK:   -6.77 KCAL/MOL
REMARK 923 INTER-LIGAND FREE ENERGY PREDICTED BY IDOCK:   -5.38 KCAL/MOL
REMARK 924 INTRA-LIGAND FREE ENERGY PREDICTED BY IDOCK:   -1.40 KCAL/MOL
REMARK 927      BINDING AFFINITY PREDICTED BY RF-SCORE:    0.00 PKD
ROOT
HETATM    1  C   UNL     1     -11.113  10.430  69.376  1.00  0.00    -0.304 C  
HETATM    2  C   UNL     1     -10.790  11.861  68.976  1.00  0.00    -0.235 C  
ENDROOT
BRANCH   2   3
HETATM    3  C   UNL     1     -11.754  12.452  67.936  1.00  0.00    -0.360 C  
BRANCH   3   4
HETATM    4  N   UNL     1     -11.580  13.877  67.573  1.00  0.00    -0.339 NA 
BRANCH   4   5
HETATM    5  C   UNL     1     -12.241  14.183  66.285  1.00  0.00    -0.449 C  
BRANCH   5   6
HETATM    6  C   UNL     1     -11.341  14.781  65.187  1.00  0.00    -0.379 C  
HETATM    7  C   UNL     1     -10.055  13.999  64.963  1.00  0.00    -0.323 C  
ENDBRANCH   5   6
ENDBRANCH   4   5
BRANCH   4   8
HETATM    8  C   UNL     1     -12.115  14.741  68.657  1.00  0.00    -0.188 C  
BRANCH   8   9
HETATM    9  C   UNL     1     -11.134  15.760  69.280  1.00  0.00    -0.297 C  
BRANCH   9  10
HETATM   10  C   UNL     1     -10.303  16.530  68.285  1.00  0.00    -0.293 A  
HETATM   11  C   UNL     1      -9.036  16.115  67.892  1.00  0.00    -0.183 A  
HETATM   12  C   UNL     1      -8.230  14.913  68.302  1.00  0.00    -0.145 C  
HETATM   13  C   UNL     1      -6.949  15.074  67.481  1.00  0.00    -0.186 C  
HETATM   14  N   UNL     1      -7.076  16.239  66.736  1.00  0.00    -0.202 N  
HETATM   15  O   UNL     1      -5.987  14.325  67.477  1.00  0.00    -0.337 OA 
HETATM   16  H   UNL     1      -6.365  16.593  66.096  1.00  0.00     0.000 HD 
HETATM   17  C   UNL     1      -8.293  16.859  66.973  1.00  0.00    -0.200 A  
HETATM   18  C   UNL     1      -8.752  18.027  66.408  1.00  0.00    -0.249 A  
HETATM   19  C   UNL     1     -10.016  18.466  66.798  1.00  0.00    -0.374 A  
HETATM   20  C   UNL     1     -10.779  17.731  67.726  1.00  0.00    -0.332 A  
ENDBRANCH   9  10
ENDBRANCH   8   9
ENDBRANCH   4   8
ENDBRANCH   3   4
ENDBRANCH   2   3
TORSDOF 7
ENDMDL
MODEL      146
REMARK 921   NORMALIZED FREE ENERGY PREDICTED BY IDOCK:   -4.18 KCAL/MOL
REMARK 922        TOTAL FREE ENERGY PREDICTED BY IDOCK:   -6.77 KCAL/MOL
REMARK 923 INTER-LIGAND FREE ENERGY PREDICTED BY IDOCK:   -6.12 KCAL/MOL
REMARK 924 INTRA-LIGAND FREE ENERGY PREDICTED BY IDOCK:   -0.66 KCAL/MOL
REMARK 927      BINDING AFFINITY PREDICTED BY RF-SCORE:    0.00 PKD
ROOT
HETATM    1  C   UNL     1     -12.302  12.152  63.721  1.00  0.00    -0.635 C  
HETATM    2  C   UNL     1     -11.821  13.539  64.116  1.00  0.00    -0.483 C  
ENDROOT
BRANCH   2   3
HETATM    3  C   UNL     1     -10.446  13.552  64.802  1.00  0.00    -0.413 C  
BRANCH   3   4
HETATM    4  N   UNL     1     -10.415  13.736  66.270  1.00  0.00    -0.286 NA 
BRANCH   4   5
HETATM    5  C   UNL     1     -11.584  14.517  66.734  1.00  0.00    -0.376 C  
BRANCH   5   6
HETATM    6  C   UNL     1     -11.276  15.727  67.636  1.00  0.00    -0.246 C  
HETATM    7  C   UNL     1     -11.108  15.363  69.104  1.00  0.00    -0.267 C  
ENDBRANCH   5   6
ENDBRANCH   4   5
BRANCH   4   8
HETATM    8  C   UNL     1     -10.367  12.413  66.943  1.00  0.00    -0.224 C  
BRANCH   8   9
HETATM    9  C   UNL     1     -11.632  11.983  67.721  1.00  0.00    -0.400 C  
BRANCH   9  10
HETATM   10  C   UNL     1     -11.419  10.867  68.712  1.00  0.00    -0.376 A  
HETATM   11  C   UNL     1     -10.936   9.619  68.336  1.00  0.00    -0.161 A  
HETATM   12  C   UNL     1     -10.532   9.093  66.986  1.00  0.00    -0.311 C  
HETATM   13  C   UNL     1     -10.091   7.663  67.303  1.00  0.00    -0.237 C  
HETATM   14  N   UNL     1     -10.260   7.468  68.668  1.00  0.00    -0.193 N  
HETATM   15  O   UNL     1      -9.672   6.836  66.510  1.00  0.00    -0.174 OA 
HETATM   16  H   UNL     1     -10.044   6.599  69.155  1.00  0.00     0.000 HD 
HETATM   17  C   UNL     1     -10.758   8.606  69.281  1.00  0.00    -0.136 A  
HETATM   18  C   UNL     1     -11.046   8.770  70.618  1.00  0.00    -0.285 A  
HETATM   19  C   UNL     1     -11.542  10.011  71.012  1.00  0.00    -0.476 A  
HETATM   20  C   UNL     1     -11.731  11.043  70.073  1.00  0.00    -0.437 A  
ENDBRANCH   9  10
ENDBRANCH   8   9
ENDBRANCH   4   8
ENDBRANCH   3   4
ENDBRANCH   2   3
TORSDOF 7
ENDMDL
MODEL      147
REMARK 921   NORMALIZED FREE ENERGY PREDICTED BY IDOCK:   -4.16 KCAL/MOL
REMARK 922        TOTAL FREE ENERGY PREDICTED BY IDOCK:   -6.75 KCAL/MOL
REMARK 923 INTER-LIGAND FREE ENERGY PREDICTED BY IDOCK:   -6.11 KCAL/MOL
REMARK 924 INTRA-LIGAND FREE ENERGY PREDICTED BY IDOCK:   -0.64 KCAL/MOL
REMARK 927      BINDING AFFINITY PREDICTED BY RF-SCORE:    0.00 PKD
ROOT
HETATM    1  C   UNL     1      -6.763  16.150  68.946  1.00  0.00    -0.147 C  
HETATM    2  C   UNL     1      -6.950  15.725  67.498  1.00  0.00    -0.216 C  
ENDROOT
BRANCH   2   3
HETATM    3  C   UNL     1      -8.243  14.935  67.241  1.00  0.00    -0.209 C  
BRANCH   3   4
HETATM    4  N   UNL     1      -9.195  14.796  68.365  1.00  0.00    -0.184 NA 
BRANCH   4   5
HETATM    5  C   UNL     1     -10.240  15.843  68.312  1.00  0.00    -0.227 C  
BRANCH   5   6
HETATM    6  C   UNL     1     -11.536  15.547  69.089  1.00  0.00    -0.374 C  
HETATM    7  C   UNL     1     -11.406  15.757  70.590  1.00  0.00    -0.412 C  
ENDBRANCH   5   6
ENDBRANCH   4   5
BRANCH   4   8
HETATM    8  C   UNL     1      -9.807  13.442  68.343  1.00  0.00    -0.216 C  
BRANCH   8   9
HETATM    9  C   UNL     1      -9.418  12.524  67.161  1.00  0.00    -0.208 C  
BRANCH   9  10
HETATM   10  C   UNL     1     -10.410  12.498  66.026  1.00  0.00    -0.277 A  
HETATM   11  C   UNL     1     -10.220  11.723  64.887  1.00  0.00    -0.315 A  
HETATM   12  C   UNL     1      -9.098  10.795  64.513  1.00  0.00    -0.220 C  
HETATM   13  C   UNL     1      -9.539  10.273  63.144  1.00  0.00    -0.250 C  
HETATM   14  N   UNL     1     -10.753  10.876  62.840  1.00  0.00    -0.745 N  
HETATM   15  O   UNL     1      -8.940   9.478  62.439  1.00  0.00    -0.245 OA 
HETATM   16  H   UNL     1     -11.278  10.711  61.982  1.00  0.00     0.000 HD 
HETATM   17  C   UNL     1     -11.159  11.731  63.853  1.00  0.00    -0.408 A  
HETATM   18  C   UNL     1     -12.307  12.490  63.888  1.00  0.00    -0.576 A  
HETATM   19  C   UNL     1     -12.509  13.282  65.016  1.00  0.00    -0.498 A  
HETATM   20  C   UNL     1     -11.573  13.290  66.068  1.00  0.00    -0.384 A  
ENDBRANCH   9  10
ENDBRANCH   8   9
ENDBRANCH   4   8
ENDBRANCH   3   4
ENDBRANCH   2   3
TORSDOF 7
ENDMDL
MODEL      148
REMARK 921   NORMALIZED FREE ENERGY PREDICTED BY IDOCK:   -4.15 KCAL/MOL
REMARK 922        TOTAL FREE ENERGY PREDICTED BY IDOCK:   -6.74 KCAL/MOL
REMARK 923 INTER-LIGAND FREE ENERGY PREDICTED BY IDOCK:   -5.90 KCAL/MOL
REMARK 924 INTRA-LIGAND FREE ENERGY PREDICTED BY IDOCK:   -0.84 KCAL/MOL
REMARK 927      BINDING AFFINITY PREDICTED BY RF-SCORE:    0.00 PKD
ROOT
HETATM    1  C   UNL     1      -7.315  14.797  69.112  1.00  0.00    -0.151 C  
HETATM    2  C   UNL     1      -7.164  13.317  68.798  1.00  0.00    -0.088 C  
ENDROOT
BRANCH   2   3
HETATM    3  C   UNL     1      -7.416  12.961  67.324  1.00  0.00    -0.085 C  
BRANCH   3   4
HETATM    4  N   UNL     1      -8.775  12.512  66.951  1.00  0.00    -0.200 NA 
BRANCH   4   5
HETATM    5  C   UNL     1      -8.736  11.193  66.281  1.00  0.00    -0.182 C  
BRANCH   5   6
HETATM    6  C   UNL     1      -7.929  10.093  66.997  1.00  0.00    -0.110 C  
HETATM    7  C   UNL     1      -8.709   8.803  67.201  1.00  0.00    -0.127 C  
ENDBRANCH   5   6
ENDBRANCH   4   5
BRANCH   4   8
HETATM    8  C   UNL     1      -9.639  12.461  68.160  1.00  0.00    -0.218 C  
BRANCH   8   9
HETATM    9  C   UNL     1     -10.867  13.400  68.176  1.00  0.00    -0.273 C  
BRANCH   9  10
HETATM   10  C   UNL     1     -11.013  14.272  66.954  1.00  0.00    -0.304 A  
HETATM   11  C   UNL     1     -11.607  13.820  65.782  1.00  0.00    -0.342 A  
HETATM   12  C   UNL     1     -12.208  12.484  65.443  1.00  0.00    -0.475 C  
HETATM   13  C   UNL     1     -12.682  12.687  64.002  1.00  0.00    -0.269 C  
HETATM   14  N   UNL     1     -12.352  13.984  63.635  1.00  0.00    -1.059 N  
HETATM   15  O   UNL     1     -13.244  11.865  63.297  1.00  0.00    -0.602 OA 
HETATM   16  H   UNL     1     -12.550  14.391  62.720  1.00  0.00     0.000 HD 
HETATM   17  C   UNL     1     -11.717  14.655  64.668  1.00  0.00    -0.426 A  
HETATM   18  C   UNL     1     -11.253  15.951  64.654  1.00  0.00    -0.361 A  
HETATM   19  C   UNL     1     -10.643  16.419  65.816  1.00  0.00    -0.327 A  
HETATM   20  C   UNL     1     -10.520  15.591  66.949  1.00  0.00    -0.301 A  
ENDBRANCH   9  10
ENDBRANCH   8   9
ENDBRANCH   4   8
ENDBRANCH   3   4
ENDBRANCH   2   3
TORSDOF 7
ENDMDL
MODEL      149
REMARK 921   NORMALIZED FREE ENERGY PREDICTED BY IDOCK:   -4.14 KCAL/MOL
REMARK 922        TOTAL FREE ENERGY PREDICTED BY IDOCK:   -6.72 KCAL/MOL
REMARK 923 INTER-LIGAND FREE ENERGY PREDICTED BY IDOCK:   -5.91 KCAL/MOL
REMARK 924 INTRA-LIGAND FREE ENERGY PREDICTED BY IDOCK:   -0.81 KCAL/MOL
REMARK 927      BINDING AFFINITY PREDICTED BY RF-SCORE:    0.00 PKD
ROOT
HETATM    1  C   UNL     1     -10.085   7.309  66.824  1.00  0.00    -0.291 C  
HETATM    2  C   UNL     1     -10.989   6.532  67.767  1.00  0.00    -0.407 C  
ENDROOT
BRANCH   2   3
HETATM    3  C   UNL     1     -10.233   5.717  68.828  1.00  0.00    -0.195 C  
BRANCH   3   4
HETATM    4  N   UNL     1     -10.915   5.475  70.119  1.00  0.00    -0.238 NA 
BRANCH   4   5
HETATM    5  C   UNL     1      -9.936   5.222  71.200  1.00  0.00    -0.201 C  
BRANCH   5   6
HETATM    6  C   UNL     1      -9.516   3.754  71.404  1.00  0.00    -0.225 C  
HETATM    7  C   UNL     1     -10.038   3.148  72.699  1.00  0.00    -0.230 C  
ENDBRANCH   5   6
ENDBRANCH   4   5
BRANCH   4   8
HETATM    8  C   UNL     1     -11.782   6.634  70.456  1.00  0.00    -0.394 C  
BRANCH   8   9
HETATM    9  C   UNL     1     -11.191   7.684  71.425  1.00  0.00    -0.273 C  
BRANCH   9  10
HETATM   10  C   UNL     1     -11.691   9.091  71.216  1.00  0.00    -0.382 A  
HETATM   11  C   UNL     1     -11.089   9.972  70.326  1.00  0.00    -0.381 A  
HETATM   12  C   UNL     1      -9.903   9.787  69.419  1.00  0.00    -0.217 C  
HETATM   13  C   UNL     1      -9.803  11.144  68.720  1.00  0.00    -0.192 C  
HETATM   14  N   UNL     1     -10.820  11.947  69.221  1.00  0.00    -0.425 N  
HETATM   15  O   UNL     1      -8.982  11.473  67.880  1.00  0.00    -0.148 OA 
HETATM   16  H   UNL     1     -10.988  12.910  68.930  1.00  0.00     0.000 HD 
HETATM   17  C   UNL     1     -11.576  11.271  70.165  1.00  0.00    -0.305 A  
HETATM   18  C   UNL     1     -12.659  11.757  70.863  1.00  0.00    -0.384 A  
HETATM   19  C   UNL     1     -13.269  10.892  71.770  1.00  0.00    -0.513 A  
HETATM   20  C   UNL     1     -12.790   9.580  71.948  1.00  0.00    -0.508 A  
ENDBRANCH   9  10
ENDBRANCH   8   9
ENDBRANCH   4   8
ENDBRANCH   3   4
ENDBRANCH   2   3
TORSDOF 7
ENDMDL
MODEL      150
REMARK 921   NORMALIZED FREE ENERGY PREDICTED BY IDOCK:   -4.11 KCAL/MOL
REMARK 922        TOTAL FREE ENERGY PREDICTED BY IDOCK:   -6.67 KCAL/MOL
REMARK 923 INTER-LIGAND FREE ENERGY PREDICTED BY IDOCK:   -6.13 KCAL/MOL
REMARK 924 INTRA-LIGAND FREE ENERGY PREDICTED BY IDOCK:   -0.54 KCAL/MOL
REMARK 927      BINDING AFFINITY PREDICTED BY RF-SCORE:    0.00 PKD
ROOT
HETATM    1  C   UNL     1      -9.739  19.673  68.825  1.00  0.00    -0.488 C  
HETATM    2  C   UNL     1     -10.068  18.189  68.790  1.00  0.00    -0.392 C  
ENDROOT
BRANCH   2   3
HETATM    3  C   UNL     1     -10.750  17.731  67.492  1.00  0.00    -0.307 C  
BRANCH   3   4
HETATM    4  N   UNL     1     -10.231  16.507  66.841  1.00  0.00    -0.290 NA 
BRANCH   4   5
HETATM    5  C   UNL     1      -8.790  16.324  67.121  1.00  0.00    -0.193 C  
BRANCH   5   6
HETATM    6  C   UNL     1      -7.817  17.033  66.159  1.00  0.00    -0.295 C  
HETATM    7  C   UNL     1      -6.391  17.107  66.683  1.00  0.00    -0.254 C  
ENDBRANCH   5   6
ENDBRANCH   4   5
BRANCH   4   8
HETATM    8  C   UNL     1     -11.009  15.325  67.298  1.00  0.00    -0.327 C  
BRANCH   8   9
HETATM    9  C   UNL     1     -11.321  14.247  66.234  1.00  0.00    -0.347 C  
BRANCH   9  10
HETATM   10  C   UNL     1     -11.165  12.825  66.710  1.00  0.00    -0.338 A  
HETATM   11  C   UNL     1     -10.660  11.818  65.895  1.00  0.00    -0.314 A  
HETATM   12  C   UNL     1     -10.177  11.862  64.472  1.00  0.00    -0.320 C  
HETATM   13  C   UNL     1      -9.755  10.413  64.218  1.00  0.00    -0.326 C  
HETATM   14  N   UNL     1     -10.003   9.697  65.382  1.00  0.00    -0.397 N  
HETATM   15  O   UNL     1      -9.288   9.960  63.186  1.00  0.00    -0.275 OA 
HETATM   16  H   UNL     1      -9.816   8.701  65.495  1.00  0.00     0.000 HD 
HETATM   17  C   UNL     1     -10.538  10.509  66.369  1.00  0.00    -0.149 A  
HETATM   18  C   UNL     1     -10.903  10.136  67.643  1.00  0.00    -0.346 A  
HETATM   19  C   UNL     1     -11.423  11.130  68.470  1.00  0.00    -0.371 A  
HETATM   20  C   UNL     1     -11.557  12.454  68.010  1.00  0.00    -0.403 A  
ENDBRANCH   9  10
ENDBRANCH   8   9
ENDBRANCH   4   8
ENDBRANCH   3   4
ENDBRANCH   2   3
TORSDOF 7
ENDMDL
MODEL      151
REMARK 921   NORMALIZED FREE ENERGY PREDICTED BY IDOCK:   -4.11 KCAL/MOL
REMARK 922        TOTAL FREE ENERGY PREDICTED BY IDOCK:   -6.67 KCAL/MOL
REMARK 923 INTER-LIGAND FREE ENERGY PREDICTED BY IDOCK:   -5.93 KCAL/MOL
REMARK 924 INTRA-LIGAND FREE ENERGY PREDICTED BY IDOCK:   -0.74 KCAL/MOL
REMARK 927      BINDING AFFINITY PREDICTED BY RF-SCORE:    0.00 PKD
ROOT
HETATM    1  C   UNL     1      -6.746  13.311  68.057  1.00  0.00    -0.127 C  
HETATM    2  C   UNL     1      -7.612  12.099  68.359  1.00  0.00    -0.128 C  
ENDROOT
BRANCH   2   3
HETATM    3  C   UNL     1      -8.317  11.511  67.127  1.00  0.00    -0.160 C  
BRANCH   3   4
HETATM    4  N   UNL     1      -9.796  11.467  67.140  1.00  0.00    -0.189 NA 
BRANCH   4   5
HETATM    5  C   UNL     1     -10.300  10.262  66.443  1.00  0.00    -0.195 C  
BRANCH   5   6
HETATM    6  C   UNL     1      -9.954  10.151  64.946  1.00  0.00    -0.358 C  
HETATM    7  C   UNL     1     -10.628  11.210  64.087  1.00  0.00    -0.436 C  
ENDBRANCH   5   6
ENDBRANCH   4   5
BRANCH   4   8
HETATM    8  C   UNL     1     -10.289  11.507  68.541  1.00  0.00    -0.210 C  
BRANCH   8   9
HETATM    9  C   UNL     1     -11.572  12.329  68.802  1.00  0.00    -0.380 C  
BRANCH   9  10
HETATM   10  C   UNL     1     -11.338  13.783  69.123  1.00  0.00    -0.329 A  
HETATM   11  C   UNL     1     -11.861  14.389  70.260  1.00  0.00    -0.382 A  
HETATM   12  C   UNL     1     -12.707  13.824  71.367  1.00  0.00    -0.450 C  
HETATM   13  C   UNL     1     -12.904  15.032  72.286  1.00  0.00    -0.333 C  
HETATM   14  N   UNL     1     -12.240  16.106  71.709  1.00  0.00    -0.599 N  
HETATM   15  O   UNL     1     -13.531  15.057  73.332  1.00  0.00    -0.487 OA 
HETATM   16  H   UNL     1     -12.207  17.043  72.110  1.00  0.00     0.000 HD 
HETATM   17  C   UNL     1     -11.629  15.742  70.520  1.00  0.00    -0.375 A  
HETATM   18  C   UNL     1     -10.888  16.549  69.686  1.00  0.00    -0.322 A  
HETATM   19  C   UNL     1     -10.366  15.963  68.536  1.00  0.00    -0.232 A  
HETATM   20  C   UNL     1     -10.591  14.601  68.255  1.00  0.00    -0.235 A  
ENDBRANCH   9  10
ENDBRANCH   8   9
ENDBRANCH   4   8
ENDBRANCH   3   4
ENDBRANCH   2   3
TORSDOF 7
ENDMDL
MODEL      152
REMARK 921   NORMALIZED FREE ENERGY PREDICTED BY IDOCK:   -4.08 KCAL/MOL
REMARK 922        TOTAL FREE ENERGY PREDICTED BY IDOCK:   -6.63 KCAL/MOL
REMARK 923 INTER-LIGAND FREE ENERGY PREDICTED BY IDOCK:   -5.93 KCAL/MOL
REMARK 924 INTRA-LIGAND FREE ENERGY PREDICTED BY IDOCK:   -0.71 KCAL/MOL
REMARK 927      BINDING AFFINITY PREDICTED BY RF-SCORE:    0.00 PKD
ROOT
HETATM    1  C   UNL     1     -11.552   8.073  72.479  1.00  0.00    -0.464 C  
HETATM    2  C   UNL     1     -12.033   8.634  71.150  1.00  0.00    -0.320 C  
ENDROOT
BRANCH   2   3
HETATM    3  C   UNL     1     -11.618  10.092  70.900  1.00  0.00    -0.378 C  
BRANCH   3   4
HETATM    4  N   UNL     1     -10.790  10.372  69.706  1.00  0.00    -0.274 NA 
BRANCH   4   5
HETATM    5  C   UNL     1     -10.393   9.119  69.026  1.00  0.00    -0.215 C  
BRANCH   5   6
HETATM    6  C   UNL     1      -8.893   8.771  69.068  1.00  0.00    -0.137 C  
HETATM    7  C   UNL     1      -8.166   9.361  70.266  1.00  0.00    -0.194 C  
ENDBRANCH   5   6
ENDBRANCH   4   5
BRANCH   4   8
HETATM    8  C   UNL     1     -11.533  11.262  68.776  1.00  0.00    -0.293 C  
BRANCH   8   9
HETATM    9  C   UNL     1     -11.271  11.060  67.265  1.00  0.00    -0.330 C  
BRANCH   9  10
HETATM   10  C   UNL     1     -11.206  12.332  66.458  1.00  0.00    -0.373 A  
HETATM   11  C   UNL     1     -10.159  13.238  66.577  1.00  0.00    -0.275 A  
HETATM   12  C   UNL     1      -8.931  13.204  67.445  1.00  0.00    -0.201 C  
HETATM   13  C   UNL     1      -8.214  14.499  67.059  1.00  0.00    -0.135 C  
HETATM   14  N   UNL     1      -8.994  15.138  66.104  1.00  0.00    -0.468 N  
HETATM   15  O   UNL     1      -7.155  14.907  67.506  1.00  0.00    -0.174 OA 
HETATM   16  H   UNL     1      -8.755  16.029  65.669  1.00  0.00     0.000 HD 
HETATM   17  C   UNL     1     -10.137  14.410  65.818  1.00  0.00    -0.340 A  
HETATM   18  C   UNL     1     -11.130  14.742  64.923  1.00  0.00    -0.416 A  
HETATM   19  C   UNL     1     -12.195  13.852  64.799  1.00  0.00    -0.441 A  
HETATM   20  C   UNL     1     -12.236  12.667  65.558  1.00  0.00    -0.501 A  
ENDBRANCH   9  10
ENDBRANCH   8   9
ENDBRANCH   4   8
ENDBRANCH   3   4
ENDBRANCH   2   3
TORSDOF 7
ENDMDL
MODEL      153
REMARK 921   NORMALIZED FREE ENERGY PREDICTED BY IDOCK:   -4.08 KCAL/MOL
REMARK 922        TOTAL FREE ENERGY PREDICTED BY IDOCK:   -6.63 KCAL/MOL
REMARK 923 INTER-LIGAND FREE ENERGY PREDICTED BY IDOCK:   -5.40 KCAL/MOL
REMARK 924 INTRA-LIGAND FREE ENERGY PREDICTED BY IDOCK:   -1.23 KCAL/MOL
REMARK 927      BINDING AFFINITY PREDICTED BY RF-SCORE:    0.00 PKD
ROOT
HETATM    1  C   UNL     1      -7.170  10.084  65.669  1.00  0.00    -0.120 C  
HETATM    2  C   UNL     1      -6.485   9.909  67.014  1.00  0.00    -0.069 C  
ENDROOT
BRANCH   2   3
HETATM    3  C   UNL     1      -6.686   8.521  67.642  1.00  0.00    -0.066 C  
BRANCH   3   4
HETATM    4  N   UNL     1      -7.977   8.255  68.315  1.00  0.00    -0.118 NA 
BRANCH   4   5
HETATM    5  C   UNL     1      -8.724   7.177  67.630  1.00  0.00    -0.121 C  
BRANCH   5   6
HETATM    6  C   UNL     1     -10.244   7.388  67.491  1.00  0.00    -0.289 C  
HETATM    7  C   UNL     1     -11.069   6.455  68.364  1.00  0.00    -0.374 C  
ENDBRANCH   5   6
ENDBRANCH   4   5
BRANCH   4   8
HETATM    8  C   UNL     1      -7.739   7.905  69.740  1.00  0.00    -0.099 C  
BRANCH   8   9
HETATM    9  C   UNL     1      -8.161   8.957  70.792  1.00  0.00    -0.198 C  
BRANCH   9  10
HETATM   10  C   UNL     1      -9.633   8.972  71.118  1.00  0.00    -0.356 A  
HETATM   11  C   UNL     1     -10.554   9.705  70.379  1.00  0.00    -0.354 A  
HETATM   12  C   UNL     1     -10.360  10.587  69.176  1.00  0.00    -0.240 C  
HETATM   13  C   UNL     1     -11.784  11.060  68.877  1.00  0.00    -0.330 C  
HETATM   14  N   UNL     1     -12.620  10.492  69.829  1.00  0.00    -0.532 N  
HETATM   15  O   UNL     1     -12.131  11.803  67.974  1.00  0.00    -0.572 OA 
HETATM   16  H   UNL     1     -13.629  10.639  69.870  1.00  0.00     0.000 HD 
HETATM   17  C   UNL     1     -11.909   9.700  70.716  1.00  0.00    -0.300 A  
HETATM   18  C   UNL     1     -12.413   8.988  71.781  1.00  0.00    -0.438 A  
HETATM   19  C   UNL     1     -11.504   8.256  72.542  1.00  0.00    -0.454 A  
HETATM   20  C   UNL     1     -10.133   8.251  72.219  1.00  0.00    -0.370 A  
ENDBRANCH   9  10
ENDBRANCH   8   9
ENDBRANCH   4   8
ENDBRANCH   3   4
ENDBRANCH   2   3
TORSDOF 7
ENDMDL
MODEL      154
REMARK 921   NORMALIZED FREE ENERGY PREDICTED BY IDOCK:   -4.08 KCAL/MOL
REMARK 922        TOTAL FREE ENERGY PREDICTED BY IDOCK:   -6.63 KCAL/MOL
REMARK 923 INTER-LIGAND FREE ENERGY PREDICTED BY IDOCK:   -6.04 KCAL/MOL
REMARK 924 INTRA-LIGAND FREE ENERGY PREDICTED BY IDOCK:   -0.59 KCAL/MOL
REMARK 927      BINDING AFFINITY PREDICTED BY RF-SCORE:    0.00 PKD
ROOT
HETATM    1  C   UNL     1     -10.321  12.118  63.958  1.00  0.00    -0.412 C  
HETATM    2  C   UNL     1     -10.317  10.637  64.303  1.00  0.00    -0.325 C  
ENDROOT
BRANCH   2   3
HETATM    3  C   UNL     1      -9.772  10.324  65.705  1.00  0.00    -0.247 C  
BRANCH   3   4
HETATM    4  N   UNL     1     -10.626   9.520  66.607  1.00  0.00    -0.157 NA 
BRANCH   4   5
HETATM    5  C   UNL     1      -9.927   8.293  67.050  1.00  0.00    -0.255 C  
BRANCH   5   6
HETATM    6  C   UNL     1      -8.609   7.964  66.323  1.00  0.00    -0.160 C  
HETATM    7  C   UNL     1      -7.471   7.600  67.264  1.00  0.00    -0.100 C  
ENDBRANCH   5   6
ENDBRANCH   4   5
BRANCH   4   8
HETATM    8  C   UNL     1     -11.036  10.341  67.776  1.00  0.00    -0.300 C  
BRANCH   8   9
HETATM    9  C   UNL     1     -10.352  10.018  69.125  1.00  0.00    -0.233 C  
BRANCH   9  10
HETATM   10  C   UNL     1     -11.300   9.722  70.260  1.00  0.00    -0.333 A  
HETATM   11  C   UNL     1     -12.037  10.716  70.895  1.00  0.00    -0.489 A  
HETATM   12  C   UNL     1     -12.092  12.199  70.649  1.00  0.00    -0.344 C  
HETATM   13  C   UNL     1     -13.108  12.672  71.691  1.00  0.00    -0.323 C  
HETATM   14  N   UNL     1     -13.524  11.555  72.404  1.00  0.00    -0.453 N  
HETATM   15  O   UNL     1     -13.486  13.817  71.873  1.00  0.00    -0.371 OA 
HETATM   16  H   UNL     1     -14.202  11.578  73.165  1.00  0.00     0.000 HD 
HETATM   17  C   UNL     1     -12.899  10.405  71.948  1.00  0.00    -0.415 A  
HETATM   18  C   UNL     1     -13.071   9.123  72.422  1.00  0.00    -0.493 A  
HETATM   19  C   UNL     1     -12.332   8.115  71.807  1.00  0.00    -0.357 A  
HETATM   20  C   UNL     1     -11.456   8.410  70.745  1.00  0.00    -0.277 A  
ENDBRANCH   9  10
ENDBRANCH   8   9
ENDBRANCH   4   8
ENDBRANCH   3   4
ENDBRANCH   2   3
TORSDOF 7
ENDMDL
MODEL      155
REMARK 921   NORMALIZED FREE ENERGY PREDICTED BY IDOCK:   -4.08 KCAL/MOL
REMARK 922        TOTAL FREE ENERGY PREDICTED BY IDOCK:   -6.63 KCAL/MOL
REMARK 923 INTER-LIGAND FREE ENERGY PREDICTED BY IDOCK:   -5.50 KCAL/MOL
REMARK 924 INTRA-LIGAND FREE ENERGY PREDICTED BY IDOCK:   -1.13 KCAL/MOL
REMARK 927      BINDING AFFINITY PREDICTED BY RF-SCORE:    0.00 PKD
ROOT
HETATM    1  C   UNL     1      -9.931  11.800  63.370  1.00  0.00    -0.446 C  
HETATM    2  C   UNL     1      -9.958  10.541  64.222  1.00  0.00    -0.398 C  
ENDROOT
BRANCH   2   3
HETATM    3  C   UNL     1      -9.180  10.662  65.541  1.00  0.00    -0.196 C  
BRANCH   3   4
HETATM    4  N   UNL     1      -9.895  10.324  66.791  1.00  0.00    -0.189 NA 
BRANCH   4   5
HETATM    5  C   UNL     1      -9.451   9.016  67.323  1.00  0.00    -0.149 C  
BRANCH   5   6
HETATM    6  C   UNL     1     -10.564   7.998  67.636  1.00  0.00    -0.264 C  
HETATM    7  C   UNL     1     -10.304   6.616  67.055  1.00  0.00    -0.330 C  
ENDBRANCH   5   6
ENDBRANCH   4   5
BRANCH   4   8
HETATM    8  C   UNL     1      -9.687  11.398  67.797  1.00  0.00    -0.175 C  
BRANCH   8   9
HETATM    9  C   UNL     1     -10.857  12.385  68.010  1.00  0.00    -0.251 C  
BRANCH   9  10
HETATM   10  C   UNL     1     -11.275  13.146  66.777  1.00  0.00    -0.330 A  
HETATM   11  C   UNL     1     -10.596  14.274  66.330  1.00  0.00    -0.286 A  
HETATM   12  C   UNL     1      -9.384  14.969  66.887  1.00  0.00    -0.258 C  
HETATM   13  C   UNL     1      -9.176  16.119  65.899  1.00  0.00    -0.261 C  
HETATM   14  N   UNL     1     -10.179  16.032  64.942  1.00  0.00    -0.033 N  
HETATM   15  O   UNL     1      -8.297  16.964  65.939  1.00  0.00    -0.498 OA 
HETATM   16  H   UNL     1     -10.283  16.677  64.159  1.00  0.00     0.000 HD 
HETATM   17  C   UNL     1     -11.018  14.957  65.188  1.00  0.00    -0.399 A  
HETATM   18  C   UNL     1     -12.112  14.573  64.446  1.00  0.00    -0.492 A  
HETATM   19  C   UNL     1     -12.814  13.452  64.885  1.00  0.00    -0.292 A  
HETATM   20  C   UNL     1     -12.405  12.751  66.036  1.00  0.00    -0.251 A  
ENDBRANCH   9  10
ENDBRANCH   8   9
ENDBRANCH   4   8
ENDBRANCH   3   4
ENDBRANCH   2   3
TORSDOF 7
ENDMDL
MODEL      156
REMARK 921   NORMALIZED FREE ENERGY PREDICTED BY IDOCK:   -4.07 KCAL/MOL
REMARK 922        TOTAL FREE ENERGY PREDICTED BY IDOCK:   -6.62 KCAL/MOL
REMARK 923 INTER-LIGAND FREE ENERGY PREDICTED BY IDOCK:   -5.67 KCAL/MOL
REMARK 924 INTRA-LIGAND FREE ENERGY PREDICTED BY IDOCK:   -0.95 KCAL/MOL
REMARK 927      BINDING AFFINITY PREDICTED BY RF-SCORE:    0.00 PKD
ROOT
HETATM    1  C   UNL     1      -6.963   7.731  67.376  1.00  0.00    -0.078 C  
HETATM    2  C   UNL     1      -7.996   8.642  68.019  1.00  0.00    -0.107 C  
ENDROOT
BRANCH   2   3
HETATM    3  C   UNL     1      -7.578  10.120  68.075  1.00  0.00    -0.088 C  
BRANCH   3   4
HETATM    4  N   UNL     1      -8.424  11.099  67.357  1.00  0.00    -0.132 NA 
BRANCH   4   5
HETATM    5  C   UNL     1      -8.399  10.856  65.898  1.00  0.00    -0.149 C  
BRANCH   5   6
HETATM    6  C   UNL     1      -9.684  10.266  65.287  1.00  0.00    -0.354 C  
HETATM    7  C   UNL     1      -9.860  10.592  63.811  1.00  0.00    -0.363 C  
ENDBRANCH   5   6
ENDBRANCH   4   5
BRANCH   4   8
HETATM    8  C   UNL     1      -9.815  11.038  67.876  1.00  0.00    -0.171 C  
BRANCH   8   9
HETATM    9  C   UNL     1     -10.430  12.368  68.369  1.00  0.00    -0.245 C  
BRANCH   9  10
HETATM   10  C   UNL     1     -10.075  13.576  67.540  1.00  0.00    -0.234 A  
HETATM   11  C   UNL     1     -10.692  13.855  66.326  1.00  0.00    -0.285 A  
HETATM   12  C   UNL     1     -11.770  13.114  65.585  1.00  0.00    -0.402 C  
HETATM   13  C   UNL     1     -11.975  13.980  64.340  1.00  0.00    -0.454 C  
HETATM   14  N   UNL     1     -11.089  15.047  64.425  1.00  0.00    -0.657 N  
HETATM   15  O   UNL     1     -12.764  13.777  63.433  1.00  0.00    -0.795 OA 
HETATM   16  H   UNL     1     -11.009  15.784  63.725  1.00  0.00     0.000 HD 
HETATM   17  C   UNL     1     -10.330  14.981  65.582  1.00  0.00    -0.353 A  
HETATM   18  C   UNL     1      -9.359  15.868  65.989  1.00  0.00    -0.385 A  
HETATM   19  C   UNL     1      -8.720  15.598  67.197  1.00  0.00    -0.233 A  
HETATM   20  C   UNL     1      -9.069  14.467  67.960  1.00  0.00    -0.185 A  
ENDBRANCH   9  10
ENDBRANCH   8   9
ENDBRANCH   4   8
ENDBRANCH   3   4
ENDBRANCH   2   3
TORSDOF 7
ENDMDL
MODEL      157
REMARK 921   NORMALIZED FREE ENERGY PREDICTED BY IDOCK:   -4.06 KCAL/MOL
REMARK 922        TOTAL FREE ENERGY PREDICTED BY IDOCK:   -6.60 KCAL/MOL
REMARK 923 INTER-LIGAND FREE ENERGY PREDICTED BY IDOCK:   -5.80 KCAL/MOL
REMARK 924 INTRA-LIGAND FREE ENERGY PREDICTED BY IDOCK:   -0.80 KCAL/MOL
REMARK 927      BINDING AFFINITY PREDICTED BY RF-SCORE:    0.00 PKD
ROOT
HETATM    1  C   UNL     1     -12.156  14.768  64.285  1.00  0.00    -0.415 C  
HETATM    2  C   UNL     1     -12.235  13.410  63.606  1.00  0.00    -0.480 C  
ENDROOT
BRANCH   2   3
HETATM    3  C   UNL     1     -12.207  12.222  64.580  1.00  0.00    -0.388 C  
BRANCH   3   4
HETATM    4  N   UNL     1     -11.105  11.245  64.436  1.00  0.00    -0.267 NA 
BRANCH   4   5
HETATM    5  C   UNL     1      -9.945  11.848  63.742  1.00  0.00    -0.355 C  
BRANCH   5   6
HETATM    6  C   UNL     1      -9.347  11.028  62.584  1.00  0.00    -0.348 C  
HETATM    7  C   UNL     1      -8.221  10.100  63.015  1.00  0.00    -0.158 C  
ENDBRANCH   5   6
ENDBRANCH   4   5
BRANCH   4   8
HETATM    8  C   UNL     1     -10.708  10.733  65.773  1.00  0.00    -0.070 C  
BRANCH   8   9
HETATM    9  C   UNL     1      -9.808  11.654  66.630  1.00  0.00    -0.223 C  
BRANCH   9  10
HETATM   10  C   UNL     1     -10.531  12.423  67.706  1.00  0.00    -0.231 A  
HETATM   11  C   UNL     1     -11.129  11.799  68.795  1.00  0.00    -0.293 A  
HETATM   12  C   UNL     1     -11.208  10.343  69.165  1.00  0.00    -0.301 C  
HETATM   13  C   UNL     1     -11.992  10.375  70.479  1.00  0.00    -0.334 C  
HETATM   14  N   UNL     1     -12.294  11.703  70.751  1.00  0.00    -0.385 N  
HETATM   15  O   UNL     1     -12.304   9.416  71.165  1.00  0.00    -0.305 OA 
HETATM   16  H   UNL     1     -12.816  12.018  71.569  1.00  0.00     0.000 HD 
HETATM   17  C   UNL     1     -11.797  12.545  69.769  1.00  0.00    -0.310 A  
HETATM   18  C   UNL     1     -11.910  13.916  69.716  1.00  0.00    -0.390 A  
HETATM   19  C   UNL     1     -11.328  14.558  68.626  1.00  0.00    -0.300 A  
HETATM   20  C   UNL     1     -10.652  13.824  67.632  1.00  0.00    -0.244 A  
ENDBRANCH   9  10
ENDBRANCH   8   9
ENDBRANCH   4   8
ENDBRANCH   3   4
ENDBRANCH   2   3
TORSDOF 7
ENDMDL
MODEL      158
REMARK 921   NORMALIZED FREE ENERGY PREDICTED BY IDOCK:   -4.05 KCAL/MOL
REMARK 922        TOTAL FREE ENERGY PREDICTED BY IDOCK:   -6.59 KCAL/MOL
REMARK 923 INTER-LIGAND FREE ENERGY PREDICTED BY IDOCK:   -5.82 KCAL/MOL
REMARK 924 INTRA-LIGAND FREE ENERGY PREDICTED BY IDOCK:   -0.77 KCAL/MOL
REMARK 927      BINDING AFFINITY PREDICTED BY RF-SCORE:    0.00 PKD
ROOT
HETATM    1  C   UNL     1      -6.328  14.959  70.286  1.00  0.00    -0.138 C  
HETATM    2  C   UNL     1      -5.386  15.919  69.577  1.00  0.00    -0.112 C  
ENDROOT
BRANCH   2   3
HETATM    3  C   UNL     1      -5.977  17.319  69.349  1.00  0.00    -0.228 C  
BRANCH   3   4
HETATM    4  N   UNL     1      -7.251  17.411  68.601  1.00  0.00    -0.227 NA 
BRANCH   4   5
HETATM    5  C   UNL     1      -7.846  18.760  68.727  1.00  0.00    -0.310 C  
BRANCH   5   6
HETATM    6  C   UNL     1      -6.855  19.925  68.906  1.00  0.00    -0.359 C  
HETATM    7  C   UNL     1      -6.676  20.769  67.653  1.00  0.00    -0.394 C  
ENDBRANCH   5   6
ENDBRANCH   4   5
BRANCH   4   8
HETATM    8  C   UNL     1      -7.023  17.069  67.173  1.00  0.00    -0.179 C  
BRANCH   8   9
HETATM    9  C   UNL     1      -8.273  16.705  66.339  1.00  0.00    -0.353 C  
BRANCH   9  10
HETATM   10  C   UNL     1      -8.702  15.263  66.437  1.00  0.00    -0.265 A  
HETATM   11  C   UNL     1      -9.826  14.773  65.782  1.00  0.00    -0.373 A  
HETATM   12  C   UNL     1     -10.816  15.468  64.888  1.00  0.00    -0.447 C  
HETATM   13  C   UNL     1     -11.777  14.338  64.514  1.00  0.00    -0.418 C  
HETATM   14  N   UNL     1     -11.336  13.187  65.154  1.00  0.00    -0.292 N  
HETATM   15  O   UNL     1     -12.756  14.423  63.790  1.00  0.00    -0.785 OA 
HETATM   16  H   UNL     1     -11.793  12.278  65.081  1.00  0.00     0.000 HD 
HETATM   17  C   UNL     1     -10.197  13.432  65.903  1.00  0.00    -0.299 A  
HETATM   18  C   UNL     1      -9.492  12.526  66.663  1.00  0.00    -0.242 A  
HETATM   19  C   UNL     1      -8.369  13.000  67.337  1.00  0.00    -0.194 A  
HETATM   20  C   UNL     1      -7.981  14.350  67.230  1.00  0.00    -0.204 A  
ENDBRANCH   9  10
ENDBRANCH   8   9
ENDBRANCH   4   8
ENDBRANCH   3   4
ENDBRANCH   2   3
TORSDOF 7
ENDMDL
MODEL      159
REMARK 921   NORMALIZED FREE ENERGY PREDICTED BY IDOCK:   -4.04 KCAL/MOL
REMARK 922        TOTAL FREE ENERGY PREDICTED BY IDOCK:   -6.58 KCAL/MOL
REMARK 923 INTER-LIGAND FREE ENERGY PREDICTED BY IDOCK:   -5.94 KCAL/MOL
REMARK 924 INTRA-LIGAND FREE ENERGY PREDICTED BY IDOCK:   -0.64 KCAL/MOL
REMARK 927      BINDING AFFINITY PREDICTED BY RF-SCORE:    0.00 PKD
ROOT
HETATM    1  C   UNL     1      -9.618   7.761  73.164  1.00  0.00    -0.337 C  
HETATM    2  C   UNL     1      -9.983   8.735  72.055  1.00  0.00    -0.391 C  
ENDROOT
BRANCH   2   3
HETATM    3  C   UNL     1      -8.895   8.896  70.982  1.00  0.00    -0.230 C  
BRANCH   3   4
HETATM    4  N   UNL     1      -9.335   9.032  69.576  1.00  0.00    -0.156 NA 
BRANCH   4   5
HETATM    5  C   UNL     1      -8.952   7.844  68.781  1.00  0.00    -0.141 C  
BRANCH   5   6
HETATM    6  C   UNL     1      -7.443   7.646  68.541  1.00  0.00    -0.104 C  
HETATM    7  C   UNL     1      -7.026   6.185  68.470  1.00  0.00    -0.076 C  
ENDBRANCH   5   6
ENDBRANCH   4   5
BRANCH   4   8
HETATM    8  C   UNL     1     -10.805   9.245  69.527  1.00  0.00    -0.195 C  
BRANCH   8   9
HETATM    9  C   UNL     1     -11.294  10.553  68.864  1.00  0.00    -0.313 C  
BRANCH   9  10
HETATM   10  C   UNL     1     -11.968  11.524  69.800  1.00  0.00    -0.415 A  
HETATM   11  C   UNL     1     -11.945  12.899  69.592  1.00  0.00    -0.358 A  
HETATM   12  C   UNL     1     -11.316  13.711  68.494  1.00  0.00    -0.325 C  
HETATM   13  C   UNL     1     -11.689  15.143  68.882  1.00  0.00    -0.333 C  
HETATM   14  N   UNL     1     -12.423  15.077  70.059  1.00  0.00    -0.517 N  
HETATM   15  O   UNL     1     -11.398  16.162  68.278  1.00  0.00    -0.361 OA 
HETATM   16  H   UNL     1     -12.802  15.889  70.547  1.00  0.00     0.000 HD 
HETATM   17  C   UNL     1     -12.575  13.767  70.486  1.00  0.00    -0.291 A  
HETATM   18  C   UNL     1     -13.242  13.333  71.609  1.00  0.00    -0.446 A  
HETATM   19  C   UNL     1     -13.266  11.959  71.841  1.00  0.00    -0.467 A  
HETATM   20  C   UNL     1     -12.634  11.068  70.953  1.00  0.00    -0.488 A  
ENDBRANCH   9  10
ENDBRANCH   8   9
ENDBRANCH   4   8
ENDBRANCH   3   4
ENDBRANCH   2   3
TORSDOF 7
ENDMDL
MODEL      160
REMARK 921   NORMALIZED FREE ENERGY PREDICTED BY IDOCK:   -4.03 KCAL/MOL
REMARK 922        TOTAL FREE ENERGY PREDICTED BY IDOCK:   -6.56 KCAL/MOL
REMARK 923 INTER-LIGAND FREE ENERGY PREDICTED BY IDOCK:   -5.81 KCAL/MOL
REMARK 924 INTRA-LIGAND FREE ENERGY PREDICTED BY IDOCK:   -0.75 KCAL/MOL
REMARK 927      BINDING AFFINITY PREDICTED BY RF-SCORE:    0.00 PKD
ROOT
HETATM    1  C   UNL     1     -10.835   6.015  67.180  1.00  0.00    -0.414 C  
HETATM    2  C   UNL     1     -10.974   7.287  68.001  1.00  0.00    -0.081 C  
ENDROOT
BRANCH   2   3
HETATM    3  C   UNL     1     -10.422   8.541  67.307  1.00  0.00    -0.296 C  
BRANCH   3   4
HETATM    4  N   UNL     1      -9.256   9.210  67.928  1.00  0.00    -0.134 NA 
BRANCH   4   5
HETATM    5  C   UNL     1      -8.080   9.172  67.032  1.00  0.00    -0.109 C  
BRANCH   5   6
HETATM    6  C   UNL     1      -8.038  10.240  65.923  1.00  0.00    -0.143 C  
HETATM    7  C   UNL     1      -7.774   9.668  64.538  1.00  0.00    -0.131 C  
ENDBRANCH   5   6
ENDBRANCH   4   5
BRANCH   4   8
HETATM    8  C   UNL     1      -9.606  10.611  68.277  1.00  0.00    -0.162 C  
BRANCH   8   9
HETATM    9  C   UNL     1     -11.073  11.039  68.041  1.00  0.00    -0.343 C  
BRANCH   9  10
HETATM   10  C   UNL     1     -11.679  11.863  69.149  1.00  0.00    -0.380 A  
HETATM   11  C   UNL     1     -12.272  11.287  70.267  1.00  0.00    -0.428 A  
HETATM   12  C   UNL     1     -12.450   9.842  70.644  1.00  0.00    -0.268 C  
HETATM   13  C   UNL     1     -13.164   9.936  71.994  1.00  0.00    -0.456 C  
HETATM   14  N   UNL     1     -13.345  11.283  72.277  1.00  0.00    -0.538 N  
HETATM   15  O   UNL     1     -13.518   9.004  72.697  1.00  0.00    -0.463 OA 
HETATM   16  H   UNL     1     -13.799  11.638  73.119  1.00  0.00     0.000 HD 
HETATM   17  C   UNL     1     -12.829  12.084  71.270  1.00  0.00    -0.265 A  
HETATM   18  C   UNL     1     -12.834  13.459  71.219  1.00  0.00    -0.407 A  
HETATM   19  C   UNL     1     -12.255  14.054  70.101  1.00  0.00    -0.425 A  
HETATM   20  C   UNL     1     -11.690  13.269  69.077  1.00  0.00    -0.368 A  
ENDBRANCH   9  10
ENDBRANCH   8   9
ENDBRANCH   4   8
ENDBRANCH   3   4
ENDBRANCH   2   3
TORSDOF 7
ENDMDL
MODEL      161
REMARK 921   NORMALIZED FREE ENERGY PREDICTED BY IDOCK:   -4.02 KCAL/MOL
REMARK 922        TOTAL FREE ENERGY PREDICTED BY IDOCK:   -6.55 KCAL/MOL
REMARK 923 INTER-LIGAND FREE ENERGY PREDICTED BY IDOCK:   -5.49 KCAL/MOL
REMARK 924 INTRA-LIGAND FREE ENERGY PREDICTED BY IDOCK:   -1.06 KCAL/MOL
REMARK 927      BINDING AFFINITY PREDICTED BY RF-SCORE:    0.00 PKD
ROOT
HETATM    1  C   UNL     1     -12.307  11.270  70.304  1.00  0.00    -0.389 C  
HETATM    2  C   UNL     1     -11.924  12.712  70.010  1.00  0.00    -0.377 C  
ENDROOT
BRANCH   2   3
HETATM    3  C   UNL     1     -11.152  12.897  68.694  1.00  0.00    -0.269 C  
BRANCH   3   4
HETATM    4  N   UNL     1     -10.947  11.700  67.848  1.00  0.00    -0.211 NA 
BRANCH   4   5
HETATM    5  C   UNL     1     -11.450  11.926  66.475  1.00  0.00    -0.314 C  
BRANCH   5   6
HETATM    6  C   UNL     1     -10.597  11.339  65.334  1.00  0.00    -0.312 C  
HETATM    7  C   UNL     1     -11.065  11.755  63.948  1.00  0.00    -0.482 C  
ENDBRANCH   5   6
ENDBRANCH   4   5
BRANCH   4   8
HETATM    8  C   UNL     1      -9.505  11.341  67.826  1.00  0.00    -0.170 C  
BRANCH   8   9
HETATM    9  C   UNL     1      -9.050  10.237  68.808  1.00  0.00    -0.159 C  
BRANCH   9  10
HETATM   10  C   UNL     1      -9.786   8.928  68.675  1.00  0.00    -0.179 A  
HETATM   11  C   UNL     1     -10.268   8.227  69.775  1.00  0.00    -0.204 A  
HETATM   12  C   UNL     1     -10.200   8.547  71.243  1.00  0.00    -0.287 C  
HETATM   13  C   UNL     1     -10.933   7.363  71.876  1.00  0.00    -0.233 C  
HETATM   14  N   UNL     1     -11.327   6.519  70.847  1.00  0.00    -0.317 N  
HETATM   15  O   UNL     1     -11.136   7.183  73.066  1.00  0.00    -0.302 OA 
HETATM   16  H   UNL     1     -11.837   5.646  70.983  1.00  0.00     0.000 HD 
HETATM   17  C   UNL     1     -10.938   7.013  69.612  1.00  0.00    -0.236 A  
HETATM   18  C   UNL     1     -11.161   6.439  68.381  1.00  0.00    -0.374 A  
HETATM   19  C   UNL     1     -10.675   7.120  67.267  1.00  0.00    -0.399 A  
HETATM   20  C   UNL     1      -9.994   8.344  67.411  1.00  0.00    -0.274 A  
ENDBRANCH   9  10
ENDBRANCH   8   9
ENDBRANCH   4   8
ENDBRANCH   3   4
ENDBRANCH   2   3
TORSDOF 7
ENDMDL
MODEL      162
REMARK 921   NORMALIZED FREE ENERGY PREDICTED BY IDOCK:   -4.00 KCAL/MOL
REMARK 922        TOTAL FREE ENERGY PREDICTED BY IDOCK:   -6.52 KCAL/MOL
REMARK 923 INTER-LIGAND FREE ENERGY PREDICTED BY IDOCK:   -5.59 KCAL/MOL
REMARK 924 INTRA-LIGAND FREE ENERGY PREDICTED BY IDOCK:   -0.93 KCAL/MOL
REMARK 927      BINDING AFFINITY PREDICTED BY RF-SCORE:    0.00 PKD
ROOT
HETATM    1  C   UNL     1      -7.655  13.131  68.533  1.00  0.00    -0.122 C  
HETATM    2  C   UNL     1      -7.623  11.688  68.057  1.00  0.00    -0.117 C  
ENDROOT
BRANCH   2   3
HETATM    3  C   UNL     1      -7.823  11.526  66.542  1.00  0.00    -0.071 C  
BRANCH   3   4
HETATM    4  N   UNL     1      -9.180  11.175  66.065  1.00  0.00    -0.199 NA 
BRANCH   4   5
HETATM    5  C   UNL     1      -9.128  10.088  65.062  1.00  0.00    -0.211 C  
BRANCH   5   6
HETATM    6  C   UNL     1      -9.421  10.495  63.606  1.00  0.00    -0.347 C  
HETATM    7  C   UNL     1     -10.563  11.491  63.471  1.00  0.00    -0.487 C  
ENDBRANCH   5   6
ENDBRANCH   4   5
BRANCH   4   8
HETATM    8  C   UNL     1     -10.034  10.787  67.217  1.00  0.00    -0.187 C  
BRANCH   8   9
HETATM    9  C   UNL     1     -11.455  11.395  67.262  1.00  0.00    -0.301 C  
BRANCH   9  10
HETATM   10  C   UNL     1     -11.718  12.306  68.434  1.00  0.00    -0.390 A  
HETATM   11  C   UNL     1     -12.206  11.837  69.649  1.00  0.00    -0.248 A  
HETATM   12  C   UNL     1     -12.565  10.443  70.085  1.00  0.00    -0.197 C  
HETATM   13  C   UNL     1     -13.018  10.653  71.531  1.00  0.00    -0.461 C  
HETATM   14  N   UNL     1     -12.914  12.010  71.807  1.00  0.00    -0.389 N  
HETATM   15  O   UNL     1     -13.405   9.794  72.306  1.00  0.00    -0.443 OA 
HETATM   16  H   UNL     1     -13.154  12.435  72.703  1.00  0.00     0.000 HD 
HETATM   17  C   UNL     1     -12.444  12.713  70.710  1.00  0.00    -0.270 A  
HETATM   18  C   UNL     1     -12.220  14.069  70.627  1.00  0.00    -0.442 A  
HETATM   19  C   UNL     1     -11.741  14.560  69.414  1.00  0.00    -0.361 A  
HETATM   20  C   UNL     1     -11.498  13.693  68.331  1.00  0.00    -0.346 A  
ENDBRANCH   9  10
ENDBRANCH   8   9
ENDBRANCH   4   8
ENDBRANCH   3   4
ENDBRANCH   2   3
TORSDOF 7
ENDMDL
MODEL      163
REMARK 921   NORMALIZED FREE ENERGY PREDICTED BY IDOCK:   -4.00 KCAL/MOL
REMARK 922        TOTAL FREE ENERGY PREDICTED BY IDOCK:   -6.52 KCAL/MOL
REMARK 923 INTER-LIGAND FREE ENERGY PREDICTED BY IDOCK:   -5.76 KCAL/MOL
REMARK 924 INTRA-LIGAND FREE ENERGY PREDICTED BY IDOCK:   -0.75 KCAL/MOL
REMARK 927      BINDING AFFINITY PREDICTED BY RF-SCORE:    0.00 PKD
ROOT
HETATM    1  C   UNL     1      -5.871  19.142  67.577  1.00  0.00    -0.173 C  
HETATM    2  C   UNL     1      -6.201  17.732  68.041  1.00  0.00    -0.167 C  
ENDROOT
BRANCH   2   3
HETATM    3  C   UNL     1      -6.931  16.883  66.989  1.00  0.00    -0.200 C  
BRANCH   3   4
HETATM    4  N   UNL     1      -8.411  16.881  67.019  1.00  0.00    -0.193 NA 
BRANCH   4   5
HETATM    5  C   UNL     1      -8.958  18.126  66.435  1.00  0.00    -0.239 C  
BRANCH   5   6
HETATM    6  C   UNL     1      -9.787  19.013  67.384  1.00  0.00    -0.386 C  
HETATM    7  C   UNL     1      -9.250  20.431  67.514  1.00  0.00    -0.475 C  
ENDBRANCH   5   6
ENDBRANCH   4   5
BRANCH   4   8
HETATM    8  C   UNL     1      -8.928  15.691  66.295  1.00  0.00    -0.342 C  
BRANCH   8   9
HETATM    9  C   UNL     1     -10.461  15.492  66.293  1.00  0.00    -0.313 C  
BRANCH   9  10
HETATM   10  C   UNL     1     -11.032  14.955  67.581  1.00  0.00    -0.300 A  
HETATM   11  C   UNL     1     -11.171  13.593  67.825  1.00  0.00    -0.310 A  
HETATM   12  C   UNL     1     -10.823  12.407  66.968  1.00  0.00    -0.282 C  
HETATM   13  C   UNL     1     -11.225  11.226  67.855  1.00  0.00    -0.290 C  
HETATM   14  N   UNL     1     -11.735  11.748  69.037  1.00  0.00    -0.303 N  
HETATM   15  O   UNL     1     -11.124  10.042  67.582  1.00  0.00    -0.285 OA 
HETATM   16  H   UNL     1     -12.082  11.183  69.812  1.00  0.00     0.000 HD 
HETATM   17  C   UNL     1     -11.712  13.134  69.027  1.00  0.00    -0.321 A  
HETATM   18  C   UNL     1     -12.138  13.977  70.028  1.00  0.00    -0.412 A  
HETATM   19  C   UNL     1     -12.019  15.346  69.797  1.00  0.00    -0.381 A  
HETATM   20  C   UNL     1     -11.479  15.829  68.590  1.00  0.00    -0.389 A  
ENDBRANCH   9  10
ENDBRANCH   8   9
ENDBRANCH   4   8
ENDBRANCH   3   4
ENDBRANCH   2   3
TORSDOF 7
ENDMDL
MODEL      164
REMARK 921   NORMALIZED FREE ENERGY PREDICTED BY IDOCK:   -3.99 KCAL/MOL
REMARK 922        TOTAL FREE ENERGY PREDICTED BY IDOCK:   -6.51 KCAL/MOL
REMARK 923 INTER-LIGAND FREE ENERGY PREDICTED BY IDOCK:   -6.10 KCAL/MOL
REMARK 924 INTRA-LIGAND FREE ENERGY PREDICTED BY IDOCK:   -0.41 KCAL/MOL
REMARK 927      BINDING AFFINITY PREDICTED BY RF-SCORE:    0.00 PKD
ROOT
HETATM    1  C   UNL     1      -6.686  19.880  68.370  1.00  0.00    -0.332 C  
HETATM    2  C   UNL     1      -8.038  19.862  67.674  1.00  0.00    -0.339 C  
ENDROOT
BRANCH   2   3
HETATM    3  C   UNL     1      -9.115  19.062  68.423  1.00  0.00    -0.347 C  
BRANCH   3   4
HETATM    4  N   UNL     1      -9.121  17.593  68.251  1.00  0.00    -0.269 NA 
BRANCH   4   5
HETATM    5  C   UNL     1      -7.901  16.983  68.826  1.00  0.00    -0.253 C  
BRANCH   5   6
HETATM    6  C   UNL     1      -7.807  15.448  68.744  1.00  0.00    -0.155 C  
HETATM    7  C   UNL     1      -7.560  14.928  67.336  1.00  0.00    -0.232 C  
ENDBRANCH   5   6
ENDBRANCH   4   5
BRANCH   4   8
HETATM    8  C   UNL     1     -10.340  17.017  68.875  1.00  0.00    -0.337 C  
BRANCH   8   9
HETATM    9  C   UNL     1     -11.262  16.181  67.957  1.00  0.00    -0.291 C  
BRANCH   9  10
HETATM   10  C   UNL     1     -11.333  14.714  68.296  1.00  0.00    -0.317 A  
HETATM   11  C   UNL     1     -11.820  14.254  69.515  1.00  0.00    -0.378 A  
HETATM   12  C   UNL     1     -12.356  15.007  70.701  1.00  0.00    -0.404 C  
HETATM   13  C   UNL     1     -12.719  13.883  71.673  1.00  0.00    -0.330 C  
HETATM   14  N   UNL     1     -12.395  12.681  71.059  1.00  0.00    -0.379 N  
HETATM   15  O   UNL     1     -13.200  14.010  72.787  1.00  0.00    -0.503 OA 
HETATM   16  H   UNL     1     -12.531  11.763  71.484  1.00  0.00     0.000 HD 
HETATM   17  C   UNL     1     -11.863  12.886  69.796  1.00  0.00    -0.310 A  
HETATM   18  C   UNL     1     -11.435  11.925  68.910  1.00  0.00    -0.358 A  
HETATM   19  C   UNL     1     -10.932  12.367  67.688  1.00  0.00    -0.276 A  
HETATM   20  C   UNL     1     -10.878  13.742  67.386  1.00  0.00    -0.285 A  
ENDBRANCH   9  10
ENDBRANCH   8   9
ENDBRANCH   4   8
ENDBRANCH   3   4
ENDBRANCH   2   3
TORSDOF 7
ENDMDL
MODEL      165
REMARK 921   NORMALIZED FREE ENERGY PREDICTED BY IDOCK:   -3.97 KCAL/MOL
REMARK 922        TOTAL FREE ENERGY PREDICTED BY IDOCK:   -6.48 KCAL/MOL
REMARK 923 INTER-LIGAND FREE ENERGY PREDICTED BY IDOCK:   -5.61 KCAL/MOL
REMARK 924 INTRA-LIGAND FREE ENERGY PREDICTED BY IDOCK:   -0.87 KCAL/MOL
REMARK 927      BINDING AFFINITY PREDICTED BY RF-SCORE:    0.00 PKD
ROOT
HETATM    1  C   UNL     1     -10.698   9.865  70.953  1.00  0.00    -0.305 C  
HETATM    2  C   UNL     1     -10.866   9.010  69.707  1.00  0.00    -0.215 C  
ENDROOT
BRANCH   2   3
HETATM    3  C   UNL     1     -10.943   9.817  68.401  1.00  0.00    -0.152 C  
BRANCH   3   4
HETATM    4  N   UNL     1      -9.806  10.707  68.079  1.00  0.00    -0.157 NA 
BRANCH   4   5
HETATM    5  C   UNL     1      -8.875  10.060  67.126  1.00  0.00    -0.135 C  
BRANCH   5   6
HETATM    6  C   UNL     1      -9.513   9.110  66.095  1.00  0.00    -0.309 C  
HETATM    7  C   UNL     1      -8.906   7.716  66.097  1.00  0.00    -0.192 C  
ENDBRANCH   5   6
ENDBRANCH   4   5
BRANCH   4   8
HETATM    8  C   UNL     1     -10.312  11.991  67.528  1.00  0.00    -0.200 C  
BRANCH   8   9
HETATM    9  C   UNL     1     -11.749  12.398  67.927  1.00  0.00    -0.421 C  
BRANCH   9  10
HETATM   10  C   UNL     1     -11.835  13.397  69.054  1.00  0.00    -0.378 A  
HETATM   11  C   UNL     1     -11.516  14.740  68.886  1.00  0.00    -0.321 A  
HETATM   12  C   UNL     1     -11.053  15.489  67.668  1.00  0.00    -0.311 C  
HETATM   13  C   UNL     1     -10.905  16.919  68.192  1.00  0.00    -0.351 C  
HETATM   14  N   UNL     1     -11.246  16.906  69.538  1.00  0.00    -0.251 N  
HETATM   15  O   UNL     1     -10.551  17.897  67.554  1.00  0.00    -0.388 OA 
HETATM   16  H   UNL     1     -11.235  17.728  70.142  1.00  0.00     0.000 HD 
HETATM   17  C   UNL     1     -11.601  15.633  69.956  1.00  0.00    -0.350 A  
HETATM   18  C   UNL     1     -11.993  15.254  71.220  1.00  0.00    -0.409 A  
HETATM   19  C   UNL     1     -12.304  13.910  71.411  1.00  0.00    -0.383 A  
HETATM   20  C   UNL     1     -12.223  12.993  70.345  1.00  0.00    -0.386 A  
ENDBRANCH   9  10
ENDBRANCH   8   9
ENDBRANCH   4   8
ENDBRANCH   3   4
ENDBRANCH   2   3
TORSDOF 7
ENDMDL
MODEL      166
REMARK 921   NORMALIZED FREE ENERGY PREDICTED BY IDOCK:   -3.97 KCAL/MOL
REMARK 922        TOTAL FREE ENERGY PREDICTED BY IDOCK:   -6.48 KCAL/MOL
REMARK 923 INTER-LIGAND FREE ENERGY PREDICTED BY IDOCK:   -5.25 KCAL/MOL
REMARK 924 INTRA-LIGAND FREE ENERGY PREDICTED BY IDOCK:   -1.23 KCAL/MOL
REMARK 927      BINDING AFFINITY PREDICTED BY RF-SCORE:    0.00 PKD
ROOT
HETATM    1  C   UNL     1     -10.683  16.221  65.421  1.00  0.00    -0.342 C  
HETATM    2  C   UNL     1      -9.541  15.220  65.495  1.00  0.00    -0.243 C  
ENDROOT
BRANCH   2   3
HETATM    3  C   UNL     1      -9.485  14.433  66.814  1.00  0.00    -0.267 C  
BRANCH   3   4
HETATM    4  N   UNL     1      -9.655  15.193  68.072  1.00  0.00    -0.202 NA 
BRANCH   4   5
HETATM    5  C   UNL     1     -10.877  14.768  68.791  1.00  0.00    -0.255 C  
BRANCH   5   6
HETATM    6  C   UNL     1     -11.800  15.897  69.286  1.00  0.00    -0.328 C  
HETATM    7  C   UNL     1     -12.342  15.668  70.689  1.00  0.00    -0.457 C  
ENDBRANCH   5   6
ENDBRANCH   4   5
BRANCH   4   8
HETATM    8  C   UNL     1      -8.454  15.022  68.931  1.00  0.00    -0.192 C  
BRANCH   8   9
HETATM    9  C   UNL     1      -7.660  16.302  69.276  1.00  0.00    -0.203 C  
BRANCH   9  10
HETATM   10  C   UNL     1      -7.214  17.112  68.085  1.00  0.00    -0.193 A  
HETATM   11  C   UNL     1      -7.843  18.293  67.708  1.00  0.00    -0.245 A  
HETATM   12  C   UNL     1      -9.012  19.015  68.318  1.00  0.00    -0.372 C  
HETATM   13  C   UNL     1      -9.159  20.238  67.410  1.00  0.00    -0.365 C  
HETATM   14  N   UNL     1      -8.179  20.149  66.430  1.00  0.00    -0.478 N  
HETATM   15  O   UNL     1      -9.985  21.129  67.516  1.00  0.00    -0.235 OA 
HETATM   16  H   UNL     1      -8.046  20.834  65.686  1.00  0.00     0.000 HD 
HETATM   17  C   UNL     1      -7.405  19.011  66.593  1.00  0.00    -0.223 A  
HETATM   18  C   UNL     1      -6.349  18.607  65.808  1.00  0.00    -0.285 A  
HETATM   19  C   UNL     1      -5.713  17.419  66.163  1.00  0.00    -0.172 A  
HETATM   20  C   UNL     1      -6.141  16.679  67.282  1.00  0.00    -0.195 A  
ENDBRANCH   9  10
ENDBRANCH   8   9
ENDBRANCH   4   8
ENDBRANCH   3   4
ENDBRANCH   2   3
TORSDOF 7
ENDMDL
MODEL      167
REMARK 921   NORMALIZED FREE ENERGY PREDICTED BY IDOCK:   -3.97 KCAL/MOL
REMARK 922        TOTAL FREE ENERGY PREDICTED BY IDOCK:   -6.48 KCAL/MOL
REMARK 923 INTER-LIGAND FREE ENERGY PREDICTED BY IDOCK:   -5.28 KCAL/MOL
REMARK 924 INTRA-LIGAND FREE ENERGY PREDICTED BY IDOCK:   -1.19 KCAL/MOL
REMARK 927      BINDING AFFINITY PREDICTED BY RF-SCORE:    0.00 PKD
ROOT
HETATM    1  C   UNL     1     -10.264  13.659  67.102  1.00  0.00    -0.244 C  
HETATM    2  C   UNL     1      -9.424  12.862  68.088  1.00  0.00    -0.218 C  
ENDROOT
BRANCH   2   3
HETATM    3  C   UNL     1     -10.087  11.560  68.563  1.00  0.00    -0.207 C  
BRANCH   3   4
HETATM    4  N   UNL     1      -9.303  10.310  68.446  1.00  0.00    -0.139 NA 
BRANCH   4   5
HETATM    5  C   UNL     1      -8.703  10.182  67.099  1.00  0.00    -0.129 C  
BRANCH   5   6
HETATM    6  C   UNL     1      -9.243   9.036  66.223  1.00  0.00    -0.258 C  
HETATM    7  C   UNL     1     -10.382   8.262  66.869  1.00  0.00    -0.391 C  
ENDBRANCH   5   6
ENDBRANCH   4   5
BRANCH   4   8
HETATM    8  C   UNL     1      -8.251  10.275  69.495  1.00  0.00    -0.155 C  
BRANCH   8   9
HETATM    9  C   UNL     1      -8.544   9.408  70.742  1.00  0.00    -0.201 C  
BRANCH   9  10
HETATM   10  C   UNL     1      -9.469   8.242  70.500  1.00  0.00    -0.178 A  
HETATM   11  C   UNL     1     -10.810   8.265  70.866  1.00  0.00    -0.261 A  
HETATM   12  C   UNL     1     -11.623   9.342  71.529  1.00  0.00    -0.452 C  
HETATM   13  C   UNL     1     -13.011   8.703  71.620  1.00  0.00    -0.344 C  
HETATM   14  N   UNL     1     -12.920   7.430  71.073  1.00  0.00    -0.588 N  
HETATM   15  O   UNL     1     -14.017   9.209  72.089  1.00  0.00    -0.424 OA 
HETATM   16  H   UNL     1     -13.700   6.777  71.004  1.00  0.00     0.000 HD 
HETATM   17  C   UNL     1     -11.633   7.161  70.632  1.00  0.00    -0.314 A  
HETATM   18  C   UNL     1     -11.184   6.003  70.040  1.00  0.00    -0.425 A  
HETATM   19  C   UNL     1      -9.840   5.956  69.676  1.00  0.00    -0.215 A  
HETATM   20  C   UNL     1      -8.993   7.057  69.907  1.00  0.00    -0.142 A  
ENDBRANCH   9  10
ENDBRANCH   8   9
ENDBRANCH   4   8
ENDBRANCH   3   4
ENDBRANCH   2   3
TORSDOF 7
ENDMDL
MODEL      168
REMARK 921   NORMALIZED FREE ENERGY PREDICTED BY IDOCK:   -3.96 KCAL/MOL
REMARK 922        TOTAL FREE ENERGY PREDICTED BY IDOCK:   -6.47 KCAL/MOL
REMARK 923 INTER-LIGAND FREE ENERGY PREDICTED BY IDOCK:   -5.79 KCAL/MOL
REMARK 924 INTRA-LIGAND FREE ENERGY PREDICTED BY IDOCK:   -0.68 KCAL/MOL
REMARK 927      BINDING AFFINITY PREDICTED BY RF-SCORE:    0.00 PKD
ROOT
HETATM    1  C   UNL     1     -12.711  11.962  63.415  1.00  0.00    -0.496 C  
HETATM    2  C   UNL     1     -12.068  13.036  64.277  1.00  0.00    -0.480 C  
ENDROOT
BRANCH   2   3
HETATM    3  C   UNL     1     -10.629  12.713  64.708  1.00  0.00    -0.317 C  
BRANCH   3   4
HETATM    4  N   UNL     1     -10.348  12.640  66.159  1.00  0.00    -0.251 NA 
BRANCH   4   5
HETATM    5  C   UNL     1     -11.464  13.207  66.947  1.00  0.00    -0.341 C  
BRANCH   5   6
HETATM    6  C   UNL     1     -11.168  14.522  67.693  1.00  0.00    -0.335 C  
HETATM    7  C   UNL     1      -9.701  14.696  68.058  1.00  0.00    -0.216 C  
ENDBRANCH   5   6
ENDBRANCH   4   5
BRANCH   4   8
HETATM    8  C   UNL     1     -10.091  11.230  66.552  1.00  0.00    -0.217 C  
BRANCH   8   9
HETATM    9  C   UNL     1     -10.737  10.749  67.872  1.00  0.00    -0.282 C  
BRANCH   9  10
HETATM   10  C   UNL     1     -10.657   9.263  68.112  1.00  0.00    -0.248 A  
HETATM   11  C   UNL     1     -10.746   8.706  69.383  1.00  0.00    -0.169 A  
HETATM   12  C   UNL     1     -10.931   9.359  70.725  1.00  0.00    -0.371 C  
HETATM   13  C   UNL     1     -10.953   8.163  71.678  1.00  0.00    -0.250 C  
HETATM   14  N   UNL     1     -10.787   7.017  70.911  1.00  0.00    -0.236 N  
HETATM   15  O   UNL     1     -11.087   8.198  72.890  1.00  0.00    -0.373 OA 
HETATM   16  H   UNL     1     -10.761   6.070  71.290  1.00  0.00     0.000 HD 
HETATM   17  C   UNL     1     -10.660   7.324  69.566  1.00  0.00    -0.234 A  
HETATM   18  C   UNL     1     -10.482   6.440  68.525  1.00  0.00    -0.265 A  
HETATM   19  C   UNL     1     -10.379   6.980  67.245  1.00  0.00    -0.331 A  
HETATM   20  C   UNL     1     -10.460   8.371  67.040  1.00  0.00    -0.375 A  
ENDBRANCH   9  10
ENDBRANCH   8   9
ENDBRANCH   4   8
ENDBRANCH   3   4
ENDBRANCH   2   3
TORSDOF 7
ENDMDL
MODEL      169
REMARK 921   NORMALIZED FREE ENERGY PREDICTED BY IDOCK:   -3.95 KCAL/MOL
REMARK 922        TOTAL FREE ENERGY PREDICTED BY IDOCK:   -6.45 KCAL/MOL
REMARK 923 INTER-LIGAND FREE ENERGY PREDICTED BY IDOCK:   -5.81 KCAL/MOL
REMARK 924 INTRA-LIGAND FREE ENERGY PREDICTED BY IDOCK:   -0.64 KCAL/MOL
REMARK 927      BINDING AFFINITY PREDICTED BY RF-SCORE:    0.00 PKD
ROOT
HETATM    1  C   UNL     1     -14.409   8.416  71.854  1.00  0.00    -0.561 C  
HETATM    2  C   UNL     1     -12.951   8.710  72.169  1.00  0.00    -0.432 C  
ENDROOT
BRANCH   2   3
HETATM    3  C   UNL     1     -12.078   8.942  70.925  1.00  0.00    -0.177 C  
BRANCH   3   4
HETATM    4  N   UNL     1     -10.960   8.001  70.690  1.00  0.00    -0.242 NA 
BRANCH   4   5
HETATM    5  C   UNL     1     -11.455   6.700  70.186  1.00  0.00    -0.385 C  
BRANCH   5   6
HETATM    6  C   UNL     1     -10.434   5.839  69.418  1.00  0.00    -0.360 C  
HETATM    7  C   UNL     1      -9.605   4.933  70.316  1.00  0.00    -0.265 C  
ENDBRANCH   5   6
ENDBRANCH   4   5
BRANCH   4   8
HETATM    8  C   UNL     1      -9.992   8.600  69.735  1.00  0.00    -0.190 C  
BRANCH   8   9
HETATM    9  C   UNL     1     -10.386   9.956  69.105  1.00  0.00    -0.225 C  
BRANCH   9  10
HETATM   10  C   UNL     1     -10.211  10.035  67.610  1.00  0.00    -0.249 A  
HETATM   11  C   UNL     1     -10.610  11.142  66.870  1.00  0.00    -0.304 A  
HETATM   12  C   UNL     1     -11.253  12.430  67.307  1.00  0.00    -0.357 C  
HETATM   13  C   UNL     1     -11.403  13.191  65.988  1.00  0.00    -0.308 C  
HETATM   14  N   UNL     1     -10.902  12.380  64.979  1.00  0.00    -0.285 N  
HETATM   15  O   UNL     1     -11.877  14.305  65.840  1.00  0.00    -0.360 OA 
HETATM   16  H   UNL     1     -10.878  12.638  63.993  1.00  0.00     0.000 HD 
HETATM   17  C   UNL     1     -10.439  11.175  65.484  1.00  0.00    -0.256 A  
HETATM   18  C   UNL     1      -9.880  10.137  64.773  1.00  0.00    -0.382 A  
HETATM   19  C   UNL     1      -9.484   9.014  65.496  1.00  0.00    -0.220 A  
HETATM   20  C   UNL     1      -9.651   8.960  66.893  1.00  0.00    -0.248 A  
ENDBRANCH   9  10
ENDBRANCH   8   9
ENDBRANCH   4   8
ENDBRANCH   3   4
ENDBRANCH   2   3
TORSDOF 7
ENDMDL
MODEL      170
REMARK 921   NORMALIZED FREE ENERGY PREDICTED BY IDOCK:   -3.94 KCAL/MOL
REMARK 922        TOTAL FREE ENERGY PREDICTED BY IDOCK:   -6.44 KCAL/MOL
REMARK 923 INTER-LIGAND FREE ENERGY PREDICTED BY IDOCK:   -5.79 KCAL/MOL
REMARK 924 INTRA-LIGAND FREE ENERGY PREDICTED BY IDOCK:   -0.65 KCAL/MOL
REMARK 927      BINDING AFFINITY PREDICTED BY RF-SCORE:    0.00 PKD
ROOT
HETATM    1  C   UNL     1      -9.720  10.283  64.020  1.00  0.00    -0.343 C  
HETATM    2  C   UNL     1      -8.640  10.365  65.087  1.00  0.00    -0.189 C  
ENDROOT
BRANCH   2   3
HETATM    3  C   UNL     1      -9.184  10.518  66.516  1.00  0.00    -0.161 C  
BRANCH   3   4
HETATM    4  N   UNL     1     -10.528   9.965  66.800  1.00  0.00    -0.216 NA 
BRANCH   4   5
HETATM    5  C   UNL     1     -10.440   8.762  67.656  1.00  0.00    -0.244 C  
BRANCH   5   6
HETATM    6  C   UNL     1     -10.679   7.412  66.954  1.00  0.00    -0.324 C  
HETATM    7  C   UNL     1     -11.029   6.283  67.912  1.00  0.00    -0.421 C  
ENDBRANCH   5   6
ENDBRANCH   4   5
BRANCH   4   8
HETATM    8  C   UNL     1     -11.375  11.005  67.440  1.00  0.00    -0.230 C  
BRANCH   8   9
HETATM    9  C   UNL     1     -10.785  11.712  68.682  1.00  0.00    -0.246 C  
BRANCH   9  10
HETATM   10  C   UNL     1     -10.835  13.218  68.637  1.00  0.00    -0.285 A  
HETATM   11  C   UNL     1     -11.683  13.961  69.451  1.00  0.00    -0.367 A  
HETATM   12  C   UNL     1     -12.674  13.518  70.492  1.00  0.00    -0.227 C  
HETATM   13  C   UNL     1     -13.242  14.846  70.997  1.00  0.00    -0.399 C  
HETATM   14  N   UNL     1     -12.619  15.863  70.286  1.00  0.00    -0.563 N  
HETATM   15  O   UNL     1     -14.089  14.994  71.863  1.00  0.00    -0.427 OA 
HETATM   16  H   UNL     1     -12.809  16.857  70.418  1.00  0.00     0.000 HD 
HETATM   17  C   UNL     1     -11.708  15.356  69.374  1.00  0.00    -0.351 A  
HETATM   18  C   UNL     1     -10.915  16.072  68.507  1.00  0.00    -0.326 A  
HETATM   19  C   UNL     1     -10.067  15.345  67.674  1.00  0.00    -0.236 A  
HETATM   20  C   UNL     1     -10.030  13.939  67.734  1.00  0.00    -0.241 A  
ENDBRANCH   9  10
ENDBRANCH   8   9
ENDBRANCH   4   8
ENDBRANCH   3   4
ENDBRANCH   2   3
TORSDOF 7
ENDMDL
MODEL      171
REMARK 921   NORMALIZED FREE ENERGY PREDICTED BY IDOCK:   -3.92 KCAL/MOL
REMARK 922        TOTAL FREE ENERGY PREDICTED BY IDOCK:   -6.41 KCAL/MOL
REMARK 923 INTER-LIGAND FREE ENERGY PREDICTED BY IDOCK:   -5.24 KCAL/MOL
REMARK 924 INTRA-LIGAND FREE ENERGY PREDICTED BY IDOCK:   -1.17 KCAL/MOL
REMARK 927      BINDING AFFINITY PREDICTED BY RF-SCORE:    0.00 PKD
ROOT
HETATM    1  C   UNL     1      -8.655   7.602  68.635  1.00  0.00    -0.129 C  
HETATM    2  C   UNL     1      -9.639   8.569  69.275  1.00  0.00    -0.170 C  
ENDROOT
BRANCH   2   3
HETATM    3  C   UNL     1      -9.059   9.969  69.533  1.00  0.00    -0.220 C  
BRANCH   3   4
HETATM    4  N   UNL     1      -9.487  11.063  68.634  1.00  0.00    -0.191 NA 
BRANCH   4   5
HETATM    5  C   UNL     1      -8.640  11.118  67.421  1.00  0.00    -0.137 C  
BRANCH   5   6
HETATM    6  C   UNL     1      -7.848  12.422  67.206  1.00  0.00    -0.166 C  
HETATM    7  C   UNL     1      -7.939  13.388  68.377  1.00  0.00    -0.139 C  
ENDBRANCH   5   6
ENDBRANCH   4   5
BRANCH   4   8
HETATM    8  C   UNL     1     -10.916  10.886  68.269  1.00  0.00    -0.239 C  
BRANCH   8   9
HETATM    9  C   UNL     1     -11.798  12.156  68.283  1.00  0.00    -0.361 C  
BRANCH   9  10
HETATM   10  C   UNL     1     -11.553  13.110  67.142  1.00  0.00    -0.410 A  
HETATM   11  C   UNL     1     -11.219  14.445  67.344  1.00  0.00    -0.337 A  
HETATM   12  C   UNL     1     -11.027  15.221  68.618  1.00  0.00    -0.257 C  
HETATM   13  C   UNL     1     -10.664  16.616  68.105  1.00  0.00    -0.349 C  
HETATM   14  N   UNL     1     -10.678  16.567  66.718  1.00  0.00    -0.219 N  
HETATM   15  O   UNL     1     -10.411  17.599  68.783  1.00  0.00    -0.362 OA 
HETATM   16  H   UNL     1     -10.473  17.362  66.112  1.00  0.00     0.000 HD 
HETATM   17  C   UNL     1     -11.007  15.301  66.261  1.00  0.00    -0.300 A  
HETATM   18  C   UNL     1     -11.114  14.892  64.951  1.00  0.00    -0.424 A  
HETATM   19  C   UNL     1     -11.459  13.561  64.728  1.00  0.00    -0.365 A  
HETATM   20  C   UNL     1     -11.680  12.683  65.806  1.00  0.00    -0.466 A  
ENDBRANCH   9  10
ENDBRANCH   8   9
ENDBRANCH   4   8
ENDBRANCH   3   4
ENDBRANCH   2   3
TORSDOF 7
ENDMDL
MODEL      172
REMARK 921   NORMALIZED FREE ENERGY PREDICTED BY IDOCK:   -3.91 KCAL/MOL
REMARK 922        TOTAL FREE ENERGY PREDICTED BY IDOCK:   -6.39 KCAL/MOL
REMARK 923 INTER-LIGAND FREE ENERGY PREDICTED BY IDOCK:   -5.68 KCAL/MOL
REMARK 924 INTRA-LIGAND FREE ENERGY PREDICTED BY IDOCK:   -0.71 KCAL/MOL
REMARK 927      BINDING AFFINITY PREDICTED BY RF-SCORE:    0.00 PKD
ROOT
HETATM    1  C   UNL     1     -12.523  11.873  63.586  1.00  0.00    -0.583 C  
HETATM    2  C   UNL     1     -12.346  12.898  64.694  1.00  0.00    -0.501 C  
ENDROOT
BRANCH   2   3
HETATM    3  C   UNL     1     -11.359  12.469  65.791  1.00  0.00    -0.336 C  
BRANCH   3   4
HETATM    4  N   UNL     1     -11.898  12.259  67.153  1.00  0.00    -0.566 NA 
BRANCH   4   5
HETATM    5  C   UNL     1     -11.039  11.338  67.930  1.00  0.00    -0.267 C  
BRANCH   5   6
HETATM    6  C   UNL     1     -11.770  10.367  68.877  1.00  0.00    -0.138 C  
HETATM    7  C   UNL     1     -11.217  10.369  70.294  1.00  0.00    -0.395 C  
ENDBRANCH   5   6
ENDBRANCH   4   5
BRANCH   4   8
HETATM    8  C   UNL     1     -12.032  13.565  67.849  1.00  0.00    -0.337 C  
BRANCH   8   9
HETATM    9  C   UNL     1     -10.780  14.088  68.590  1.00  0.00    -0.269 C  
BRANCH   9  10
HETATM   10  C   UNL     1     -10.139  15.304  67.972  1.00  0.00    -0.229 A  
HETATM   11  C   UNL     1      -8.919  15.807  68.407  1.00  0.00    -0.187 A  
HETATM   12  C   UNL     1      -7.997  15.328  69.495  1.00  0.00    -0.199 C  
HETATM   13  C   UNL     1      -6.844  16.331  69.421  1.00  0.00    -0.213 C  
HETATM   14  N   UNL     1      -7.145  17.236  68.411  1.00  0.00    -0.200 N  
HETATM   15  O   UNL     1      -5.843  16.345  70.118  1.00  0.00    -0.202 OA 
HETATM   16  H   UNL     1      -6.547  18.019  68.144  1.00  0.00     0.000 HD 
HETATM   17  C   UNL     1      -8.360  16.941  67.814  1.00  0.00    -0.194 A  
HETATM   18  C   UNL     1      -8.966  17.624  66.784  1.00  0.00    -0.272 A  
HETATM   19  C   UNL     1     -10.196  17.142  66.341  1.00  0.00    -0.331 A  
HETATM   20  C   UNL     1     -10.777  16.002  66.929  1.00  0.00    -0.262 A  
ENDBRANCH   9  10
ENDBRANCH   8   9
ENDBRANCH   4   8
ENDBRANCH   3   4
ENDBRANCH   2   3
TORSDOF 7
ENDMDL
MODEL      173
REMARK 921   NORMALIZED FREE ENERGY PREDICTED BY IDOCK:   -3.91 KCAL/MOL
REMARK 922        TOTAL FREE ENERGY PREDICTED BY IDOCK:   -6.39 KCAL/MOL
REMARK 923 INTER-LIGAND FREE ENERGY PREDICTED BY IDOCK:   -5.51 KCAL/MOL
REMARK 924 INTRA-LIGAND FREE ENERGY PREDICTED BY IDOCK:   -0.88 KCAL/MOL
REMARK 927      BINDING AFFINITY PREDICTED BY RF-SCORE:    0.00 PKD
ROOT
HETATM    1  C   UNL     1     -10.544   6.751  72.222  1.00  0.00    -0.241 C  
HETATM    2  C   UNL     1      -9.927   7.459  71.027  1.00  0.00    -0.183 C  
ENDROOT
BRANCH   2   3
HETATM    3  C   UNL     1      -9.765   8.975  71.214  1.00  0.00    -0.301 C  
BRANCH   3   4
HETATM    4  N   UNL     1      -9.660   9.809  69.996  1.00  0.00    -0.237 NA 
BRANCH   4   5
HETATM    5  C   UNL     1      -8.936   9.093  68.921  1.00  0.00    -0.139 C  
BRANCH   5   6
HETATM    6  C   UNL     1      -7.467   9.502  68.704  1.00  0.00    -0.079 C  
HETATM    7  C   UNL     1      -7.297  10.954  68.285  1.00  0.00    -0.087 C  
ENDBRANCH   5   6
ENDBRANCH   4   5
BRANCH   4   8
HETATM    8  C   UNL     1     -11.016  10.208  69.540  1.00  0.00    -0.256 C  
BRANCH   8   9
HETATM    9  C   UNL     1     -11.235  10.304  68.012  1.00  0.00    -0.303 C  
BRANCH   9  10
HETATM   10  C   UNL     1     -11.252  11.707  67.462  1.00  0.00    -0.355 A  
HETATM   11  C   UNL     1     -10.817  12.010  66.176  1.00  0.00    -0.325 A  
HETATM   12  C   UNL     1     -10.271  11.119  65.094  1.00  0.00    -0.347 C  
HETATM   13  C   UNL     1     -10.010  12.104  63.953  1.00  0.00    -0.303 C  
HETATM   14  N   UNL     1     -10.371  13.367  64.401  1.00  0.00    -0.587 N  
HETATM   15  O   UNL     1      -9.562  11.838  62.850  1.00  0.00    -0.355 OA 
HETATM   16  H   UNL     1     -10.300  14.218  63.843  1.00  0.00     0.000 HD 
HETATM   17  C   UNL     1     -10.841  13.324  65.704  1.00  0.00    -0.279 A  
HETATM   18  C   UNL     1     -11.285  14.385  66.462  1.00  0.00    -0.340 A  
HETATM   19  C   UNL     1     -11.714  14.103  67.757  1.00  0.00    -0.408 A  
HETATM   20  C   UNL     1     -11.694  12.785  68.252  1.00  0.00    -0.388 A  
ENDBRANCH   9  10
ENDBRANCH   8   9
ENDBRANCH   4   8
ENDBRANCH   3   4
ENDBRANCH   2   3
TORSDOF 7
ENDMDL
MODEL      174
REMARK 921   NORMALIZED FREE ENERGY PREDICTED BY IDOCK:   -3.88 KCAL/MOL
REMARK 922        TOTAL FREE ENERGY PREDICTED BY IDOCK:   -6.36 KCAL/MOL
REMARK 923 INTER-LIGAND FREE ENERGY PREDICTED BY IDOCK:   -5.09 KCAL/MOL
REMARK 924 INTRA-LIGAND FREE ENERGY PREDICTED BY IDOCK:   -1.27 KCAL/MOL
REMARK 927      BINDING AFFINITY PREDICTED BY RF-SCORE:    0.00 PKD
ROOT
HETATM    1  C   UNL     1     -12.144  14.507  69.628  1.00  0.00    -0.369 C  
HETATM    2  C   UNL     1     -11.384  15.778  69.285  1.00  0.00    -0.350 C  
ENDROOT
BRANCH   2   3
HETATM    3  C   UNL     1      -9.896  15.739  69.669  1.00  0.00    -0.275 C  
BRANCH   3   4
HETATM    4  N   UNL     1      -8.905  15.812  68.573  1.00  0.00    -0.184 NA 
BRANCH   4   5
HETATM    5  C   UNL     1      -8.218  17.123  68.561  1.00  0.00    -0.261 C  
BRANCH   5   6
HETATM    6  C   UNL     1      -6.934  17.208  67.715  1.00  0.00    -0.161 C  
HETATM    7  C   UNL     1      -7.196  17.427  66.233  1.00  0.00    -0.346 C  
ENDBRANCH   5   6
ENDBRANCH   4   5
BRANCH   4   8
HETATM    8  C   UNL     1      -7.922  14.706  68.708  1.00  0.00    -0.151 C  
BRANCH   8   9
HETATM    9  C   UNL     1      -7.908  13.649  67.580  1.00  0.00    -0.185 C  
BRANCH   9  10
HETATM   10  C   UNL     1      -9.270  13.192  67.122  1.00  0.00    -0.227 A  
HETATM   11  C   UNL     1      -9.918  12.098  67.685  1.00  0.00    -0.199 A  
HETATM   12  C   UNL     1      -9.490  11.170  68.789  1.00  0.00    -0.173 C  
HETATM   13  C   UNL     1     -10.679  10.214  68.900  1.00  0.00    -0.223 C  
HETATM   14  N   UNL     1     -11.614  10.600  67.949  1.00  0.00    -0.386 N  
HETATM   15  O   UNL     1     -10.792   9.279  69.675  1.00  0.00    -0.232 OA 
HETATM   16  H   UNL     1     -12.509  10.134  67.801  1.00  0.00     0.000 HD 
HETATM   17  C   UNL     1     -11.176  11.700  67.229  1.00  0.00    -0.304 A  
HETATM   18  C   UNL     1     -11.844  12.347  66.214  1.00  0.00    -0.431 A  
HETATM   19  C   UNL     1     -11.206  13.438  65.629  1.00  0.00    -0.307 A  
HETATM   20  C   UNL     1      -9.935  13.853  66.072  1.00  0.00    -0.325 A  
ENDBRANCH   9  10
ENDBRANCH   8   9
ENDBRANCH   4   8
ENDBRANCH   3   4
ENDBRANCH   2   3
TORSDOF 7
ENDMDL
MODEL      175
REMARK 921   NORMALIZED FREE ENERGY PREDICTED BY IDOCK:   -3.86 KCAL/MOL
REMARK 922        TOTAL FREE ENERGY PREDICTED BY IDOCK:   -6.33 KCAL/MOL
REMARK 923 INTER-LIGAND FREE ENERGY PREDICTED BY IDOCK:   -5.83 KCAL/MOL
REMARK 924 INTRA-LIGAND FREE ENERGY PREDICTED BY IDOCK:   -0.50 KCAL/MOL
REMARK 927      BINDING AFFINITY PREDICTED BY RF-SCORE:    0.00 PKD
ROOT
HETATM    1  C   UNL     1      -6.679  18.592  67.987  1.00  0.00    -0.230 C  
HETATM    2  C   UNL     1      -7.392  17.525  68.802  1.00  0.00    -0.260 C  
ENDROOT
BRANCH   2   3
HETATM    3  C   UNL     1      -8.334  16.635  67.978  1.00  0.00    -0.187 C  
BRANCH   3   4
HETATM    4  N   UNL     1      -9.771  16.648  68.330  1.00  0.00    -0.237 NA 
BRANCH   4   5
HETATM    5  C   UNL     1     -10.565  17.365  67.307  1.00  0.00    -0.284 C  
BRANCH   5   6
HETATM    6  C   UNL     1     -10.902  18.835  67.618  1.00  0.00    -0.382 C  
HETATM    7  C   UNL     1     -10.346  19.816  66.596  1.00  0.00    -0.614 C  
ENDBRANCH   5   6
ENDBRANCH   4   5
BRANCH   4   8
HETATM    8  C   UNL     1     -10.263  15.255  68.495  1.00  0.00    -0.224 C  
BRANCH   8   9
HETATM    9  C   UNL     1     -11.760  15.084  68.838  1.00  0.00    -0.354 C  
BRANCH   9  10
HETATM   10  C   UNL     1     -12.055  14.033  69.878  1.00  0.00    -0.406 A  
HETATM   11  C   UNL     1     -11.799  12.683  69.669  1.00  0.00    -0.379 A  
HETATM   12  C   UNL     1     -11.214  11.973  68.479  1.00  0.00    -0.306 C  
HETATM   13  C   UNL     1     -11.206  10.512  68.934  1.00  0.00    -0.266 C  
HETATM   14  N   UNL     1     -11.738  10.472  70.216  1.00  0.00    -0.305 N  
HETATM   15  O   UNL     1     -10.811   9.551  68.294  1.00  0.00    -0.213 OA 
HETATM   16  H   UNL     1     -11.854   9.620  70.764  1.00  0.00     0.000 HD 
HETATM   17  C   UNL     1     -12.093  11.738  70.654  1.00  0.00    -0.311 A  
HETATM   18  C   UNL     1     -12.648  12.070  71.870  1.00  0.00    -0.049 A  
HETATM   19  C   UNL     1     -12.923  13.418  72.094  1.00  0.00    -0.403 A  
HETATM   20  C   UNL     1     -12.637  14.385  71.112  1.00  0.00    -0.422 A  
ENDBRANCH   9  10
ENDBRANCH   8   9
ENDBRANCH   4   8
ENDBRANCH   3   4
ENDBRANCH   2   3
TORSDOF 7
ENDMDL
MODEL      176
REMARK 921   NORMALIZED FREE ENERGY PREDICTED BY IDOCK:   -3.86 KCAL/MOL
REMARK 922        TOTAL FREE ENERGY PREDICTED BY IDOCK:   -6.32 KCAL/MOL
REMARK 923 INTER-LIGAND FREE ENERGY PREDICTED BY IDOCK:   -5.81 KCAL/MOL
REMARK 924 INTRA-LIGAND FREE ENERGY PREDICTED BY IDOCK:   -0.51 KCAL/MOL
REMARK 927      BINDING AFFINITY PREDICTED BY RF-SCORE:    0.00 PKD
ROOT
HETATM    1  C   UNL     1     -10.851  14.169  65.551  1.00  0.00    -0.312 C  
HETATM    2  C   UNL     1     -11.569  14.309  66.884  1.00  0.00    -0.405 C  
ENDROOT
BRANCH   2   3
HETATM    3  C   UNL     1     -11.045  13.368  67.979  1.00  0.00    -0.255 C  
BRANCH   3   4
HETATM    4  N   UNL     1     -10.189  12.237  67.557  1.00  0.00    -0.202 NA 
BRANCH   4   5
HETATM    5  C   UNL     1      -8.838  12.339  68.152  1.00  0.00    -0.187 C  
BRANCH   5   6
HETATM    6  C   UNL     1      -7.672  12.512  67.160  1.00  0.00    -0.109 C  
HETATM    7  C   UNL     1      -6.330  12.057  67.714  1.00  0.00    -0.081 C  
ENDBRANCH   5   6
ENDBRANCH   4   5
BRANCH   4   8
HETATM    8  C   UNL     1     -10.832  10.951  67.933  1.00  0.00    -0.247 C  
BRANCH   8   9
HETATM    9  C   UNL     1     -10.128  10.118  69.029  1.00  0.00    -0.216 C  
BRANCH   9  10
HETATM   10  C   UNL     1     -11.056   9.474  70.028  1.00  0.00    -0.268 A  
HETATM   11  C   UNL     1     -11.903  10.214  70.844  1.00  0.00    -0.468 A  
HETATM   12  C   UNL     1     -12.112  11.701  70.944  1.00  0.00    -0.312 C  
HETATM   13  C   UNL     1     -13.187  11.814  72.026  1.00  0.00    -0.355 C  
HETATM   14  N   UNL     1     -13.493  10.526  72.446  1.00  0.00    -0.522 N  
HETATM   15  O   UNL     1     -13.688  12.842  72.451  1.00  0.00    -0.565 OA 
HETATM   16  H   UNL     1     -14.181  10.305  73.166  1.00  0.00     0.000 HD 
HETATM   17  C   UNL     1     -12.743   9.582  71.764  1.00  0.00    -0.404 A  
HETATM   18  C   UNL     1     -12.786   8.215  71.923  1.00  0.00    -0.361 A  
HETATM   19  C   UNL     1     -11.935   7.457  71.122  1.00  0.00    -0.351 A  
HETATM   20  C   UNL     1     -11.079   8.076  70.191  1.00  0.00    -0.191 A  
ENDBRANCH   9  10
ENDBRANCH   8   9
ENDBRANCH   4   8
ENDBRANCH   3   4
ENDBRANCH   2   3
TORSDOF 7
ENDMDL
MODEL      177
REMARK 921   NORMALIZED FREE ENERGY PREDICTED BY IDOCK:   -3.85 KCAL/MOL
REMARK 922        TOTAL FREE ENERGY PREDICTED BY IDOCK:   -6.31 KCAL/MOL
REMARK 923 INTER-LIGAND FREE ENERGY PREDICTED BY IDOCK:   -5.46 KCAL/MOL
REMARK 924 INTRA-LIGAND FREE ENERGY PREDICTED BY IDOCK:   -0.84 KCAL/MOL
REMARK 927      BINDING AFFINITY PREDICTED BY RF-SCORE:    0.00 PKD
ROOT
HETATM    1  C   UNL     1      -7.680  10.851  68.052  1.00  0.00    -0.101 C  
HETATM    2  C   UNL     1      -8.736  11.687  67.347  1.00  0.00    -0.155 C  
ENDROOT
BRANCH   2   3
HETATM    3  C   UNL     1      -9.727  12.374  68.298  1.00  0.00    -0.218 C  
BRANCH   3   4
HETATM    4  N   UNL     1     -11.152  12.400  67.900  1.00  0.00    -0.224 NA 
BRANCH   4   5
HETATM    5  C   UNL     1     -11.347  11.772  66.574  1.00  0.00    -0.305 C  
BRANCH   5   6
HETATM    6  C   UNL     1     -12.063  12.633  65.516  1.00  0.00    -0.515 C  
HETATM    7  C   UNL     1     -11.809  14.124  65.671  1.00  0.00    -0.377 C  
ENDBRANCH   5   6
ENDBRANCH   4   5
BRANCH   4   8
HETATM    8  C   UNL     1     -11.976  11.716  68.931  1.00  0.00    -0.292 C  
BRANCH   8   9
HETATM    9  C   UNL     1     -11.210  10.995  70.064  1.00  0.00    -0.303 C  
BRANCH   9  10
HETATM   10  C   UNL     1     -11.868   9.737  70.572  1.00  0.00    -0.316 A  
HETATM   11  C   UNL     1     -11.378   8.469  70.281  1.00  0.00    -0.135 A  
HETATM   12  C   UNL     1     -10.183   8.045  69.472  1.00  0.00    -0.209 C  
HETATM   13  C   UNL     1     -10.233   6.519  69.578  1.00  0.00    -0.186 C  
HETATM   14  N   UNL     1     -11.339   6.192  70.351  1.00  0.00    -0.357 N  
HETATM   15  O   UNL     1      -9.451   5.728  69.078  1.00  0.00    -0.120 OA 
HETATM   16  H   UNL     1     -11.616   5.238  70.584  1.00  0.00     0.000 HD 
HETATM   17  C   UNL     1     -12.020   7.326  70.764  1.00  0.00    -0.272 A  
HETATM   18  C   UNL     1     -13.156   7.376  71.539  1.00  0.00    -0.424 A  
HETATM   19  C   UNL     1     -13.670   8.638  71.831  1.00  0.00    -0.462 A  
HETATM   20  C   UNL     1     -13.039   9.801  71.351  1.00  0.00    -0.489 A  
ENDBRANCH   9  10
ENDBRANCH   8   9
ENDBRANCH   4   8
ENDBRANCH   3   4
ENDBRANCH   2   3
TORSDOF 7
ENDMDL
MODEL      178
REMARK 921   NORMALIZED FREE ENERGY PREDICTED BY IDOCK:   -3.84 KCAL/MOL
REMARK 922        TOTAL FREE ENERGY PREDICTED BY IDOCK:   -6.30 KCAL/MOL
REMARK 923 INTER-LIGAND FREE ENERGY PREDICTED BY IDOCK:   -5.30 KCAL/MOL
REMARK 924 INTRA-LIGAND FREE ENERGY PREDICTED BY IDOCK:   -1.00 KCAL/MOL
REMARK 927      BINDING AFFINITY PREDICTED BY RF-SCORE:    0.00 PKD
ROOT
HETATM    1  C   UNL     1     -10.906  10.173  67.329  1.00  0.00    -0.295 C  
HETATM    2  C   UNL     1     -10.082   9.758  66.121  1.00  0.00    -0.315 C  
ENDROOT
BRANCH   2   3
HETATM    3  C   UNL     1      -9.024   8.687  66.425  1.00  0.00    -0.161 C  
BRANCH   3   4
HETATM    4  N   UNL     1      -9.304   7.743  67.530  1.00  0.00    -0.138 NA 
BRANCH   4   5
HETATM    5  C   UNL     1      -9.299   6.343  67.050  1.00  0.00    -0.131 C  
BRANCH   5   6
HETATM    6  C   UNL     1     -10.679   5.720  66.763  1.00  0.00    -0.369 C  
HETATM    7  C   UNL     1     -10.638   4.600  65.735  1.00  0.00    -0.264 C  
ENDBRANCH   5   6
ENDBRANCH   4   5
BRANCH   4   8
HETATM    8  C   UNL     1      -8.307   7.928  68.616  1.00  0.00    -0.128 C  
BRANCH   8   9
HETATM    9  C   UNL     1      -8.803   8.633  69.900  1.00  0.00    -0.144 C  
BRANCH   9  10
HETATM   10  C   UNL     1      -9.978   7.970  70.573  1.00  0.00    -0.193 A  
HETATM   11  C   UNL     1     -11.069   8.689  71.046  1.00  0.00    -0.316 A  
HETATM   12  C   UNL     1     -11.354  10.166  71.018  1.00  0.00    -0.385 C  
HETATM   13  C   UNL     1     -12.724  10.254  71.693  1.00  0.00    -0.456 C  
HETATM   14  N   UNL     1     -13.100   8.964  72.042  1.00  0.00    -0.372 N  
HETATM   15  O   UNL     1     -13.372  11.268  71.896  1.00  0.00    -0.429 OA 
HETATM   16  H   UNL     1     -13.975   8.727  72.511  1.00  0.00     0.000 HD 
HETATM   17  C   UNL     1     -12.136   8.040  71.671  1.00  0.00    -0.303 A  
HETATM   18  C   UNL     1     -12.178   6.677  71.860  1.00  0.00    -0.381 A  
HETATM   19  C   UNL     1     -11.087   5.940  71.404  1.00  0.00    -0.313 A  
HETATM   20  C   UNL     1     -10.000   6.577  70.773  1.00  0.00    -0.205 A  
ENDBRANCH   9  10
ENDBRANCH   8   9
ENDBRANCH   4   8
ENDBRANCH   3   4
ENDBRANCH   2   3
TORSDOF 7
ENDMDL
MODEL      179
REMARK 921   NORMALIZED FREE ENERGY PREDICTED BY IDOCK:   -3.84 KCAL/MOL
REMARK 922        TOTAL FREE ENERGY PREDICTED BY IDOCK:   -6.29 KCAL/MOL
REMARK 923 INTER-LIGAND FREE ENERGY PREDICTED BY IDOCK:   -5.18 KCAL/MOL
REMARK 924 INTRA-LIGAND FREE ENERGY PREDICTED BY IDOCK:   -1.11 KCAL/MOL
REMARK 927      BINDING AFFINITY PREDICTED BY RF-SCORE:    0.00 PKD
ROOT
HETATM    1  C   UNL     1      -8.459   7.998  68.741  1.00  0.00    -0.127 C  
HETATM    2  C   UNL     1      -9.306   9.211  69.092  1.00  0.00    -0.152 C  
ENDROOT
BRANCH   2   3
HETATM    3  C   UNL     1      -8.535  10.540  69.067  1.00  0.00    -0.157 C  
BRANCH   3   4
HETATM    4  N   UNL     1      -9.070  11.625  68.215  1.00  0.00    -0.182 NA 
BRANCH   4   5
HETATM    5  C   UNL     1      -7.986  12.295  67.462  1.00  0.00    -0.166 C  
BRANCH   5   6
HETATM    6  C   UNL     1      -7.587  13.699  67.954  1.00  0.00    -0.156 C  
HETATM    7  C   UNL     1      -8.186  14.826  67.125  1.00  0.00    -0.239 C  
ENDBRANCH   5   6
ENDBRANCH   4   5
BRANCH   4   8
HETATM    8  C   UNL     1     -10.094  11.078  67.287  1.00  0.00    -0.189 C  
BRANCH   8   9
HETATM    9  C   UNL     1     -11.418  11.868  67.172  1.00  0.00    -0.386 C  
BRANCH   9  10
HETATM   10  C   UNL     1     -11.706  12.794  68.327  1.00  0.00    -0.388 A  
HETATM   11  C   UNL     1     -12.192  12.337  69.547  1.00  0.00    -0.153 A  
HETATM   12  C   UNL     1     -12.525  10.944  70.005  1.00  0.00    -0.332 C  
HETATM   13  C   UNL     1     -12.991  11.170  71.445  1.00  0.00    -0.403 C  
HETATM   14  N   UNL     1     -12.916  12.533  71.698  1.00  0.00    -0.357 N  
HETATM   15  O   UNL     1     -13.366  10.317  72.233  1.00  0.00    -0.407 OA 
HETATM   16  H   UNL     1     -13.170  12.968  72.585  1.00  0.00     0.000 HD 
HETATM   17  C   UNL     1     -12.453  13.226  70.591  1.00  0.00    -0.298 A  
HETATM   18  C   UNL     1     -12.256  14.585  70.485  1.00  0.00    -0.399 A  
HETATM   19  C   UNL     1     -11.780  15.064  69.267  1.00  0.00    -0.349 A  
HETATM   20  C   UNL     1     -11.513  14.183  68.201  1.00  0.00    -0.340 A  
ENDBRANCH   9  10
ENDBRANCH   8   9
ENDBRANCH   4   8
ENDBRANCH   3   4
ENDBRANCH   2   3
TORSDOF 7
ENDMDL
MODEL      180
REMARK 921   NORMALIZED FREE ENERGY PREDICTED BY IDOCK:   -3.83 KCAL/MOL
REMARK 922        TOTAL FREE ENERGY PREDICTED BY IDOCK:   -6.27 KCAL/MOL
REMARK 923 INTER-LIGAND FREE ENERGY PREDICTED BY IDOCK:   -5.51 KCAL/MOL
REMARK 924 INTRA-LIGAND FREE ENERGY PREDICTED BY IDOCK:   -0.76 KCAL/MOL
REMARK 927      BINDING AFFINITY PREDICTED BY RF-SCORE:    0.00 PKD
ROOT
HETATM    1  C   UNL     1      -9.421   9.381  70.052  1.00  0.00    -0.257 C  
HETATM    2  C   UNL     1     -10.555   9.430  69.040  1.00  0.00    -0.233 C  
ENDROOT
BRANCH   2   3
HETATM    3  C   UNL     1     -10.685  10.777  68.313  1.00  0.00    -0.213 C  
BRANCH   3   4
HETATM    4  N   UNL     1      -9.436  11.472  67.930  1.00  0.00    -0.172 NA 
BRANCH   4   5
HETATM    5  C   UNL     1      -9.188  11.361  66.475  1.00  0.00    -0.189 C  
BRANCH   5   6
HETATM    6  C   UNL     1     -10.437  11.367  65.573  1.00  0.00    -0.322 C  
HETATM    7  C   UNL     1     -10.133  11.057  64.115  1.00  0.00    -0.403 C  
ENDBRANCH   5   6
ENDBRANCH   4   5
BRANCH   4   8
HETATM    8  C   UNL     1      -9.506  12.898  68.344  1.00  0.00    -0.162 C  
BRANCH   8   9
HETATM    9  C   UNL     1      -8.425  13.841  67.767  1.00  0.00    -0.181 C  
BRANCH   9  10
HETATM   10  C   UNL     1      -8.819  15.295  67.710  1.00  0.00    -0.174 A  
HETATM   11  C   UNL     1      -9.618  15.812  66.697  1.00  0.00    -0.266 A  
HETATM   12  C   UNL     1     -10.249  15.139  65.510  1.00  0.00    -0.405 C  
HETATM   13  C   UNL     1     -10.994  16.289  64.830  1.00  0.00    -0.307 C  
HETATM   14  N   UNL     1     -10.764  17.435  65.581  1.00  0.00    -0.228 N  
HETATM   15  O   UNL     1     -11.666  16.223  63.814  1.00  0.00    -0.969 OA 
HETATM   16  H   UNL     1     -11.141  18.355  65.355  1.00  0.00     0.000 HD 
HETATM   17  C   UNL     1      -9.956  17.168  66.674  1.00  0.00    -0.295 A  
HETATM   18  C   UNL     1      -9.527  18.063  67.628  1.00  0.00    -0.264 A  
HETATM   19  C   UNL     1      -8.714  17.566  68.644  1.00  0.00    -0.258 A  
HETATM   20  C   UNL     1      -8.361  16.204  68.683  1.00  0.00    -0.211 A  
ENDBRANCH   9  10
ENDBRANCH   8   9
ENDBRANCH   4   8
ENDBRANCH   3   4
ENDBRANCH   2   3
TORSDOF 7
ENDMDL
MODEL      181
REMARK 921   NORMALIZED FREE ENERGY PREDICTED BY IDOCK:   -3.82 KCAL/MOL
REMARK 922        TOTAL FREE ENERGY PREDICTED BY IDOCK:   -6.27 KCAL/MOL
REMARK 923 INTER-LIGAND FREE ENERGY PREDICTED BY IDOCK:   -5.64 KCAL/MOL
REMARK 924 INTRA-LIGAND FREE ENERGY PREDICTED BY IDOCK:   -0.62 KCAL/MOL
REMARK 927      BINDING AFFINITY PREDICTED BY RF-SCORE:    0.00 PKD
ROOT
HETATM    1  C   UNL     1     -11.985   9.802  71.060  1.00  0.00    -0.440 C  
HETATM    2  C   UNL     1     -10.847   9.793  70.051  1.00  0.00    -0.319 C  
ENDROOT
BRANCH   2   3
HETATM    3  C   UNL     1     -10.745  11.077  69.214  1.00  0.00    -0.222 C  
BRANCH   3   4
HETATM    4  N   UNL     1      -9.871  11.047  68.020  1.00  0.00    -0.167 NA 
BRANCH   4   5
HETATM    5  C   UNL     1      -9.054   9.814  67.987  1.00  0.00    -0.125 C  
BRANCH   5   6
HETATM    6  C   UNL     1      -7.530  10.013  67.882  1.00  0.00    -0.089 C  
HETATM    7  C   UNL     1      -6.743   8.712  67.922  1.00  0.00    -0.066 C  
ENDBRANCH   5   6
ENDBRANCH   4   5
BRANCH   4   8
HETATM    8  C   UNL     1     -10.695  11.164  66.789  1.00  0.00    -0.276 C  
BRANCH   8   9
HETATM    9  C   UNL     1     -11.775  12.270  66.779  1.00  0.00    -0.411 C  
BRANCH   9  10
HETATM   10  C   UNL     1     -11.246  13.669  66.585  1.00  0.00    -0.324 A  
HETATM   11  C   UNL     1     -11.217  14.605  67.612  1.00  0.00    -0.332 A  
HETATM   12  C   UNL     1     -11.651  14.493  69.048  1.00  0.00    -0.330 C  
HETATM   13  C   UNL     1     -11.325  15.881  69.603  1.00  0.00    -0.342 C  
HETATM   14  N   UNL     1     -10.790  16.631  68.564  1.00  0.00    -0.348 N  
HETATM   15  O   UNL     1     -11.502  16.269  70.746  1.00  0.00    -0.401 OA 
HETATM   16  H   UNL     1     -10.484  17.599  68.652  1.00  0.00     0.000 HD 
HETATM   17  C   UNL     1     -10.727  15.894  67.392  1.00  0.00    -0.313 A  
HETATM   18  C   UNL     1     -10.254  16.317  66.170  1.00  0.00    -0.361 A  
HETATM   19  C   UNL     1     -10.287  15.397  65.124  1.00  0.00    -0.405 A  
HETATM   20  C   UNL     1     -10.780  14.094  65.326  1.00  0.00    -0.374 A  
ENDBRANCH   9  10
ENDBRANCH   8   9
ENDBRANCH   4   8
ENDBRANCH   3   4
ENDBRANCH   2   3
TORSDOF 7
ENDMDL
MODEL      182
REMARK 921   NORMALIZED FREE ENERGY PREDICTED BY IDOCK:   -3.81 KCAL/MOL
REMARK 922        TOTAL FREE ENERGY PREDICTED BY IDOCK:   -6.25 KCAL/MOL
REMARK 923 INTER-LIGAND FREE ENERGY PREDICTED BY IDOCK:   -5.72 KCAL/MOL
REMARK 924 INTRA-LIGAND FREE ENERGY PREDICTED BY IDOCK:   -0.53 KCAL/MOL
REMARK 927      BINDING AFFINITY PREDICTED BY RF-SCORE:    0.00 PKD
ROOT
HETATM    1  C   UNL     1     -12.034  14.215  69.363  1.00  0.00    -0.382 C  
HETATM    2  C   UNL     1     -12.057  13.138  68.290  1.00  0.00    -0.217 C  
ENDROOT
BRANCH   2   3
HETATM    3  C   UNL     1     -10.808  12.245  68.273  1.00  0.00    -0.225 C  
BRANCH   3   4
HETATM    4  N   UNL     1     -10.896  10.957  67.549  1.00  0.00    -0.252 NA 
BRANCH   4   5
HETATM    5  C   UNL     1     -10.070  10.977  66.322  1.00  0.00    -0.235 C  
BRANCH   5   6
HETATM    6  C   UNL     1      -9.689   9.603  65.739  1.00  0.00    -0.350 C  
HETATM    7  C   UNL     1      -8.311   9.122  66.169  1.00  0.00    -0.123 C  
ENDBRANCH   5   6
ENDBRANCH   4   5
BRANCH   4   8
HETATM    8  C   UNL     1     -10.480   9.846  68.444  1.00  0.00    -0.208 C  
BRANCH   8   9
HETATM    9  C   UNL     1     -10.320  10.187  69.944  1.00  0.00    -0.308 C  
BRANCH   9  10
HETATM   10  C   UNL     1     -11.486   9.787  70.813  1.00  0.00    -0.417 A  
HETATM   11  C   UNL     1     -11.599   8.519  71.371  1.00  0.00    -0.344 A  
HETATM   12  C   UNL     1     -10.688   7.326  71.279  1.00  0.00    -0.243 C  
HETATM   13  C   UNL     1     -11.413   6.286  72.136  1.00  0.00    -0.307 C  
HETATM   14  N   UNL     1     -12.577   6.876  72.611  1.00  0.00    -0.250 N  
HETATM   15  O   UNL     1     -11.046   5.145  72.364  1.00  0.00    -0.216 OA 
HETATM   16  H   UNL     1     -13.256   6.408  73.210  1.00  0.00     0.000 HD 
HETATM   17  C   UNL     1     -12.698   8.183  72.165  1.00  0.00    -0.297 A  
HETATM   18  C   UNL     1     -13.722   9.062  72.438  1.00  0.00    -0.539 A  
HETATM   19  C   UNL     1     -13.632  10.334  71.878  1.00  0.00    -0.292 A  
HETATM   20  C   UNL     1     -12.533  10.691  71.072  1.00  0.00    -0.515 A  
ENDBRANCH   9  10
ENDBRANCH   8   9
ENDBRANCH   4   8
ENDBRANCH   3   4
ENDBRANCH   2   3
TORSDOF 7
ENDMDL
MODEL      183
REMARK 921   NORMALIZED FREE ENERGY PREDICTED BY IDOCK:   -3.80 KCAL/MOL
REMARK 922        TOTAL FREE ENERGY PREDICTED BY IDOCK:   -6.24 KCAL/MOL
REMARK 923 INTER-LIGAND FREE ENERGY PREDICTED BY IDOCK:   -4.66 KCAL/MOL
REMARK 924 INTRA-LIGAND FREE ENERGY PREDICTED BY IDOCK:   -1.58 KCAL/MOL
REMARK 927      BINDING AFFINITY PREDICTED BY RF-SCORE:    0.00 PKD
ROOT
HETATM    1  C   UNL     1     -10.595  13.737  65.137  1.00  0.00    -0.385 C  
HETATM    2  C   UNL     1     -11.515  14.933  65.321  1.00  0.00    -0.336 C  
ENDROOT
BRANCH   2   3
HETATM    3  C   UNL     1     -10.777  16.274  65.460  1.00  0.00    -0.313 C  
BRANCH   3   4
HETATM    4  N   UNL     1      -9.834  16.422  66.591  1.00  0.00    -0.248 NA 
BRANCH   4   5
HETATM    5  C   UNL     1      -8.881  17.528  66.350  1.00  0.00    -0.241 C  
BRANCH   5   6
HETATM    6  C   UNL     1      -7.387  17.174  66.468  1.00  0.00    -0.311 C  
HETATM    7  C   UNL     1      -6.823  17.380  67.866  1.00  0.00    -0.184 C  
ENDBRANCH   5   6
ENDBRANCH   4   5
BRANCH   4   8
HETATM    8  C   UNL     1     -10.589  16.644  67.851  1.00  0.00    -0.342 C  
BRANCH   8   9
HETATM    9  C   UNL     1     -10.222  15.739  69.049  1.00  0.00    -0.224 C  
BRANCH   9  10
HETATM   10  C   UNL     1     -10.382  14.261  68.799  1.00  0.00    -0.239 A  
HETATM   11  C   UNL     1      -9.326  13.455  68.389  1.00  0.00    -0.165 A  
HETATM   12  C   UNL     1      -7.886  13.795  68.116  1.00  0.00    -0.149 C  
HETATM   13  C   UNL     1      -7.293  12.442  67.720  1.00  0.00    -0.123 C  
HETATM   14  N   UNL     1      -8.319  11.507  67.773  1.00  0.00    -0.131 N  
HETATM   15  O   UNL     1      -6.136  12.216  67.409  1.00  0.00    -0.111 OA 
HETATM   16  H   UNL     1      -8.206  10.517  67.555  1.00  0.00     0.000 HD 
HETATM   17  C   UNL     1      -9.514  12.091  68.159  1.00  0.00    -0.200 A  
HETATM   18  C   UNL     1     -10.731  11.466  68.316  1.00  0.00    -0.240 A  
HETATM   19  C   UNL     1     -11.805  12.259  68.714  1.00  0.00    -0.356 A  
HETATM   20  C   UNL     1     -11.635  13.637  68.948  1.00  0.00    -0.362 A  
ENDBRANCH   9  10
ENDBRANCH   8   9
ENDBRANCH   4   8
ENDBRANCH   3   4
ENDBRANCH   2   3
TORSDOF 7
ENDMDL
MODEL      184
REMARK 921   NORMALIZED FREE ENERGY PREDICTED BY IDOCK:   -3.80 KCAL/MOL
REMARK 922        TOTAL FREE ENERGY PREDICTED BY IDOCK:   -6.23 KCAL/MOL
REMARK 923 INTER-LIGAND FREE ENERGY PREDICTED BY IDOCK:   -5.75 KCAL/MOL
REMARK 924 INTRA-LIGAND FREE ENERGY PREDICTED BY IDOCK:   -0.49 KCAL/MOL
REMARK 927      BINDING AFFINITY PREDICTED BY RF-SCORE:    0.00 PKD
ROOT
HETATM    1  C   UNL     1     -12.336  13.502  63.732  1.00  0.00    -0.392 C  
HETATM    2  C   UNL     1     -11.627  12.165  63.585  1.00  0.00    -0.575 C  
ENDROOT
BRANCH   2   3
HETATM    3  C   UNL     1     -10.391  12.012  64.484  1.00  0.00    -0.296 C  
BRANCH   3   4
HETATM    4  N   UNL     1     -10.604  12.019  65.949  1.00  0.00    -0.256 NA 
BRANCH   4   5
HETATM    5  C   UNL     1     -10.295  10.697  66.539  1.00  0.00    -0.241 C  
BRANCH   5   6
HETATM    6  C   UNL     1      -9.778   9.623  65.563  1.00  0.00    -0.372 C  
HETATM    7  C   UNL     1      -9.040   8.483  66.249  1.00  0.00    -0.232 C  
ENDBRANCH   5   6
ENDBRANCH   4   5
BRANCH   4   8
HETATM    8  C   UNL     1      -9.774  13.080  66.574  1.00  0.00    -0.266 C  
BRANCH   8   9
HETATM    9  C   UNL     1     -10.028  14.530  66.100  1.00  0.00    -0.330 C  
BRANCH   9  10
HETATM   10  C   UNL     1      -9.037  15.546  66.609  1.00  0.00    -0.310 A  
HETATM   11  C   UNL     1      -9.260  16.915  66.519  1.00  0.00    -0.295 A  
HETATM   12  C   UNL     1     -10.426  17.680  65.957  1.00  0.00    -0.278 C  
HETATM   13  C   UNL     1     -10.016  19.135  66.194  1.00  0.00    -0.381 C  
HETATM   14  N   UNL     1      -8.768  19.121  66.804  1.00  0.00    -0.294 N  
HETATM   15  O   UNL     1     -10.657  20.131  65.902  1.00  0.00    -0.398 OA 
HETATM   16  H   UNL     1      -8.252  19.958  67.076  1.00  0.00     0.000 HD 
HETATM   17  C   UNL     1      -8.314  17.826  66.994  1.00  0.00    -0.226 A  
HETATM   18  C   UNL     1      -7.123  17.440  67.567  1.00  0.00    -0.180 A  
HETATM   19  C   UNL     1      -6.876  16.072  67.655  1.00  0.00    -0.184 A  
HETATM   20  C   UNL     1      -7.816  15.137  67.179  1.00  0.00    -0.240 A  
ENDBRANCH   9  10
ENDBRANCH   8   9
ENDBRANCH   4   8
ENDBRANCH   3   4
ENDBRANCH   2   3
TORSDOF 7
ENDMDL
MODEL      185
REMARK 921   NORMALIZED FREE ENERGY PREDICTED BY IDOCK:   -3.79 KCAL/MOL
REMARK 922        TOTAL FREE ENERGY PREDICTED BY IDOCK:   -6.23 KCAL/MOL
REMARK 923 INTER-LIGAND FREE ENERGY PREDICTED BY IDOCK:   -5.37 KCAL/MOL
REMARK 924 INTRA-LIGAND FREE ENERGY PREDICTED BY IDOCK:   -0.86 KCAL/MOL
REMARK 927      BINDING AFFINITY PREDICTED BY RF-SCORE:    0.00 PKD
ROOT
HETATM    1  C   UNL     1     -13.088  11.694  71.561  1.00  0.00    -0.405 C  
HETATM    2  C   UNL     1     -12.621  10.247  71.563  1.00  0.00    -0.544 C  
ENDROOT
BRANCH   2   3
HETATM    3  C   UNL     1     -11.294  10.018  70.823  1.00  0.00    -0.360 C  
BRANCH   3   4
HETATM    4  N   UNL     1     -10.551   8.772  71.118  1.00  0.00    -0.222 NA 
BRANCH   4   5
HETATM    5  C   UNL     1     -11.166   8.040  72.248  1.00  0.00    -0.341 C  
BRANCH   5   6
HETATM    6  C   UNL     1     -10.222   7.660  73.404  1.00  0.00    -0.375 C  
HETATM    7  C   UNL     1      -8.762   7.984  73.127  1.00  0.00    -0.300 C  
ENDBRANCH   5   6
ENDBRANCH   4   5
BRANCH   4   8
HETATM    8  C   UNL     1     -10.499   7.917  69.904  1.00  0.00    -0.229 C  
BRANCH   8   9
HETATM    9  C   UNL     1     -11.300   6.596  69.951  1.00  0.00    -0.422 C  
BRANCH   9  10
HETATM   10  C   UNL     1     -10.484   5.351  69.708  1.00  0.00    -0.378 A  
HETATM   11  C   UNL     1     -10.168   4.904  68.431  1.00  0.00    -0.098 A  
HETATM   12  C   UNL     1     -10.509   5.477  67.083  1.00  0.00    -0.321 C  
HETATM   13  C   UNL     1      -9.837   4.493  66.123  1.00  0.00    -0.230 C  
HETATM   14  N   UNL     1      -9.225   3.513  66.893  1.00  0.00    -0.175 N  
HETATM   15  O   UNL     1      -9.837   4.548  64.904  1.00  0.00    -0.157 OA 
HETATM   16  H   UNL     1      -8.701   2.725  66.510  1.00  0.00     0.000 HD 
HETATM   17  C   UNL     1      -9.416   3.742  68.246  1.00  0.00    -0.153 A  
HETATM   18  C   UNL     1      -8.951   2.976  69.291  1.00  0.00    -0.178 A  
HETATM   19  C   UNL     1      -9.268   3.401  70.579  1.00  0.00    -0.212 A  
HETATM   20  C   UNL     1     -10.028   4.569  70.786  1.00  0.00    -0.269 A  
ENDBRANCH   9  10
ENDBRANCH   8   9
ENDBRANCH   4   8
ENDBRANCH   3   4
ENDBRANCH   2   3
TORSDOF 7
ENDMDL
MODEL      186
REMARK 921   NORMALIZED FREE ENERGY PREDICTED BY IDOCK:   -3.79 KCAL/MOL
REMARK 922        TOTAL FREE ENERGY PREDICTED BY IDOCK:   -6.22 KCAL/MOL
REMARK 923 INTER-LIGAND FREE ENERGY PREDICTED BY IDOCK:   -5.58 KCAL/MOL
REMARK 924 INTRA-LIGAND FREE ENERGY PREDICTED BY IDOCK:   -0.65 KCAL/MOL
REMARK 927      BINDING AFFINITY PREDICTED BY RF-SCORE:    0.00 PKD
ROOT
HETATM    1  C   UNL     1     -13.260  15.381  72.518  1.00  0.00    -0.543 C  
HETATM    2  C   UNL     1     -13.321  15.278  71.002  1.00  0.00    -0.537 C  
ENDROOT
BRANCH   2   3
HETATM    3  C   UNL     1     -11.962  15.004  70.339  1.00  0.00    -0.323 C  
BRANCH   3   4
HETATM    4  N   UNL     1     -11.967  14.542  68.933  1.00  0.00    -0.310 NA 
BRANCH   4   5
HETATM    5  C   UNL     1     -11.342  15.543  68.040  1.00  0.00    -0.330 C  
BRANCH   5   6
HETATM    6  C   UNL     1      -9.864  15.302  67.681  1.00  0.00    -0.217 C  
HETATM    7  C   UNL     1      -9.583  15.373  66.187  1.00  0.00    -0.362 C  
ENDBRANCH   5   6
ENDBRANCH   4   5
BRANCH   4   8
HETATM    8  C   UNL     1     -11.265  13.236  68.830  1.00  0.00    -0.277 C  
BRANCH   8   9
HETATM    9  C   UNL     1     -11.943  12.151  67.963  1.00  0.00    -0.233 C  
BRANCH   9  10
HETATM   10  C   UNL     1     -11.159  10.870  67.823  1.00  0.00    -0.371 A  
HETATM   11  C   UNL     1     -10.428  10.564  66.681  1.00  0.00    -0.290 A  
HETATM   12  C   UNL     1     -10.233  11.342  65.408  1.00  0.00    -0.323 C  
HETATM   13  C   UNL     1      -9.313  10.427  64.597  1.00  0.00    -0.254 C  
HETATM   14  N   UNL     1      -9.068   9.296  65.364  1.00  0.00    -0.213 N  
HETATM   15  O   UNL     1      -8.872  10.642  63.480  1.00  0.00    -0.182 OA 
HETATM   16  H   UNL     1      -8.483   8.515  65.067  1.00  0.00     0.000 HD 
HETATM   17  C   UNL     1      -9.720   9.364  66.585  1.00  0.00    -0.219 A  
HETATM   18  C   UNL     1      -9.701   8.423  67.590  1.00  0.00    -0.201 A  
HETATM   19  C   UNL     1     -10.438   8.706  68.738  1.00  0.00    -0.209 A  
HETATM   20  C   UNL     1     -11.160   9.910  68.852  1.00  0.00    -0.181 A  
ENDBRANCH   9  10
ENDBRANCH   8   9
ENDBRANCH   4   8
ENDBRANCH   3   4
ENDBRANCH   2   3
TORSDOF 7
ENDMDL
MODEL      187
REMARK 921   NORMALIZED FREE ENERGY PREDICTED BY IDOCK:   -3.78 KCAL/MOL
REMARK 922        TOTAL FREE ENERGY PREDICTED BY IDOCK:   -6.21 KCAL/MOL
REMARK 923 INTER-LIGAND FREE ENERGY PREDICTED BY IDOCK:   -5.55 KCAL/MOL
REMARK 924 INTRA-LIGAND FREE ENERGY PREDICTED BY IDOCK:   -0.66 KCAL/MOL
REMARK 927      BINDING AFFINITY PREDICTED BY RF-SCORE:    0.00 PKD
ROOT
HETATM    1  C   UNL     1      -9.810  15.183  69.149  1.00  0.00    -0.237 C  
HETATM    2  C   UNL     1     -11.212  15.416  68.608  1.00  0.00    -0.312 C  
ENDROOT
BRANCH   2   3
HETATM    3  C   UNL     1     -12.133  14.190  68.711  1.00  0.00    -0.291 C  
BRANCH   3   4
HETATM    4  N   UNL     1     -11.747  13.122  69.661  1.00  0.00    -0.309 NA 
BRANCH   4   5
HETATM    5  C   UNL     1     -12.760  12.967  70.728  1.00  0.00    -0.165 C  
BRANCH   5   6
HETATM    6  C   UNL     1     -13.174  14.257  71.462  1.00  0.00    -0.420 C  
HETATM    7  C   UNL     1     -12.029  14.928  72.206  1.00  0.00    -0.396 C  
ENDBRANCH   5   6
ENDBRANCH   4   5
BRANCH   4   8
HETATM    8  C   UNL     1     -11.555  11.843  68.930  1.00  0.00    -0.311 C  
BRANCH   8   9
HETATM    9  C   UNL     1     -10.506  10.865  69.507  1.00  0.00    -0.176 C  
BRANCH   9  10
HETATM   10  C   UNL     1     -11.081   9.657  70.202  1.00  0.00    -0.314 A  
HETATM   11  C   UNL     1     -11.089   8.395  69.620  1.00  0.00    -0.011 A  
HETATM   12  C   UNL     1     -10.579   7.932  68.284  1.00  0.00    -0.163 C  
HETATM   13  C   UNL     1     -10.900   6.436  68.305  1.00  0.00    -0.309 C  
HETATM   14  N   UNL     1     -11.518   6.159  69.517  1.00  0.00    -0.442 N  
HETATM   15  O   UNL     1     -10.663   5.627  67.422  1.00  0.00    -0.248 OA 
HETATM   16  H   UNL     1     -11.843   5.235  69.799  1.00  0.00     0.000 HD 
HETATM   17  C   UNL     1     -11.638   7.301  70.293  1.00  0.00    -0.174 A  
HETATM   18  C   UNL     1     -12.198   7.396  71.547  1.00  0.00    -0.368 A  
HETATM   19  C   UNL     1     -12.210   8.656  72.142  1.00  0.00    -0.453 A  
HETATM   20  C   UNL     1     -11.664   9.772  71.479  1.00  0.00    -0.450 A  
ENDBRANCH   9  10
ENDBRANCH   8   9
ENDBRANCH   4   8
ENDBRANCH   3   4
ENDBRANCH   2   3
TORSDOF 7
ENDMDL
MODEL      188
REMARK 921   NORMALIZED FREE ENERGY PREDICTED BY IDOCK:   -3.78 KCAL/MOL
REMARK 922        TOTAL FREE ENERGY PREDICTED BY IDOCK:   -6.20 KCAL/MOL
REMARK 923 INTER-LIGAND FREE ENERGY PREDICTED BY IDOCK:   -5.79 KCAL/MOL
REMARK 924 INTRA-LIGAND FREE ENERGY PREDICTED BY IDOCK:   -0.41 KCAL/MOL
REMARK 927      BINDING AFFINITY PREDICTED BY RF-SCORE:    0.00 PKD
ROOT
HETATM    1  C   UNL     1     -10.049   4.708  65.984  1.00  0.00    -0.287 C  
HETATM    2  C   UNL     1     -10.733   5.732  66.875  1.00  0.00    -0.381 C  
ENDROOT
BRANCH   2   3
HETATM    3  C   UNL     1     -10.156   7.151  66.753  1.00  0.00    -0.208 C  
BRANCH   3   4
HETATM    4  N   UNL     1     -10.244   8.030  67.940  1.00  0.00    -0.201 NA 
BRANCH   4   5
HETATM    5  C   UNL     1      -8.925   8.174  68.596  1.00  0.00    -0.137 C  
BRANCH   5   6
HETATM    6  C   UNL     1      -8.501   7.022  69.526  1.00  0.00    -0.134 C  
HETATM    7  C   UNL     1      -7.332   6.209  68.991  1.00  0.00    -0.085 C  
ENDBRANCH   5   6
ENDBRANCH   4   5
BRANCH   4   8
HETATM    8  C   UNL     1     -10.782   9.357  67.545  1.00  0.00    -0.222 C  
BRANCH   8   9
HETATM    9  C   UNL     1      -9.996  10.130  66.461  1.00  0.00    -0.283 C  
BRANCH   9  10
HETATM   10  C   UNL     1     -10.769  11.232  65.783  1.00  0.00    -0.284 A  
HETATM   11  C   UNL     1     -11.281  12.322  66.479  1.00  0.00    -0.373 A  
HETATM   12  C   UNL     1     -11.209  12.668  67.940  1.00  0.00    -0.310 C  
HETATM   13  C   UNL     1     -11.966  13.996  68.006  1.00  0.00    -0.350 C  
HETATM   14  N   UNL     1     -12.391  14.297  66.718  1.00  0.00    -0.559 N  
HETATM   15  O   UNL     1     -12.168  14.672  69.001  1.00  0.00    -0.261 OA 
HETATM   16  H   UNL     1     -12.924  15.130  66.468  1.00  0.00     0.000 HD 
HETATM   17  C   UNL     1     -11.999  13.320  65.817  1.00  0.00    -0.417 A  
HETATM   18  C   UNL     1     -12.247  13.293  64.463  1.00  0.00    -0.456 A  
HETATM   19  C   UNL     1     -11.752  12.203  63.750  1.00  0.00    -0.576 A  
HETATM   20  C   UNL     1     -11.028  11.185  64.400  1.00  0.00    -0.270 A  
ENDBRANCH   9  10
ENDBRANCH   8   9
ENDBRANCH   4   8
ENDBRANCH   3   4
ENDBRANCH   2   3
TORSDOF 7
ENDMDL
MODEL      189
REMARK 921   NORMALIZED FREE ENERGY PREDICTED BY IDOCK:   -3.76 KCAL/MOL
REMARK 922        TOTAL FREE ENERGY PREDICTED BY IDOCK:   -6.18 KCAL/MOL
REMARK 923 INTER-LIGAND FREE ENERGY PREDICTED BY IDOCK:   -5.27 KCAL/MOL
REMARK 924 INTRA-LIGAND FREE ENERGY PREDICTED BY IDOCK:   -0.91 KCAL/MOL
REMARK 927      BINDING AFFINITY PREDICTED BY RF-SCORE:    0.00 PKD
ROOT
HETATM    1  C   UNL     1     -10.451   5.875  66.496  1.00  0.00    -0.251 C  
HETATM    2  C   UNL     1      -9.208   6.662  66.879  1.00  0.00    -0.158 C  
ENDROOT
BRANCH   2   3
HETATM    3  C   UNL     1      -9.451   8.170  67.052  1.00  0.00    -0.177 C  
BRANCH   3   4
HETATM    4  N   UNL     1     -10.506   8.588  68.003  1.00  0.00    -0.215 NA 
BRANCH   4   5
HETATM    5  C   UNL     1     -10.011   8.557  69.397  1.00  0.00    -0.194 C  
BRANCH   5   6
HETATM    6  C   UNL     1      -9.383   9.862  69.922  1.00  0.00    -0.250 C  
HETATM    7  C   UNL     1      -7.879   9.773  70.127  1.00  0.00    -0.196 C  
ENDBRANCH   5   6
ENDBRANCH   4   5
BRANCH   4   8
HETATM    8  C   UNL     1     -10.994   9.946  67.648  1.00  0.00    -0.200 C  
BRANCH   8   9
HETATM    9  C   UNL     1     -10.414  10.577  66.361  1.00  0.00    -0.258 C  
BRANCH   9  10
HETATM   10  C   UNL     1     -10.047  12.035  66.481  1.00  0.00    -0.224 A  
HETATM   11  C   UNL     1     -10.703  13.030  65.766  1.00  0.00    -0.291 A  
HETATM   12  C   UNL     1     -11.841  12.941  64.786  1.00  0.00    -0.409 C  
HETATM   13  C   UNL     1     -12.063  14.405  64.400  1.00  0.00    -0.470 C  
HETATM   14  N   UNL     1     -11.134  15.165  65.097  1.00  0.00    -0.383 N  
HETATM   15  O   UNL     1     -12.897  14.835  63.620  1.00  0.00    -0.619 OA 
HETATM   16  H   UNL     1     -11.053  16.180  65.029  1.00  0.00     0.000 HD 
HETATM   17  C   UNL     1     -10.329  14.369  65.897  1.00  0.00    -0.314 A  
HETATM   18  C   UNL     1      -9.307  14.785  66.721  1.00  0.00    -0.268 A  
HETATM   19  C   UNL     1      -8.630  13.800  67.436  1.00  0.00    -0.208 A  
HETATM   20  C   UNL     1      -8.990  12.445  67.315  1.00  0.00    -0.190 A  
ENDBRANCH   9  10
ENDBRANCH   8   9
ENDBRANCH   4   8
ENDBRANCH   3   4
ENDBRANCH   2   3
TORSDOF 7
ENDMDL
MODEL      190
REMARK 921   NORMALIZED FREE ENERGY PREDICTED BY IDOCK:   -3.76 KCAL/MOL
REMARK 922        TOTAL FREE ENERGY PREDICTED BY IDOCK:   -6.18 KCAL/MOL
REMARK 923 INTER-LIGAND FREE ENERGY PREDICTED BY IDOCK:   -5.59 KCAL/MOL
REMARK 924 INTRA-LIGAND FREE ENERGY PREDICTED BY IDOCK:   -0.59 KCAL/MOL
REMARK 927      BINDING AFFINITY PREDICTED BY RF-SCORE:    0.00 PKD
ROOT
HETATM    1  C   UNL     1     -10.811   5.969  66.854  1.00  0.00    -0.396 C  
HETATM    2  C   UNL     1     -10.974   6.896  68.047  1.00  0.00    -0.241 C  
ENDROOT
BRANCH   2   3
HETATM    3  C   UNL     1     -10.215   8.226  67.913  1.00  0.00    -0.220 C  
BRANCH   3   4
HETATM    4  N   UNL     1      -9.465   8.708  69.094  1.00  0.00    -0.157 NA 
BRANCH   4   5
HETATM    5  C   UNL     1      -8.014   8.782  68.811  1.00  0.00    -0.106 C  
BRANCH   5   6
HETATM    6  C   UNL     1      -7.606   9.608  67.576  1.00  0.00    -0.095 C  
HETATM    7  C   UNL     1      -6.134   9.476  67.217  1.00  0.00    -0.056 C  
ENDBRANCH   5   6
ENDBRANCH   4   5
BRANCH   4   8
HETATM    8  C   UNL     1      -9.986  10.035  69.515  1.00  0.00    -0.228 C  
BRANCH   8   9
HETATM    9  C   UNL     1     -11.257  10.541  68.794  1.00  0.00    -0.317 C  
BRANCH   9  10
HETATM   10  C   UNL     1     -11.440  12.037  68.810  1.00  0.00    -0.355 A  
HETATM   11  C   UNL     1     -12.106  12.697  69.837  1.00  0.00    -0.322 A  
HETATM   12  C   UNL     1     -12.753  12.161  71.084  1.00  0.00    -0.351 C  
HETATM   13  C   UNL     1     -13.276  13.430  71.760  1.00  0.00    -0.407 C  
HETATM   14  N   UNL     1     -12.944  14.503  70.944  1.00  0.00    -0.355 N  
HETATM   15  O   UNL     1     -13.879  13.497  72.818  1.00  0.00    -0.730 OA 
HETATM   16  H   UNL     1     -13.174  15.475  71.151  1.00  0.00     0.000 HD 
HETATM   17  C   UNL     1     -12.262  14.084  69.812  1.00  0.00    -0.341 A  
HETATM   18  C   UNL     1     -11.783  14.875  68.792  1.00  0.00    -0.353 A  
HETATM   19  C   UNL     1     -11.124  14.231  67.747  1.00  0.00    -0.294 A  
HETATM   20  C   UNL     1     -10.958  12.833  67.753  1.00  0.00    -0.266 A  
ENDBRANCH   9  10
ENDBRANCH   8   9
ENDBRANCH   4   8
ENDBRANCH   3   4
ENDBRANCH   2   3
TORSDOF 7
ENDMDL
MODEL      191
REMARK 921   NORMALIZED FREE ENERGY PREDICTED BY IDOCK:   -3.76 KCAL/MOL
REMARK 922        TOTAL FREE ENERGY PREDICTED BY IDOCK:   -6.18 KCAL/MOL
REMARK 923 INTER-LIGAND FREE ENERGY PREDICTED BY IDOCK:   -5.68 KCAL/MOL
REMARK 924 INTRA-LIGAND FREE ENERGY PREDICTED BY IDOCK:   -0.49 KCAL/MOL
REMARK 927      BINDING AFFINITY PREDICTED BY RF-SCORE:    0.00 PKD
ROOT
HETATM    1  C   UNL     1     -12.368  11.851  63.258  1.00  0.00    -0.508 C  
HETATM    2  C   UNL     1     -12.174  13.308  63.645  1.00  0.00    -0.522 C  
ENDROOT
BRANCH   2   3
HETATM    3  C   UNL     1     -10.893  13.575  64.451  1.00  0.00    -0.389 C  
BRANCH   3   4
HETATM    4  N   UNL     1     -11.048  14.041  65.847  1.00  0.00    -0.299 NA 
BRANCH   4   5
HETATM    5  C   UNL     1     -10.638  12.993  66.808  1.00  0.00    -0.262 C  
BRANCH   5   6
HETATM    6  C   UNL     1     -11.724  12.508  67.786  1.00  0.00    -0.419 C  
HETATM    7  C   UNL     1     -11.999  13.483  68.921  1.00  0.00    -0.378 C  
ENDBRANCH   5   6
ENDBRANCH   4   5
BRANCH   4   8
HETATM    8  C   UNL     1     -10.257  15.282  66.055  1.00  0.00    -0.317 C  
BRANCH   8   9
HETATM    9  C   UNL     1      -9.202  15.251  67.185  1.00  0.00    -0.223 C  
BRANCH   9  10
HETATM   10  C   UNL     1      -8.271  16.437  67.214  1.00  0.00    -0.193 A  
HETATM   11  C   UNL     1      -8.713  17.726  67.487  1.00  0.00    -0.239 A  
HETATM   12  C   UNL     1     -10.092  18.240  67.799  1.00  0.00    -0.369 C  
HETATM   13  C   UNL     1      -9.851  19.738  68.001  1.00  0.00    -0.417 C  
HETATM   14  N   UNL     1      -8.496  19.972  67.804  1.00  0.00    -0.306 N  
HETATM   15  O   UNL     1     -10.688  20.580  68.280  1.00  0.00    -0.011 OA 
HETATM   16  H   UNL     1      -8.055  20.889  67.876  1.00  0.00     0.000 HD 
HETATM   17  C   UNL     1      -7.822  18.801  67.498  1.00  0.00    -0.233 A  
HETATM   18  C   UNL     1      -6.476  18.661  67.242  1.00  0.00    -0.200 A  
HETATM   19  C   UNL     1      -6.015  17.378  66.955  1.00  0.00    -0.206 A  
HETATM   20  C   UNL     1      -6.899  16.282  66.936  1.00  0.00    -0.195 A  
ENDBRANCH   9  10
ENDBRANCH   8   9
ENDBRANCH   4   8
ENDBRANCH   3   4
ENDBRANCH   2   3
TORSDOF 7
ENDMDL
MODEL      192
REMARK 921   NORMALIZED FREE ENERGY PREDICTED BY IDOCK:   -3.74 KCAL/MOL
REMARK 922        TOTAL FREE ENERGY PREDICTED BY IDOCK:   -6.15 KCAL/MOL
REMARK 923 INTER-LIGAND FREE ENERGY PREDICTED BY IDOCK:   -5.28 KCAL/MOL
REMARK 924 INTRA-LIGAND FREE ENERGY PREDICTED BY IDOCK:   -0.87 KCAL/MOL
REMARK 927      BINDING AFFINITY PREDICTED BY RF-SCORE:    0.00 PKD
ROOT
HETATM    1  C   UNL     1     -12.278  12.313  70.507  1.00  0.00    -0.387 C  
HETATM    2  C   UNL     1     -11.998  11.318  69.392  1.00  0.00    -0.410 C  
ENDROOT
BRANCH   2   3
HETATM    3  C   UNL     1     -10.540  11.319  68.905  1.00  0.00    -0.207 C  
BRANCH   3   4
HETATM    4  N   UNL     1     -10.284  11.750  67.513  1.00  0.00    -0.194 NA 
BRANCH   4   5
HETATM    5  C   UNL     1     -11.525  11.718  66.707  1.00  0.00    -0.281 C  
BRANCH   5   6
HETATM    6  C   UNL     1     -11.343  11.765  65.179  1.00  0.00    -0.281 C  
HETATM    7  C   UNL     1     -12.613  12.135  64.426  1.00  0.00    -0.377 C  
ENDBRANCH   5   6
ENDBRANCH   4   5
BRANCH   4   8
HETATM    8  C   UNL     1      -9.691  13.113  67.508  1.00  0.00    -0.213 C  
BRANCH   8   9
HETATM    9  C   UNL     1     -10.608  14.270  67.965  1.00  0.00    -0.238 C  
BRANCH   9  10
HETATM   10  C   UNL     1     -10.694  15.428  67.002  1.00  0.00    -0.321 A  
HETATM   11  C   UNL     1     -10.567  16.750  67.412  1.00  0.00    -0.291 A  
HETATM   12  C   UNL     1     -10.328  17.331  68.779  1.00  0.00    -0.358 C  
HETATM   13  C   UNL     1     -10.285  18.834  68.499  1.00  0.00    -0.344 C  
HETATM   14  N   UNL     1     -10.490  19.010  67.137  1.00  0.00    -0.416 N  
HETATM   15  O   UNL     1     -10.108  19.723  69.316  1.00  0.00    -0.417 OA 
HETATM   16  H   UNL     1     -10.512  19.918  66.671  1.00  0.00     0.000 HD 
HETATM   17  C   UNL     1     -10.660  17.796  66.491  1.00  0.00    -0.220 A  
HETATM   18  C   UNL     1     -10.883  17.594  65.148  1.00  0.00     0.320 A  
HETATM   19  C   UNL     1     -11.026  16.276  64.719  1.00  0.00    -0.288 A  
HETATM   20  C   UNL     1     -10.938  15.208  65.633  1.00  0.00    -0.359 A  
ENDBRANCH   9  10
ENDBRANCH   8   9
ENDBRANCH   4   8
ENDBRANCH   3   4
ENDBRANCH   2   3
TORSDOF 7
ENDMDL
MODEL      193
REMARK 921   NORMALIZED FREE ENERGY PREDICTED BY IDOCK:   -3.74 KCAL/MOL
REMARK 922        TOTAL FREE ENERGY PREDICTED BY IDOCK:   -6.15 KCAL/MOL
REMARK 923 INTER-LIGAND FREE ENERGY PREDICTED BY IDOCK:   -5.31 KCAL/MOL
REMARK 924 INTRA-LIGAND FREE ENERGY PREDICTED BY IDOCK:   -0.84 KCAL/MOL
REMARK 927      BINDING AFFINITY PREDICTED BY RF-SCORE:    0.00 PKD
ROOT
HETATM    1  C   UNL     1     -10.134  20.218  67.019  1.00  0.00    -0.567 C  
HETATM    2  C   UNL     1     -10.359  18.731  67.241  1.00  0.00    -0.469 C  
ENDROOT
BRANCH   2   3
HETATM    3  C   UNL     1     -10.480  17.917  65.944  1.00  0.00    -0.253 C  
BRANCH   3   4
HETATM    4  N   UNL     1     -10.435  16.442  66.055  1.00  0.00    -0.335 NA 
BRANCH   4   5
HETATM    5  C   UNL     1     -10.968  15.798  64.834  1.00  0.00    -0.427 C  
BRANCH   5   6
HETATM    6  C   UNL     1     -11.223  14.282  64.923  1.00  0.00    -0.381 C  
HETATM    7  C   UNL     1     -12.592  13.928  65.484  1.00  0.00    -0.560 C  
ENDBRANCH   5   6
ENDBRANCH   4   5
BRANCH   4   8
HETATM    8  C   UNL     1      -9.041  15.999  66.317  1.00  0.00    -0.344 C  
BRANCH   8   9
HETATM    9  C   UNL     1      -8.748  15.426  67.723  1.00  0.00    -0.167 C  
BRANCH   9  10
HETATM   10  C   UNL     1      -8.198  14.022  67.733  1.00  0.00    -0.169 A  
HETATM   11  C   UNL     1      -8.984  12.916  68.036  1.00  0.00    -0.196 A  
HETATM   12  C   UNL     1     -10.441  12.821  68.395  1.00  0.00    -0.253 C  
HETATM   13  C   UNL     1     -10.640  11.316  68.587  1.00  0.00    -0.202 C  
HETATM   14  N   UNL     1      -9.415  10.702  68.362  1.00  0.00    -0.159 N  
HETATM   15  O   UNL     1     -11.678  10.751  68.887  1.00  0.00    -0.294 OA 
HETATM   16  H   UNL     1      -9.256   9.697  68.423  1.00  0.00     0.000 HD 
HETATM   17  C   UNL     1      -8.437  11.631  68.043  1.00  0.00    -0.151 A  
HETATM   18  C   UNL     1      -7.114  11.378  67.759  1.00  0.00    -0.081 A  
HETATM   19  C   UNL     1      -6.307  12.475  67.464  1.00  0.00    -0.154 A  
HETATM   20  C   UNL     1      -6.840  13.779  67.455  1.00  0.00    -0.148 A  
ENDBRANCH   9  10
ENDBRANCH   8   9
ENDBRANCH   4   8
ENDBRANCH   3   4
ENDBRANCH   2   3
TORSDOF 7
ENDMDL
MODEL      194
REMARK 921   NORMALIZED FREE ENERGY PREDICTED BY IDOCK:   -3.73 KCAL/MOL
REMARK 922        TOTAL FREE ENERGY PREDICTED BY IDOCK:   -6.15 KCAL/MOL
REMARK 923 INTER-LIGAND FREE ENERGY PREDICTED BY IDOCK:   -5.63 KCAL/MOL
REMARK 924 INTRA-LIGAND FREE ENERGY PREDICTED BY IDOCK:   -0.52 KCAL/MOL
REMARK 927      BINDING AFFINITY PREDICTED BY RF-SCORE:    0.00 PKD
ROOT
HETATM    1  C   UNL     1      -6.424   7.981  70.929  1.00  0.00    -0.037 C  
HETATM    2  C   UNL     1      -7.923   8.083  71.162  1.00  0.00    -0.095 C  
ENDROOT
BRANCH   2   3
HETATM    3  C   UNL     1      -8.601   9.215  70.375  1.00  0.00    -0.209 C  
BRANCH   3   4
HETATM    4  N   UNL     1     -10.043   9.071  70.074  1.00  0.00    -0.187 NA 
BRANCH   4   5
HETATM    5  C   UNL     1     -10.766   8.456  71.209  1.00  0.00    -0.230 C  
BRANCH   5   6
HETATM    6  C   UNL     1     -11.286   7.023  70.985  1.00  0.00    -0.325 C  
HETATM    7  C   UNL     1     -11.209   6.569  69.535  1.00  0.00    -0.434 C  
ENDBRANCH   5   6
ENDBRANCH   4   5
BRANCH   4   8
HETATM    8  C   UNL     1     -10.623  10.398  69.739  1.00  0.00    -0.258 C  
BRANCH   8   9
HETATM    9  C   UNL     1     -11.230  10.553  68.326  1.00  0.00    -0.354 C  
BRANCH   9  10
HETATM   10  C   UNL     1     -11.397  11.978  67.862  1.00  0.00    -0.369 A  
HETATM   11  C   UNL     1     -11.147  12.370  66.551  1.00  0.00    -0.346 A  
HETATM   12  C   UNL     1     -10.695  11.569  65.361  1.00  0.00    -0.335 C  
HETATM   13  C   UNL     1     -10.637  12.622  64.253  1.00  0.00    -0.384 C  
HETATM   14  N   UNL     1     -11.010  13.837  64.813  1.00  0.00    -0.371 N  
HETATM   15  O   UNL     1     -10.320  12.439  63.089  1.00  0.00    -0.302 OA 
HETATM   16  H   UNL     1     -11.058  14.716  64.299  1.00  0.00     0.000 HD 
HETATM   17  C   UNL     1     -11.306  13.701  66.160  1.00  0.00    -0.312 A  
HETATM   18  C   UNL     1     -11.708  14.694  67.026  1.00  0.00    -0.379 A  
HETATM   19  C   UNL     1     -11.952  14.323  68.346  1.00  0.00    -0.344 A  
HETATM   20  C   UNL     1     -11.794  12.986  68.761  1.00  0.00    -0.355 A  
ENDBRANCH   9  10
ENDBRANCH   8   9
ENDBRANCH   4   8
ENDBRANCH   3   4
ENDBRANCH   2   3
TORSDOF 7
ENDMDL
MODEL      195
REMARK 921   NORMALIZED FREE ENERGY PREDICTED BY IDOCK:   -3.72 KCAL/MOL
REMARK 922        TOTAL FREE ENERGY PREDICTED BY IDOCK:   -6.12 KCAL/MOL
REMARK 923 INTER-LIGAND FREE ENERGY PREDICTED BY IDOCK:   -4.96 KCAL/MOL
REMARK 924 INTRA-LIGAND FREE ENERGY PREDICTED BY IDOCK:   -1.16 KCAL/MOL
REMARK 927      BINDING AFFINITY PREDICTED BY RF-SCORE:    0.00 PKD
ROOT
HETATM    1  C   UNL     1      -8.698   7.547  68.678  1.00  0.00    -0.128 C  
HETATM    2  C   UNL     1      -9.739   8.469  69.293  1.00  0.00    -0.173 C  
ENDROOT
BRANCH   2   3
HETATM    3  C   UNL     1      -9.231   9.894  69.560  1.00  0.00    -0.223 C  
BRANCH   3   4
HETATM    4  N   UNL     1      -9.637  10.955  68.611  1.00  0.00    -0.184 NA 
BRANCH   4   5
HETATM    5  C   UNL     1      -8.741  10.990  67.435  1.00  0.00    -0.132 C  
BRANCH   5   6
HETATM    6  C   UNL     1      -8.030  12.330  67.164  1.00  0.00    -0.161 C  
HETATM    7  C   UNL     1      -8.287  13.381  68.234  1.00  0.00    -0.160 C  
ENDBRANCH   5   6
ENDBRANCH   4   5
BRANCH   4   8
HETATM    8  C   UNL     1     -11.047  10.741  68.191  1.00  0.00    -0.280 C  
BRANCH   8   9
HETATM    9  C   UNL     1     -12.125  11.564  68.934  1.00  0.00    -0.270 C  
BRANCH   9  10
HETATM   10  C   UNL     1     -11.982  13.059  68.803  1.00  0.00    -0.302 A  
HETATM   11  C   UNL     1     -11.965  13.906  69.905  1.00  0.00    -0.405 A  
HETATM   12  C   UNL     1     -12.067  13.600  71.374  1.00  0.00    -0.038 C  
HETATM   13  C   UNL     1     -11.967  14.988  72.011  1.00  0.00    -0.388 C  
HETATM   14  N   UNL     1     -11.837  15.910  70.981  1.00  0.00    -0.405 N  
HETATM   15  O   UNL     1     -11.997  15.247  73.203  1.00  0.00    -0.417 OA 
HETATM   16  H   UNL     1     -11.751  16.917  71.118  1.00  0.00     0.000 HD 
HETATM   17  C   UNL     1     -11.840  15.288  69.743  1.00  0.00    -0.332 A  
HETATM   18  C   UNL     1     -11.730  15.891  68.510  1.00  0.00    -0.297 A  
HETATM   19  C   UNL     1     -11.758  15.059  67.393  1.00  0.00    -0.255 A  
HETATM   20  C   UNL     1     -11.887  13.664  67.535  1.00  0.00    -0.416 A  
ENDBRANCH   9  10
ENDBRANCH   8   9
ENDBRANCH   4   8
ENDBRANCH   3   4
ENDBRANCH   2   3
TORSDOF 7
ENDMDL
MODEL      196
REMARK 921   NORMALIZED FREE ENERGY PREDICTED BY IDOCK:   -3.71 KCAL/MOL
REMARK 922        TOTAL FREE ENERGY PREDICTED BY IDOCK:   -6.11 KCAL/MOL
REMARK 923 INTER-LIGAND FREE ENERGY PREDICTED BY IDOCK:   -5.37 KCAL/MOL
REMARK 924 INTRA-LIGAND FREE ENERGY PREDICTED BY IDOCK:   -0.74 KCAL/MOL
REMARK 927      BINDING AFFINITY PREDICTED BY RF-SCORE:    0.00 PKD
ROOT
HETATM    1  C   UNL     1      -6.995   8.781  68.510  1.00  0.00    -0.065 C  
HETATM    2  C   UNL     1      -6.560   9.070  67.083  1.00  0.00    -0.061 C  
ENDROOT
BRANCH   2   3
HETATM    3  C   UNL     1      -7.578   8.633  66.018  1.00  0.00    -0.093 C  
BRANCH   3   4
HETATM    4  N   UNL     1      -7.533   9.317  64.707  1.00  0.00    -0.102 NA 
BRANCH   4   5
HETATM    5  C   UNL     1      -7.820   8.374  63.603  1.00  0.00    -0.152 C  
BRANCH   5   6
HETATM    6  C   UNL     1      -7.417   6.906  63.843  1.00  0.00    -0.095 C  
HETATM    7  C   UNL     1      -8.210   5.914  63.006  1.00  0.00    -0.069 C  
ENDBRANCH   5   6
ENDBRANCH   4   5
BRANCH   4   8
HETATM    8  C   UNL     1      -8.497  10.448  64.695  1.00  0.00    -0.173 C  
BRANCH   8   9
HETATM    9  C   UNL     1      -9.974  10.104  64.998  1.00  0.00    -0.375 C  
BRANCH   9  10
HETATM   10  C   UNL     1     -10.644  11.012  65.997  1.00  0.00    -0.275 A  
HETATM   11  C   UNL     1     -11.261  12.201  65.628  1.00  0.00    -0.381 A  
HETATM   12  C   UNL     1     -11.419  12.842  64.277  1.00  0.00    -0.427 C  
HETATM   13  C   UNL     1     -12.203  14.115  64.601  1.00  0.00    -0.445 C  
HETATM   14  N   UNL     1     -12.417  14.135  65.973  1.00  0.00    -0.464 N  
HETATM   15  O   UNL     1     -12.573  14.965  63.808  1.00  0.00    -0.791 OA 
HETATM   16  H   UNL     1     -12.916  14.875  66.467  1.00  0.00     0.000 HD 
HETATM   17  C   UNL     1     -11.865  13.021  66.585  1.00  0.00    -0.393 A  
HETATM   18  C   UNL     1     -11.887  12.715  67.927  1.00  0.00    -0.388 A  
HETATM   19  C   UNL     1     -11.263  11.532  68.318  1.00  0.00    -0.322 A  
HETATM   20  C   UNL     1     -10.646  10.695  67.369  1.00  0.00    -0.304 A  
ENDBRANCH   9  10
ENDBRANCH   8   9
ENDBRANCH   4   8
ENDBRANCH   3   4
ENDBRANCH   2   3
TORSDOF 7
ENDMDL
MODEL      197
REMARK 921   NORMALIZED FREE ENERGY PREDICTED BY IDOCK:   -3.71 KCAL/MOL
REMARK 922        TOTAL FREE ENERGY PREDICTED BY IDOCK:   -6.11 KCAL/MOL
REMARK 923 INTER-LIGAND FREE ENERGY PREDICTED BY IDOCK:   -5.45 KCAL/MOL
REMARK 924 INTRA-LIGAND FREE ENERGY PREDICTED BY IDOCK:   -0.66 KCAL/MOL
REMARK 927      BINDING AFFINITY PREDICTED BY RF-SCORE:    0.00 PKD
ROOT
HETATM    1  C   UNL     1      -7.838   6.544  69.000  1.00  0.00    -0.110 C  
HETATM    2  C   UNL     1      -8.993   7.520  68.844  1.00  0.00    -0.134 C  
ENDROOT
BRANCH   2   3
HETATM    3  C   UNL     1      -8.693   8.931  69.373  1.00  0.00    -0.142 C  
BRANCH   3   4
HETATM    4  N   UNL     1      -8.559  10.020  68.380  1.00  0.00    -0.111 NA 
BRANCH   4   5
HETATM    5  C   UNL     1      -7.175  10.103  67.863  1.00  0.00    -0.086 C  
BRANCH   5   6
HETATM    6  C   UNL     1      -6.937   9.502  66.465  1.00  0.00    -0.085 C  
HETATM    7  C   UNL     1      -6.196  10.437  65.520  1.00  0.00    -0.125 C  
ENDBRANCH   5   6
ENDBRANCH   4   5
BRANCH   4   8
HETATM    8  C   UNL     1      -9.523   9.810  67.268  1.00  0.00    -0.153 C  
BRANCH   8   9
HETATM    9  C   UNL     1     -11.023   9.967  67.611  1.00  0.00    -0.297 C  
BRANCH   9  10
HETATM   10  C   UNL     1     -11.420  11.337  68.100  1.00  0.00    -0.376 A  
HETATM   11  C   UNL     1     -11.785  12.362  67.234  1.00  0.00    -0.419 A  
HETATM   12  C   UNL     1     -11.879  12.385  65.733  1.00  0.00    -0.467 C  
HETATM   13  C   UNL     1     -12.347  13.814  65.451  1.00  0.00    -0.475 C  
HETATM   14  N   UNL     1     -12.471  14.461  66.674  1.00  0.00    -0.500 N  
HETATM   15  O   UNL     1     -12.570  14.306  64.357  1.00  0.00    -0.665 OA 
HETATM   16  H   UNL     1     -12.768  15.430  66.784  1.00  0.00     0.000 HD 
HETATM   17  C   UNL     1     -12.140  13.620  67.725  1.00  0.00    -0.290 A  
HETATM   18  C   UNL     1     -12.149  13.926  69.067  1.00  0.00    -0.365 A  
HETATM   19  C   UNL     1     -11.775  12.916  69.950  1.00  0.00    -0.324 A  
HETATM   20  C   UNL     1     -11.411  11.641  69.475  1.00  0.00    -0.328 A  
ENDBRANCH   9  10
ENDBRANCH   8   9
ENDBRANCH   4   8
ENDBRANCH   3   4
ENDBRANCH   2   3
TORSDOF 7
ENDMDL
MODEL      198
REMARK 921   NORMALIZED FREE ENERGY PREDICTED BY IDOCK:   -3.71 KCAL/MOL
REMARK 922        TOTAL FREE ENERGY PREDICTED BY IDOCK:   -6.11 KCAL/MOL
REMARK 923 INTER-LIGAND FREE ENERGY PREDICTED BY IDOCK:   -4.76 KCAL/MOL
REMARK 924 INTRA-LIGAND FREE ENERGY PREDICTED BY IDOCK:   -1.34 KCAL/MOL
REMARK 927      BINDING AFFINITY PREDICTED BY RF-SCORE:    0.00 PKD
ROOT
HETATM    1  C   UNL     1      -7.185   6.815  70.398  1.00  0.00    -0.076 C  
HETATM    2  C   UNL     1      -7.769   8.182  70.081  1.00  0.00    -0.085 C  
ENDROOT
BRANCH   2   3
HETATM    3  C   UNL     1      -7.970   8.443  68.580  1.00  0.00    -0.121 C  
BRANCH   3   4
HETATM    4  N   UNL     1      -9.353   8.384  68.055  1.00  0.00    -0.136 NA 
BRANCH   4   5
HETATM    5  C   UNL     1      -9.502   9.230  66.850  1.00  0.00    -0.161 C  
BRANCH   5   6
HETATM    6  C   UNL     1      -9.734  10.732  67.100  1.00  0.00    -0.198 C  
HETATM    7  C   UNL     1     -11.180  11.078  67.423  1.00  0.00    -0.355 C  
ENDBRANCH   5   6
ENDBRANCH   4   5
BRANCH   4   8
HETATM    8  C   UNL     1      -9.719   6.976  67.757  1.00  0.00    -0.135 C  
BRANCH   8   9
HETATM    9  C   UNL     1     -11.031   6.452  68.386  1.00  0.00    -0.390 C  
BRANCH   9  10
HETATM   10  C   UNL     1     -10.966   6.202  69.872  1.00  0.00    -0.458 A  
HETATM   11  C   UNL     1     -11.394   7.139  70.806  1.00  0.00    -0.322 A  
HETATM   12  C   UNL     1     -11.981   8.510  70.615  1.00  0.00    -0.047 C  
HETATM   13  C   UNL     1     -12.229   8.969  72.054  1.00  0.00    -0.375 C  
HETATM   14  N   UNL     1     -11.805   7.948  72.895  1.00  0.00    -0.616 N  
HETATM   15  O   UNL     1     -12.706  10.034  72.407  1.00  0.00    -0.253 OA 
HETATM   16  H   UNL     1     -11.852   7.986  73.913  1.00  0.00     0.000 HD 
HETATM   17  C   UNL     1     -11.310   6.874  72.174  1.00  0.00    -0.265 A  
HETATM   18  C   UNL     1     -10.807   5.696  72.680  1.00  0.00    -0.301 A  
HETATM   19  C   UNL     1     -10.361   4.750  71.760  1.00  0.00    -0.230 A  
HETATM   20  C   UNL     1     -10.435   4.999  70.376  1.00  0.00    -0.237 A  
ENDBRANCH   9  10
ENDBRANCH   8   9
ENDBRANCH   4   8
ENDBRANCH   3   4
ENDBRANCH   2   3
TORSDOF 7
ENDMDL
MODEL      199
REMARK 921   NORMALIZED FREE ENERGY PREDICTED BY IDOCK:   -3.70 KCAL/MOL
REMARK 922        TOTAL FREE ENERGY PREDICTED BY IDOCK:   -6.10 KCAL/MOL
REMARK 923 INTER-LIGAND FREE ENERGY PREDICTED BY IDOCK:   -5.49 KCAL/MOL
REMARK 924 INTRA-LIGAND FREE ENERGY PREDICTED BY IDOCK:   -0.62 KCAL/MOL
REMARK 927      BINDING AFFINITY PREDICTED BY RF-SCORE:    0.00 PKD
ROOT
HETATM    1  C   UNL     1     -12.091  12.713  63.854  1.00  0.00    -0.567 C  
HETATM    2  C   UNL     1     -12.422  12.948  65.319  1.00  0.00    -0.552 C  
ENDROOT
BRANCH   2   3
HETATM    3  C   UNL     1     -11.561  12.128  66.293  1.00  0.00    -0.360 C  
BRANCH   3   4
HETATM    4  N   UNL     1     -11.023  12.825  67.483  1.00  0.00    -0.241 NA 
BRANCH   4   5
HETATM    5  C   UNL     1     -11.119  11.972  68.689  1.00  0.00    -0.250 C  
BRANCH   5   6
HETATM    6  C   UNL     1     -12.035  12.490  69.814  1.00  0.00    -0.359 C  
HETATM    7  C   UNL     1     -12.241  13.997  69.784  1.00  0.00    -0.396 C  
ENDBRANCH   5   6
ENDBRANCH   4   5
BRANCH   4   8
HETATM    8  C   UNL     1      -9.614  13.228  67.236  1.00  0.00    -0.234 C  
BRANCH   8   9
HETATM    9  C   UNL     1      -9.387  14.659  66.695  1.00  0.00    -0.293 C  
BRANCH   9  10
HETATM   10  C   UNL     1      -8.055  15.267  67.053  1.00  0.00    -0.253 A  
HETATM   11  C   UNL     1      -7.762  16.608  66.828  1.00  0.00    -0.292 A  
HETATM   12  C   UNL     1      -8.602  17.705  66.234  1.00  0.00    -0.224 C  
HETATM   13  C   UNL     1      -7.667  18.914  66.300  1.00  0.00    -0.276 C  
HETATM   14  N   UNL     1      -6.470  18.484  66.857  1.00  0.00    -0.181 N  
HETATM   15  O   UNL     1      -7.916  20.049  65.929  1.00  0.00    -0.336 OA 
HETATM   16  H   UNL     1      -5.662  19.085  67.018  1.00  0.00     0.000 HD 
HETATM   17  C   UNL     1      -6.513  17.134  67.166  1.00  0.00    -0.178 A  
HETATM   18  C   UNL     1      -5.509  16.378  67.728  1.00  0.00    -0.147 A  
HETATM   19  C   UNL     1      -5.779  15.029  67.951  1.00  0.00    -0.144 A  
HETATM   20  C   UNL     1      -7.031  14.480  67.614  1.00  0.00    -0.204 A  
ENDBRANCH   9  10
ENDBRANCH   8   9
ENDBRANCH   4   8
ENDBRANCH   3   4
ENDBRANCH   2   3
TORSDOF 7
ENDMDL
MODEL      200
REMARK 921   NORMALIZED FREE ENERGY PREDICTED BY IDOCK:   -3.70 KCAL/MOL
REMARK 922        TOTAL FREE ENERGY PREDICTED BY IDOCK:   -6.10 KCAL/MOL
REMARK 923 INTER-LIGAND FREE ENERGY PREDICTED BY IDOCK:   -5.65 KCAL/MOL
REMARK 924 INTRA-LIGAND FREE ENERGY PREDICTED BY IDOCK:   -0.45 KCAL/MOL
REMARK 927      BINDING AFFINITY PREDICTED BY RF-SCORE:    0.00 PKD
ROOT
HETATM    1  C   UNL     1     -11.715   9.844  71.503  1.00  0.00    -0.414 C  
HETATM    2  C   UNL     1     -11.947  10.697  70.266  1.00  0.00    -0.425 C  
ENDROOT
BRANCH   2   3
HETATM    3  C   UNL     1     -12.102  12.197  70.561  1.00  0.00    -0.293 C  
BRANCH   3   4
HETATM    4  N   UNL     1     -12.035  13.131  69.415  1.00  0.00    -0.308 NA 
BRANCH   4   5
HETATM    5  C   UNL     1     -11.488  14.443  69.826  1.00  0.00    -0.276 C  
BRANCH   5   6
HETATM    6  C   UNL     1     -11.159  15.427  68.688  1.00  0.00    -0.290 C  
HETATM    7  C   UNL     1     -10.679  16.785  69.179  1.00  0.00    -0.329 C  
ENDBRANCH   5   6
ENDBRANCH   4   5
BRANCH   4   8
HETATM    8  C   UNL     1     -11.213  12.536  68.329  1.00  0.00    -0.266 C  
BRANCH   8   9
HETATM    9  C   UNL     1     -11.979  11.850  67.175  1.00  0.00    -0.045 C  
BRANCH   9  10
HETATM   10  C   UNL     1     -11.159  11.587  65.938  1.00  0.00    -0.274 A  
HETATM   11  C   UNL     1     -10.398  10.434  65.779  1.00  0.00    -0.257 A  
HETATM   12  C   UNL     1     -10.206   9.256  66.694  1.00  0.00    -0.323 C  
HETATM   13  C   UNL     1      -9.261   8.360  65.890  1.00  0.00    -0.155 C  
HETATM   14  N   UNL     1      -8.987   9.011  64.695  1.00  0.00    -0.415 N  
HETATM   15  O   UNL     1      -8.821   7.274  66.230  1.00  0.00    -0.149 OA 
HETATM   16  H   UNL     1      -8.379   8.640  63.965  1.00  0.00     0.000 HD 
HETATM   17  C   UNL     1      -9.644  10.229  64.621  1.00  0.00    -0.312 A  
HETATM   18  C   UNL     1      -9.601  11.134  63.585  1.00  0.00    -0.316 A  
HETATM   19  C   UNL     1     -10.347  12.301  63.730  1.00  0.00    -0.464 A  
HETATM   20  C   UNL     1     -11.111  12.527  64.891  1.00  0.00    -0.336 A  
ENDBRANCH   9  10
ENDBRANCH   8   9
ENDBRANCH   4   8
ENDBRANCH   3   4
ENDBRANCH   2   3
TORSDOF 7
ENDMDL
MODEL      201
REMARK 921   NORMALIZED FREE ENERGY PREDICTED BY IDOCK:   -3.69 KCAL/MOL
REMARK 922        TOTAL FREE ENERGY PREDICTED BY IDOCK:   -6.08 KCAL/MOL
REMARK 923 INTER-LIGAND FREE ENERGY PREDICTED BY IDOCK:   -5.48 KCAL/MOL
REMARK 924 INTRA-LIGAND FREE ENERGY PREDICTED BY IDOCK:   -0.60 KCAL/MOL
REMARK 927      BINDING AFFINITY PREDICTED BY RF-SCORE:    0.00 PKD
ROOT
HETATM    1  C   UNL     1     -10.683   5.577  66.741  1.00  0.00    -0.329 C  
HETATM    2  C   UNL     1     -11.050   6.700  67.699  1.00  0.00    -0.357 C  
ENDROOT
BRANCH   2   3
HETATM    3  C   UNL     1     -10.419   8.055  67.344  1.00  0.00    -0.287 C  
BRANCH   3   4
HETATM    4  N   UNL     1      -9.745   8.802  68.430  1.00  0.00    -0.158 NA 
BRANCH   4   5
HETATM    5  C   UNL     1      -8.311   9.003  68.129  1.00  0.00    -0.121 C  
BRANCH   5   6
HETATM    6  C   UNL     1      -7.682   8.011  67.132  1.00  0.00    -0.101 C  
HETATM    7  C   UNL     1      -6.252   7.624  67.480  1.00  0.00    -0.050 C  
ENDBRANCH   5   6
ENDBRANCH   4   5
BRANCH   4   8
HETATM    8  C   UNL     1     -10.426  10.106  68.642  1.00  0.00    -0.202 C  
BRANCH   8   9
HETATM    9  C   UNL     1      -9.731  11.354  68.050  1.00  0.00    -0.190 C  
BRANCH   9  10
HETATM   10  C   UNL     1     -10.643  12.530  67.806  1.00  0.00    -0.235 A  
HETATM   11  C   UNL     1     -11.334  12.703  66.611  1.00  0.00    -0.379 A  
HETATM   12  C   UNL     1     -11.364  11.856  65.369  1.00  0.00    -0.334 C  
HETATM   13  C   UNL     1     -12.330  12.624  64.465  1.00  0.00    -0.464 C  
HETATM   14  N   UNL     1     -12.745  13.751  65.162  1.00  0.00    -0.686 N  
HETATM   15  O   UNL     1     -12.675  12.315  63.337  1.00  0.00    -0.727 OA 
HETATM   16  H   UNL     1     -13.394  14.447  64.796  1.00  0.00     0.000 HD 
HETATM   17  C   UNL     1     -12.164  13.809  66.419  1.00  0.00    -0.436 A  
HETATM   18  C   UNL     1     -12.348  14.783  67.374  1.00  0.00     0.197 A  
HETATM   19  C   UNL     1     -11.655  14.634  68.574  1.00  0.00    -0.346 A  
HETATM   20  C   UNL     1     -10.811  13.527  68.786  1.00  0.00    -0.279 A  
ENDBRANCH   9  10
ENDBRANCH   8   9
ENDBRANCH   4   8
ENDBRANCH   3   4
ENDBRANCH   2   3
TORSDOF 7
ENDMDL
MODEL      202
REMARK 921   NORMALIZED FREE ENERGY PREDICTED BY IDOCK:   -3.69 KCAL/MOL
REMARK 922        TOTAL FREE ENERGY PREDICTED BY IDOCK:   -6.08 KCAL/MOL
REMARK 923 INTER-LIGAND FREE ENERGY PREDICTED BY IDOCK:   -5.27 KCAL/MOL
REMARK 924 INTRA-LIGAND FREE ENERGY PREDICTED BY IDOCK:   -0.81 KCAL/MOL
REMARK 927      BINDING AFFINITY PREDICTED BY RF-SCORE:    0.00 PKD
ROOT
HETATM    1  C   UNL     1      -8.978   7.831  69.048  1.00  0.00    -0.145 C  
HETATM    2  C   UNL     1      -9.956   8.991  69.148  1.00  0.00    -0.187 C  
ENDROOT
BRANCH   2   3
HETATM    3  C   UNL     1      -9.287  10.357  69.361  1.00  0.00    -0.167 C  
BRANCH   3   4
HETATM    4  N   UNL     1      -9.595  11.429  68.388  1.00  0.00    -0.192 NA 
BRANCH   4   5
HETATM    5  C   UNL     1      -8.432  11.708  67.516  1.00  0.00    -0.150 C  
BRANCH   5   6
HETATM    6  C   UNL     1      -7.821  13.118  67.631  1.00  0.00    -0.169 C  
HETATM    7  C   UNL     1      -6.950  13.304  68.864  1.00  0.00    -0.096 C  
ENDBRANCH   5   6
ENDBRANCH   4   5
BRANCH   4   8
HETATM    8  C   UNL     1     -10.780  11.047  67.576  1.00  0.00    -0.244 C  
BRANCH   8   9
HETATM    9  C   UNL     1     -11.615  12.204  66.981  1.00  0.00    -0.406 C  
BRANCH   9  10
HETATM   10  C   UNL     1     -11.689  13.440  67.843  1.00  0.00    -0.396 A  
HETATM   11  C   UNL     1     -11.314  14.696  67.379  1.00  0.00    -0.368 A  
HETATM   12  C   UNL     1     -10.792  15.126  66.036  1.00  0.00    -0.335 C  
HETATM   13  C   UNL     1     -10.601  16.633  66.219  1.00  0.00    -0.205 C  
HETATM   14  N   UNL     1     -10.975  16.944  67.520  1.00  0.00    -0.195 N  
HETATM   15  O   UNL     1     -10.193  17.423  65.384  1.00  0.00    -0.603 OA 
HETATM   16  H   UNL     1     -10.947  17.883  67.917  1.00  0.00     0.000 HD 
HETATM   17  C   UNL     1     -11.390  15.816  68.209  1.00  0.00    -0.354 A  
HETATM   18  C   UNL     1     -11.827  15.754  69.513  1.00  0.00    -0.359 A  
HETATM   19  C   UNL     1     -12.196  14.502  70.000  1.00  0.00    -0.396 A  
HETATM   20  C   UNL     1     -12.124  13.360  69.179  1.00  0.00    -0.306 A  
ENDBRANCH   9  10
ENDBRANCH   8   9
ENDBRANCH   4   8
ENDBRANCH   3   4
ENDBRANCH   2   3
TORSDOF 7
ENDMDL
MODEL      203
REMARK 921   NORMALIZED FREE ENERGY PREDICTED BY IDOCK:   -3.68 KCAL/MOL
REMARK 922        TOTAL FREE ENERGY PREDICTED BY IDOCK:   -6.08 KCAL/MOL
REMARK 923 INTER-LIGAND FREE ENERGY PREDICTED BY IDOCK:   -5.27 KCAL/MOL
REMARK 924 INTRA-LIGAND FREE ENERGY PREDICTED BY IDOCK:   -0.81 KCAL/MOL
REMARK 927      BINDING AFFINITY PREDICTED BY RF-SCORE:    0.00 PKD
ROOT
HETATM    1  C   UNL     1     -12.155  12.945  63.601  1.00  0.00    -0.611 C  
HETATM    2  C   UNL     1     -10.839  12.281  63.977  1.00  0.00    -0.439 C  
ENDROOT
BRANCH   2   3
HETATM    3  C   UNL     1     -10.999  11.029  64.853  1.00  0.00    -0.060 C  
BRANCH   3   4
HETATM    4  N   UNL     1      -9.768  10.403  65.384  1.00  0.00    -0.244 NA 
BRANCH   4   5
HETATM    5  C   UNL     1      -8.974   9.784  64.299  1.00  0.00    -0.237 C  
BRANCH   5   6
HETATM    6  C   UNL     1      -7.888   8.784  64.739  1.00  0.00    -0.124 C  
HETATM    7  C   UNL     1      -6.480   9.202  64.344  1.00  0.00    -0.079 C  
ENDBRANCH   5   6
ENDBRANCH   4   5
BRANCH   4   8
HETATM    8  C   UNL     1      -8.961  11.416  66.112  1.00  0.00    -0.201 C  
BRANCH   8   9
HETATM    9  C   UNL     1      -9.396  11.739  67.560  1.00  0.00    -0.174 C  
BRANCH   9  10
HETATM   10  C   UNL     1     -10.113  13.054  67.728  1.00  0.00    -0.229 A  
HETATM   11  C   UNL     1     -11.054  13.268  68.729  1.00  0.00    -0.303 A  
HETATM   12  C   UNL     1     -11.560  12.350  69.807  1.00  0.00    -0.302 C  
HETATM   13  C   UNL     1     -12.563  13.232  70.553  1.00  0.00    -0.189 C  
HETATM   14  N   UNL     1     -12.581  14.468  69.921  1.00  0.00    -0.536 N  
HETATM   15  O   UNL     1     -13.232  12.916  71.523  1.00  0.00    -0.349 OA 
HETATM   16  H   UNL     1     -13.165  15.253  70.209  1.00  0.00     0.000 HD 
HETATM   17  C   UNL     1     -11.704  14.499  68.848  1.00  0.00    -0.319 A  
HETATM   18  C   UNL     1     -11.465  15.557  68.001  1.00  0.00    -0.313 A  
HETATM   19  C   UNL     1     -10.534  15.358  66.984  1.00  0.00    -0.295 A  
HETATM   20  C   UNL     1      -9.871  14.124  66.846  1.00  0.00    -0.265 A  
ENDBRANCH   9  10
ENDBRANCH   8   9
ENDBRANCH   4   8
ENDBRANCH   3   4
ENDBRANCH   2   3
TORSDOF 7
ENDMDL
MODEL      204
REMARK 921   NORMALIZED FREE ENERGY PREDICTED BY IDOCK:   -3.68 KCAL/MOL
REMARK 922        TOTAL FREE ENERGY PREDICTED BY IDOCK:   -6.07 KCAL/MOL
REMARK 923 INTER-LIGAND FREE ENERGY PREDICTED BY IDOCK:   -6.38 KCAL/MOL
REMARK 924 INTRA-LIGAND FREE ENERGY PREDICTED BY IDOCK:    0.31 KCAL/MOL
REMARK 927      BINDING AFFINITY PREDICTED BY RF-SCORE:    0.00 PKD
ROOT
HETATM    1  C   UNL     1     -10.315  20.145  68.693  1.00  0.00    -0.307 C  
HETATM    2  C   UNL     1      -9.524  18.880  68.399  1.00  0.00    -0.405 C  
ENDROOT
BRANCH   2   3
HETATM    3  C   UNL     1     -10.280  17.858  67.536  1.00  0.00    -0.363 C  
BRANCH   3   4
HETATM    4  N   UNL     1      -9.487  16.788  66.891  1.00  0.00    -0.234 NA 
BRANCH   4   5
HETATM    5  C   UNL     1      -8.040  17.098  66.931  1.00  0.00    -0.216 C  
BRANCH   5   6
HETATM    6  C   UNL     1      -7.608  18.406  66.240  1.00  0.00    -0.289 C  
HETATM    7  C   UNL     1      -6.204  18.351  65.659  1.00  0.00    -0.297 C  
ENDBRANCH   5   6
ENDBRANCH   4   5
BRANCH   4   8
HETATM    8  C   UNL     1      -9.763  15.487  67.553  1.00  0.00    -0.215 C  
BRANCH   8   9
HETATM    9  C   UNL     1      -9.395  14.212  66.759  1.00  0.00    -0.295 C  
BRANCH   9  10
HETATM   10  C   UNL     1     -10.344  13.868  65.639  1.00  0.00    -0.337 A  
HETATM   11  C   UNL     1     -10.240  12.689  64.909  1.00  0.00    -0.295 A  
HETATM   12  C   UNL     1      -9.263  11.552  65.023  1.00  0.00    -0.033 C  
HETATM   13  C   UNL     1      -9.737  10.594  63.928  1.00  0.00    -0.321 C  
HETATM   14  N   UNL     1     -10.833  11.179  63.309  1.00  0.00    -0.787 N  
HETATM   15  O   UNL     1      -9.246   9.515  63.641  1.00  0.00    -0.206 OA 
HETATM   16  H   UNL     1     -11.351  10.757  62.538  1.00  0.00     0.000 HD 
HETATM   17  C   UNL     1     -11.134  12.409  63.873  1.00  0.00    -0.415 A  
HETATM   18  C   UNL     1     -12.153  13.261  63.510  1.00  0.00    -0.550 A  
HETATM   19  C   UNL     1     -12.266  14.453  64.222  1.00  0.00    -0.450 A  
HETATM   20  C   UNL     1     -11.372  14.755  65.268  1.00  0.00    -0.363 A  
ENDBRANCH   9  10
ENDBRANCH   8   9
ENDBRANCH   4   8
ENDBRANCH   3   4
ENDBRANCH   2   3
TORSDOF 7
ENDMDL
MODEL      205
REMARK 921   NORMALIZED FREE ENERGY PREDICTED BY IDOCK:   -3.66 KCAL/MOL
REMARK 922        TOTAL FREE ENERGY PREDICTED BY IDOCK:   -6.04 KCAL/MOL
REMARK 923 INTER-LIGAND FREE ENERGY PREDICTED BY IDOCK:   -5.57 KCAL/MOL
REMARK 924 INTRA-LIGAND FREE ENERGY PREDICTED BY IDOCK:   -0.48 KCAL/MOL
REMARK 927      BINDING AFFINITY PREDICTED BY RF-SCORE:    0.00 PKD
ROOT
HETATM    1  C   UNL     1      -5.505   9.796  64.209  1.00  0.00    -0.076 C  
HETATM    2  C   UNL     1      -6.682  10.512  64.850  1.00  0.00     0.021 C  
ENDROOT
BRANCH   2   3
HETATM    3  C   UNL     1      -8.046   9.881  64.531  1.00  0.00    -0.149 C  
BRANCH   3   4
HETATM    4  N   UNL     1      -9.258  10.620  64.952  1.00  0.00    -0.204 NA 
BRANCH   4   5
HETATM    5  C   UNL     1     -10.090  10.988  63.786  1.00  0.00    -0.363 C  
BRANCH   5   6
HETATM    6  C   UNL     1     -10.838  12.332  63.884  1.00  0.00    -0.464 C  
HETATM    7  C   UNL     1     -12.322  12.225  63.568  1.00  0.00    -0.670 C  
ENDBRANCH   5   6
ENDBRANCH   4   5
BRANCH   4   8
HETATM    8  C   UNL     1     -10.037   9.801  65.916  1.00  0.00    -0.243 C  
BRANCH   8   9
HETATM    9  C   UNL     1     -10.510  10.510  67.206  1.00  0.00    -0.300 C  
BRANCH   9  10
HETATM   10  C   UNL     1     -10.726   9.599  68.387  1.00  0.00    -0.251 A  
HETATM   11  C   UNL     1     -11.358  10.023  69.551  1.00  0.00    -0.220 A  
HETATM   12  C   UNL     1     -11.941  11.361  69.914  1.00  0.00    -0.434 C  
HETATM   13  C   UNL     1     -12.478  11.118  71.326  1.00  0.00    -0.360 C  
HETATM   14  N   UNL     1     -12.193   9.800  71.659  1.00  0.00    -0.393 N  
HETATM   15  O   UNL     1     -13.050  11.927  72.038  1.00  0.00    -0.457 OA 
HETATM   16  H   UNL     1     -12.438   9.366  72.549  1.00  0.00     0.000 HD 
HETATM   17  C   UNL     1     -11.533   9.151  70.628  1.00  0.00    -0.262 A  
HETATM   18  C   UNL     1     -11.100   7.844  70.613  1.00  0.00    -0.263 A  
HETATM   19  C   UNL     1     -10.454   7.404  69.460  1.00  0.00    -0.236 A  
HETATM   20  C   UNL     1     -10.265   8.269  68.364  1.00  0.00    -0.242 A  
ENDBRANCH   9  10
ENDBRANCH   8   9
ENDBRANCH   4   8
ENDBRANCH   3   4
ENDBRANCH   2   3
TORSDOF 7
ENDMDL
MODEL      206
REMARK 921   NORMALIZED FREE ENERGY PREDICTED BY IDOCK:   -3.66 KCAL/MOL
REMARK 922        TOTAL FREE ENERGY PREDICTED BY IDOCK:   -6.04 KCAL/MOL
REMARK 923 INTER-LIGAND FREE ENERGY PREDICTED BY IDOCK:   -5.56 KCAL/MOL
REMARK 924 INTRA-LIGAND FREE ENERGY PREDICTED BY IDOCK:   -0.49 KCAL/MOL
REMARK 927      BINDING AFFINITY PREDICTED BY RF-SCORE:    0.00 PKD
ROOT
HETATM    1  C   UNL     1     -11.414  11.966  63.645  1.00  0.00    -0.551 C  
HETATM    2  C   UNL     1     -10.600  10.853  64.285  1.00  0.00    -0.336 C  
ENDROOT
BRANCH   2   3
HETATM    3  C   UNL     1      -9.912  11.257  65.598  1.00  0.00    -0.247 C  
BRANCH   3   4
HETATM    4  N   UNL     1     -10.779  11.641  66.735  1.00  0.00    -0.248 NA 
BRANCH   4   5
HETATM    5  C   UNL     1     -11.249  10.447  67.473  1.00  0.00    -0.179 C  
BRANCH   5   6
HETATM    6  C   UNL     1     -10.191   9.364  67.755  1.00  0.00    -0.273 C  
HETATM    7  C   UNL     1     -10.030   9.043  69.233  1.00  0.00    -0.188 C  
ENDBRANCH   5   6
ENDBRANCH   4   5
BRANCH   4   8
HETATM    8  C   UNL     1     -10.044  12.562  67.640  1.00  0.00    -0.217 C  
BRANCH   8   9
HETATM    9  C   UNL     1     -10.784  13.850  68.069  1.00  0.00    -0.255 C  
BRANCH   9  10
HETATM   10  C   UNL     1     -10.739  14.971  67.063  1.00  0.00    -0.304 A  
HETATM   11  C   UNL     1     -10.559  16.299  67.433  1.00  0.00    -0.307 A  
HETATM   12  C   UNL     1     -10.374  16.918  68.791  1.00  0.00    -0.324 C  
HETATM   13  C   UNL     1     -10.223  18.405  68.462  1.00  0.00    -0.364 C  
HETATM   14  N   UNL     1     -10.329  18.539  67.084  1.00  0.00    -0.381 N  
HETATM   15  O   UNL     1     -10.046  19.313  69.257  1.00  0.00    -0.355 OA 
HETATM   16  H   UNL     1     -10.266  19.427  66.587  1.00  0.00     0.000 HD 
HETATM   17  C   UNL     1     -10.530  17.312  66.472  1.00  0.00    -0.260 A  
HETATM   18  C   UNL     1     -10.678  17.071  65.125  1.00  0.00    -0.066 A  
HETATM   19  C   UNL     1     -10.872  15.748  64.735  1.00  0.00    -0.365 A  
HETATM   20  C   UNL     1     -10.907  14.713  65.689  1.00  0.00    -0.335 A  
ENDBRANCH   9  10
ENDBRANCH   8   9
ENDBRANCH   4   8
ENDBRANCH   3   4
ENDBRANCH   2   3
TORSDOF 7
ENDMDL
MODEL      207
REMARK 921   NORMALIZED FREE ENERGY PREDICTED BY IDOCK:   -3.64 KCAL/MOL
REMARK 922        TOTAL FREE ENERGY PREDICTED BY IDOCK:   -6.01 KCAL/MOL
REMARK 923 INTER-LIGAND FREE ENERGY PREDICTED BY IDOCK:   -5.53 KCAL/MOL
REMARK 924 INTRA-LIGAND FREE ENERGY PREDICTED BY IDOCK:   -0.48 KCAL/MOL
REMARK 927      BINDING AFFINITY PREDICTED BY RF-SCORE:    0.00 PKD
ROOT
HETATM    1  C   UNL     1      -9.235   7.509  74.006  1.00  0.00    -0.279 C  
HETATM    2  C   UNL     1     -10.456   6.655  73.705  1.00  0.00    -0.357 C  
ENDROOT
BRANCH   2   3
HETATM    3  C   UNL     1     -11.256   7.118  72.478  1.00  0.00    -0.290 C  
BRANCH   3   4
HETATM    4  N   UNL     1     -10.546   7.933  71.467  1.00  0.00    -0.219 NA 
BRANCH   4   5
HETATM    5  C   UNL     1      -9.577   7.114  70.705  1.00  0.00    -0.168 C  
BRANCH   5   6
HETATM    6  C   UNL     1     -10.162   5.919  69.930  1.00  0.00    -0.280 C  
HETATM    7  C   UNL     1      -9.229   5.374  68.859  1.00  0.00    -0.147 C  
ENDBRANCH   5   6
ENDBRANCH   4   5
BRANCH   4   8
HETATM    8  C   UNL     1     -11.530   8.569  70.552  1.00  0.00    -0.182 C  
BRANCH   8   9
HETATM    9  C   UNL     1     -11.156   9.959  69.989  1.00  0.00    -0.335 C  
BRANCH   9  10
HETATM   10  C   UNL     1     -10.845   9.983  68.514  1.00  0.00    -0.270 A  
HETATM   11  C   UNL     1     -11.132  11.079  67.708  1.00  0.00    -0.356 A  
HETATM   12  C   UNL     1     -11.758  12.404  68.048  1.00  0.00    -0.414 C  
HETATM   13  C   UNL     1     -11.759  13.127  66.700  1.00  0.00    -0.375 C  
HETATM   14  N   UNL     1     -11.203  12.265  65.764  1.00  0.00    -0.323 N  
HETATM   15  O   UNL     1     -12.173  14.253  66.477  1.00  0.00    -0.441 OA 
HETATM   16  H   UNL     1     -11.080  12.489  64.777  1.00  0.00     0.000 HD 
HETATM   17  C   UNL     1     -10.836  11.060  66.343  1.00  0.00    -0.191 A  
HETATM   18  C   UNL     1     -10.258   9.980  65.716  1.00  0.00    -0.270 A  
HETATM   19  C   UNL     1      -9.975   8.867  66.504  1.00  0.00    -0.358 A  
HETATM   20  C   UNL     1     -10.268   8.865  67.882  1.00  0.00    -0.274 A  
ENDBRANCH   9  10
ENDBRANCH   8   9
ENDBRANCH   4   8
ENDBRANCH   3   4
ENDBRANCH   2   3
TORSDOF 7
ENDMDL
MODEL      208
REMARK 921   NORMALIZED FREE ENERGY PREDICTED BY IDOCK:   -3.64 KCAL/MOL
REMARK 922        TOTAL FREE ENERGY PREDICTED BY IDOCK:   -6.01 KCAL/MOL
REMARK 923 INTER-LIGAND FREE ENERGY PREDICTED BY IDOCK:   -5.09 KCAL/MOL
REMARK 924 INTRA-LIGAND FREE ENERGY PREDICTED BY IDOCK:   -0.92 KCAL/MOL
REMARK 927      BINDING AFFINITY PREDICTED BY RF-SCORE:    0.00 PKD
ROOT
HETATM    1  C   UNL     1     -14.063   8.428  71.969  1.00  0.00    -0.495 C  
HETATM    2  C   UNL     1     -12.580   8.726  72.122  1.00  0.00    -0.463 C  
ENDROOT
BRANCH   2   3
HETATM    3  C   UNL     1     -11.808   8.749  70.794  1.00  0.00    -0.178 C  
BRANCH   3   4
HETATM    4  N   UNL     1     -10.672   7.812  70.646  1.00  0.00    -0.227 NA 
BRANCH   4   5
HETATM    5  C   UNL     1     -10.967   6.771  69.637  1.00  0.00    -0.288 C  
BRANCH   5   6
HETATM    6  C   UNL     1     -10.126   6.819  68.348  1.00  0.00    -0.168 C  
HETATM    7  C   UNL     1     -10.957   6.742  67.076  1.00  0.00    -0.439 C  
ENDBRANCH   5   6
ENDBRANCH   4   5
BRANCH   4   8
HETATM    8  C   UNL     1      -9.443   8.564  70.281  1.00  0.00    -0.166 C  
BRANCH   8   9
HETATM    9  C   UNL     1      -9.635  10.031  69.832  1.00  0.00    -0.233 C  
BRANCH   9  10
HETATM   10  C   UNL     1      -9.092  10.351  68.463  1.00  0.00    -0.145 A  
HETATM   11  C   UNL     1      -9.862  10.958  67.478  1.00  0.00    -0.192 A  
HETATM   12  C   UNL     1     -11.294  11.418  67.502  1.00  0.00    -0.362 C  
HETATM   13  C   UNL     1     -11.482  11.998  66.099  1.00  0.00    -0.339 C  
HETATM   14  N   UNL     1     -10.280  11.844  65.421  1.00  0.00    -0.254 N  
HETATM   15  O   UNL     1     -12.497  12.502  65.648  1.00  0.00    -0.648 OA 
HETATM   16  H   UNL     1     -10.120  12.143  64.459  1.00  0.00     0.000 HD 
HETATM   17  C   UNL     1      -9.326  11.231  66.217  1.00  0.00    -0.207 A  
HETATM   18  C   UNL     1      -8.029  10.923  65.872  1.00  0.00    -0.105 A  
HETATM   19  C   UNL     1      -7.245  10.303  66.842  1.00  0.00    -0.093 A  
HETATM   20  C   UNL     1      -7.768  10.017  68.117  1.00  0.00    -0.085 A  
ENDBRANCH   9  10
ENDBRANCH   8   9
ENDBRANCH   4   8
ENDBRANCH   3   4
ENDBRANCH   2   3
TORSDOF 7
ENDMDL
MODEL      209
REMARK 921   NORMALIZED FREE ENERGY PREDICTED BY IDOCK:   -3.64 KCAL/MOL
REMARK 922        TOTAL FREE ENERGY PREDICTED BY IDOCK:   -6.01 KCAL/MOL
REMARK 923 INTER-LIGAND FREE ENERGY PREDICTED BY IDOCK:   -5.29 KCAL/MOL
REMARK 924 INTRA-LIGAND FREE ENERGY PREDICTED BY IDOCK:   -0.71 KCAL/MOL
REMARK 927      BINDING AFFINITY PREDICTED BY RF-SCORE:    0.00 PKD
ROOT
HETATM    1  C   UNL     1      -9.482  10.210  64.591  1.00  0.00    -0.357 C  
HETATM    2  C   UNL     1      -8.508  10.436  65.737  1.00  0.00    -0.170 C  
ENDROOT
BRANCH   2   3
HETATM    3  C   UNL     1      -9.142  10.307  67.130  1.00  0.00    -0.142 C  
BRANCH   3   4
HETATM    4  N   UNL     1     -10.489   9.699  67.216  1.00  0.00    -0.255 NA 
BRANCH   4   5
HETATM    5  C   UNL     1     -10.427   8.351  67.822  1.00  0.00    -0.220 C  
BRANCH   5   6
HETATM    6  C   UNL     1     -10.069   7.195  66.870  1.00  0.00    -0.308 C  
HETATM    7  C   UNL     1     -11.123   6.099  66.821  1.00  0.00    -0.230 C  
ENDBRANCH   5   6
ENDBRANCH   4   5
BRANCH   4   8
HETATM    8  C   UNL     1     -11.393  10.585  67.995  1.00  0.00    -0.246 C  
BRANCH   8   9
HETATM    9  C   UNL     1     -10.890  11.041  69.384  1.00  0.00    -0.278 C  
BRANCH   9  10
HETATM   10  C   UNL     1     -11.485  10.293  70.550  1.00  0.00    -0.427 A  
HETATM   11  C   UNL     1     -10.735   9.440  71.351  1.00  0.00    -0.407 A  
HETATM   12  C   UNL     1      -9.278   9.070  71.288  1.00  0.00    -0.314 C  
HETATM   13  C   UNL     1      -9.128   8.107  72.467  1.00  0.00    -0.235 C  
HETATM   14  N   UNL     1     -10.374   7.985  73.067  1.00  0.00    -0.330 N  
HETATM   15  O   UNL     1      -8.107   7.542  72.821  1.00  0.00    -0.099 OA 
HETATM   16  H   UNL     1     -10.566   7.401  73.881  1.00  0.00     0.000 HD 
HETATM   17  C   UNL     1     -11.324   8.759  72.418  1.00  0.00    -0.202 A  
HETATM   18  C   UNL     1     -12.657   8.879  72.740  1.00  0.00    -0.105 A  
HETATM   19  C   UNL     1     -13.429   9.720  71.941  1.00  0.00    -0.485 A  
HETATM   20  C   UNL     1     -12.854  10.414  70.859  1.00  0.00    -0.482 A  
ENDBRANCH   9  10
ENDBRANCH   8   9
ENDBRANCH   4   8
ENDBRANCH   3   4
ENDBRANCH   2   3
TORSDOF 7
ENDMDL
MODEL      210
REMARK 921   NORMALIZED FREE ENERGY PREDICTED BY IDOCK:   -3.64 KCAL/MOL
REMARK 922        TOTAL FREE ENERGY PREDICTED BY IDOCK:   -6.01 KCAL/MOL
REMARK 923 INTER-LIGAND FREE ENERGY PREDICTED BY IDOCK:   -5.25 KCAL/MOL
REMARK 924 INTRA-LIGAND FREE ENERGY PREDICTED BY IDOCK:   -0.76 KCAL/MOL
REMARK 927      BINDING AFFINITY PREDICTED BY RF-SCORE:    0.00 PKD
ROOT
HETATM    1  C   UNL     1      -9.483  15.697  69.367  1.00  0.00    -0.279 C  
HETATM    2  C   UNL     1     -10.797  16.303  68.901  1.00  0.00    -0.317 C  
ENDROOT
BRANCH   2   3
HETATM    3  C   UNL     1     -12.029  15.436  69.206  1.00  0.00    -0.310 C  
BRANCH   3   4
HETATM    4  N   UNL     1     -11.874  14.357  70.207  1.00  0.00    -0.297 NA 
BRANCH   4   5
HETATM    5  C   UNL     1     -12.630  14.663  71.442  1.00  0.00    -0.335 C  
BRANCH   5   6
HETATM    6  C   UNL     1     -11.866  15.448  72.526  1.00  0.00    -0.564 C  
HETATM    7  C   UNL     1     -12.500  15.352  73.906  1.00  0.00    -0.763 C  
ENDBRANCH   5   6
ENDBRANCH   4   5
BRANCH   4   8
HETATM    8  C   UNL     1     -12.320  13.064  69.626  1.00  0.00    -0.045 C  
BRANCH   8   9
HETATM    9  C   UNL     1     -11.862  12.758  68.181  1.00  0.00    -0.372 C  
BRANCH   9  10
HETATM   10  C   UNL     1     -10.461  12.212  68.064  1.00  0.00    -0.227 A  
HETATM   11  C   UNL     1     -10.012  11.140  68.825  1.00  0.00    -0.207 A  
HETATM   12  C   UNL     1     -10.721  10.312  69.861  1.00  0.00    -0.344 C  
HETATM   13  C   UNL     1      -9.645   9.307  70.279  1.00  0.00    -0.235 C  
HETATM   14  N   UNL     1      -8.502   9.593  69.545  1.00  0.00    -0.144 N  
HETATM   15  O   UNL     1      -9.760   8.418  71.106  1.00  0.00    -0.167 OA 
HETATM   16  H   UNL     1      -7.625   9.077  69.622  1.00  0.00     0.000 HD 
HETATM   17  C   UNL     1      -8.704  10.667  68.693  1.00  0.00    -0.148 A  
HETATM   18  C   UNL     1      -7.791  11.220  67.824  1.00  0.00    -0.115 A  
HETATM   19  C   UNL     1      -8.219  12.304  67.060  1.00  0.00    -0.155 A  
HETATM   20  C   UNL     1      -9.533  12.797  67.181  1.00  0.00    -0.223 A  
ENDBRANCH   9  10
ENDBRANCH   8   9
ENDBRANCH   4   8
ENDBRANCH   3   4
ENDBRANCH   2   3
TORSDOF 7
ENDMDL
MODEL      211
REMARK 921   NORMALIZED FREE ENERGY PREDICTED BY IDOCK:   -3.62 KCAL/MOL
REMARK 922        TOTAL FREE ENERGY PREDICTED BY IDOCK:   -5.99 KCAL/MOL
REMARK 923 INTER-LIGAND FREE ENERGY PREDICTED BY IDOCK:   -5.15 KCAL/MOL
REMARK 924 INTRA-LIGAND FREE ENERGY PREDICTED BY IDOCK:   -0.84 KCAL/MOL
REMARK 927      BINDING AFFINITY PREDICTED BY RF-SCORE:    0.00 PKD
ROOT
HETATM    1  C   UNL     1      -8.735   8.952  65.040  1.00  0.00    -0.200 C  
HETATM    2  C   UNL     1      -7.703   8.525  66.072  1.00  0.00    -0.093 C  
ENDROOT
BRANCH   2   3
HETATM    3  C   UNL     1      -8.155   8.725  67.527  1.00  0.00    -0.106 C  
BRANCH   3   4
HETATM    4  N   UNL     1      -9.208   9.733  67.784  1.00  0.00    -0.131 NA 
BRANCH   4   5
HETATM    5  C   UNL     1     -10.139   9.274  68.839  1.00  0.00    -0.195 C  
BRANCH   5   6
HETATM    6  C   UNL     1      -9.558   9.183  70.263  1.00  0.00    -0.249 C  
HETATM    7  C   UNL     1     -10.570   8.731  71.305  1.00  0.00    -0.332 C  
ENDBRANCH   5   6
ENDBRANCH   4   5
BRANCH   4   8
HETATM    8  C   UNL     1      -8.585  11.028  68.160  1.00  0.00    -0.140 C  
BRANCH   8   9
HETATM    9  C   UNL     1      -8.547  12.123  67.070  1.00  0.00    -0.191 C  
BRANCH   9  10
HETATM   10  C   UNL     1      -9.899  12.564  66.568  1.00  0.00    -0.251 A  
HETATM   11  C   UNL     1     -10.692  13.472  67.262  1.00  0.00    -0.272 A  
HETATM   12  C   UNL     1     -10.447  14.190  68.560  1.00  0.00    -0.252 C  
HETATM   13  C   UNL     1     -11.715  15.031  68.720  1.00  0.00    -0.334 C  
HETATM   14  N   UNL     1     -12.530  14.766  67.628  1.00  0.00    -0.362 N  
HETATM   15  O   UNL     1     -11.974  15.793  69.637  1.00  0.00    -0.356 OA 
HETATM   16  H   UNL     1     -13.445  15.192  67.477  1.00  0.00     0.000 HD 
HETATM   17  C   UNL     1     -11.942  13.851  66.770  1.00  0.00    -0.438 A  
HETATM   18  C   UNL     1     -12.465  13.361  65.594  1.00  0.00    -0.519 A  
HETATM   19  C   UNL     1     -11.690  12.442  64.890  1.00  0.00    -0.418 A  
HETATM   20  C   UNL     1     -10.428  12.045  65.372  1.00  0.00    -0.313 A  
ENDBRANCH   9  10
ENDBRANCH   8   9
ENDBRANCH   4   8
ENDBRANCH   3   4
ENDBRANCH   2   3
TORSDOF 7
ENDMDL
MODEL      212
REMARK 921   NORMALIZED FREE ENERGY PREDICTED BY IDOCK:   -3.62 KCAL/MOL
REMARK 922        TOTAL FREE ENERGY PREDICTED BY IDOCK:   -5.99 KCAL/MOL
REMARK 923 INTER-LIGAND FREE ENERGY PREDICTED BY IDOCK:   -4.66 KCAL/MOL
REMARK 924 INTRA-LIGAND FREE ENERGY PREDICTED BY IDOCK:   -1.33 KCAL/MOL
REMARK 927      BINDING AFFINITY PREDICTED BY RF-SCORE:    0.00 PKD
ROOT
HETATM    1  C   UNL     1     -12.136  11.754  68.287  1.00  0.00    -0.068 C  
HETATM    2  C   UNL     1     -11.750  13.088  68.907  1.00  0.00    -0.371 C  
ENDROOT
BRANCH   2   3
HETATM    3  C   UNL     1     -10.871  13.966  68.003  1.00  0.00    -0.246 C  
BRANCH   3   4
HETATM    4  N   UNL     1     -10.139  13.299  66.903  1.00  0.00    -0.246 NA 
BRANCH   4   5
HETATM    5  C   UNL     1     -10.315  14.027  65.627  1.00  0.00    -0.329 C  
BRANCH   5   6
HETATM    6  C   UNL     1     -10.787  13.185  64.426  1.00  0.00    -0.417 C  
HETATM    7  C   UNL     1     -12.073  12.417  64.692  1.00  0.00    -0.487 C  
ENDBRANCH   5   6
ENDBRANCH   4   5
BRANCH   4   8
HETATM    8  C   UNL     1      -8.698  13.190  67.252  1.00  0.00    -0.210 C  
BRANCH   8   9
HETATM    9  C   UNL     1      -8.251  11.887  67.952  1.00  0.00    -0.150 C  
BRANCH   9  10
HETATM   10  C   UNL     1      -8.936  10.636  67.462  1.00  0.00    -0.136 A  
HETATM   11  C   UNL     1      -9.431   9.668  68.328  1.00  0.00    -0.145 A  
HETATM   12  C   UNL     1      -9.426   9.607  69.831  1.00  0.00    -0.260 C  
HETATM   13  C   UNL     1     -10.140   8.283  70.112  1.00  0.00    -0.191 C  
HETATM   14  N   UNL     1     -10.468   7.718  68.887  1.00  0.00    -0.253 N  
HETATM   15  O   UNL     1     -10.378   7.802  71.208  1.00  0.00    -0.198 OA 
HETATM   16  H   UNL     1     -10.952   6.827  68.776  1.00  0.00     0.000 HD 
HETATM   17  C   UNL     1     -10.053   8.519  67.835  1.00  0.00    -0.207 A  
HETATM   18  C   UNL     1     -10.212   8.270  66.490  1.00  0.00    -0.263 A  
HETATM   19  C   UNL     1      -9.712   9.224  65.606  1.00  0.00    -0.302 A  
HETATM   20  C   UNL     1      -9.079  10.387  66.083  1.00  0.00    -0.183 A  
ENDBRANCH   9  10
ENDBRANCH   8   9
ENDBRANCH   4   8
ENDBRANCH   3   4
ENDBRANCH   2   3
TORSDOF 7
ENDMDL
MODEL      213
REMARK 921   NORMALIZED FREE ENERGY PREDICTED BY IDOCK:   -3.61 KCAL/MOL
REMARK 922        TOTAL FREE ENERGY PREDICTED BY IDOCK:   -5.97 KCAL/MOL
REMARK 923 INTER-LIGAND FREE ENERGY PREDICTED BY IDOCK:   -5.38 KCAL/MOL
REMARK 924 INTRA-LIGAND FREE ENERGY PREDICTED BY IDOCK:   -0.59 KCAL/MOL
REMARK 927      BINDING AFFINITY PREDICTED BY RF-SCORE:    0.00 PKD
ROOT
HETATM    1  C   UNL     1      -6.132  18.746  68.559  1.00  0.00    -0.225 C  
HETATM    2  C   UNL     1      -6.388  18.076  67.218  1.00  0.00    -0.181 C  
ENDROOT
BRANCH   2   3
HETATM    3  C   UNL     1      -7.866  18.065  66.797  1.00  0.00    -0.235 C  
BRANCH   3   4
HETATM    4  N   UNL     1      -8.883  18.127  67.870  1.00  0.00    -0.263 NA 
BRANCH   4   5
HETATM    5  C   UNL     1      -9.550  19.448  67.896  1.00  0.00    -0.343 C  
BRANCH   5   6
HETATM    6  C   UNL     1      -9.536  20.241  66.575  1.00  0.00    -0.491 C  
HETATM    7  C   UNL     1     -10.610  19.801  65.591  1.00  0.00    -0.456 C  
ENDBRANCH   5   6
ENDBRANCH   4   5
BRANCH   4   8
HETATM    8  C   UNL     1      -9.879  17.040  67.683  1.00  0.00    -0.257 C  
BRANCH   8   9
HETATM    9  C   UNL     1      -9.776  16.222  66.375  1.00  0.00    -0.310 C  
BRANCH   9  10
HETATM   10  C   UNL     1     -10.536  14.919  66.382  1.00  0.00    -0.301 A  
HETATM   11  C   UNL     1     -10.046  13.773  66.997  1.00  0.00    -0.256 A  
HETATM   12  C   UNL     1      -8.765  13.539  67.749  1.00  0.00    -0.189 C  
HETATM   13  C   UNL     1      -8.881  12.069  68.157  1.00  0.00    -0.182 C  
HETATM   14  N   UNL     1     -10.087  11.594  67.660  1.00  0.00    -0.186 N  
HETATM   15  O   UNL     1      -8.068  11.424  68.798  1.00  0.00    -0.145 OA 
HETATM   16  H   UNL     1     -10.424  10.639  67.784  1.00  0.00     0.000 HD 
HETATM   17  C   UNL     1     -10.775  12.582  66.975  1.00  0.00    -0.242 A  
HETATM   18  C   UNL     1     -11.999  12.464  66.355  1.00  0.00    -0.346 A  
HETATM   19  C   UNL     1     -12.501  13.599  65.722  1.00  0.00    -0.524 A  
HETATM   20  C   UNL     1     -11.779  14.808  65.731  1.00  0.00    -0.252 A  
ENDBRANCH   9  10
ENDBRANCH   8   9
ENDBRANCH   4   8
ENDBRANCH   3   4
ENDBRANCH   2   3
TORSDOF 7
ENDMDL
MODEL      214
REMARK 921   NORMALIZED FREE ENERGY PREDICTED BY IDOCK:   -3.61 KCAL/MOL
REMARK 922        TOTAL FREE ENERGY PREDICTED BY IDOCK:   -5.96 KCAL/MOL
REMARK 923 INTER-LIGAND FREE ENERGY PREDICTED BY IDOCK:   -4.68 KCAL/MOL
REMARK 924 INTRA-LIGAND FREE ENERGY PREDICTED BY IDOCK:   -1.28 KCAL/MOL
REMARK 927      BINDING AFFINITY PREDICTED BY RF-SCORE:    0.00 PKD
ROOT
HETATM    1  C   UNL     1     -12.040  14.217  68.940  1.00  0.00    -0.314 C  
HETATM    2  C   UNL     1     -12.166  15.609  69.540  1.00  0.00    -0.231 C  
ENDROOT
BRANCH   2   3
HETATM    3  C   UNL     1     -10.819  16.267  69.879  1.00  0.00    -0.352 C  
BRANCH   3   4
HETATM    4  N   UNL     1      -9.951  16.670  68.750  1.00  0.00    -0.252 NA 
BRANCH   4   5
HETATM    5  C   UNL     1      -9.542  18.087  68.872  1.00  0.00    -0.231 C  
BRANCH   5   6
HETATM    6  C   UNL     1     -10.054  19.038  67.773  1.00  0.00    -0.453 C  
HETATM    7  C   UNL     1     -10.628  18.315  66.564  1.00  0.00    -0.313 C  
ENDBRANCH   5   6
ENDBRANCH   4   5
BRANCH   4   8
HETATM    8  C   UNL     1      -8.761  15.783  68.688  1.00  0.00    -0.195 C  
BRANCH   8   9
HETATM    9  C   UNL     1      -8.339  15.285  67.286  1.00  0.00    -0.225 C  
BRANCH   9  10
HETATM   10  C   UNL     1      -9.153  14.135  66.751  1.00  0.00    -0.266 A  
HETATM   11  C   UNL     1      -8.883  12.812  67.083  1.00  0.00    -0.202 A  
HETATM   12  C   UNL     1      -7.823  12.225  67.974  1.00  0.00    -0.147 C  
HETATM   13  C   UNL     1      -8.114  10.725  67.894  1.00  0.00    -0.112 C  
HETATM   14  N   UNL     1      -9.200  10.556  67.045  1.00  0.00    -0.150 N  
HETATM   15  O   UNL     1      -7.507   9.833  68.464  1.00  0.00    -0.077 OA 
HETATM   16  H   UNL     1      -9.610   9.652  66.808  1.00  0.00     0.000 HD 
HETATM   17  C   UNL     1      -9.656  11.772  66.561  1.00  0.00    -0.210 A  
HETATM   18  C   UNL     1     -10.710  11.980  65.700  1.00  0.00    -0.313 A  
HETATM   19  C   UNL     1     -10.988  13.298  65.346  1.00  0.00    -0.299 A  
HETATM   20  C   UNL     1     -10.219  14.360  65.860  1.00  0.00    -0.341 A  
ENDBRANCH   9  10
ENDBRANCH   8   9
ENDBRANCH   4   8
ENDBRANCH   3   4
ENDBRANCH   2   3
TORSDOF 7
ENDMDL
MODEL      215
REMARK 921   NORMALIZED FREE ENERGY PREDICTED BY IDOCK:   -3.60 KCAL/MOL
REMARK 922        TOTAL FREE ENERGY PREDICTED BY IDOCK:   -5.96 KCAL/MOL
REMARK 923 INTER-LIGAND FREE ENERGY PREDICTED BY IDOCK:   -4.90 KCAL/MOL
REMARK 924 INTRA-LIGAND FREE ENERGY PREDICTED BY IDOCK:   -1.06 KCAL/MOL
REMARK 927      BINDING AFFINITY PREDICTED BY RF-SCORE:    0.00 PKD
ROOT
HETATM    1  C   UNL     1      -8.766   8.061  73.430  1.00  0.00    -0.323 C  
HETATM    2  C   UNL     1      -9.315   6.736  72.927  1.00  0.00    -0.151 C  
ENDROOT
BRANCH   2   3
HETATM    3  C   UNL     1     -10.829   6.569  73.131  1.00  0.00    -0.257 C  
BRANCH   3   4
HETATM    4  N   UNL     1     -11.667   6.393  71.924  1.00  0.00    -0.318 NA 
BRANCH   4   5
HETATM    5  C   UNL     1     -12.683   7.464  71.819  1.00  0.00    -0.334 C  
BRANCH   5   6
HETATM    6  C   UNL     1     -12.327   8.804  72.491  1.00  0.00    -0.358 C  
HETATM    7  C   UNL     1     -11.763   9.836  71.526  1.00  0.00    -0.450 C  
ENDBRANCH   5   6
ENDBRANCH   4   5
BRANCH   4   8
HETATM    8  C   UNL     1     -10.806   6.366  70.713  1.00  0.00    -0.267 C  
BRANCH   8   9
HETATM    9  C   UNL     1     -11.523   6.490  69.349  1.00  0.00    -0.346 C  
BRANCH   9  10
HETATM   10  C   UNL     1     -10.733   7.201  68.280  1.00  0.00    -0.202 A  
HETATM   11  C   UNL     1     -10.154   6.530  67.209  1.00  0.00    -0.212 A  
HETATM   12  C   UNL     1     -10.158   5.068  66.854  1.00  0.00    -0.261 C  
HETATM   13  C   UNL     1      -9.348   5.038  65.557  1.00  0.00    -0.140 C  
HETATM   14  N   UNL     1      -8.959   6.342  65.278  1.00  0.00    -0.368 N  
HETATM   15  O   UNL     1      -9.084   4.054  64.885  1.00  0.00    -0.127 OA 
HETATM   16  H   UNL     1      -8.404   6.615  64.468  1.00  0.00     0.000 HD 
HETATM   17  C   UNL     1      -9.422   7.223  66.242  1.00  0.00    -0.073 A  
HETATM   18  C   UNL     1      -9.226   8.585  66.284  1.00  0.00    -0.262 A  
HETATM   19  C   UNL     1      -9.788   9.274  67.357  1.00  0.00    -0.229 A  
HETATM   20  C   UNL     1     -10.527   8.593  68.343  1.00  0.00    -0.220 A  
ENDBRANCH   9  10
ENDBRANCH   8   9
ENDBRANCH   4   8
ENDBRANCH   3   4
ENDBRANCH   2   3
TORSDOF 7
ENDMDL
MODEL      216
REMARK 921   NORMALIZED FREE ENERGY PREDICTED BY IDOCK:   -3.60 KCAL/MOL
REMARK 922        TOTAL FREE ENERGY PREDICTED BY IDOCK:   -5.96 KCAL/MOL
REMARK 923 INTER-LIGAND FREE ENERGY PREDICTED BY IDOCK:   -5.03 KCAL/MOL
REMARK 924 INTRA-LIGAND FREE ENERGY PREDICTED BY IDOCK:   -0.93 KCAL/MOL
REMARK 927      BINDING AFFINITY PREDICTED BY RF-SCORE:    0.00 PKD
ROOT
HETATM    1  C   UNL     1      -7.369  14.919  69.351  1.00  0.00    -0.181 C  
HETATM    2  C   UNL     1      -7.099  13.463  69.006  1.00  0.00    -0.053 C  
ENDROOT
BRANCH   2   3
HETATM    3  C   UNL     1      -7.347  13.114  67.531  1.00  0.00    -0.148 C  
BRANCH   3   4
HETATM    4  N   UNL     1      -8.332  12.049  67.236  1.00  0.00    -0.169 NA 
BRANCH   4   5
HETATM    5  C   UNL     1      -7.661  10.819  66.759  1.00  0.00    -0.129 C  
BRANCH   5   6
HETATM    6  C   UNL     1      -6.186  10.971  66.340  1.00  0.00    -0.136 C  
HETATM    7  C   UNL     1      -5.803  10.110  65.146  1.00  0.00    -0.117 C  
ENDBRANCH   5   6
ENDBRANCH   4   5
BRANCH   4   8
HETATM    8  C   UNL     1      -9.147  11.768  68.446  1.00  0.00    -0.176 C  
BRANCH   8   9
HETATM    9  C   UNL     1     -10.665  12.039  68.339  1.00  0.00    -0.255 C  
BRANCH   9  10
HETATM   10  C   UNL     1     -11.094  13.420  68.765  1.00  0.00    -0.297 A  
HETATM   11  C   UNL     1     -11.905  13.641  69.872  1.00  0.00    -0.389 A  
HETATM   12  C   UNL     1     -12.512  12.671  70.848  1.00  0.00    -0.368 C  
HETATM   13  C   UNL     1     -13.268  13.592  71.807  1.00  0.00    -0.394 C  
HETATM   14  N   UNL     1     -13.081  14.896  71.367  1.00  0.00    -0.342 N  
HETATM   15  O   UNL     1     -13.922  13.253  72.780  1.00  0.00    -0.701 OA 
HETATM   16  H   UNL     1     -13.477  15.719  71.822  1.00  0.00     0.000 HD 
HETATM   17  C   UNL     1     -12.288  14.936  70.231  1.00  0.00    -0.341 A  
HETATM   18  C   UNL     1     -11.899  16.054  69.529  1.00  0.00    -0.243 A  
HETATM   19  C   UNL     1     -11.095  15.852  68.410  1.00  0.00    -0.345 A  
HETATM   20  C   UNL     1     -10.701  14.555  68.029  1.00  0.00    -0.243 A  
ENDBRANCH   9  10
ENDBRANCH   8   9
ENDBRANCH   4   8
ENDBRANCH   3   4
ENDBRANCH   2   3
TORSDOF 7
ENDMDL
MODEL      217
REMARK 921   NORMALIZED FREE ENERGY PREDICTED BY IDOCK:   -3.59 KCAL/MOL
REMARK 922        TOTAL FREE ENERGY PREDICTED BY IDOCK:   -5.94 KCAL/MOL
REMARK 923 INTER-LIGAND FREE ENERGY PREDICTED BY IDOCK:   -5.01 KCAL/MOL
REMARK 924 INTRA-LIGAND FREE ENERGY PREDICTED BY IDOCK:   -0.94 KCAL/MOL
REMARK 927      BINDING AFFINITY PREDICTED BY RF-SCORE:    0.00 PKD
ROOT
HETATM    1  C   UNL     1     -10.516   7.345  73.221  1.00  0.00    -0.424 C  
HETATM    2  C   UNL     1     -10.576   6.208  72.213  1.00  0.00    -0.251 C  
ENDROOT
BRANCH   2   3
HETATM    3  C   UNL     1     -11.314   6.564  70.913  1.00  0.00    -0.337 C  
BRANCH   3   4
HETATM    4  N   UNL     1     -10.603   7.415  69.933  1.00  0.00    -0.232 NA 
BRANCH   4   5
HETATM    5  C   UNL     1     -10.731   6.871  68.563  1.00  0.00    -0.207 C  
BRANCH   5   6
HETATM    6  C   UNL     1      -9.574   7.188  67.597  1.00  0.00    -0.152 C  
HETATM    7  C   UNL     1      -9.923   8.241  66.556  1.00  0.00    -0.320 C  
ENDBRANCH   5   6
ENDBRANCH   4   5
BRANCH   4   8
HETATM    8  C   UNL     1     -11.127   8.804  69.998  1.00  0.00    -0.162 C  
BRANCH   8   9
HETATM    9  C   UNL     1     -10.079   9.940  70.017  1.00  0.00    -0.308 C  
BRANCH   9  10
HETATM   10  C   UNL     1     -10.334  11.054  69.033  1.00  0.00    -0.229 A  
HETATM   11  C   UNL     1      -9.311  11.667  68.319  1.00  0.00    -0.191 A  
HETATM   12  C   UNL     1      -7.829  11.415  68.324  1.00  0.00    -0.132 C  
HETATM   13  C   UNL     1      -7.314  12.431  67.302  1.00  0.00    -0.127 C  
HETATM   14  N   UNL     1      -8.412  13.138  66.829  1.00  0.00    -0.426 N  
HETATM   15  O   UNL     1      -6.155  12.600  66.962  1.00  0.00    -0.281 OA 
HETATM   16  H   UNL     1      -8.360  13.883  66.134  1.00  0.00     0.000 HD 
HETATM   17  C   UNL     1      -9.586  12.701  67.421  1.00  0.00    -0.194 A  
HETATM   18  C   UNL     1     -10.858  13.175  67.191  1.00  0.00    -0.271 A  
HETATM   19  C   UNL     1     -11.896  12.581  67.906  1.00  0.00    -0.383 A  
HETATM   20  C   UNL     1     -11.638  11.539  68.818  1.00  0.00    -0.379 A  
ENDBRANCH   9  10
ENDBRANCH   8   9
ENDBRANCH   4   8
ENDBRANCH   3   4
ENDBRANCH   2   3
TORSDOF 7
ENDMDL
MODEL      218
REMARK 921   NORMALIZED FREE ENERGY PREDICTED BY IDOCK:   -3.58 KCAL/MOL
REMARK 922        TOTAL FREE ENERGY PREDICTED BY IDOCK:   -5.93 KCAL/MOL
REMARK 923 INTER-LIGAND FREE ENERGY PREDICTED BY IDOCK:   -5.24 KCAL/MOL
REMARK 924 INTRA-LIGAND FREE ENERGY PREDICTED BY IDOCK:   -0.68 KCAL/MOL
REMARK 927      BINDING AFFINITY PREDICTED BY RF-SCORE:    0.00 PKD
ROOT
HETATM    1  C   UNL     1     -11.564   7.131  72.509  1.00  0.00    -0.265 C  
HETATM    2  C   UNL     1     -10.933   6.249  71.443  1.00  0.00    -0.327 C  
ENDROOT
BRANCH   2   3
HETATM    3  C   UNL     1     -11.418   6.550  70.016  1.00  0.00    -0.412 C  
BRANCH   3   4
HETATM    4  N   UNL     1     -10.439   6.406  68.916  1.00  0.00    -0.199 NA 
BRANCH   4   5
HETATM    5  C   UNL     1     -10.213   4.981  68.586  1.00  0.00    -0.084 C  
BRANCH   5   6
HETATM    6  C   UNL     1      -8.872   4.382  69.052  1.00  0.00    -0.131 C  
HETATM    7  C   UNL     1      -7.755   5.408  69.164  1.00  0.00    -0.089 C  
ENDBRANCH   5   6
ENDBRANCH   4   5
BRANCH   4   8
HETATM    8  C   UNL     1     -10.911   7.153  67.721  1.00  0.00    -0.178 C  
BRANCH   8   9
HETATM    9  C   UNL     1     -10.009   8.305  67.222  1.00  0.00    -0.289 C  
BRANCH   9  10
HETATM   10  C   UNL     1     -10.563   9.689  67.454  1.00  0.00    -0.333 A  
HETATM   11  C   UNL     1     -10.563  10.667  66.466  1.00  0.00    -0.257 A  
HETATM   12  C   UNL     1     -10.070  10.621  65.046  1.00  0.00    -0.388 C  
HETATM   13  C   UNL     1     -10.391  12.028  64.536  1.00  0.00    -0.296 C  
HETATM   14  N   UNL     1     -10.977  12.726  65.584  1.00  0.00    -0.269 N  
HETATM   15  O   UNL     1     -10.174  12.466  63.419  1.00  0.00    -0.393 OA 
HETATM   16  H   UNL     1     -11.292  13.695  65.524  1.00  0.00     0.000 HD 
HETATM   17  C   UNL     1     -11.078  11.940  66.720  1.00  0.00    -0.308 A  
HETATM   18  C   UNL     1     -11.605  12.305  67.939  1.00  0.00    -0.416 A  
HETATM   19  C   UNL     1     -11.602  11.342  68.945  1.00  0.00    -0.388 A  
HETATM   20  C   UNL     1     -11.085  10.054  68.709  1.00  0.00    -0.219 A  
ENDBRANCH   9  10
ENDBRANCH   8   9
ENDBRANCH   4   8
ENDBRANCH   3   4
ENDBRANCH   2   3
TORSDOF 7
ENDMDL
MODEL      219
REMARK 921   NORMALIZED FREE ENERGY PREDICTED BY IDOCK:   -3.57 KCAL/MOL
REMARK 922        TOTAL FREE ENERGY PREDICTED BY IDOCK:   -5.92 KCAL/MOL
REMARK 923 INTER-LIGAND FREE ENERGY PREDICTED BY IDOCK:   -5.46 KCAL/MOL
REMARK 924 INTRA-LIGAND FREE ENERGY PREDICTED BY IDOCK:   -0.45 KCAL/MOL
REMARK 927      BINDING AFFINITY PREDICTED BY RF-SCORE:    0.00 PKD
ROOT
HETATM    1  C   UNL     1     -12.594  11.255  71.444  1.00  0.00    -0.456 C  
HETATM    2  C   UNL     1     -11.683  11.009  70.252  1.00  0.00    -0.445 C  
ENDROOT
BRANCH   2   3
HETATM    3  C   UNL     1     -12.183  11.640  68.943  1.00  0.00    -0.050 C  
BRANCH   3   4
HETATM    4  N   UNL     1     -11.195  11.841  67.860  1.00  0.00    -0.246 NA 
BRANCH   4   5
HETATM    5  C   UNL     1     -10.796  10.551  67.255  1.00  0.00    -0.279 C  
BRANCH   5   6
HETATM    6  C   UNL     1      -9.423  10.526  66.556  1.00  0.00    -0.200 C  
HETATM    7  C   UNL     1      -8.356   9.776  67.339  1.00  0.00    -0.114 C  
ENDBRANCH   5   6
ENDBRANCH   4   5
BRANCH   4   8
HETATM    8  C   UNL     1     -11.758  12.752  66.829  1.00  0.00    -0.392 C  
BRANCH   8   9
HETATM    9  C   UNL     1     -10.845  13.905  66.350  1.00  0.00    -0.291 C  
BRANCH   9  10
HETATM   10  C   UNL     1     -10.728  15.061  67.309  1.00  0.00    -0.298 A  
HETATM   11  C   UNL     1      -9.832  16.106  67.113  1.00  0.00    -0.241 A  
HETATM   12  C   UNL     1      -8.841  16.349  66.008  1.00  0.00    -0.296 C  
HETATM   13  C   UNL     1      -8.205  17.679  66.417  1.00  0.00    -0.263 C  
HETATM   14  N   UNL     1      -8.796  18.074  67.610  1.00  0.00    -0.252 N  
HETATM   15  O   UNL     1      -7.335  18.286  65.815  1.00  0.00    -0.472 OA 
HETATM   16  H   UNL     1      -8.559  18.929  68.113  1.00  0.00     0.000 HD 
HETATM   17  C   UNL     1      -9.747  17.157  68.029  1.00  0.00    -0.274 A  
HETATM   18  C   UNL     1     -10.524  17.227  69.163  1.00  0.00    -0.263 A  
HETATM   19  C   UNL     1     -11.420  16.183  69.384  1.00  0.00    -0.296 A  
HETATM   20  C   UNL     1     -11.518  15.113  68.474  1.00  0.00    -0.335 A  
ENDBRANCH   9  10
ENDBRANCH   8   9
ENDBRANCH   4   8
ENDBRANCH   3   4
ENDBRANCH   2   3
TORSDOF 7
ENDMDL
MODEL      220
REMARK 921   NORMALIZED FREE ENERGY PREDICTED BY IDOCK:   -3.57 KCAL/MOL
REMARK 922        TOTAL FREE ENERGY PREDICTED BY IDOCK:   -5.92 KCAL/MOL
REMARK 923 INTER-LIGAND FREE ENERGY PREDICTED BY IDOCK:   -5.22 KCAL/MOL
REMARK 924 INTRA-LIGAND FREE ENERGY PREDICTED BY IDOCK:   -0.70 KCAL/MOL
REMARK 927      BINDING AFFINITY PREDICTED BY RF-SCORE:    0.00 PKD
ROOT
HETATM    1  C   UNL     1     -10.709   6.414  67.172  1.00  0.00    -0.433 C  
HETATM    2  C   UNL     1      -9.745   7.502  66.725  1.00  0.00    -0.283 C  
ENDROOT
BRANCH   2   3
HETATM    3  C   UNL     1     -10.357   8.911  66.712  1.00  0.00    -0.247 C  
BRANCH   3   4
HETATM    4  N   UNL     1     -10.364   9.667  67.984  1.00  0.00    -0.205 NA 
BRANCH   4   5
HETATM    5  C   UNL     1      -9.097  10.409  68.170  1.00  0.00    -0.142 C  
BRANCH   5   6
HETATM    6  C   UNL     1      -8.310  10.095  69.456  1.00  0.00    -0.178 C  
HETATM    7  C   UNL     1      -7.704   8.700  69.472  1.00  0.00    -0.090 C  
ENDBRANCH   5   6
ENDBRANCH   4   5
BRANCH   4   8
HETATM    8  C   UNL     1     -11.525  10.593  68.014  1.00  0.00    -0.212 C  
BRANCH   8   9
HETATM    9  C   UNL     1     -11.222  12.075  68.333  1.00  0.00    -0.313 C  
BRANCH   9  10
HETATM   10  C   UNL     1     -11.203  12.991  67.135  1.00  0.00    -0.322 A  
HETATM   11  C   UNL     1     -10.163  13.880  66.891  1.00  0.00    -0.257 A  
HETATM   12  C   UNL     1      -8.901  14.144  67.667  1.00  0.00    -0.194 C  
HETATM   13  C   UNL     1      -8.216  15.225  66.829  1.00  0.00    -0.180 C  
HETATM   14  N   UNL     1      -9.040  15.497  65.745  1.00  0.00    -0.374 N  
HETATM   15  O   UNL     1      -7.145  15.760  67.065  1.00  0.00    -0.204 OA 
HETATM   16  H   UNL     1      -8.829  16.183  65.020  1.00  0.00     0.000 HD 
HETATM   17  C   UNL     1     -10.185  14.717  65.774  1.00  0.00    -0.338 A  
HETATM   18  C   UNL     1     -11.216  14.723  64.861  1.00  0.00    -0.411 A  
HETATM   19  C   UNL     1     -12.274  13.847  65.095  1.00  0.00    -0.443 A  
HETATM   20  C   UNL     1     -12.271  12.996  66.217  1.00  0.00    -0.390 A  
ENDBRANCH   9  10
ENDBRANCH   8   9
ENDBRANCH   4   8
ENDBRANCH   3   4
ENDBRANCH   2   3
TORSDOF 7
ENDMDL
MODEL      221
REMARK 921   NORMALIZED FREE ENERGY PREDICTED BY IDOCK:   -3.57 KCAL/MOL
REMARK 922        TOTAL FREE ENERGY PREDICTED BY IDOCK:   -5.91 KCAL/MOL
REMARK 923 INTER-LIGAND FREE ENERGY PREDICTED BY IDOCK:   -4.61 KCAL/MOL
REMARK 924 INTRA-LIGAND FREE ENERGY PREDICTED BY IDOCK:   -1.30 KCAL/MOL
REMARK 927      BINDING AFFINITY PREDICTED BY RF-SCORE:    0.00 PKD
ROOT
HETATM    1  C   UNL     1      -7.057   6.957  68.262  1.00  0.00    -0.086 C  
HETATM    2  C   UNL     1      -7.911   7.984  68.988  1.00  0.00    -0.114 C  
ENDROOT
BRANCH   2   3
HETATM    3  C   UNL     1      -8.581   9.008  68.058  1.00  0.00    -0.129 C  
BRANCH   3   4
HETATM    4  N   UNL     1     -10.036   8.872  67.825  1.00  0.00    -0.181 NA 
BRANCH   4   5
HETATM    5  C   UNL     1     -10.654  10.184  67.531  1.00  0.00    -0.273 C  
BRANCH   5   6
HETATM    6  C   UNL     1     -10.280  11.338  68.481  1.00  0.00    -0.214 C  
HETATM    7  C   UNL     1     -11.471  12.183  68.908  1.00  0.00    -0.350 C  
ENDBRANCH   5   6
ENDBRANCH   4   5
BRANCH   4   8
HETATM    8  C   UNL     1     -10.281   7.915  66.715  1.00  0.00    -0.287 C  
BRANCH   8   9
HETATM    9  C   UNL     1     -11.158   6.684  67.042  1.00  0.00    -0.395 C  
BRANCH   9  10
HETATM   10  C   UNL     1     -10.459   5.597  67.819  1.00  0.00    -0.275 A  
HETATM   11  C   UNL     1     -10.518   5.517  69.206  1.00  0.00    -0.336 A  
HETATM   12  C   UNL     1     -11.221   6.393  70.207  1.00  0.00    -0.445 C  
HETATM   13  C   UNL     1     -10.873   5.724  71.538  1.00  0.00    -0.253 C  
HETATM   14  N   UNL     1     -10.069   4.627  71.255  1.00  0.00    -0.193 N  
HETATM   15  O   UNL     1     -11.229   6.082  72.649  1.00  0.00    -0.263 OA 
HETATM   16  H   UNL     1      -9.687   3.997  71.960  1.00  0.00     0.000 HD 
HETATM   17  C   UNL     1      -9.851   4.500  69.893  1.00  0.00    -0.227 A  
HETATM   18  C   UNL     1      -9.105   3.533  69.258  1.00  0.00    -0.200 A  
HETATM   19  C   UNL     1      -9.024   3.603  67.869  1.00  0.00    -0.165 A  
HETATM   20  C   UNL     1      -9.687   4.623  67.160  1.00  0.00    -0.219 A  
ENDBRANCH   9  10
ENDBRANCH   8   9
ENDBRANCH   4   8
ENDBRANCH   3   4
ENDBRANCH   2   3
TORSDOF 7
ENDMDL
MODEL      222
REMARK 921   NORMALIZED FREE ENERGY PREDICTED BY IDOCK:   -3.54 KCAL/MOL
REMARK 922        TOTAL FREE ENERGY PREDICTED BY IDOCK:   -5.87 KCAL/MOL
REMARK 923 INTER-LIGAND FREE ENERGY PREDICTED BY IDOCK:   -4.90 KCAL/MOL
REMARK 924 INTRA-LIGAND FREE ENERGY PREDICTED BY IDOCK:   -0.98 KCAL/MOL
REMARK 927      BINDING AFFINITY PREDICTED BY RF-SCORE:    0.00 PKD
ROOT
HETATM    1  C   UNL     1     -11.882  13.504  68.845  1.00  0.00    -0.384 C  
HETATM    2  C   UNL     1     -11.735  12.021  69.145  1.00  0.00    -0.389 C  
ENDROOT
BRANCH   2   3
HETATM    3  C   UNL     1     -10.670  11.314  68.293  1.00  0.00    -0.194 C  
BRANCH   3   4
HETATM    4  N   UNL     1      -9.253  11.652  68.549  1.00  0.00    -0.187 NA 
BRANCH   4   5
HETATM    5  C   UNL     1      -8.518  10.490  69.098  1.00  0.00    -0.147 C  
BRANCH   5   6
HETATM    6  C   UNL     1      -9.308   9.171  69.191  1.00  0.00    -0.152 C  
HETATM    7  C   UNL     1      -8.489   7.945  68.815  1.00  0.00    -0.128 C  
ENDBRANCH   5   6
ENDBRANCH   4   5
BRANCH   4   8
HETATM    8  C   UNL     1      -8.615  12.133  67.296  1.00  0.00    -0.180 C  
BRANCH   8   9
HETATM    9  C   UNL     1      -8.183  13.617  67.263  1.00  0.00    -0.164 C  
BRANCH   9  10
HETATM   10  C   UNL     1      -9.134  14.537  66.540  1.00  0.00    -0.248 A  
HETATM   11  C   UNL     1      -9.222  15.894  66.829  1.00  0.00    -0.264 A  
HETATM   12  C   UNL     1      -8.474  16.732  67.829  1.00  0.00    -0.196 C  
HETATM   13  C   UNL     1      -9.060  18.126  67.601  1.00  0.00    -0.259 C  
HETATM   14  N   UNL     1     -10.015  18.018  66.599  1.00  0.00    -0.343 N  
HETATM   15  O   UNL     1      -8.753  19.151  68.188  1.00  0.00    -0.301 OA 
HETATM   16  H   UNL     1     -10.568  18.799  66.244  1.00  0.00     0.000 HD 
HETATM   17  C   UNL     1     -10.122  16.714  66.143  1.00  0.00    -0.345 A  
HETATM   18  C   UNL     1     -10.964  16.244  65.160  1.00  0.00    -0.285 A  
HETATM   19  C   UNL     1     -10.898  14.885  64.865  1.00  0.00    -0.431 A  
HETATM   20  C   UNL     1     -10.000  14.041  65.547  1.00  0.00    -0.302 A  
ENDBRANCH   9  10
ENDBRANCH   8   9
ENDBRANCH   4   8
ENDBRANCH   3   4
ENDBRANCH   2   3
TORSDOF 7
ENDMDL
MODEL      223
REMARK 921   NORMALIZED FREE ENERGY PREDICTED BY IDOCK:   -3.54 KCAL/MOL
REMARK 922        TOTAL FREE ENERGY PREDICTED BY IDOCK:   -5.87 KCAL/MOL
REMARK 923 INTER-LIGAND FREE ENERGY PREDICTED BY IDOCK:   -5.29 KCAL/MOL
REMARK 924 INTRA-LIGAND FREE ENERGY PREDICTED BY IDOCK:   -0.57 KCAL/MOL
REMARK 927      BINDING AFFINITY PREDICTED BY RF-SCORE:    0.00 PKD
ROOT
HETATM    1  C   UNL     1      -6.796   8.596  70.756  1.00  0.00    -0.049 C  
HETATM    2  C   UNL     1      -8.258   8.802  71.121  1.00  0.00    -0.204 C  
ENDROOT
BRANCH   2   3
HETATM    3  C   UNL     1      -9.036   9.667  70.117  1.00  0.00    -0.240 C  
BRANCH   3   4
HETATM    4  N   UNL     1     -10.394   9.219  69.736  1.00  0.00    -0.207 NA 
BRANCH   4   5
HETATM    5  C   UNL     1     -11.173   8.806  70.925  1.00  0.00    -0.270 C  
BRANCH   5   6
HETATM    6  C   UNL     1     -11.644   7.339  70.951  1.00  0.00    -0.331 C  
HETATM    7  C   UNL     1     -11.292   6.566  69.688  1.00  0.00    -0.443 C  
ENDBRANCH   5   6
ENDBRANCH   4   5
BRANCH   4   8
HETATM    8  C   UNL     1     -11.095  10.304  69.001  1.00  0.00    -0.230 C  
BRANCH   8   9
HETATM    9  C   UNL     1     -10.256  11.552  68.641  1.00  0.00    -0.217 C  
BRANCH   9  10
HETATM   10  C   UNL     1     -10.900  12.482  67.644  1.00  0.00    -0.255 A  
HETATM   11  C   UNL     1     -10.889  13.863  67.797  1.00  0.00    -0.261 A  
HETATM   12  C   UNL     1     -10.293  14.722  68.879  1.00  0.00    -0.243 C  
HETATM   13  C   UNL     1     -10.640  16.136  68.411  1.00  0.00    -0.286 C  
HETATM   14  N   UNL     1     -11.348  16.020  67.222  1.00  0.00    -0.045 N  
HETATM   15  O   UNL     1     -10.356  17.181  68.974  1.00  0.00    -0.314 OA 
HETATM   16  H   UNL     1     -11.708  16.810  66.687  1.00  0.00     0.000 HD 
HETATM   17  C   UNL     1     -11.503  14.692  66.856  1.00  0.00    -0.363 A  
HETATM   18  C   UNL     1     -12.149  14.209  65.740  1.00  0.00    -0.433 A  
HETATM   19  C   UNL     1     -12.182  12.826  65.575  1.00  0.00    -0.519 A  
HETATM   20  C   UNL     1     -11.571  11.974  66.515  1.00  0.00    -0.384 A  
ENDBRANCH   9  10
ENDBRANCH   8   9
ENDBRANCH   4   8
ENDBRANCH   3   4
ENDBRANCH   2   3
TORSDOF 7
ENDMDL
MODEL      224
REMARK 921   NORMALIZED FREE ENERGY PREDICTED BY IDOCK:   -3.52 KCAL/MOL
REMARK 922        TOTAL FREE ENERGY PREDICTED BY IDOCK:   -5.85 KCAL/MOL
REMARK 923 INTER-LIGAND FREE ENERGY PREDICTED BY IDOCK:   -4.32 KCAL/MOL
REMARK 924 INTRA-LIGAND FREE ENERGY PREDICTED BY IDOCK:   -1.53 KCAL/MOL
REMARK 927      BINDING AFFINITY PREDICTED BY RF-SCORE:    0.00 PKD
ROOT
HETATM    1  C   UNL     1     -10.217   7.989  72.458  1.00  0.00    -0.361 C  
HETATM    2  C   UNL     1      -8.932   7.228  72.175  1.00  0.00    -0.148 C  
ENDROOT
BRANCH   2   3
HETATM    3  C   UNL     1      -8.707   6.913  70.688  1.00  0.00    -0.149 C  
BRANCH   3   4
HETATM    4  N   UNL     1      -8.798   8.037  69.729  1.00  0.00    -0.143 NA 
BRANCH   4   5
HETATM    5  C   UNL     1      -7.493   8.717  69.578  1.00  0.00    -0.072 C  
BRANCH   5   6
HETATM    6  C   UNL     1      -7.434  10.184  70.044  1.00  0.00    -0.171 C  
HETATM    7  C   UNL     1      -6.946  11.144  68.970  1.00  0.00    -0.101 C  
ENDBRANCH   5   6
ENDBRANCH   4   5
BRANCH   4   8
HETATM    8  C   UNL     1      -9.287   7.541  68.416  1.00  0.00    -0.141 C  
BRANCH   8   9
HETATM    9  C   UNL     1     -10.509   8.269  67.811  1.00  0.00    -0.280 C  
BRANCH   9  10
HETATM   10  C   UNL     1     -10.359   9.764  67.688  1.00  0.00    -0.281 A  
HETATM   11  C   UNL     1     -10.876  10.645  68.631  1.00  0.00    -0.266 A  
HETATM   12  C   UNL     1     -11.641  10.381  69.899  1.00  0.00    -0.358 C  
HETATM   13  C   UNL     1     -11.882  11.791  70.443  1.00  0.00    -0.271 C  
HETATM   14  N   UNL     1     -11.312  12.685  69.547  1.00  0.00    -0.448 N  
HETATM   15  O   UNL     1     -12.468  12.085  71.471  1.00  0.00    -0.209 OA 
HETATM   16  H   UNL     1     -11.324  13.699  69.660  1.00  0.00     0.000 HD 
HETATM   17  C   UNL     1     -10.724  12.025  68.480  1.00  0.00    -0.234 A  
HETATM   18  C   UNL     1     -10.070  12.594  67.410  1.00  0.00    -0.218 A  
HETATM   19  C   UNL     1      -9.555  11.728  66.448  1.00  0.00    -0.234 A  
HETATM   20  C   UNL     1      -9.701  10.333  66.582  1.00  0.00    -0.233 A  
ENDBRANCH   9  10
ENDBRANCH   8   9
ENDBRANCH   4   8
ENDBRANCH   3   4
ENDBRANCH   2   3
TORSDOF 7
ENDMDL
MODEL      225
REMARK 921   NORMALIZED FREE ENERGY PREDICTED BY IDOCK:   -3.52 KCAL/MOL
REMARK 922        TOTAL FREE ENERGY PREDICTED BY IDOCK:   -5.84 KCAL/MOL
REMARK 923 INTER-LIGAND FREE ENERGY PREDICTED BY IDOCK:   -4.82 KCAL/MOL
REMARK 924 INTRA-LIGAND FREE ENERGY PREDICTED BY IDOCK:   -1.02 KCAL/MOL
REMARK 927      BINDING AFFINITY PREDICTED BY RF-SCORE:    0.00 PKD
ROOT
HETATM    1  C   UNL     1     -12.204  15.074  64.332  1.00  0.00    -0.353 C  
HETATM    2  C   UNL     1     -12.137  13.578  64.598  1.00  0.00    -0.450 C  
ENDROOT
BRANCH   2   3
HETATM    3  C   UNL     1     -12.599  13.173  66.007  1.00  0.00    -0.122 C  
BRANCH   3   4
HETATM    4  N   UNL     1     -11.677  12.345  66.817  1.00  0.00    -0.484 NA 
BRANCH   4   5
HETATM    5  C   UNL     1     -10.543  11.857  66.002  1.00  0.00    -0.265 C  
BRANCH   5   6
HETATM    6  C   UNL     1     -10.280  10.339  66.047  1.00  0.00    -0.298 C  
HETATM    7  C   UNL     1      -9.445   9.833  64.881  1.00  0.00    -0.331 C  
ENDBRANCH   5   6
ENDBRANCH   4   5
BRANCH   4   8
HETATM    8  C   UNL     1     -11.189  13.128  67.981  1.00  0.00    -0.277 C  
BRANCH   8   9
HETATM    9  C   UNL     1      -9.782  13.757  67.853  1.00  0.00    -0.229 C  
BRANCH   9  10
HETATM   10  C   UNL     1      -9.766  15.262  67.764  1.00  0.00    -0.215 A  
HETATM   11  C   UNL     1      -8.587  15.992  67.674  1.00  0.00    -0.175 A  
HETATM   12  C   UNL     1      -7.155  15.534  67.639  1.00  0.00    -0.199 C  
HETATM   13  C   UNL     1      -6.386  16.851  67.520  1.00  0.00    -0.155 C  
HETATM   14  N   UNL     1      -7.320  17.879  67.507  1.00  0.00    -0.198 N  
HETATM   15  O   UNL     1      -5.175  16.986  67.454  1.00  0.00    -0.111 OA 
HETATM   16  H   UNL     1      -7.085  18.869  67.437  1.00  0.00     0.000 HD 
HETATM   17  C   UNL     1      -8.612  17.386  67.601  1.00  0.00    -0.217 A  
HETATM   18  C   UNL     1      -9.779  18.116  67.617  1.00  0.00    -0.293 A  
HETATM   19  C   UNL     1     -10.972  17.403  67.719  1.00  0.00    -0.142 A  
HETATM   20  C   UNL     1     -10.967  15.997  67.796  1.00  0.00    -0.307 A  
ENDBRANCH   9  10
ENDBRANCH   8   9
ENDBRANCH   4   8
ENDBRANCH   3   4
ENDBRANCH   2   3
TORSDOF 7
ENDMDL
MODEL      226
REMARK 921   NORMALIZED FREE ENERGY PREDICTED BY IDOCK:   -3.52 KCAL/MOL
REMARK 922        TOTAL FREE ENERGY PREDICTED BY IDOCK:   -5.84 KCAL/MOL
REMARK 923 INTER-LIGAND FREE ENERGY PREDICTED BY IDOCK:   -5.00 KCAL/MOL
REMARK 924 INTRA-LIGAND FREE ENERGY PREDICTED BY IDOCK:   -0.85 KCAL/MOL
REMARK 927      BINDING AFFINITY PREDICTED BY RF-SCORE:    0.00 PKD
ROOT
HETATM    1  C   UNL     1      -8.293   9.496  63.872  1.00  0.00    -0.172 C  
HETATM    2  C   UNL     1      -7.415   9.122  65.056  1.00  0.00    -0.105 C  
ENDROOT
BRANCH   2   3
HETATM    3  C   UNL     1      -8.201   8.755  66.324  1.00  0.00    -0.115 C  
BRANCH   3   4
HETATM    4  N   UNL     1      -9.574   8.231  66.151  1.00  0.00    -0.188 NA 
BRANCH   4   5
HETATM    5  C   UNL     1      -9.657   6.809  66.552  1.00  0.00    -0.140 C  
BRANCH   5   6
HETATM    6  C   UNL     1      -8.638   5.859  65.893  1.00  0.00    -0.145 C  
HETATM    7  C   UNL     1      -8.638   4.460  66.491  1.00  0.00    -0.112 C  
ENDBRANCH   5   6
ENDBRANCH   4   5
BRANCH   4   8
HETATM    8  C   UNL     1     -10.530   9.054  66.937  1.00  0.00    -0.223 C  
BRANCH   8   9
HETATM    9  C   UNL     1      -9.988  10.380  67.520  1.00  0.00    -0.215 C  
BRANCH   9  10
HETATM   10  C   UNL     1     -10.622  11.626  66.956  1.00  0.00    -0.272 A  
HETATM   11  C   UNL     1     -11.262  12.565  67.757  1.00  0.00    -0.318 A  
HETATM   12  C   UNL     1     -11.473  12.598  69.246  1.00  0.00    -0.354 C  
HETATM   13  C   UNL     1     -12.234  13.910  69.446  1.00  0.00    -0.292 C  
HETATM   14  N   UNL     1     -12.407  14.486  68.194  1.00  0.00    -0.588 N  
HETATM   15  O   UNL     1     -12.625  14.372  70.505  1.00  0.00    -0.328 OA 
HETATM   16  H   UNL     1     -12.886  15.371  68.030  1.00  0.00     0.000 HD 
HETATM   17  C   UNL     1     -11.845  13.704  67.197  1.00  0.00    -0.396 A  
HETATM   18  C   UNL     1     -11.829  13.967  65.846  1.00  0.00    -0.399 A  
HETATM   19  C   UNL     1     -11.203  13.031  65.026  1.00  0.00    -0.324 A  
HETATM   20  C   UNL     1     -10.612  11.875  65.571  1.00  0.00    -0.313 A  
ENDBRANCH   9  10
ENDBRANCH   8   9
ENDBRANCH   4   8
ENDBRANCH   3   4
ENDBRANCH   2   3
TORSDOF 7
ENDMDL
MODEL      227
REMARK 921   NORMALIZED FREE ENERGY PREDICTED BY IDOCK:   -3.51 KCAL/MOL
REMARK 922        TOTAL FREE ENERGY PREDICTED BY IDOCK:   -5.83 KCAL/MOL
REMARK 923 INTER-LIGAND FREE ENERGY PREDICTED BY IDOCK:   -4.71 KCAL/MOL
REMARK 924 INTRA-LIGAND FREE ENERGY PREDICTED BY IDOCK:   -1.12 KCAL/MOL
REMARK 927      BINDING AFFINITY PREDICTED BY RF-SCORE:    0.00 PKD
ROOT
HETATM    1  C   UNL     1     -10.516   7.286  66.884  1.00  0.00    -0.369 C  
HETATM    2  C   UNL     1     -11.148   6.324  67.877  1.00  0.00    -0.360 C  
ENDROOT
BRANCH   2   3
HETATM    3  C   UNL     1     -10.132   5.486  68.669  1.00  0.00    -0.183 C  
BRANCH   3   4
HETATM    4  N   UNL     1     -10.408   5.253  70.104  1.00  0.00    -0.281 NA 
BRANCH   4   5
HETATM    5  C   UNL     1      -9.160   4.973  70.849  1.00  0.00    -0.143 C  
BRANCH   5   6
HETATM    6  C   UNL     1      -7.846   5.196  70.076  1.00  0.00    -0.078 C  
HETATM    7  C   UNL     1      -6.988   3.944  69.963  1.00  0.00    -0.041 C  
ENDBRANCH   5   6
ENDBRANCH   4   5
BRANCH   4   8
HETATM    8  C   UNL     1     -11.110   6.429  70.680  1.00  0.00    -0.317 C  
BRANCH   8   9
HETATM    9  C   UNL     1     -10.222   7.528  71.309  1.00  0.00    -0.198 C  
BRANCH   9  10
HETATM   10  C   UNL     1     -10.081   8.780  70.481  1.00  0.00    -0.233 A  
HETATM   11  C   UNL     1     -10.941   9.864  70.616  1.00  0.00    -0.405 A  
HETATM   12  C   UNL     1     -12.118  10.071  71.529  1.00  0.00    -0.475 C  
HETATM   13  C   UNL     1     -12.586  11.479  71.156  1.00  0.00    -0.359 C  
HETATM   14  N   UNL     1     -11.748  11.944  70.152  1.00  0.00    -0.497 N  
HETATM   15  O   UNL     1     -13.525  12.087  71.643  1.00  0.00    -0.230 OA 
HETATM   16  H   UNL     1     -11.832  12.860  69.712  1.00  0.00     0.000 HD 
HETATM   17  C   UNL     1     -10.783  11.004  69.825  1.00  0.00    -0.078 A  
HETATM   18  C   UNL     1      -9.792  11.128  68.877  1.00  0.00    -0.176 A  
HETATM   19  C   UNL     1      -8.928  10.047  68.718  1.00  0.00    -0.145 A  
HETATM   20  C   UNL     1      -9.073   8.887  69.504  1.00  0.00    -0.146 A  
ENDBRANCH   9  10
ENDBRANCH   8   9
ENDBRANCH   4   8
ENDBRANCH   3   4
ENDBRANCH   2   3
TORSDOF 7
ENDMDL
MODEL      228
REMARK 921   NORMALIZED FREE ENERGY PREDICTED BY IDOCK:   -3.51 KCAL/MOL
REMARK 922        TOTAL FREE ENERGY PREDICTED BY IDOCK:   -5.82 KCAL/MOL
REMARK 923 INTER-LIGAND FREE ENERGY PREDICTED BY IDOCK:   -5.18 KCAL/MOL
REMARK 924 INTRA-LIGAND FREE ENERGY PREDICTED BY IDOCK:   -0.64 KCAL/MOL
REMARK 927      BINDING AFFINITY PREDICTED BY RF-SCORE:    0.00 PKD
ROOT
HETATM    1  C   UNL     1      -8.917   9.972  64.258  1.00  0.00    -0.269 C  
HETATM    2  C   UNL     1      -9.420   9.719  65.670  1.00  0.00    -0.307 C  
ENDROOT
BRANCH   2   3
HETATM    3  C   UNL     1     -10.271  10.862  66.245  1.00  0.00    -0.247 C  
BRANCH   3   4
HETATM    4  N   UNL     1      -9.767  12.243  66.074  1.00  0.00    -0.245 NA 
BRANCH   4   5
HETATM    5  C   UNL     1     -10.716  13.064  65.290  1.00  0.00    -0.299 C  
BRANCH   5   6
HETATM    6  C   UNL     1     -11.893  12.308  64.644  1.00  0.00    -0.435 C  
HETATM    7  C   UNL     1     -12.233  12.797  63.244  1.00  0.00    -0.500 C  
ENDBRANCH   5   6
ENDBRANCH   4   5
BRANCH   4   8
HETATM    8  C   UNL     1      -9.518  12.856  67.405  1.00  0.00    -0.198 C  
BRANCH   8   9
HETATM    9  C   UNL     1      -8.541  14.054  67.445  1.00  0.00    -0.211 C  
BRANCH   9  10
HETATM   10  C   UNL     1      -9.160  15.362  67.866  1.00  0.00    -0.178 A  
HETATM   11  C   UNL     1      -8.400  16.497  68.130  1.00  0.00    -0.186 A  
HETATM   12  C   UNL     1      -6.913  16.712  68.069  1.00  0.00    -0.156 C  
HETATM   13  C   UNL     1      -6.773  18.183  68.467  1.00  0.00    -0.230 C  
HETATM   14  N   UNL     1      -8.049  18.670  68.716  1.00  0.00    -0.309 N  
HETATM   15  O   UNL     1      -5.736  18.818  68.556  1.00  0.00    -0.196 OA 
HETATM   16  H   UNL     1      -8.254  19.627  69.002  1.00  0.00     0.000 HD 
HETATM   17  C   UNL     1      -9.010  17.689  68.526  1.00  0.00    -0.289 A  
HETATM   18  C   UNL     1     -10.371  17.819  68.682  1.00  0.00    -0.351 A  
HETATM   19  C   UNL     1     -11.149  16.690  68.434  1.00  0.00    -0.305 A  
HETATM   20  C   UNL     1     -10.553  15.478  68.037  1.00  0.00    -0.270 A  
ENDBRANCH   9  10
ENDBRANCH   8   9
ENDBRANCH   4   8
ENDBRANCH   3   4
ENDBRANCH   2   3
TORSDOF 7
ENDMDL
MODEL      229
REMARK 921   NORMALIZED FREE ENERGY PREDICTED BY IDOCK:   -3.50 KCAL/MOL
REMARK 922        TOTAL FREE ENERGY PREDICTED BY IDOCK:   -5.81 KCAL/MOL
REMARK 923 INTER-LIGAND FREE ENERGY PREDICTED BY IDOCK:   -5.07 KCAL/MOL
REMARK 924 INTRA-LIGAND FREE ENERGY PREDICTED BY IDOCK:   -0.74 KCAL/MOL
REMARK 927      BINDING AFFINITY PREDICTED BY RF-SCORE:    0.00 PKD
ROOT
HETATM    1  C   UNL     1      -9.424  10.387  64.009  1.00  0.00    -0.351 C  
HETATM    2  C   UNL     1     -10.117  11.739  63.961  1.00  0.00    -0.360 C  
ENDROOT
BRANCH   2   3
HETATM    3  C   UNL     1     -11.255  11.894  64.982  1.00  0.00    -0.293 C  
BRANCH   3   4
HETATM    4  N   UNL     1     -10.881  12.175  66.386  1.00  0.00    -0.260 NA 
BRANCH   4   5
HETATM    5  C   UNL     1     -11.507  13.428  66.864  1.00  0.00    -0.342 C  
BRANCH   5   6
HETATM    6  C   UNL     1     -10.544  14.587  67.187  1.00  0.00    -0.274 C  
HETATM    7  C   UNL     1      -9.304  14.609  66.306  1.00  0.00    -0.293 C  
ENDBRANCH   5   6
ENDBRANCH   4   5
BRANCH   4   8
HETATM    8  C   UNL     1     -11.272  11.031  67.250  1.00  0.00    -0.258 C  
BRANCH   8   9
HETATM    9  C   UNL     1     -10.213  10.532  68.261  1.00  0.00    -0.185 C  
BRANCH   9  10
HETATM   10  C   UNL     1     -10.503   9.183  68.868  1.00  0.00    -0.239 A  
HETATM   11  C   UNL     1     -10.311   7.995  68.171  1.00  0.00    -0.250 A  
HETATM   12  C   UNL     1      -9.810   7.751  66.774  1.00  0.00    -0.312 C  
HETATM   13  C   UNL     1      -9.841   6.224  66.671  1.00  0.00    -0.154 C  
HETATM   14  N   UNL     1     -10.316   5.735  67.881  1.00  0.00    -0.196 N  
HETATM   15  O   UNL     1      -9.514   5.552  65.707  1.00  0.00    -0.141 OA 
HETATM   16  H   UNL     1     -10.441   4.745  68.091  1.00  0.00     0.000 HD 
HETATM   17  C   UNL     1     -10.599   6.764  68.765  1.00  0.00    -0.226 A  
HETATM   18  C   UNL     1     -11.084   6.645  70.048  1.00  0.00    -0.394 A  
HETATM   19  C   UNL     1     -11.295   7.825  70.758  1.00  0.00    -0.291 A  
HETATM   20  C   UNL     1     -11.013   9.076  70.175  1.00  0.00    -0.256 A  
ENDBRANCH   9  10
ENDBRANCH   8   9
ENDBRANCH   4   8
ENDBRANCH   3   4
ENDBRANCH   2   3
TORSDOF 7
ENDMDL
MODEL      230
REMARK 921   NORMALIZED FREE ENERGY PREDICTED BY IDOCK:   -3.47 KCAL/MOL
REMARK 922        TOTAL FREE ENERGY PREDICTED BY IDOCK:   -5.78 KCAL/MOL
REMARK 923 INTER-LIGAND FREE ENERGY PREDICTED BY IDOCK:   -5.12 KCAL/MOL
REMARK 924 INTRA-LIGAND FREE ENERGY PREDICTED BY IDOCK:   -0.66 KCAL/MOL
REMARK 927      BINDING AFFINITY PREDICTED BY RF-SCORE:    0.00 PKD
ROOT
HETATM    1  C   UNL     1      -9.967   5.318  65.971  1.00  0.00    -0.152 C  
HETATM    2  C   UNL     1      -8.796   6.280  66.101  1.00  0.00    -0.160 C  
ENDROOT
BRANCH   2   3
HETATM    3  C   UNL     1      -9.210   7.756  66.212  1.00  0.00    -0.166 C  
BRANCH   3   4
HETATM    4  N   UNL     1      -8.225   8.702  66.780  1.00  0.00    -0.107 NA 
BRANCH   4   5
HETATM    5  C   UNL     1      -7.090   8.911  65.853  1.00  0.00    -0.084 C  
BRANCH   5   6
HETATM    6  C   UNL     1      -7.196  10.130  64.917  1.00  0.00    -0.131 C  
HETATM    7  C   UNL     1      -6.072  10.210  63.895  1.00  0.00    -0.137 C  
ENDBRANCH   5   6
ENDBRANCH   4   5
BRANCH   4   8
HETATM    8  C   UNL     1      -8.890   9.993  67.096  1.00  0.00    -0.135 C  
BRANCH   8   9
HETATM    9  C   UNL     1     -10.405  10.082  66.802  1.00  0.00    -0.283 C  
BRANCH   9  10
HETATM   10  C   UNL     1     -10.893  11.451  66.399  1.00  0.00    -0.323 A  
HETATM   11  C   UNL     1     -11.418  12.355  67.315  1.00  0.00    -0.421 A  
HETATM   12  C   UNL     1     -11.621  12.235  68.800  1.00  0.00    -0.380 C  
HETATM   13  C   UNL     1     -12.225  13.593  69.165  1.00  0.00    -0.224 C  
HETATM   14  N   UNL     1     -12.332  14.329  67.992  1.00  0.00    -0.564 N  
HETATM   15  O   UNL     1     -12.558  13.968  70.277  1.00  0.00    -0.342 OA 
HETATM   16  H   UNL     1     -12.707  15.277  67.941  1.00  0.00     0.000 HD 
HETATM   17  C   UNL     1     -11.867  13.612  66.902  1.00  0.00    -0.411 A  
HETATM   18  C   UNL     1     -11.824  14.029  65.591  1.00  0.00    -0.384 A  
HETATM   19  C   UNL     1     -11.311  13.132  64.656  1.00  0.00    -0.363 A  
HETATM   20  C   UNL     1     -10.856  11.860  65.053  1.00  0.00    -0.351 A  
ENDBRANCH   9  10
ENDBRANCH   8   9
ENDBRANCH   4   8
ENDBRANCH   3   4
ENDBRANCH   2   3
TORSDOF 7
ENDMDL
MODEL      231
REMARK 921   NORMALIZED FREE ENERGY PREDICTED BY IDOCK:   -3.47 KCAL/MOL
REMARK 922        TOTAL FREE ENERGY PREDICTED BY IDOCK:   -5.77 KCAL/MOL
REMARK 923 INTER-LIGAND FREE ENERGY PREDICTED BY IDOCK:   -4.87 KCAL/MOL
REMARK 924 INTRA-LIGAND FREE ENERGY PREDICTED BY IDOCK:   -0.90 KCAL/MOL
REMARK 927      BINDING AFFINITY PREDICTED BY RF-SCORE:    0.00 PKD
ROOT
HETATM    1  C   UNL     1      -8.382  18.828  68.672  1.00  0.00    -0.360 C  
HETATM    2  C   UNL     1      -7.972  17.369  68.551  1.00  0.00    -0.266 C  
ENDROOT
BRANCH   2   3
HETATM    3  C   UNL     1      -9.149  16.383  68.604  1.00  0.00    -0.233 C  
BRANCH   3   4
HETATM    4  N   UNL     1     -10.271  16.605  67.666  1.00  0.00    -0.277 NA 
BRANCH   4   5
HETATM    5  C   UNL     1      -9.802  16.597  66.262  1.00  0.00    -0.310 C  
BRANCH   5   6
HETATM    6  C   UNL     1     -10.756  17.221  65.225  1.00  0.00    -0.019 C  
HETATM    7  C   UNL     1     -11.288  16.221  64.210  1.00  0.00    -0.012 C  
ENDBRANCH   5   6
ENDBRANCH   4   5
BRANCH   4   8
HETATM    8  C   UNL     1     -11.316  15.570  67.876  1.00  0.00    -0.308 C  
BRANCH   8   9
HETATM    9  C   UNL     1     -10.835  14.102  67.942  1.00  0.00    -0.253 C  
BRANCH   9  10
HETATM   10  C   UNL     1     -11.156  13.275  66.722  1.00  0.00    -0.313 A  
HETATM   11  C   UNL     1     -10.285  12.313  66.223  1.00  0.00    -0.251 A  
HETATM   12  C   UNL     1      -8.931  11.875  66.709  1.00  0.00    -0.196 C  
HETATM   13  C   UNL     1      -8.555  10.782  65.706  1.00  0.00    -0.183 C  
HETATM   14  N   UNL     1      -9.598  10.677  64.795  1.00  0.00    -0.253 N  
HETATM   15  O   UNL     1      -7.528  10.123  65.697  1.00  0.00    -0.130 OA 
HETATM   16  H   UNL     1      -9.613  10.023  64.012  1.00  0.00     0.000 HD 
HETATM   17  C   UNL     1     -10.614  11.572  65.086  1.00  0.00    -0.293 A  
HETATM   18  C   UNL     1     -11.794  11.741  64.397  1.00  0.00    -0.274 A  
HETATM   19  C   UNL     1     -12.675  12.709  64.875  1.00  0.00    -0.450 A  
HETATM   20  C   UNL     1     -12.360  13.468  66.018  1.00  0.00    -0.486 A  
ENDBRANCH   9  10
ENDBRANCH   8   9
ENDBRANCH   4   8
ENDBRANCH   3   4
ENDBRANCH   2   3
TORSDOF 7
ENDMDL
MODEL      232
REMARK 921   NORMALIZED FREE ENERGY PREDICTED BY IDOCK:   -3.47 KCAL/MOL
REMARK 922        TOTAL FREE ENERGY PREDICTED BY IDOCK:   -5.77 KCAL/MOL
REMARK 923 INTER-LIGAND FREE ENERGY PREDICTED BY IDOCK:   -5.07 KCAL/MOL
REMARK 924 INTRA-LIGAND FREE ENERGY PREDICTED BY IDOCK:   -0.70 KCAL/MOL
REMARK 927      BINDING AFFINITY PREDICTED BY RF-SCORE:    0.00 PKD
ROOT
HETATM    1  C   UNL     1     -12.592  14.272  71.240  1.00  0.00    -0.436 C  
HETATM    2  C   UNL     1     -12.002  14.400  69.845  1.00  0.00    -0.391 C  
ENDROOT
BRANCH   2   3
HETATM    3  C   UNL     1     -11.336  13.115  69.329  1.00  0.00    -0.253 C  
BRANCH   3   4
HETATM    4  N   UNL     1     -12.149  12.215  68.481  1.00  0.00    -0.316 NA 
BRANCH   4   5
HETATM    5  C   UNL     1     -11.515  12.009  67.160  1.00  0.00    -0.335 C  
BRANCH   5   6
HETATM    6  C   UNL     1     -10.183  12.746  66.925  1.00  0.00    -0.241 C  
HETATM    7  C   UNL     1      -9.020  11.814  66.618  1.00  0.00    -0.195 C  
ENDBRANCH   5   6
ENDBRANCH   4   5
BRANCH   4   8
HETATM    8  C   UNL     1     -12.350  10.916  69.175  1.00  0.00     0.042 C  
BRANCH   8   9
HETATM    9  C   UNL     1     -11.997  10.871  70.679  1.00  0.00    -0.467 C  
BRANCH   9  10
HETATM   10  C   UNL     1     -11.396   9.571  71.150  1.00  0.00    -0.440 A  
HETATM   11  C   UNL     1     -10.161   9.115  70.703  1.00  0.00    -0.306 A  
HETATM   12  C   UNL     1      -9.186   9.725  69.734  1.00  0.00    -0.248 C  
HETATM   13  C   UNL     1      -8.048   8.703  69.719  1.00  0.00    -0.114 C  
HETATM   14  N   UNL     1      -8.402   7.672  70.578  1.00  0.00    -0.125 N  
HETATM   15  O   UNL     1      -7.016   8.771  69.071  1.00  0.00    -0.062 OA 
HETATM   16  H   UNL     1      -7.825   6.851  70.760  1.00  0.00     0.000 HD 
HETATM   17  C   UNL     1      -9.641   7.901  71.156  1.00  0.00    -0.158 A  
HETATM   18  C   UNL     1     -10.300   7.091  72.054  1.00  0.00    -0.220 A  
HETATM   19  C   UNL     1     -11.544   7.525  72.505  1.00  0.00    -0.352 A  
HETATM   20  C   UNL     1     -12.087   8.745  72.057  1.00  0.00    -0.447 A  
ENDBRANCH   9  10
ENDBRANCH   8   9
ENDBRANCH   4   8
ENDBRANCH   3   4
ENDBRANCH   2   3
TORSDOF 7
ENDMDL
MODEL      233
REMARK 921   NORMALIZED FREE ENERGY PREDICTED BY IDOCK:   -3.45 KCAL/MOL
REMARK 922        TOTAL FREE ENERGY PREDICTED BY IDOCK:   -5.74 KCAL/MOL
REMARK 923 INTER-LIGAND FREE ENERGY PREDICTED BY IDOCK:   -4.87 KCAL/MOL
REMARK 924 INTRA-LIGAND FREE ENERGY PREDICTED BY IDOCK:   -0.87 KCAL/MOL
REMARK 927      BINDING AFFINITY PREDICTED BY RF-SCORE:    0.00 PKD
ROOT
HETATM    1  C   UNL     1     -10.753   3.399  73.418  1.00  0.00    -0.303 C  
HETATM    2  C   UNL     1     -11.516   4.691  73.174  1.00  0.00    -0.317 C  
ENDROOT
BRANCH   2   3
HETATM    3  C   UNL     1     -10.678   5.796  72.511  1.00  0.00    -0.237 C  
BRANCH   3   4
HETATM    4  N   UNL     1     -10.811   7.169  73.046  1.00  0.00    -0.306 NA 
BRANCH   4   5
HETATM    5  C   UNL     1      -9.508   7.684  73.524  1.00  0.00    -0.289 C  
BRANCH   5   6
HETATM    6  C   UNL     1      -8.351   6.668  73.562  1.00  0.00    -0.127 C  
HETATM    7  C   UNL     1      -7.022   7.243  73.096  1.00  0.00    -0.069 C  
ENDBRANCH   5   6
ENDBRANCH   4   5
BRANCH   4   8
HETATM    8  C   UNL     1     -11.378   8.064  72.004  1.00  0.00    -0.302 C  
BRANCH   8   9
HETATM    9  C   UNL     1     -10.406   9.075  71.354  1.00  0.00    -0.396 C  
BRANCH   9  10
HETATM   10  C   UNL     1     -10.110   8.823  69.897  1.00  0.00    -0.197 A  
HETATM   11  C   UNL     1     -10.563   9.665  68.887  1.00  0.00    -0.239 A  
HETATM   12  C   UNL     1     -11.381  10.925  68.960  1.00  0.00    -0.348 C  
HETATM   13  C   UNL     1     -11.498  11.330  67.489  1.00  0.00    -0.246 C  
HETATM   14  N   UNL     1     -10.823  10.377  66.739  1.00  0.00    -0.169 N  
HETATM   15  O   UNL     1     -12.079  12.307  67.046  1.00  0.00    -0.575 OA 
HETATM   16  H   UNL     1     -10.741  10.397  65.722  1.00  0.00     0.000 HD 
HETATM   17  C   UNL     1     -10.275   9.394  67.548  1.00  0.00    -0.231 A  
HETATM   18  C   UNL     1      -9.543   8.300  67.145  1.00  0.00    -0.234 A  
HETATM   19  C   UNL     1      -9.090   7.438  68.142  1.00  0.00    -0.131 A  
HETATM   20  C   UNL     1      -9.373   7.692  69.497  1.00  0.00    -0.153 A  
ENDBRANCH   9  10
ENDBRANCH   8   9
ENDBRANCH   4   8
ENDBRANCH   3   4
ENDBRANCH   2   3
TORSDOF 7
ENDMDL
MODEL      234
REMARK 921   NORMALIZED FREE ENERGY PREDICTED BY IDOCK:   -3.45 KCAL/MOL
REMARK 922        TOTAL FREE ENERGY PREDICTED BY IDOCK:   -5.74 KCAL/MOL
REMARK 923 INTER-LIGAND FREE ENERGY PREDICTED BY IDOCK:   -5.16 KCAL/MOL
REMARK 924 INTRA-LIGAND FREE ENERGY PREDICTED BY IDOCK:   -0.59 KCAL/MOL
REMARK 927      BINDING AFFINITY PREDICTED BY RF-SCORE:    0.00 PKD
ROOT
HETATM    1  C   UNL     1     -12.366  11.850  63.261  1.00  0.00    -0.508 C  
HETATM    2  C   UNL     1     -12.102  13.300  63.634  1.00  0.00    -0.551 C  
ENDROOT
BRANCH   2   3
HETATM    3  C   UNL     1     -10.783  13.521  64.390  1.00  0.00    -0.388 C  
BRANCH   3   4
HETATM    4  N   UNL     1     -10.866  14.008  65.785  1.00  0.00    -0.286 NA 
BRANCH   4   5
HETATM    5  C   UNL     1     -10.490  12.946  66.744  1.00  0.00    -0.254 C  
BRANCH   5   6
HETATM    6  C   UNL     1     -11.575  12.528  67.754  1.00  0.00    -0.401 C  
HETATM    7  C   UNL     1     -11.770  13.527  68.885  1.00  0.00    -0.379 C  
ENDBRANCH   5   6
ENDBRANCH   4   5
BRANCH   4   8
HETATM    8  C   UNL     1      -9.997  15.201  65.954  1.00  0.00    -0.328 C  
BRANCH   8   9
HETATM    9  C   UNL     1      -8.887  15.104  67.027  1.00  0.00    -0.258 C  
BRANCH   9  10
HETATM   10  C   UNL     1      -7.887  16.232  67.007  1.00  0.00    -0.253 A  
HETATM   11  C   UNL     1      -7.006  16.467  68.057  1.00  0.00    -0.153 A  
HETATM   12  C   UNL     1      -6.823  15.738  69.359  1.00  0.00    -0.190 C  
HETATM   13  C   UNL     1      -5.685  16.519  70.020  1.00  0.00    -0.206 C  
HETATM   14  N   UNL     1      -5.328  17.546  69.156  1.00  0.00    -0.169 N  
HETATM   15  O   UNL     1      -5.180  16.292  71.108  1.00  0.00    -0.164 OA 
HETATM   16  H   UNL     1      -4.592  18.227  69.346  1.00  0.00     0.000 HD 
HETATM   17  C   UNL     1      -6.099  17.527  68.005  1.00  0.00    -0.152 A  
HETATM   18  C   UNL     1      -6.018  18.394  66.938  1.00  0.00    -0.169 A  
HETATM   19  C   UNL     1      -6.901  18.182  65.882  1.00  0.00    -0.333 A  
HETATM   20  C   UNL     1      -7.825  17.121  65.916  1.00  0.00    -0.017 A  
ENDBRANCH   9  10
ENDBRANCH   8   9
ENDBRANCH   4   8
ENDBRANCH   3   4
ENDBRANCH   2   3
TORSDOF 7
ENDMDL
MODEL      235
REMARK 921   NORMALIZED FREE ENERGY PREDICTED BY IDOCK:   -3.44 KCAL/MOL
REMARK 922        TOTAL FREE ENERGY PREDICTED BY IDOCK:   -5.74 KCAL/MOL
REMARK 923 INTER-LIGAND FREE ENERGY PREDICTED BY IDOCK:   -5.05 KCAL/MOL
REMARK 924 INTRA-LIGAND FREE ENERGY PREDICTED BY IDOCK:   -0.69 KCAL/MOL
REMARK 927      BINDING AFFINITY PREDICTED BY RF-SCORE:    0.00 PKD
ROOT
HETATM    1  C   UNL     1     -10.741   7.330  69.518  1.00  0.00    -0.244 C  
HETATM    2  C   UNL     1     -10.324   8.071  70.779  1.00  0.00    -0.214 C  
ENDROOT
BRANCH   2   3
HETATM    3  C   UNL     1     -10.786   9.536  70.824  1.00  0.00    -0.321 C  
BRANCH   3   4
HETATM    4  N   UNL     1     -12.138   9.844  70.307  1.00  0.00    -0.157 NA 
BRANCH   4   5
HETATM    5  C   UNL     1     -12.961  10.519  71.334  1.00  0.00    -0.440 C  
BRANCH   5   6
HETATM    6  C   UNL     1     -13.636   9.603  72.372  1.00  0.00    -0.397 C  
HETATM    7  C   UNL     1     -14.284   8.369  71.763  1.00  0.00    -0.536 C  
ENDBRANCH   5   6
ENDBRANCH   4   5
BRANCH   4   8
HETATM    8  C   UNL     1     -12.030  10.682  69.084  1.00  0.00    -0.158 C  
BRANCH   8   9
HETATM    9  C   UNL     1     -11.612  12.156  69.289  1.00  0.00    -0.377 C  
BRANCH   9  10
HETATM   10  C   UNL     1     -10.353  12.564  68.567  1.00  0.00    -0.233 A  
HETATM   11  C   UNL     1     -10.342  13.546  67.583  1.00  0.00    -0.239 A  
HETATM   12  C   UNL     1     -11.459  14.386  67.029  1.00  0.00    -0.376 C  
HETATM   13  C   UNL     1     -10.741  15.255  65.994  1.00  0.00    -0.320 C  
HETATM   14  N   UNL     1      -9.400  14.894  66.006  1.00  0.00    -0.454 N  
HETATM   15  O   UNL     1     -11.245  16.108  65.283  1.00  0.00    -0.197 OA 
HETATM   16  H   UNL     1      -8.686  15.314  65.411  1.00  0.00     0.000 HD 
HETATM   17  C   UNL     1      -9.156  13.890  66.930  1.00  0.00    -0.245 A  
HETATM   18  C   UNL     1      -7.947  13.294  67.207  1.00  0.00    -0.134 A  
HETATM   19  C   UNL     1      -7.940  12.299  68.182  1.00  0.00    -0.155 A  
HETATM   20  C   UNL     1      -9.125  11.935  68.849  1.00  0.00     0.150 A  
ENDBRANCH   9  10
ENDBRANCH   8   9
ENDBRANCH   4   8
ENDBRANCH   3   4
ENDBRANCH   2   3
TORSDOF 7
ENDMDL
MODEL      236
REMARK 921   NORMALIZED FREE ENERGY PREDICTED BY IDOCK:   -3.44 KCAL/MOL
REMARK 922        TOTAL FREE ENERGY PREDICTED BY IDOCK:   -5.73 KCAL/MOL
REMARK 923 INTER-LIGAND FREE ENERGY PREDICTED BY IDOCK:   -5.02 KCAL/MOL
REMARK 924 INTRA-LIGAND FREE ENERGY PREDICTED BY IDOCK:   -0.72 KCAL/MOL
REMARK 927      BINDING AFFINITY PREDICTED BY RF-SCORE:    0.00 PKD
ROOT
HETATM    1  C   UNL     1     -10.613  18.366  67.151  1.00  0.00    -0.416 C  
HETATM    2  C   UNL     1     -10.303  16.899  66.902  1.00  0.00    -0.304 C  
ENDROOT
BRANCH   2   3
HETATM    3  C   UNL     1     -11.000  15.939  67.879  1.00  0.00    -0.327 C  
BRANCH   3   4
HETATM    4  N   UNL     1     -11.503  14.657  67.337  1.00  0.00    -0.356 NA 
BRANCH   4   5
HETATM    5  C   UNL     1     -11.412  14.630  65.860  1.00  0.00    -0.338 C  
BRANCH   5   6
HETATM    6  C   UNL     1     -12.646  14.087  65.115  1.00  0.00    -0.453 C  
HETATM    7  C   UNL     1     -12.534  12.615  64.747  1.00  0.00    -0.555 C  
ENDBRANCH   5   6
ENDBRANCH   4   5
BRANCH   4   8
HETATM    8  C   UNL     1     -10.742  13.527  67.931  1.00  0.00    -0.247 C  
BRANCH   8   9
HETATM    9  C   UNL     1      -9.705  12.833  67.018  1.00  0.00    -0.224 C  
BRANCH   9  10
HETATM   10  C   UNL     1      -8.896  11.751  67.687  1.00  0.00    -0.162 A  
HETATM   11  C   UNL     1      -9.270  10.412  67.656  1.00  0.00    -0.157 A  
HETATM   12  C   UNL     1     -10.454   9.743  67.013  1.00  0.00    -0.295 C  
HETATM   13  C   UNL     1     -10.234   8.270  67.361  1.00  0.00    -0.258 C  
HETATM   14  N   UNL     1      -9.068   8.189  68.112  1.00  0.00    -0.135 N  
HETATM   15  O   UNL     1     -10.947   7.332  67.046  1.00  0.00    -0.358 OA 
HETATM   16  H   UNL     1      -8.682   7.321  68.482  1.00  0.00     0.000 HD 
HETATM   17  C   UNL     1      -8.498   9.439  68.295  1.00  0.00    -0.120 A  
HETATM   18  C   UNL     1      -7.344   9.732  68.985  1.00  0.00    -0.078 A  
HETATM   19  C   UNL     1      -6.959  11.070  69.038  1.00  0.00    -0.097 A  
HETATM   20  C   UNL     1      -7.725  12.066  68.403  1.00  0.00    -0.138 A  
ENDBRANCH   9  10
ENDBRANCH   8   9
ENDBRANCH   4   8
ENDBRANCH   3   4
ENDBRANCH   2   3
TORSDOF 7
ENDMDL
MODEL      237
REMARK 921   NORMALIZED FREE ENERGY PREDICTED BY IDOCK:   -3.44 KCAL/MOL
REMARK 922        TOTAL FREE ENERGY PREDICTED BY IDOCK:   -5.73 KCAL/MOL
REMARK 923 INTER-LIGAND FREE ENERGY PREDICTED BY IDOCK:   -4.89 KCAL/MOL
REMARK 924 INTRA-LIGAND FREE ENERGY PREDICTED BY IDOCK:   -0.84 KCAL/MOL
REMARK 927      BINDING AFFINITY PREDICTED BY RF-SCORE:    0.00 PKD
ROOT
HETATM    1  C   UNL     1      -8.053   9.494  64.381  1.00  0.00    -0.141 C  
HETATM    2  C   UNL     1      -7.308   9.606  65.701  1.00  0.00    -0.101 C  
ENDROOT
BRANCH   2   3
HETATM    3  C   UNL     1      -8.023   8.930  66.881  1.00  0.00    -0.101 C  
BRANCH   3   4
HETATM    4  N   UNL     1      -9.309   8.252  66.604  1.00  0.00    -0.178 NA 
BRANCH   4   5
HETATM    5  C   UNL     1      -9.164   6.781  66.683  1.00  0.00    -0.159 C  
BRANCH   5   6
HETATM    6  C   UNL     1     -10.006   6.073  67.761  1.00  0.00    -0.149 C  
HETATM    7  C   UNL     1      -9.183   5.206  68.702  1.00  0.00    -0.150 C  
ENDBRANCH   5   6
ENDBRANCH   4   5
BRANCH   4   8
HETATM    8  C   UNL     1     -10.345   8.728  67.556  1.00  0.00    -0.268 C  
BRANCH   8   9
HETATM    9  C   UNL     1      -9.840   9.448  68.829  1.00  0.00    -0.172 C  
BRANCH   9  10
HETATM   10  C   UNL     1     -10.915   9.802  69.825  1.00  0.00    -0.287 A  
HETATM   11  C   UNL     1     -11.321   8.928  70.827  1.00  0.00    -0.325 A  
HETATM   12  C   UNL     1     -10.849   7.540  71.163  1.00  0.00    -0.254 C  
HETATM   13  C   UNL     1     -11.710   7.180  72.376  1.00  0.00    -0.222 C  
HETATM   14  N   UNL     1     -12.542   8.262  72.631  1.00  0.00    -0.607 N  
HETATM   15  O   UNL     1     -11.680   6.136  73.007  1.00  0.00    -0.050 OA 
HETATM   16  H   UNL     1     -13.226   8.295  73.388  1.00  0.00     0.000 HD 
HETATM   17  C   UNL     1     -12.326   9.289  71.727  1.00  0.00    -0.379 A  
HETATM   18  C   UNL     1     -12.971  10.505  71.682  1.00  0.00    -0.581 A  
HETATM   19  C   UNL     1     -12.586  11.390  70.677  1.00  0.00    -0.360 A  
HETATM   20  C   UNL     1     -11.577  11.043  69.759  1.00  0.00    -0.401 A  
ENDBRANCH   9  10
ENDBRANCH   8   9
ENDBRANCH   4   8
ENDBRANCH   3   4
ENDBRANCH   2   3
TORSDOF 7
ENDMDL
MODEL      238
REMARK 921   NORMALIZED FREE ENERGY PREDICTED BY IDOCK:   -3.44 KCAL/MOL
REMARK 922        TOTAL FREE ENERGY PREDICTED BY IDOCK:   -5.73 KCAL/MOL
REMARK 923 INTER-LIGAND FREE ENERGY PREDICTED BY IDOCK:   -5.24 KCAL/MOL
REMARK 924 INTRA-LIGAND FREE ENERGY PREDICTED BY IDOCK:   -0.48 KCAL/MOL
REMARK 927      BINDING AFFINITY PREDICTED BY RF-SCORE:    0.00 PKD
ROOT
HETATM    1  C   UNL     1     -10.244   4.351  65.710  1.00  0.00    -0.257 C  
HETATM    2  C   UNL     1      -9.828   5.614  66.447  1.00  0.00    -0.184 C  
ENDROOT
BRANCH   2   3
HETATM    3  C   UNL     1     -11.006   6.442  66.981  1.00  0.00    -0.389 C  
BRANCH   3   4
HETATM    4  N   UNL     1     -10.690   7.639  67.791  1.00  0.00    -0.187 NA 
BRANCH   4   5
HETATM    5  C   UNL     1     -10.217   7.260  69.141  1.00  0.00    -0.197 C  
BRANCH   5   6
HETATM    6  C   UNL     1     -11.242   6.548  70.044  1.00  0.00    -0.453 C  
HETATM    7  C   UNL     1     -10.606   5.698  71.133  1.00  0.00    -0.312 C  
ENDBRANCH   5   6
ENDBRANCH   4   5
BRANCH   4   8
HETATM    8  C   UNL     1      -9.672   8.467  67.092  1.00  0.00    -0.190 C  
BRANCH   8   9
HETATM    9  C   UNL     1      -9.747   9.995  67.316  1.00  0.00    -0.206 C  
BRANCH   9  10
HETATM   10  C   UNL     1     -10.003  10.805  66.070  1.00  0.00    -0.295 A  
HETATM   11  C   UNL     1      -9.910  12.192  66.051  1.00  0.00    -0.260 A  
HETATM   12  C   UNL     1      -9.561  13.163  67.144  1.00  0.00    -0.235 C  
HETATM   13  C   UNL     1      -9.635  14.513  66.428  1.00  0.00    -0.303 C  
HETATM   14  N   UNL     1      -9.994  14.265  65.109  1.00  0.00    -0.563 N  
HETATM   15  O   UNL     1      -9.424  15.611  66.917  1.00  0.00    -0.216 OA 
HETATM   16  H   UNL     1     -10.118  14.989  64.402  1.00  0.00     0.000 HD 
HETATM   17  C   UNL     1     -10.162  12.909  64.879  1.00  0.00    -0.275 A  
HETATM   18  C   UNL     1     -10.515  12.306  63.693  1.00  0.00    -0.483 A  
HETATM   19  C   UNL     1     -10.626  10.918  63.695  1.00  0.00    -0.226 A  
HETATM   20  C   UNL     1     -10.378  10.177  64.867  1.00  0.00    -0.011 A  
ENDBRANCH   9  10
ENDBRANCH   8   9
ENDBRANCH   4   8
ENDBRANCH   3   4
ENDBRANCH   2   3
TORSDOF 7
ENDMDL
MODEL      239
REMARK 921   NORMALIZED FREE ENERGY PREDICTED BY IDOCK:   -3.43 KCAL/MOL
REMARK 922        TOTAL FREE ENERGY PREDICTED BY IDOCK:   -5.72 KCAL/MOL
REMARK 923 INTER-LIGAND FREE ENERGY PREDICTED BY IDOCK:   -5.04 KCAL/MOL
REMARK 924 INTRA-LIGAND FREE ENERGY PREDICTED BY IDOCK:   -0.68 KCAL/MOL
REMARK 927      BINDING AFFINITY PREDICTED BY RF-SCORE:    0.00 PKD
ROOT
HETATM    1  C   UNL     1     -10.327  20.043  66.330  1.00  0.00    -0.573 C  
HETATM    2  C   UNL     1     -10.724  18.963  67.324  1.00  0.00    -0.523 C  
ENDROOT
BRANCH   2   3
HETATM    3  C   UNL     1     -10.554  17.532  66.793  1.00  0.00    -0.201 C  
BRANCH   3   4
HETATM    4  N   UNL     1      -9.798  16.576  67.632  1.00  0.00    -0.244 NA 
BRANCH   4   5
HETATM    5  C   UNL     1      -9.009  17.281  68.666  1.00  0.00    -0.265 C  
BRANCH   5   6
HETATM    6  C   UNL     1      -7.478  17.227  68.505  1.00  0.00    -0.241 C  
HETATM    7  C   UNL     1      -7.028  16.879  67.094  1.00  0.00    -0.217 C  
ENDBRANCH   5   6
ENDBRANCH   4   5
BRANCH   4   8
HETATM    8  C   UNL     1     -10.734  15.605  68.257  1.00  0.00    -0.283 C  
BRANCH   8   9
HETATM    9  C   UNL     1     -11.103  14.359  67.419  1.00  0.00    -0.317 C  
BRANCH   9  10
HETATM   10  C   UNL     1     -10.804  13.038  68.082  1.00  0.00    -0.267 A  
HETATM   11  C   UNL     1      -9.613  12.351  67.873  1.00  0.00    -0.205 A  
HETATM   12  C   UNL     1      -8.421  12.698  67.024  1.00  0.00    -0.150 C  
HETATM   13  C   UNL     1      -7.481  11.516  67.270  1.00  0.00    -0.139 C  
HETATM   14  N   UNL     1      -8.124  10.649  68.143  1.00  0.00    -0.111 N  
HETATM   15  O   UNL     1      -6.372  11.355  66.790  1.00  0.00    -0.123 OA 
HETATM   16  H   UNL     1      -7.726   9.772  68.479  1.00  0.00     0.000 HD 
HETATM   17  C   UNL     1      -9.375  11.126  68.499  1.00  0.00    -0.190 A  
HETATM   18  C   UNL     1     -10.283  10.527  69.344  1.00  0.00    -0.245 A  
HETATM   19  C   UNL     1     -11.487  11.195  69.557  1.00  0.00    -0.374 A  
HETATM   20  C   UNL     1     -11.747  12.430  68.932  1.00  0.00    -0.372 A  
ENDBRANCH   9  10
ENDBRANCH   8   9
ENDBRANCH   4   8
ENDBRANCH   3   4
ENDBRANCH   2   3
TORSDOF 7
ENDMDL
MODEL      240
REMARK 921   NORMALIZED FREE ENERGY PREDICTED BY IDOCK:   -3.42 KCAL/MOL
REMARK 922        TOTAL FREE ENERGY PREDICTED BY IDOCK:   -5.70 KCAL/MOL
REMARK 923 INTER-LIGAND FREE ENERGY PREDICTED BY IDOCK:   -4.94 KCAL/MOL
REMARK 924 INTRA-LIGAND FREE ENERGY PREDICTED BY IDOCK:   -0.76 KCAL/MOL
REMARK 927      BINDING AFFINITY PREDICTED BY RF-SCORE:    0.00 PKD
ROOT
HETATM    1  C   UNL     1     -11.585   9.414  70.943  1.00  0.00    -0.380 C  
HETATM    2  C   UNL     1     -12.522  10.574  70.646  1.00  0.00    -0.456 C  
ENDROOT
BRANCH   2   3
HETATM    3  C   UNL     1     -11.803  11.909  70.396  1.00  0.00    -0.239 C  
BRANCH   3   4
HETATM    4  N   UNL     1     -12.630  13.064  69.982  1.00  0.00    -0.006 NA 
BRANCH   4   5
HETATM    5  C   UNL     1     -12.821  14.013  71.101  1.00  0.00    -0.357 C  
BRANCH   5   6
HETATM    6  C   UNL     1     -11.819  15.180  71.179  1.00  0.00    -0.393 C  
HETATM    7  C   UNL     1     -12.134  16.178  72.283  1.00  0.00    -0.616 C  
ENDBRANCH   5   6
ENDBRANCH   4   5
BRANCH   4   8
HETATM    8  C   UNL     1     -12.000  13.744  68.820  1.00  0.00    -0.365 C  
BRANCH   8   9
HETATM    9  C   UNL     1     -11.830  12.903  67.533  1.00  0.00    -0.407 C  
BRANCH   9  10
HETATM   10  C   UNL     1     -10.421  12.442  67.259  1.00  0.00    -0.237 A  
HETATM   11  C   UNL     1     -10.098  11.103  67.067  1.00  0.00    -0.235 A  
HETATM   12  C   UNL     1     -10.970   9.878  67.074  1.00  0.00    -0.098 C  
HETATM   13  C   UNL     1      -9.969   8.756  66.787  1.00  0.00    -0.268 C  
HETATM   14  N   UNL     1      -8.716   9.340  66.656  1.00  0.00    -0.126 N  
HETATM   15  O   UNL     1     -10.217   7.565  66.692  1.00  0.00    -0.250 OA 
HETATM   16  H   UNL     1      -7.858   8.822  66.462  1.00  0.00     0.000 HD 
HETATM   17  C   UNL     1      -8.779  10.714  66.823  1.00  0.00    -0.130 A  
HETATM   18  C   UNL     1      -7.733  11.607  66.761  1.00  0.00    -0.116 A  
HETATM   19  C   UNL     1      -8.035  12.952  66.962  1.00  0.00    -0.031 A  
HETATM   20  C   UNL     1      -9.358  13.364  67.212  1.00  0.00    -0.233 A  
ENDBRANCH   9  10
ENDBRANCH   8   9
ENDBRANCH   4   8
ENDBRANCH   3   4
ENDBRANCH   2   3
TORSDOF 7
ENDMDL
MODEL      241
REMARK 921   NORMALIZED FREE ENERGY PREDICTED BY IDOCK:   -3.41 KCAL/MOL
REMARK 922        TOTAL FREE ENERGY PREDICTED BY IDOCK:   -5.69 KCAL/MOL
REMARK 923 INTER-LIGAND FREE ENERGY PREDICTED BY IDOCK:   -5.00 KCAL/MOL
REMARK 924 INTRA-LIGAND FREE ENERGY PREDICTED BY IDOCK:   -0.69 KCAL/MOL
REMARK 927      BINDING AFFINITY PREDICTED BY RF-SCORE:    0.00 PKD
ROOT
HETATM    1  C   UNL     1     -12.650  11.725  71.004  1.00  0.00    -0.409 C  
HETATM    2  C   UNL     1     -13.109  10.526  71.818  1.00  0.00    -0.570 C  
ENDROOT
BRANCH   2   3
HETATM    3  C   UNL     1     -12.960   9.181  71.089  1.00  0.00    -0.177 C  
BRANCH   3   4
HETATM    4  N   UNL     1     -11.835   8.306  71.489  1.00  0.00    -0.282 NA 
BRANCH   4   5
HETATM    5  C   UNL     1     -12.323   6.987  71.949  1.00  0.00    -0.323 C  
BRANCH   5   6
HETATM    6  C   UNL     1     -11.286   6.086  72.645  1.00  0.00    -0.320 C  
HETATM    7  C   UNL     1     -10.435   6.818  73.671  1.00  0.00    -0.374 C  
ENDBRANCH   5   6
ENDBRANCH   4   5
BRANCH   4   8
HETATM    8  C   UNL     1     -10.890   8.149  70.353  1.00  0.00    -0.236 C  
BRANCH   8   9
HETATM    9  C   UNL     1     -10.173   9.429  69.866  1.00  0.00    -0.247 C  
BRANCH   9  10
HETATM   10  C   UNL     1     -10.238   9.664  68.378  1.00  0.00    -0.214 A  
HETATM   11  C   UNL     1      -9.559   8.864  67.466  1.00  0.00    -0.183 A  
HETATM   12  C   UNL     1      -8.672   7.669  67.685  1.00  0.00    -0.122 C  
HETATM   13  C   UNL     1      -8.279   7.280  66.258  1.00  0.00    -0.123 C  
HETATM   14  N   UNL     1      -8.889   8.182  65.397  1.00  0.00    -0.365 N  
HETATM   15  O   UNL     1      -7.560   6.351  65.928  1.00  0.00    -0.080 OA 
HETATM   16  H   UNL     1      -8.797   8.160  64.382  1.00  0.00     0.000 HD 
HETATM   17  C   UNL     1      -9.637   9.117  66.095  1.00  0.00    -0.266 A  
HETATM   18  C   UNL     1     -10.372  10.154  65.565  1.00  0.00    -0.196 A  
HETATM   19  C   UNL     1     -11.050  10.975  66.464  1.00  0.00    -0.174 A  
HETATM   20  C   UNL     1     -10.981  10.737  67.850  1.00  0.00    -0.344 A  
ENDBRANCH   9  10
ENDBRANCH   8   9
ENDBRANCH   4   8
ENDBRANCH   3   4
ENDBRANCH   2   3
TORSDOF 7
ENDMDL
MODEL      242
REMARK 921   NORMALIZED FREE ENERGY PREDICTED BY IDOCK:   -3.39 KCAL/MOL
REMARK 922        TOTAL FREE ENERGY PREDICTED BY IDOCK:   -5.65 KCAL/MOL
REMARK 923 INTER-LIGAND FREE ENERGY PREDICTED BY IDOCK:   -4.89 KCAL/MOL
REMARK 924 INTRA-LIGAND FREE ENERGY PREDICTED BY IDOCK:   -0.77 KCAL/MOL
REMARK 927      BINDING AFFINITY PREDICTED BY RF-SCORE:    0.00 PKD
ROOT
HETATM    1  C   UNL     1     -13.507  12.665  72.047  1.00  0.00    -0.516 C  
HETATM    2  C   UNL     1     -12.797  11.385  71.634  1.00  0.00    -0.497 C  
ENDROOT
BRANCH   2   3
HETATM    3  C   UNL     1     -13.100  10.940  70.194  1.00  0.00     0.167 C  
BRANCH   3   4
HETATM    4  N   UNL     1     -12.008  11.050  69.201  1.00  0.00    -0.367 NA 
BRANCH   4   5
HETATM    5  C   UNL     1     -11.840  12.448  68.746  1.00  0.00    -0.311 C  
BRANCH   5   6
HETATM    6  C   UNL     1     -10.434  12.834  68.249  1.00  0.00    -0.250 C  
HETATM    7  C   UNL     1     -10.307  12.848  66.733  1.00  0.00    -0.250 C  
ENDBRANCH   5   6
ENDBRANCH   4   5
BRANCH   4   8
HETATM    8  C   UNL     1     -10.743  10.531  69.783  1.00  0.00    -0.264 C  
BRANCH   8   9
HETATM    9  C   UNL     1     -10.343   9.088  69.399  1.00  0.00    -0.217 C  
BRANCH   9  10
HETATM   10  C   UNL     1     -10.371   8.099  70.537  1.00  0.00    -0.211 A  
HETATM   11  C   UNL     1     -10.119   6.744  70.353  1.00  0.00    -0.200 A  
HETATM   12  C   UNL     1      -9.781   5.973  69.107  1.00  0.00    -0.168 C  
HETATM   13  C   UNL     1      -9.625   4.544  69.632  1.00  0.00    -0.199 C  
HETATM   14  N   UNL     1      -9.867   4.574  70.999  1.00  0.00    -0.188 N  
HETATM   15  O   UNL     1      -9.344   3.554  68.977  1.00  0.00    -0.151 OA 
HETATM   16  H   UNL     1      -9.832   3.755  71.607  1.00  0.00     0.000 HD 
HETATM   17  C   UNL     1     -10.162   5.857  71.431  1.00  0.00    -0.211 A  
HETATM   18  C   UNL     1     -10.452   6.253  72.717  1.00  0.00    -0.236 A  
HETATM   19  C   UNL     1     -10.719   7.605  72.919  1.00  0.00    -0.428 A  
HETATM   20  C   UNL     1     -10.684   8.515  71.845  1.00  0.00    -0.394 A  
ENDBRANCH   9  10
ENDBRANCH   8   9
ENDBRANCH   4   8
ENDBRANCH   3   4
ENDBRANCH   2   3
TORSDOF 7
ENDMDL
MODEL      243
REMARK 921   NORMALIZED FREE ENERGY PREDICTED BY IDOCK:   -3.38 KCAL/MOL
REMARK 922        TOTAL FREE ENERGY PREDICTED BY IDOCK:   -5.65 KCAL/MOL
REMARK 923 INTER-LIGAND FREE ENERGY PREDICTED BY IDOCK:   -5.02 KCAL/MOL
REMARK 924 INTRA-LIGAND FREE ENERGY PREDICTED BY IDOCK:   -0.63 KCAL/MOL
REMARK 927      BINDING AFFINITY PREDICTED BY RF-SCORE:    0.00 PKD
ROOT
HETATM    1  C   UNL     1     -10.927  15.541  67.740  1.00  0.00    -0.317 C  
HETATM    2  C   UNL     1     -10.909  14.919  66.353  1.00  0.00    -0.325 C  
ENDROOT
BRANCH   2   3
HETATM    3  C   UNL     1     -10.087  13.624  66.260  1.00  0.00    -0.299 C  
BRANCH   3   4
HETATM    4  N   UNL     1     -10.719  12.376  66.745  1.00  0.00    -0.230 NA 
BRANCH   4   5
HETATM    5  C   UNL     1     -11.625  11.805  65.724  1.00  0.00    -0.125 C  
BRANCH   5   6
HETATM    6  C   UNL     1     -11.140  11.890  64.264  1.00  0.00    -0.418 C  
HETATM    7  C   UNL     1     -12.123  12.591  63.338  1.00  0.00    -0.621 C  
ENDBRANCH   5   6
ENDBRANCH   4   5
BRANCH   4   8
HETATM    8  C   UNL     1      -9.669  11.395  67.124  1.00  0.00    -0.182 C  
BRANCH   8   9
HETATM    9  C   UNL     1      -9.366  11.250  68.633  1.00  0.00    -0.167 C  
BRANCH   9  10
HETATM   10  C   UNL     1     -10.389  10.461  69.411  1.00  0.00    -0.259 A  
HETATM   11  C   UNL     1     -10.311   9.081  69.560  1.00  0.00    -0.211 A  
HETATM   12  C   UNL     1      -9.294   8.099  69.048  1.00  0.00    -0.147 C  
HETATM   13  C   UNL     1      -9.814   6.767  69.591  1.00  0.00    -0.165 C  
HETATM   14  N   UNL     1     -10.979   7.032  70.298  1.00  0.00    -0.260 N  
HETATM   15  O   UNL     1      -9.308   5.668  69.434  1.00  0.00    -0.122 OA 
HETATM   16  H   UNL     1     -11.541   6.322  70.768  1.00  0.00     0.000 HD 
HETATM   17  C   UNL     1     -11.282   8.384  70.282  1.00  0.00    -0.173 A  
HETATM   18  C   UNL     1     -12.359   9.000  70.878  1.00  0.00    -0.159 A  
HETATM   19  C   UNL     1     -12.461  10.382  70.730  1.00  0.00    -0.461 A  
HETATM   20  C   UNL     1     -11.494  11.102  70.003  1.00  0.00    -0.376 A  
ENDBRANCH   9  10
ENDBRANCH   8   9
ENDBRANCH   4   8
ENDBRANCH   3   4
ENDBRANCH   2   3
TORSDOF 7
ENDMDL
MODEL      244
REMARK 921   NORMALIZED FREE ENERGY PREDICTED BY IDOCK:   -3.37 KCAL/MOL
REMARK 922        TOTAL FREE ENERGY PREDICTED BY IDOCK:   -5.63 KCAL/MOL
REMARK 923 INTER-LIGAND FREE ENERGY PREDICTED BY IDOCK:   -4.93 KCAL/MOL
REMARK 924 INTRA-LIGAND FREE ENERGY PREDICTED BY IDOCK:   -0.70 KCAL/MOL
REMARK 927      BINDING AFFINITY PREDICTED BY RF-SCORE:    0.00 PKD
ROOT
HETATM    1  C   UNL     1     -13.264  12.384  72.014  1.00  0.00    -0.514 C  
HETATM    2  C   UNL     1     -12.801  11.074  71.398  1.00  0.00    -0.548 C  
ENDROOT
BRANCH   2   3
HETATM    3  C   UNL     1     -13.126  10.938  69.902  1.00  0.00     0.393 C  
BRANCH   3   4
HETATM    4  N   UNL     1     -12.046  11.240  68.937  1.00  0.00    -0.502 NA 
BRANCH   4   5
HETATM    5  C   UNL     1     -12.159  12.624  68.425  1.00  0.00    -0.087 C  
BRANCH   5   6
HETATM    6  C   UNL     1     -11.411  13.706  69.226  1.00  0.00    -0.323 C  
HETATM    7  C   UNL     1     -10.568  14.629  68.359  1.00  0.00    -0.241 C  
ENDBRANCH   5   6
ENDBRANCH   4   5
BRANCH   4   8
HETATM    8  C   UNL     1     -10.723  11.024  69.578  1.00  0.00    -0.183 C  
BRANCH   8   9
HETATM    9  C   UNL     1      -9.658  10.280  68.740  1.00  0.00    -0.175 C  
BRANCH   9  10
HETATM   10  C   UNL     1     -10.055   8.895  68.297  1.00  0.00    -0.219 A  
HETATM   11  C   UNL     1     -10.487   7.921  69.190  1.00  0.00    -0.218 A  
HETATM   12  C   UNL     1     -10.664   7.974  70.683  1.00  0.00    -0.235 C  
HETATM   13  C   UNL     1     -11.175   6.569  71.008  1.00  0.00    -0.309 C  
HETATM   14  N   UNL     1     -11.245   5.865  69.814  1.00  0.00    -0.363 N  
HETATM   15  O   UNL     1     -11.467   6.137  72.111  1.00  0.00    -0.285 OA 
HETATM   16  H   UNL     1     -11.554   4.896  69.735  1.00  0.00     0.000 HD 
HETATM   17  C   UNL     1     -10.840   6.646  68.743  1.00  0.00    -0.267 A  
HETATM   18  C   UNL     1     -10.782   6.274  67.419  1.00  0.00    -0.409 A  
HETATM   19  C   UNL     1     -10.340   7.232  66.510  1.00  0.00    -0.104 A  
HETATM   20  C   UNL     1      -9.977   8.522  66.941  1.00  0.00    -0.335 A  
ENDBRANCH   9  10
ENDBRANCH   8   9
ENDBRANCH   4   8
ENDBRANCH   3   4
ENDBRANCH   2   3
TORSDOF 7
ENDMDL
MODEL      245
REMARK 921   NORMALIZED FREE ENERGY PREDICTED BY IDOCK:   -3.36 KCAL/MOL
REMARK 922        TOTAL FREE ENERGY PREDICTED BY IDOCK:   -5.62 KCAL/MOL
REMARK 923 INTER-LIGAND FREE ENERGY PREDICTED BY IDOCK:   -5.04 KCAL/MOL
REMARK 924 INTRA-LIGAND FREE ENERGY PREDICTED BY IDOCK:   -0.57 KCAL/MOL
REMARK 927      BINDING AFFINITY PREDICTED BY RF-SCORE:    0.00 PKD
ROOT
HETATM    1  C   UNL     1     -10.855  19.157  67.840  1.00  0.00    -0.302 C  
HETATM    2  C   UNL     1      -9.917  17.962  67.894  1.00  0.00    -0.329 C  
ENDROOT
BRANCH   2   3
HETATM    3  C   UNL     1     -10.360  16.781  67.017  1.00  0.00    -0.300 C  
BRANCH   3   4
HETATM    4  N   UNL     1      -9.403  16.286  66.002  1.00  0.00    -0.382 NA 
BRANCH   4   5
HETATM    5  C   UNL     1      -8.330  15.481  66.629  1.00  0.00    -0.251 C  
BRANCH   5   6
HETATM    6  C   UNL     1      -7.024  16.229  66.955  1.00  0.00    -0.250 C  
HETATM    7  C   UNL     1      -6.072  15.434  67.836  1.00  0.00    -0.166 C  
ENDBRANCH   5   6
ENDBRANCH   4   5
BRANCH   4   8
HETATM    8  C   UNL     1     -10.124  15.490  64.975  1.00  0.00    -0.128 C  
BRANCH   8   9
HETATM    9  C   UNL     1     -11.196  14.502  65.489  1.00  0.00    -0.335 C  
BRANCH   9  10
HETATM   10  C   UNL     1     -10.839  13.045  65.336  1.00  0.00    -0.304 A  
HETATM   11  C   UNL     1     -10.525  12.236  66.423  1.00  0.00    -0.263 A  
HETATM   12  C   UNL     1     -10.464  12.553  67.892  1.00  0.00    -0.226 C  
HETATM   13  C   UNL     1     -10.070  11.209  68.506  1.00  0.00    -0.201 C  
HETATM   14  N   UNL     1      -9.932  10.299  67.466  1.00  0.00    -0.182 N  
HETATM   15  O   UNL     1      -9.901  10.970  69.691  1.00  0.00     0.040 OA 
HETATM   16  H   UNL     1      -9.673   9.321  67.588  1.00  0.00     0.000 HD 
HETATM   17  C   UNL     1     -10.192  10.892  66.241  1.00  0.00    -0.247 A  
HETATM   18  C   UNL     1     -10.150  10.291  65.003  1.00  0.00    -0.353 A  
HETATM   19  C   UNL     1     -10.451  11.089  63.900  1.00  0.00    -0.422 A  
HETATM   20  C   UNL     1     -10.786  12.447  64.063  1.00  0.00    -0.441 A  
ENDBRANCH   9  10
ENDBRANCH   8   9
ENDBRANCH   4   8
ENDBRANCH   3   4
ENDBRANCH   2   3
TORSDOF 7
ENDMDL
MODEL      246
REMARK 921   NORMALIZED FREE ENERGY PREDICTED BY IDOCK:   -3.35 KCAL/MOL
REMARK 922        TOTAL FREE ENERGY PREDICTED BY IDOCK:   -5.60 KCAL/MOL
REMARK 923 INTER-LIGAND FREE ENERGY PREDICTED BY IDOCK:   -4.71 KCAL/MOL
REMARK 924 INTRA-LIGAND FREE ENERGY PREDICTED BY IDOCK:   -0.89 KCAL/MOL
REMARK 927      BINDING AFFINITY PREDICTED BY RF-SCORE:    0.00 PKD
ROOT
HETATM    1  C   UNL     1     -10.556   5.545  66.499  1.00  0.00    -0.343 C  
HETATM    2  C   UNL     1      -9.197   6.226  66.460  1.00  0.00    -0.169 C  
ENDROOT
BRANCH   2   3
HETATM    3  C   UNL     1      -9.044   7.374  67.469  1.00  0.00    -0.125 C  
BRANCH   3   4
HETATM    4  N   UNL     1      -8.281   7.099  68.707  1.00  0.00    -0.121 NA 
BRANCH   4   5
HETATM    5  C   UNL     1      -6.996   7.833  68.716  1.00  0.00    -0.067 C  
BRANCH   5   6
HETATM    6  C   UNL     1      -7.051   9.290  69.211  1.00  0.00    -0.057 C  
HETATM    7  C   UNL     1      -6.719  10.312  68.134  1.00  0.00    -0.058 C  
ENDBRANCH   5   6
ENDBRANCH   4   5
BRANCH   4   8
HETATM    8  C   UNL     1      -9.100   7.460  69.894  1.00  0.00    -0.141 C  
BRANCH   8   9
HETATM    9  C   UNL     1     -10.635   7.394  69.724  1.00  0.00    -0.245 C  
BRANCH   9  10
HETATM   10  C   UNL     1     -11.396   8.500  70.409  1.00  0.00    -0.193 A  
HETATM   11  C   UNL     1     -11.307   9.828  70.007  1.00  0.00    -0.269 A  
HETATM   12  C   UNL     1     -10.515  10.461  68.895  1.00  0.00    -0.232 C  
HETATM   13  C   UNL     1     -10.894  11.938  69.016  1.00  0.00    -0.190 C  
HETATM   14  N   UNL     1     -11.777  12.056  70.082  1.00  0.00    -0.511 N  
HETATM   15  O   UNL     1     -10.496  12.852  68.314  1.00  0.00    -0.229 OA 
HETATM   16  H   UNL     1     -12.191  12.935  70.391  1.00  0.00     0.000 HD 
HETATM   17  C   UNL     1     -12.022  10.826  70.672  1.00  0.00    -0.367 A  
HETATM   18  C   UNL     1     -12.842  10.570  71.748  1.00  0.00    -0.559 A  
HETATM   19  C   UNL     1     -12.936   9.247  72.173  1.00  0.00    -0.503 A  
HETATM   20  C   UNL     1     -12.221   8.227  71.517  1.00  0.00    -0.334 A  
ENDBRANCH   9  10
ENDBRANCH   8   9
ENDBRANCH   4   8
ENDBRANCH   3   4
ENDBRANCH   2   3
TORSDOF 7
ENDMDL
MODEL      247
REMARK 921   NORMALIZED FREE ENERGY PREDICTED BY IDOCK:   -3.35 KCAL/MOL
REMARK 922        TOTAL FREE ENERGY PREDICTED BY IDOCK:   -5.60 KCAL/MOL
REMARK 923 INTER-LIGAND FREE ENERGY PREDICTED BY IDOCK:   -4.63 KCAL/MOL
REMARK 924 INTRA-LIGAND FREE ENERGY PREDICTED BY IDOCK:   -0.97 KCAL/MOL
REMARK 927      BINDING AFFINITY PREDICTED BY RF-SCORE:    0.00 PKD
ROOT
HETATM    1  C   UNL     1      -6.290   8.367  73.255  1.00  0.00    -0.115 C  
HETATM    2  C   UNL     1      -7.287   8.014  72.163  1.00  0.00    -0.102 C  
ENDROOT
BRANCH   2   3
HETATM    3  C   UNL     1      -6.673   7.943  70.756  1.00  0.00    -0.037 C  
BRANCH   3   4
HETATM    4  N   UNL     1      -6.852   9.115  69.871  1.00  0.00    -0.049 NA 
BRANCH   4   5
HETATM    5  C   UNL     1      -6.994   8.700  68.458  1.00  0.00    -0.065 C  
BRANCH   5   6
HETATM    6  C   UNL     1      -6.797   7.200  68.169  1.00  0.00    -0.074 C  
HETATM    7  C   UNL     1      -8.098   6.456  67.906  1.00  0.00    -0.115 C  
ENDBRANCH   5   6
ENDBRANCH   4   5
BRANCH   4   8
HETATM    8  C   UNL     1      -8.035   9.901  70.309  1.00  0.00    -0.109 C  
BRANCH   8   9
HETATM    9  C   UNL     1      -9.328   9.729  69.479  1.00  0.00    -0.226 C  
BRANCH   9  10
HETATM   10  C   UNL     1     -10.607   9.848  70.267  1.00  0.00    -0.359 A  
HETATM   11  C   UNL     1     -11.151   8.779  70.972  1.00  0.00    -0.328 A  
HETATM   12  C   UNL     1     -10.664   7.365  71.131  1.00  0.00    -0.246 C  
HETATM   13  C   UNL     1     -11.730   6.746  72.037  1.00  0.00    -0.306 C  
HETATM   14  N   UNL     1     -12.670   7.732  72.308  1.00  0.00    -0.514 N  
HETATM   15  O   UNL     1     -11.760   5.598  72.448  1.00  0.00    -0.277 OA 
HETATM   16  H   UNL     1     -13.496   7.594  72.890  1.00  0.00     0.000 HD 
HETATM   17  C   UNL     1     -12.343   8.926  71.685  1.00  0.00    -0.343 A  
HETATM   18  C   UNL     1     -13.046  10.108  71.735  1.00  0.00    -0.568 A  
HETATM   19  C   UNL     1     -12.524  11.187  71.025  1.00  0.00    -0.506 A  
HETATM   20  C   UNL     1     -11.325  11.059  70.297  1.00  0.00    -0.291 A  
ENDBRANCH   9  10
ENDBRANCH   8   9
ENDBRANCH   4   8
ENDBRANCH   3   4
ENDBRANCH   2   3
TORSDOF 7
ENDMDL
MODEL      248
REMARK 921   NORMALIZED FREE ENERGY PREDICTED BY IDOCK:   -3.35 KCAL/MOL
REMARK 922        TOTAL FREE ENERGY PREDICTED BY IDOCK:   -5.60 KCAL/MOL
REMARK 923 INTER-LIGAND FREE ENERGY PREDICTED BY IDOCK:   -4.91 KCAL/MOL
REMARK 924 INTRA-LIGAND FREE ENERGY PREDICTED BY IDOCK:   -0.69 KCAL/MOL
REMARK 927      BINDING AFFINITY PREDICTED BY RF-SCORE:    0.00 PKD
ROOT
HETATM    1  C   UNL     1      -7.968   8.266  65.147  1.00  0.00    -0.128 C  
HETATM    2  C   UNL     1      -9.209   8.518  65.989  1.00  0.00    -0.262 C  
ENDROOT
BRANCH   2   3
HETATM    3  C   UNL     1      -9.028   8.198  67.481  1.00  0.00    -0.137 C  
BRANCH   3   4
HETATM    4  N   UNL     1      -9.832   7.093  68.047  1.00  0.00    -0.135 NA 
BRANCH   4   5
HETATM    5  C   UNL     1     -10.700   6.482  67.016  1.00  0.00    -0.364 C  
BRANCH   5   6
HETATM    6  C   UNL     1     -10.525   4.968  66.793  1.00  0.00    -0.273 C  
HETATM    7  C   UNL     1      -9.828   4.623  65.485  1.00  0.00    -0.198 C  
ENDBRANCH   5   6
ENDBRANCH   4   5
BRANCH   4   8
HETATM    8  C   UNL     1      -8.935   6.074  68.649  1.00  0.00    -0.118 C  
BRANCH   8   9
HETATM    9  C   UNL     1      -9.449   5.361  69.921  1.00  0.00    -0.210 C  
BRANCH   9  10
HETATM   10  C   UNL     1      -9.606   6.252  71.127  1.00  0.00    -0.190 A  
HETATM   11  C   UNL     1     -10.821   6.835  71.471  1.00  0.00    -0.265 A  
HETATM   12  C   UNL     1     -12.169   6.745  70.811  1.00  0.00    -0.353 C  
HETATM   13  C   UNL     1     -13.042   7.615  71.718  1.00  0.00    -0.323 C  
HETATM   14  N   UNL     1     -12.230   8.109  72.730  1.00  0.00    -0.611 N  
HETATM   15  O   UNL     1     -14.233   7.842  71.583  1.00  0.00    -0.412 OA 
HETATM   16  H   UNL     1     -12.552   8.722  73.478  1.00  0.00     0.000 HD 
HETATM   17  C   UNL     1     -10.925   7.662  72.592  1.00  0.00    -0.351 A  
HETATM   18  C   UNL     1      -9.858   7.952  73.411  1.00  0.00    -0.298 A  
HETATM   19  C   UNL     1      -8.629   7.387  73.076  1.00  0.00    -0.165 A  
HETATM   20  C   UNL     1      -8.503   6.553  71.949  1.00  0.00    -0.119 A  
ENDBRANCH   9  10
ENDBRANCH   8   9
ENDBRANCH   4   8
ENDBRANCH   3   4
ENDBRANCH   2   3
TORSDOF 7
ENDMDL
MODEL      249
REMARK 921   NORMALIZED FREE ENERGY PREDICTED BY IDOCK:   -3.33 KCAL/MOL
REMARK 922        TOTAL FREE ENERGY PREDICTED BY IDOCK:   -5.58 KCAL/MOL
REMARK 923 INTER-LIGAND FREE ENERGY PREDICTED BY IDOCK:   -4.95 KCAL/MOL
REMARK 924 INTRA-LIGAND FREE ENERGY PREDICTED BY IDOCK:   -0.63 KCAL/MOL
REMARK 927      BINDING AFFINITY PREDICTED BY RF-SCORE:    0.00 PKD
ROOT
HETATM    1  C   UNL     1     -10.158   5.949  66.749  1.00  0.00    -0.235 C  
HETATM    2  C   UNL     1      -9.894   6.100  68.238  1.00  0.00    -0.138 C  
ENDROOT
BRANCH   2   3
HETATM    3  C   UNL     1     -11.168   6.222  69.089  1.00  0.00    -0.371 C  
BRANCH   3   4
HETATM    4  N   UNL     1     -11.315   7.430  69.932  1.00  0.00    -0.142 NA 
BRANCH   4   5
HETATM    5  C   UNL     1     -11.593   7.067  71.339  1.00  0.00    -0.292 C  
BRANCH   5   6
HETATM    6  C   UNL     1     -13.075   6.861  71.706  1.00  0.00    -0.302 C  
HETATM    7  C   UNL     1     -13.909   8.129  71.601  1.00  0.00    -0.434 C  
ENDBRANCH   5   6
ENDBRANCH   4   5
BRANCH   4   8
HETATM    8  C   UNL     1     -10.088   8.263  69.837  1.00  0.00    -0.195 C  
BRANCH   8   9
HETATM    9  C   UNL     1     -10.282   9.795  69.908  1.00  0.00    -0.291 C  
BRANCH   9  10
HETATM   10  C   UNL     1      -9.491  10.581  68.894  1.00  0.00    -0.199 A  
HETATM   11  C   UNL     1     -10.089  11.228  67.819  1.00  0.00    -0.199 A  
HETATM   12  C   UNL     1     -11.535  11.317  67.414  1.00  0.00    -0.300 C  
HETATM   13  C   UNL     1     -11.476  12.185  66.156  1.00  0.00    -0.371 C  
HETATM   14  N   UNL     1     -10.142  12.501  65.930  1.00  0.00    -0.252 N  
HETATM   15  O   UNL     1     -12.420  12.537  65.468  1.00  0.00    -0.646 OA 
HETATM   16  H   UNL     1      -9.810  13.071  65.152  1.00  0.00     0.000 HD 
HETATM   17  C   UNL     1      -9.321  11.941  66.896  1.00  0.00    -0.196 A  
HETATM   18  C   UNL     1      -7.952  12.047  66.984  1.00  0.00    -0.150 A  
HETATM   19  C   UNL     1      -7.332  11.396  68.048  1.00  0.00    -0.090 A  
HETATM   20  C   UNL     1      -8.089  10.669  68.987  1.00  0.00    -0.148 A  
ENDBRANCH   9  10
ENDBRANCH   8   9
ENDBRANCH   4   8
ENDBRANCH   3   4
ENDBRANCH   2   3
TORSDOF 7
ENDMDL
MODEL      250
REMARK 921   NORMALIZED FREE ENERGY PREDICTED BY IDOCK:   -3.32 KCAL/MOL
REMARK 922        TOTAL FREE ENERGY PREDICTED BY IDOCK:   -5.57 KCAL/MOL
REMARK 923 INTER-LIGAND FREE ENERGY PREDICTED BY IDOCK:   -4.62 KCAL/MOL
REMARK 924 INTRA-LIGAND FREE ENERGY PREDICTED BY IDOCK:   -0.95 KCAL/MOL
REMARK 927      BINDING AFFINITY PREDICTED BY RF-SCORE:    0.00 PKD
ROOT
HETATM    1  C   UNL     1      -8.106   5.620  67.388  1.00  0.00    -0.102 C  
HETATM    2  C   UNL     1      -8.859   6.819  66.834  1.00  0.00    -0.120 C  
ENDROOT
BRANCH   2   3
HETATM    3  C   UNL     1      -8.772   8.074  67.717  1.00  0.00    -0.127 C  
BRANCH   3   4
HETATM    4  N   UNL     1     -10.044   8.695  68.150  1.00  0.00    -0.189 NA 
BRANCH   4   5
HETATM    5  C   UNL     1      -9.808   9.734  69.176  1.00  0.00    -0.188 C  
BRANCH   5   6
HETATM    6  C   UNL     1     -11.031  10.149  70.016  1.00  0.00    -0.364 C  
HETATM    7  C   UNL     1     -11.703  11.422  69.523  1.00  0.00    -0.417 C  
ENDBRANCH   5   6
ENDBRANCH   4   5
BRANCH   4   8
HETATM    8  C   UNL     1     -10.750   9.268  66.975  1.00  0.00    -0.129 C  
BRANCH   8   9
HETATM    9  C   UNL     1      -9.923  10.192  66.051  1.00  0.00    -0.322 C  
BRANCH   9  10
HETATM   10  C   UNL     1     -10.364  11.633  66.037  1.00  0.00    -0.283 A  
HETATM   11  C   UNL     1      -9.577  12.659  66.549  1.00  0.00    -0.248 A  
HETATM   12  C   UNL     1      -8.215  12.621  67.185  1.00  0.00    -0.159 C  
HETATM   13  C   UNL     1      -7.953  14.096  67.499  1.00  0.00    -0.188 C  
HETATM   14  N   UNL     1      -9.064  14.815  67.079  1.00  0.00    -0.226 N  
HETATM   15  O   UNL     1      -6.956  14.563  68.024  1.00  0.00    -0.110 OA 
HETATM   16  H   UNL     1      -9.161  15.826  67.168  1.00  0.00     0.000 HD 
HETATM   17  C   UNL     1     -10.024  13.982  66.526  1.00  0.00    -0.284 A  
HETATM   18  C   UNL     1     -11.245  14.352  66.010  1.00  0.00    -0.333 A  
HETATM   19  C   UNL     1     -12.053  13.337  65.503  1.00  0.00    -0.480 A  
HETATM   20  C   UNL     1     -11.622  11.996  65.520  1.00  0.00    -0.352 A  
ENDBRANCH   9  10
ENDBRANCH   8   9
ENDBRANCH   4   8
ENDBRANCH   3   4
ENDBRANCH   2   3
TORSDOF 7
ENDMDL
MODEL      251
REMARK 921   NORMALIZED FREE ENERGY PREDICTED BY IDOCK:   -3.32 KCAL/MOL
REMARK 922        TOTAL FREE ENERGY PREDICTED BY IDOCK:   -5.56 KCAL/MOL
REMARK 923 INTER-LIGAND FREE ENERGY PREDICTED BY IDOCK:   -5.01 KCAL/MOL
REMARK 924 INTRA-LIGAND FREE ENERGY PREDICTED BY IDOCK:   -0.55 KCAL/MOL
REMARK 927      BINDING AFFINITY PREDICTED BY RF-SCORE:    0.00 PKD
ROOT
HETATM    1  C   UNL     1      -7.982   9.620  64.960  1.00  0.00    -0.122 C  
HETATM    2  C   UNL     1      -9.374  10.228  64.899  1.00  0.00    -0.306 C  
ENDROOT
BRANCH   2   3
HETATM    3  C   UNL     1      -9.780  10.990  66.169  1.00  0.00    -0.217 C  
BRANCH   3   4
HETATM    4  N   UNL     1     -10.379  12.333  66.000  1.00  0.00    -0.240 NA 
BRANCH   4   5
HETATM    5  C   UNL     1     -11.851  12.282  66.141  1.00  0.00    -0.329 C  
BRANCH   5   6
HETATM    6  C   UNL     1     -12.665  12.852  64.964  1.00  0.00    -0.474 C  
HETATM    7  C   UNL     1     -12.238  12.306  63.609  1.00  0.00    -0.665 C  
ENDBRANCH   5   6
ENDBRANCH   4   5
BRANCH   4   8
HETATM    8  C   UNL     1      -9.790  13.275  66.986  1.00  0.00    -0.242 C  
BRANCH   8   9
HETATM    9  C   UNL     1      -8.247  13.296  67.090  1.00  0.00    -0.123 C  
BRANCH   9  10
HETATM   10  C   UNL     1      -7.684  14.417  67.927  1.00  0.00    -0.152 A  
HETATM   11  C   UNL     1      -7.727  15.746  67.520  1.00  0.00    -0.186 A  
HETATM   12  C   UNL     1      -8.291  16.368  66.272  1.00  0.00    -0.362 C  
HETATM   13  C   UNL     1      -8.010  17.856  66.486  1.00  0.00    -0.270 C  
HETATM   14  N   UNL     1      -7.362  17.987  67.707  1.00  0.00    -0.210 N  
HETATM   15  O   UNL     1      -8.295  18.768  65.728  1.00  0.00    -0.452 OA 
HETATM   16  H   UNL     1      -7.054  18.875  68.103  1.00  0.00     0.000 HD 
HETATM   17  C   UNL     1      -7.187  16.756  68.319  1.00  0.00    -0.173 A  
HETATM   18  C   UNL     1      -6.586  16.510  69.533  1.00  0.00    -0.217 A  
HETATM   19  C   UNL     1      -6.522  15.183  69.953  1.00  0.00    -0.171 A  
HETATM   20  C   UNL     1      -7.058  14.150  69.160  1.00  0.00    -0.099 A  
ENDBRANCH   9  10
ENDBRANCH   8   9
ENDBRANCH   4   8
ENDBRANCH   3   4
ENDBRANCH   2   3
TORSDOF 7
ENDMDL
MODEL      252
REMARK 921   NORMALIZED FREE ENERGY PREDICTED BY IDOCK:   -3.32 KCAL/MOL
REMARK 922        TOTAL FREE ENERGY PREDICTED BY IDOCK:   -5.55 KCAL/MOL
REMARK 923 INTER-LIGAND FREE ENERGY PREDICTED BY IDOCK:   -5.33 KCAL/MOL
REMARK 924 INTRA-LIGAND FREE ENERGY PREDICTED BY IDOCK:   -0.22 KCAL/MOL
REMARK 927      BINDING AFFINITY PREDICTED BY RF-SCORE:    0.00 PKD
ROOT
HETATM    1  C   UNL     1     -12.890  13.903  65.468  1.00  0.00    -0.471 C  
HETATM    2  C   UNL     1     -11.718  14.199  64.545  1.00  0.00    -0.426 C  
ENDROOT
BRANCH   2   3
HETATM    3  C   UNL     1     -10.470  13.349  64.829  1.00  0.00    -0.403 C  
BRANCH   3   4
HETATM    4  N   UNL     1     -10.678  11.989  65.375  1.00  0.00    -0.278 NA 
BRANCH   4   5
HETATM    5  C   UNL     1     -10.587  10.966  64.309  1.00  0.00    -0.266 C  
BRANCH   5   6
HETATM    6  C   UNL     1     -10.096  11.460  62.936  1.00  0.00    -0.249 C  
HETATM    7  C   UNL     1      -8.732  10.912  62.545  1.00  0.00    -0.332 C  
ENDBRANCH   5   6
ENDBRANCH   4   5
BRANCH   4   8
HETATM    8  C   UNL     1      -9.684  11.720  66.447  1.00  0.00    -0.214 C  
BRANCH   8   9
HETATM    9  C   UNL     1      -8.802  10.461  66.275  1.00  0.00    -0.166 C  
BRANCH   9  10
HETATM   10  C   UNL     1      -9.394   9.193  66.835  1.00  0.00    -0.199 A  
HETATM   11  C   UNL     1      -9.984   9.136  68.093  1.00  0.00    -0.206 A  
HETATM   12  C   UNL     1     -10.179  10.208  69.130  1.00  0.00    -0.229 C  
HETATM   13  C   UNL     1     -10.901   9.459  70.252  1.00  0.00    -0.258 C  
HETATM   14  N   UNL     1     -11.052   8.141  69.842  1.00  0.00    -0.416 N  
HETATM   15  O   UNL     1     -11.275   9.924  71.315  1.00  0.00    -0.361 OA 
HETATM   16  H   UNL     1     -11.502   7.414  70.399  1.00  0.00     0.000 HD 
HETATM   17  C   UNL     1     -10.514   7.940  68.581  1.00  0.00    -0.167 A  
HETATM   18  C   UNL     1     -10.488   6.762  67.868  1.00  0.00    -0.265 A  
HETATM   19  C   UNL     1      -9.890   6.796  66.610  1.00  0.00    -0.214 A  
HETATM   20  C   UNL     1      -9.347   7.992  66.102  1.00  0.00    -0.212 A  
ENDBRANCH   9  10
ENDBRANCH   8   9
ENDBRANCH   4   8
ENDBRANCH   3   4
ENDBRANCH   2   3
TORSDOF 7
ENDMDL
MODEL      253
REMARK 921   NORMALIZED FREE ENERGY PREDICTED BY IDOCK:   -3.30 KCAL/MOL
REMARK 922        TOTAL FREE ENERGY PREDICTED BY IDOCK:   -5.53 KCAL/MOL
REMARK 923 INTER-LIGAND FREE ENERGY PREDICTED BY IDOCK:   -5.89 KCAL/MOL
REMARK 924 INTRA-LIGAND FREE ENERGY PREDICTED BY IDOCK:    0.36 KCAL/MOL
REMARK 927      BINDING AFFINITY PREDICTED BY RF-SCORE:    0.00 PKD
ROOT
HETATM    1  C   UNL     1      -7.735  17.611  68.815  1.00  0.00    -0.246 C  
HETATM    2  C   UNL     1      -7.900  16.150  69.203  1.00  0.00    -0.232 C  
ENDROOT
BRANCH   2   3
HETATM    3  C   UNL     1      -9.362  15.712  69.378  1.00  0.00    -0.279 C  
BRANCH   3   4
HETATM    4  N   UNL     1     -10.354  16.236  68.413  1.00  0.00    -0.259 NA 
BRANCH   4   5
HETATM    5  C   UNL     1      -9.878  16.077  67.021  1.00  0.00    -0.236 C  
BRANCH   5   6
HETATM    6  C   UNL     1     -10.269  17.198  66.039  1.00  0.00    -0.332 C  
HETATM    7  C   UNL     1     -10.936  16.689  64.770  1.00  0.00    -0.123 C  
ENDBRANCH   5   6
ENDBRANCH   4   5
BRANCH   4   8
HETATM    8  C   UNL     1     -11.657  15.546  68.605  1.00  0.00    -0.368 C  
BRANCH   8   9
HETATM    9  C   UNL     1     -11.635  14.242  69.434  1.00  0.00    -0.354 C  
BRANCH   9  10
HETATM   10  C   UNL     1     -11.363  12.990  68.639  1.00  0.00    -0.329 A  
HETATM   11  C   UNL     1     -11.672  12.882  67.288  1.00  0.00    -0.431 A  
HETATM   12  C   UNL     1     -12.292  13.877  66.345  1.00  0.00    -0.468 C  
HETATM   13  C   UNL     1     -12.329  13.105  65.025  1.00  0.00    -0.459 C  
HETATM   14  N   UNL     1     -11.795  11.845  65.263  1.00  0.00    -0.193 N  
HETATM   15  O   UNL     1     -12.750  13.512  63.955  1.00  0.00    -0.669 OA 
HETATM   16  H   UNL     1     -11.698  11.118  64.554  1.00  0.00     0.000 HD 
HETATM   17  C   UNL     1     -11.412  11.703  66.587  1.00  0.00    -0.206 A  
HETATM   18  C   UNL     1     -10.848  10.592  67.173  1.00  0.00    -0.319 A  
HETATM   19  C   UNL     1     -10.542  10.676  68.529  1.00  0.00    -0.229 A  
HETATM   20  C   UNL     1     -10.800  11.855  69.254  1.00  0.00    -0.157 A  
ENDBRANCH   9  10
ENDBRANCH   8   9
ENDBRANCH   4   8
ENDBRANCH   3   4
ENDBRANCH   2   3
TORSDOF 7
ENDMDL
MODEL      254
REMARK 921   NORMALIZED FREE ENERGY PREDICTED BY IDOCK:   -3.29 KCAL/MOL
REMARK 922        TOTAL FREE ENERGY PREDICTED BY IDOCK:   -5.52 KCAL/MOL
REMARK 923 INTER-LIGAND FREE ENERGY PREDICTED BY IDOCK:   -4.22 KCAL/MOL
REMARK 924 INTRA-LIGAND FREE ENERGY PREDICTED BY IDOCK:   -1.30 KCAL/MOL
REMARK 927      BINDING AFFINITY PREDICTED BY RF-SCORE:    0.00 PKD
ROOT
HETATM    1  C   UNL     1     -10.640   7.690  67.044  1.00  0.00    -0.406 C  
HETATM    2  C   UNL     1     -10.925   6.218  67.294  1.00  0.00    -0.455 C  
ENDROOT
BRANCH   2   3
HETATM    3  C   UNL     1      -9.689   5.313  67.172  1.00  0.00    -0.151 C  
BRANCH   3   4
HETATM    4  N   UNL     1      -9.439   4.346  68.264  1.00  0.00    -0.147 NA 
BRANCH   4   5
HETATM    5  C   UNL     1      -7.988   4.177  68.503  1.00  0.00    -0.073 C  
BRANCH   5   6
HETATM    6  C   UNL     1      -7.125   3.886  67.261  1.00  0.00    -0.063 C  
HETATM    7  C   UNL     1      -5.840   3.136  67.576  1.00  0.00    -0.023 C  
ENDBRANCH   5   6
ENDBRANCH   4   5
BRANCH   4   8
HETATM    8  C   UNL     1     -10.127   4.795  69.502  1.00  0.00    -0.190 C  
BRANCH   8   9
HETATM    9  C   UNL     1      -9.259   5.531  70.549  1.00  0.00    -0.179 C  
BRANCH   9  10
HETATM   10  C   UNL     1      -9.262   7.034  70.430  1.00  0.00    -0.156 A  
HETATM   11  C   UNL     1     -10.298   7.820  70.923  1.00  0.00    -0.208 A  
HETATM   12  C   UNL     1     -11.563   7.432  71.638  1.00  0.00    -0.302 C  
HETATM   13  C   UNL     1     -12.228   8.785  71.898  1.00  0.00    -0.361 C  
HETATM   14  N   UNL     1     -11.400   9.764  71.365  1.00  0.00    -0.367 N  
HETATM   15  O   UNL     1     -13.291   8.979  72.464  1.00  0.00    -0.453 OA 
HETATM   16  H   UNL     1     -11.600  10.764  71.394  1.00  0.00     0.000 HD 
HETATM   17  C   UNL     1     -10.269   9.209  70.788  1.00  0.00    -0.260 A  
HETATM   18  C   UNL     1      -9.239   9.880  70.168  1.00  0.00    -0.184 A  
HETATM   19  C   UNL     1      -8.197   9.110  69.657  1.00  0.00    -0.116 A  
HETATM   20  C   UNL     1      -8.210   7.707  69.781  1.00  0.00    -0.131 A  
ENDBRANCH   9  10
ENDBRANCH   8   9
ENDBRANCH   4   8
ENDBRANCH   3   4
ENDBRANCH   2   3
TORSDOF 7
ENDMDL
MODEL      255
REMARK 921   NORMALIZED FREE ENERGY PREDICTED BY IDOCK:   -3.28 KCAL/MOL
REMARK 922        TOTAL FREE ENERGY PREDICTED BY IDOCK:   -5.51 KCAL/MOL
REMARK 923 INTER-LIGAND FREE ENERGY PREDICTED BY IDOCK:   -4.71 KCAL/MOL
REMARK 924 INTRA-LIGAND FREE ENERGY PREDICTED BY IDOCK:   -0.80 KCAL/MOL
REMARK 927      BINDING AFFINITY PREDICTED BY RF-SCORE:    0.00 PKD
ROOT
HETATM    1  C   UNL     1     -10.818   2.603  73.176  1.00  0.00    -0.244 C  
HETATM    2  C   UNL     1     -10.645   4.113  73.190  1.00  0.00    -0.262 C  
ENDROOT
BRANCH   2   3
HETATM    3  C   UNL     1      -9.183   4.573  73.308  1.00  0.00    -0.114 C  
BRANCH   3   4
HETATM    4  N   UNL     1      -8.659   5.465  72.250  1.00  0.00    -0.125 NA 
BRANCH   4   5
HETATM    5  C   UNL     1      -8.739   4.820  70.920  1.00  0.00    -0.111 C  
BRANCH   5   6
HETATM    6  C   UNL     1      -7.454   4.133  70.421  1.00  0.00    -0.045 C  
HETATM    7  C   UNL     1      -6.596   5.021  69.533  1.00  0.00    -0.040 C  
ENDBRANCH   5   6
ENDBRANCH   4   5
BRANCH   4   8
HETATM    8  C   UNL     1      -9.408   6.748  72.257  1.00  0.00    -0.138 C  
BRANCH   8   9
HETATM    9  C   UNL     1     -10.190   7.102  70.971  1.00  0.00    -0.205 C  
BRANCH   9  10
HETATM   10  C   UNL     1     -11.596   7.596  71.201  1.00  0.00    -0.301 A  
HETATM   11  C   UNL     1     -11.958   8.926  71.019  1.00  0.00    -0.307 A  
HETATM   12  C   UNL     1     -11.140  10.111  70.586  1.00  0.00    -0.397 C  
HETATM   13  C   UNL     1     -12.168  11.245  70.589  1.00  0.00    -0.393 C  
HETATM   14  N   UNL     1     -13.382  10.704  70.991  1.00  0.00    -0.172 N  
HETATM   15  O   UNL     1     -11.966  12.412  70.298  1.00  0.00    -0.349 OA 
HETATM   16  H   UNL     1     -14.246  11.238  71.084  1.00  0.00     0.000 HD 
HETATM   17  C   UNL     1     -13.270   9.348  71.250  1.00  0.00    -0.295 A  
HETATM   18  C   UNL     1     -14.268   8.496  71.666  1.00  0.00    -0.496 A  
HETATM   19  C   UNL     1     -13.922   7.162  71.865  1.00  0.00    -0.338 A  
HETATM   20  C   UNL     1     -12.604   6.718  71.640  1.00  0.00    -0.380 A  
ENDBRANCH   9  10
ENDBRANCH   8   9
ENDBRANCH   4   8
ENDBRANCH   3   4
ENDBRANCH   2   3
TORSDOF 7
ENDMDL
MODEL      256
REMARK 921   NORMALIZED FREE ENERGY PREDICTED BY IDOCK:   -3.27 KCAL/MOL
REMARK 922        TOTAL FREE ENERGY PREDICTED BY IDOCK:   -5.49 KCAL/MOL
REMARK 923 INTER-LIGAND FREE ENERGY PREDICTED BY IDOCK:   -4.85 KCAL/MOL
REMARK 924 INTRA-LIGAND FREE ENERGY PREDICTED BY IDOCK:   -0.64 KCAL/MOL
REMARK 927      BINDING AFFINITY PREDICTED BY RF-SCORE:    0.00 PKD
ROOT
HETATM    1  C   UNL     1     -11.988  13.338  68.186  1.00  0.00    -0.340 C  
HETATM    2  C   UNL     1     -11.306  12.713  66.979  1.00  0.00    -0.377 C  
ENDROOT
BRANCH   2   3
HETATM    3  C   UNL     1      -9.808  13.038  66.871  1.00  0.00    -0.240 C  
BRANCH   3   4
HETATM    4  N   UNL     1      -9.008  13.004  68.115  1.00  0.00    -0.196 NA 
BRANCH   4   5
HETATM    5  C   UNL     1      -8.145  11.803  68.163  1.00  0.00    -0.150 C  
BRANCH   5   6
HETATM    6  C   UNL     1      -7.935  11.066  66.826  1.00  0.00    -0.152 C  
HETATM    7  C   UNL     1      -8.363   9.607  66.864  1.00  0.00    -0.117 C  
ENDBRANCH   5   6
ENDBRANCH   4   5
BRANCH   4   8
HETATM    8  C   UNL     1      -8.192  14.241  68.223  1.00  0.00    -0.148 C  
BRANCH   8   9
HETATM    9  C   UNL     1      -8.856  15.452  68.918  1.00  0.00    -0.211 C  
BRANCH   9  10
HETATM   10  C   UNL     1      -8.030  16.713  68.921  1.00  0.00    -0.236 A  
HETATM   11  C   UNL     1      -8.437  17.873  68.272  1.00  0.00    -0.280 A  
HETATM   12  C   UNL     1      -9.682  18.164  67.479  1.00  0.00    -0.304 C  
HETATM   13  C   UNL     1      -9.484  19.625  67.071  1.00  0.00    -0.349 C  
HETATM   14  N   UNL     1      -8.264  20.040  67.588  1.00  0.00    -0.308 N  
HETATM   15  O   UNL     1     -10.249  20.307  66.410  1.00  0.00    -0.427 OA 
HETATM   16  H   UNL     1      -7.876  20.975  67.467  1.00  0.00     0.000 HD 
HETATM   17  C   UNL     1      -7.640  19.020  68.290  1.00  0.00    -0.297 A  
HETATM   18  C   UNL     1      -6.424  19.078  68.932  1.00  0.00    -0.290 A  
HETATM   19  C   UNL     1      -5.993  17.921  69.578  1.00  0.00    -0.244 A  
HETATM   20  C   UNL     1      -6.781  16.754  69.569  1.00  0.00    -0.181 A  
ENDBRANCH   9  10
ENDBRANCH   8   9
ENDBRANCH   4   8
ENDBRANCH   3   4
ENDBRANCH   2   3
TORSDOF 7
ENDMDL
MODEL      257
REMARK 921   NORMALIZED FREE ENERGY PREDICTED BY IDOCK:   -3.26 KCAL/MOL
REMARK 922        TOTAL FREE ENERGY PREDICTED BY IDOCK:   -5.48 KCAL/MOL
REMARK 923 INTER-LIGAND FREE ENERGY PREDICTED BY IDOCK:   -4.58 KCAL/MOL
REMARK 924 INTRA-LIGAND FREE ENERGY PREDICTED BY IDOCK:   -0.90 KCAL/MOL
REMARK 927      BINDING AFFINITY PREDICTED BY RF-SCORE:    0.00 PKD
ROOT
HETATM    1  C   UNL     1      -8.730   8.029  73.572  1.00  0.00    -0.330 C  
HETATM    2  C   UNL     1      -8.866   7.072  72.398  1.00  0.00    -0.141 C  
ENDROOT
BRANCH   2   3
HETATM    3  C   UNL     1     -10.229   6.368  72.322  1.00  0.00    -0.185 C  
BRANCH   3   4
HETATM    4  N   UNL     1     -10.959   6.426  71.036  1.00  0.00    -0.260 NA 
BRANCH   4   5
HETATM    5  C   UNL     1     -12.218   7.192  71.171  1.00  0.00    -0.365 C  
BRANCH   5   6
HETATM    6  C   UNL     1     -12.207   8.336  72.203  1.00  0.00    -0.418 C  
HETATM    7  C   UNL     1     -12.157   9.721  71.574  1.00  0.00    -0.493 C  
ENDBRANCH   5   6
ENDBRANCH   4   5
BRANCH   4   8
HETATM    8  C   UNL     1     -10.089   7.026  69.990  1.00  0.00    -0.187 C  
BRANCH   8   9
HETATM    9  C   UNL     1     -10.665   7.081  68.557  1.00  0.00    -0.219 C  
BRANCH   9  10
HETATM   10  C   UNL     1     -10.535   8.419  67.873  1.00  0.00    -0.255 A  
HETATM   11  C   UNL     1      -9.710   8.617  66.772  1.00  0.00    -0.298 A  
HETATM   12  C   UNL     1      -8.818   7.657  66.034  1.00  0.00    -0.186 C  
HETATM   13  C   UNL     1      -8.220   8.536  64.934  1.00  0.00    -0.165 C  
HETATM   14  N   UNL     1      -8.740   9.814  65.094  1.00  0.00    -0.156 N  
HETATM   15  O   UNL     1      -7.430   8.188  64.072  1.00  0.00    -0.100 OA 
HETATM   16  H   UNL     1      -8.509  10.607  64.495  1.00  0.00     0.000 HD 
HETATM   17  C   UNL     1      -9.609   9.873  66.170  1.00  0.00    -0.218 A  
HETATM   18  C   UNL     1     -10.302  10.976  66.618  1.00  0.00    -0.288 A  
HETATM   19  C   UNL     1     -11.125  10.800  67.728  1.00  0.00    -0.381 A  
HETATM   20  C   UNL     1     -11.238   9.542  68.350  1.00  0.00     0.067 A  
ENDBRANCH   9  10
ENDBRANCH   8   9
ENDBRANCH   4   8
ENDBRANCH   3   4
ENDBRANCH   2   3
TORSDOF 7
ENDMDL
MODEL      258
REMARK 921   NORMALIZED FREE ENERGY PREDICTED BY IDOCK:   -3.25 KCAL/MOL
REMARK 922        TOTAL FREE ENERGY PREDICTED BY IDOCK:   -5.46 KCAL/MOL
REMARK 923 INTER-LIGAND FREE ENERGY PREDICTED BY IDOCK:   -4.10 KCAL/MOL
REMARK 924 INTRA-LIGAND FREE ENERGY PREDICTED BY IDOCK:   -1.36 KCAL/MOL
REMARK 927      BINDING AFFINITY PREDICTED BY RF-SCORE:    0.00 PKD
ROOT
HETATM    1  C   UNL     1     -10.231  15.276  66.309  1.00  0.00    -0.300 C  
HETATM    2  C   UNL     1      -8.889  14.619  66.593  1.00  0.00    -0.240 C  
ENDROOT
BRANCH   2   3
HETATM    3  C   UNL     1      -8.890  13.708  67.831  1.00  0.00    -0.188 C  
BRANCH   3   4
HETATM    4  N   UNL     1      -8.863  12.246  67.604  1.00  0.00    -0.166 NA 
BRANCH   4   5
HETATM    5  C   UNL     1      -7.678  11.629  68.240  1.00  0.00    -0.128 C  
BRANCH   5   6
HETATM    6  C   UNL     1      -6.388  11.612  67.398  1.00  0.00    -0.100 C  
HETATM    7  C   UNL     1      -6.639  11.441  65.907  1.00  0.00     0.330 C  
ENDBRANCH   5   6
ENDBRANCH   4   5
BRANCH   4   8
HETATM    8  C   UNL     1     -10.115  11.634  68.121  1.00  0.00    -0.196 C  
BRANCH   8   9
HETATM    9  C   UNL     1     -10.954  10.815  67.113  1.00  0.00    -0.324 C  
BRANCH   9  10
HETATM   10  C   UNL     1     -10.462  10.868  65.688  1.00  0.00    -0.274 A  
HETATM   11  C   UNL     1      -9.576   9.932  65.169  1.00  0.00    -0.367 A  
HETATM   12  C   UNL     1      -8.934   8.733  65.811  1.00  0.00    -0.253 C  
HETATM   13  C   UNL     1      -8.094   8.154  64.672  1.00  0.00    -0.148 C  
HETATM   14  N   UNL     1      -8.274   8.972  63.564  1.00  0.00    -0.170 N  
HETATM   15  O   UNL     1      -7.388   7.159  64.718  1.00  0.00    -0.071 OA 
HETATM   16  H   UNL     1      -7.828   8.822  62.659  1.00  0.00     0.000 HD 
HETATM   17  C   UNL     1      -9.137  10.019  63.846  1.00  0.00    -0.259 A  
HETATM   18  C   UNL     1      -9.539  11.017  62.987  1.00  0.00    -0.386 A  
HETATM   19  C   UNL     1     -10.418  11.972  63.493  1.00  0.00    -0.505 A  
HETATM   20  C   UNL     1     -10.870  11.903  64.825  1.00  0.00    -0.359 A  
ENDBRANCH   9  10
ENDBRANCH   8   9
ENDBRANCH   4   8
ENDBRANCH   3   4
ENDBRANCH   2   3
TORSDOF 7
ENDMDL
MODEL      259
REMARK 921   NORMALIZED FREE ENERGY PREDICTED BY IDOCK:   -3.24 KCAL/MOL
REMARK 922        TOTAL FREE ENERGY PREDICTED BY IDOCK:   -5.46 KCAL/MOL
REMARK 923 INTER-LIGAND FREE ENERGY PREDICTED BY IDOCK:   -4.68 KCAL/MOL
REMARK 924 INTRA-LIGAND FREE ENERGY PREDICTED BY IDOCK:   -0.77 KCAL/MOL
REMARK 927      BINDING AFFINITY PREDICTED BY RF-SCORE:    0.00 PKD
ROOT
HETATM    1  C   UNL     1      -8.883   7.594  68.149  1.00  0.00    -0.125 C  
HETATM    2  C   UNL     1      -7.839   7.859  67.076  1.00  0.00    -0.108 C  
ENDROOT
BRANCH   2   3
HETATM    3  C   UNL     1      -8.430   8.137  65.685  1.00  0.00    -0.156 C  
BRANCH   3   4
HETATM    4  N   UNL     1      -7.802   9.205  64.875  1.00  0.00    -0.113 NA 
BRANCH   4   5
HETATM    5  C   UNL     1      -7.757   8.832  63.444  1.00  0.00    -0.132 C  
BRANCH   5   6
HETATM    6  C   UNL     1      -8.015   7.348  63.121  1.00  0.00    -0.093 C  
HETATM    7  C   UNL     1      -6.855   6.670  62.409  1.00  0.00    -0.046 C  
ENDBRANCH   5   6
ENDBRANCH   4   5
BRANCH   4   8
HETATM    8  C   UNL     1      -8.543  10.480  65.063  1.00  0.00    -0.176 C  
BRANCH   8   9
HETATM    9  C   UNL     1     -10.077  10.375  65.217  1.00  0.00    -0.370 C  
BRANCH   9  10
HETATM   10  C   UNL     1     -10.728  11.554  65.894  1.00  0.00    -0.325 A  
HETATM   11  C   UNL     1     -11.109  11.530  67.231  1.00  0.00    -0.351 A  
HETATM   12  C   UNL     1     -10.987  10.443  68.262  1.00  0.00    -0.321 C  
HETATM   13  C   UNL     1     -11.591  11.095  69.508  1.00  0.00    -0.321 C  
HETATM   14  N   UNL     1     -11.990  12.377  69.154  1.00  0.00    -0.274 N  
HETATM   15  O   UNL     1     -11.708  10.590  70.612  1.00  0.00    -0.310 OA 
HETATM   16  H   UNL     1     -12.429  13.040  69.793  1.00  0.00     0.000 HD 
HETATM   17  C   UNL     1     -11.717  12.641  67.821  1.00  0.00    -0.356 A  
HETATM   18  C   UNL     1     -11.977  13.806  67.135  1.00  0.00    -0.442 A  
HETATM   19  C   UNL     1     -11.613  13.845  65.791  1.00  0.00    -0.343 A  
HETATM   20  C   UNL     1     -11.002  12.734  65.177  1.00  0.00    -0.323 A  
ENDBRANCH   9  10
ENDBRANCH   8   9
ENDBRANCH   4   8
ENDBRANCH   3   4
ENDBRANCH   2   3
TORSDOF 7
ENDMDL
MODEL      260
REMARK 921   NORMALIZED FREE ENERGY PREDICTED BY IDOCK:   -3.24 KCAL/MOL
REMARK 922        TOTAL FREE ENERGY PREDICTED BY IDOCK:   -5.45 KCAL/MOL
REMARK 923 INTER-LIGAND FREE ENERGY PREDICTED BY IDOCK:   -5.15 KCAL/MOL
REMARK 924 INTRA-LIGAND FREE ENERGY PREDICTED BY IDOCK:   -0.29 KCAL/MOL
REMARK 927      BINDING AFFINITY PREDICTED BY RF-SCORE:    0.00 PKD
ROOT
HETATM    1  C   UNL     1     -12.547  13.407  65.476  1.00  0.00    -0.520 C  
HETATM    2  C   UNL     1     -11.097  13.311  65.031  1.00  0.00    -0.327 C  
ENDROOT
BRANCH   2   3
HETATM    3  C   UNL     1     -10.239  12.374  65.896  1.00  0.00    -0.251 C  
BRANCH   3   4
HETATM    4  N   UNL     1     -10.816  11.061  66.262  1.00  0.00    -0.216 NA 
BRANCH   4   5
HETATM    5  C   UNL     1      -9.818   9.979  66.110  1.00  0.00    -0.246 C  
BRANCH   5   6
HETATM    6  C   UNL     1     -10.129   8.662  66.846  1.00  0.00    -0.355 C  
HETATM    7  C   UNL     1      -9.528   7.435  66.177  1.00  0.00    -0.076 C  
ENDBRANCH   5   6
ENDBRANCH   4   5
BRANCH   4   8
HETATM    8  C   UNL     1     -11.333  11.108  67.654  1.00  0.00    -0.284 C  
BRANCH   8   9
HETATM    9  C   UNL     1     -10.336  11.554  68.749  1.00  0.00    -0.213 C  
BRANCH   9  10
HETATM   10  C   UNL     1     -10.009  10.499  69.776  1.00  0.00    -0.090 A  
HETATM   11  C   UNL     1     -10.991   9.841  70.508  1.00  0.00    -0.384 A  
HETATM   12  C   UNL     1     -12.489   9.979  70.478  1.00  0.00    -0.254 C  
HETATM   13  C   UNL     1     -12.938   8.953  71.522  1.00  0.00    -0.332 C  
HETATM   14  N   UNL     1     -11.795   8.359  72.040  1.00  0.00    -0.327 N  
HETATM   15  O   UNL     1     -14.086   8.700  71.848  1.00  0.00    -0.411 OA 
HETATM   16  H   UNL     1     -11.799   7.635  72.759  1.00  0.00     0.000 HD 
HETATM   17  C   UNL     1     -10.649   8.875  71.456  1.00  0.00    -0.329 A  
HETATM   18  C   UNL     1      -9.347   8.519  71.728  1.00  0.00    -0.323 A  
HETATM   19  C   UNL     1      -8.348   9.177  71.013  1.00  0.00    -0.205 A  
HETATM   20  C   UNL     1      -8.673  10.156  70.054  1.00  0.00    -0.011 A  
ENDBRANCH   9  10
ENDBRANCH   8   9
ENDBRANCH   4   8
ENDBRANCH   3   4
ENDBRANCH   2   3
TORSDOF 7
ENDMDL
MODEL      261
REMARK 921   NORMALIZED FREE ENERGY PREDICTED BY IDOCK:   -3.23 KCAL/MOL
REMARK 922        TOTAL FREE ENERGY PREDICTED BY IDOCK:   -5.43 KCAL/MOL
REMARK 923 INTER-LIGAND FREE ENERGY PREDICTED BY IDOCK:   -5.42 KCAL/MOL
REMARK 924 INTRA-LIGAND FREE ENERGY PREDICTED BY IDOCK:   -0.01 KCAL/MOL
REMARK 927      BINDING AFFINITY PREDICTED BY RF-SCORE:    0.00 PKD
ROOT
HETATM    1  C   UNL     1      -8.919   9.969  64.257  1.00  0.00    -0.269 C  
HETATM    2  C   UNL     1      -9.368   9.746  65.692  1.00  0.00    -0.285 C  
ENDROOT
BRANCH   2   3
HETATM    3  C   UNL     1     -10.174  10.913  66.283  1.00  0.00    -0.247 C  
BRANCH   3   4
HETATM    4  N   UNL     1      -9.667  12.283  66.048  1.00  0.00    -0.245 NA 
BRANCH   4   5
HETATM    5  C   UNL     1     -10.659  13.100  65.313  1.00  0.00    -0.313 C  
BRANCH   5   6
HETATM    6  C   UNL     1     -11.891  12.348  64.775  1.00  0.00    -0.442 C  
HETATM    7  C   UNL     1     -12.325  12.805  63.391  1.00  0.00    -0.531 C  
ENDBRANCH   5   6
ENDBRANCH   4   5
BRANCH   4   8
HETATM    8  C   UNL     1      -9.319  12.921  67.344  1.00  0.00    -0.194 C  
BRANCH   8   9
HETATM    9  C   UNL     1      -8.319  14.099  67.292  1.00  0.00    -0.212 C  
BRANCH   9  10
HETATM   10  C   UNL     1      -8.887  15.431  67.710  1.00  0.00    -0.170 A  
HETATM   11  C   UNL     1      -9.961  15.542  68.586  1.00  0.00    -0.208 A  
HETATM   12  C   UNL     1     -10.764  14.481  69.287  1.00  0.00    -0.241 C  
HETATM   13  C   UNL     1     -11.770  15.303  70.095  1.00  0.00    -0.312 C  
HETATM   14  N   UNL     1     -11.520  16.644  69.831  1.00  0.00    -0.276 N  
HETATM   15  O   UNL     1     -12.639  14.871  70.835  1.00  0.00    -0.297 OA 
HETATM   16  H   UNL     1     -12.045  17.417  70.237  1.00  0.00     0.000 HD 
HETATM   17  C   UNL     1     -10.465  16.794  68.945  1.00  0.00    -0.332 A  
HETATM   18  C   UNL     1      -9.947  17.976  68.464  1.00  0.00    -0.395 A  
HETATM   19  C   UNL     1      -8.878  17.885  67.576  1.00  0.00    -0.248 A  
HETATM   20  C   UNL     1      -8.358  16.632  67.200  1.00  0.00    -0.202 A  
ENDBRANCH   9  10
ENDBRANCH   8   9
ENDBRANCH   4   8
ENDBRANCH   3   4
ENDBRANCH   2   3
TORSDOF 7
ENDMDL
MODEL      262
REMARK 921   NORMALIZED FREE ENERGY PREDICTED BY IDOCK:   -3.22 KCAL/MOL
REMARK 922        TOTAL FREE ENERGY PREDICTED BY IDOCK:   -5.41 KCAL/MOL
REMARK 923 INTER-LIGAND FREE ENERGY PREDICTED BY IDOCK:   -4.74 KCAL/MOL
REMARK 924 INTRA-LIGAND FREE ENERGY PREDICTED BY IDOCK:   -0.67 KCAL/MOL
REMARK 927      BINDING AFFINITY PREDICTED BY RF-SCORE:    0.00 PKD
ROOT
HETATM    1  C   UNL     1     -12.339   8.382  71.953  1.00  0.00    -0.395 C  
HETATM    2  C   UNL     1     -11.668   9.609  71.357  1.00  0.00    -0.478 C  
ENDROOT
BRANCH   2   3
HETATM    3  C   UNL     1     -10.236   9.358  70.859  1.00  0.00    -0.303 C  
BRANCH   3   4
HETATM    4  N   UNL     1     -10.053   9.064  69.420  1.00  0.00    -0.192 NA 
BRANCH   4   5
HETATM    5  C   UNL     1     -10.147   7.610  69.157  1.00  0.00    -0.194 C  
BRANCH   5   6
HETATM    6  C   UNL     1      -9.853   7.163  67.713  1.00  0.00    -0.175 C  
HETATM    7  C   UNL     1     -11.031   6.476  67.039  1.00  0.00    -0.466 C  
ENDBRANCH   5   6
ENDBRANCH   4   5
BRANCH   4   8
HETATM    8  C   UNL     1     -11.062   9.808  68.622  1.00  0.00    -0.093 C  
BRANCH   8   9
HETATM    9  C   UNL     1     -10.522  10.702  67.482  1.00  0.00    -0.272 C  
BRANCH   9  10
HETATM   10  C   UNL     1     -10.494  12.177  67.792  1.00  0.00    -0.222 A  
HETATM   11  C   UNL     1      -9.323  12.846  68.129  1.00  0.00    -0.214 A  
HETATM   12  C   UNL     1      -7.911  12.342  68.257  1.00  0.00    -0.160 C  
HETATM   13  C   UNL     1      -7.139  13.606  68.640  1.00  0.00    -0.105 C  
HETATM   14  N   UNL     1      -8.055  14.648  68.711  1.00  0.00    -0.149 N  
HETATM   15  O   UNL     1      -5.941  13.693  68.849  1.00  0.00    -0.079 OA 
HETATM   16  H   UNL     1      -7.814  15.610  68.949  1.00  0.00     0.000 HD 
HETATM   17  C   UNL     1      -9.338  14.212  68.418  1.00  0.00    -0.208 A  
HETATM   18  C   UNL     1     -10.486  14.971  68.394  1.00  0.00    -0.238 A  
HETATM   19  C   UNL     1     -11.672  14.315  68.071  1.00  0.00    -0.386 A  
HETATM   20  C   UNL     1     -11.678  12.938  67.779  1.00  0.00    -0.412 A  
ENDBRANCH   9  10
ENDBRANCH   8   9
ENDBRANCH   4   8
ENDBRANCH   3   4
ENDBRANCH   2   3
TORSDOF 7
ENDMDL
MODEL      263
REMARK 921   NORMALIZED FREE ENERGY PREDICTED BY IDOCK:   -3.21 KCAL/MOL
REMARK 922        TOTAL FREE ENERGY PREDICTED BY IDOCK:   -5.40 KCAL/MOL
REMARK 923 INTER-LIGAND FREE ENERGY PREDICTED BY IDOCK:   -4.51 KCAL/MOL
REMARK 924 INTRA-LIGAND FREE ENERGY PREDICTED BY IDOCK:   -0.89 KCAL/MOL
REMARK 927      BINDING AFFINITY PREDICTED BY RF-SCORE:    0.00 PKD
ROOT
HETATM    1  C   UNL     1     -10.823   4.289  73.606  1.00  0.00    -0.358 C  
HETATM    2  C   UNL     1     -11.485   5.349  72.740  1.00  0.00    -0.333 C  
ENDROOT
BRANCH   2   3
HETATM    3  C   UNL     1     -11.006   6.780  73.030  1.00  0.00    -0.260 C  
BRANCH   3   4
HETATM    4  N   UNL     1     -10.440   7.555  71.903  1.00  0.00    -0.200 NA 
BRANCH   4   5
HETATM    5  C   UNL     1     -10.774   8.991  72.022  1.00  0.00    -0.263 C  
BRANCH   5   6
HETATM    6  C   UNL     1     -12.087   9.439  71.352  1.00  0.00    -0.442 C  
HETATM    7  C   UNL     1     -11.960  10.742  70.577  1.00  0.00    -0.456 C  
ENDBRANCH   5   6
ENDBRANCH   4   5
BRANCH   4   8
HETATM    8  C   UNL     1      -8.967   7.361  71.849  1.00  0.00    -0.125 C  
BRANCH   8   9
HETATM    9  C   UNL     1      -8.256   7.810  70.552  1.00  0.00    -0.120 C  
BRANCH   9  10
HETATM   10  C   UNL     1      -9.069   7.645  69.294  1.00  0.00    -0.145 A  
HETATM   11  C   UNL     1      -9.329   6.401  68.731  1.00  0.00    -0.125 A  
HETATM   12  C   UNL     1      -8.920   5.023  69.174  1.00  0.00    -0.130 C  
HETATM   13  C   UNL     1      -9.555   4.128  68.108  1.00  0.00    -0.134 C  
HETATM   14  N   UNL     1     -10.211   4.955  67.206  1.00  0.00    -0.167 N  
HETATM   15  O   UNL     1      -9.497   2.911  68.050  1.00  0.00    -0.208 OA 
HETATM   16  H   UNL     1     -10.722   4.623  66.389  1.00  0.00     0.000 HD 
HETATM   17  C   UNL     1     -10.081   6.289  67.559  1.00  0.00    -0.154 A  
HETATM   18  C   UNL     1     -10.601   7.377  66.895  1.00  0.00    -0.375 A  
HETATM   19  C   UNL     1     -10.341   8.634  67.437  1.00  0.00    -0.353 A  
HETATM   20  C   UNL     1      -9.583   8.768  68.616  1.00  0.00    -0.159 A  
ENDBRANCH   9  10
ENDBRANCH   8   9
ENDBRANCH   4   8
ENDBRANCH   3   4
ENDBRANCH   2   3
TORSDOF 7
ENDMDL
MODEL      264
REMARK 921   NORMALIZED FREE ENERGY PREDICTED BY IDOCK:   -3.20 KCAL/MOL
REMARK 922        TOTAL FREE ENERGY PREDICTED BY IDOCK:   -5.40 KCAL/MOL
REMARK 923 INTER-LIGAND FREE ENERGY PREDICTED BY IDOCK:   -4.81 KCAL/MOL
REMARK 924 INTRA-LIGAND FREE ENERGY PREDICTED BY IDOCK:   -0.59 KCAL/MOL
REMARK 927      BINDING AFFINITY PREDICTED BY RF-SCORE:    0.00 PKD
ROOT
HETATM    1  C   UNL     1      -7.566   8.872  65.980  1.00  0.00    -0.094 C  
HETATM    2  C   UNL     1      -8.101  10.244  66.357  1.00  0.00    -0.123 C  
ENDROOT
BRANCH   2   3
HETATM    3  C   UNL     1      -9.616  10.274  66.612  1.00  0.00    -0.175 C  
BRANCH   3   4
HETATM    4  N   UNL     1     -10.077  10.734  67.941  1.00  0.00    -0.169 NA 
BRANCH   4   5
HETATM    5  C   UNL     1      -9.724   9.758  68.996  1.00  0.00    -0.177 C  
BRANCH   5   6
HETATM    6  C   UNL     1     -10.646   9.730  70.230  1.00  0.00    -0.348 C  
HETATM    7  C   UNL     1     -10.047   8.996  71.420  1.00  0.00    -0.399 C  
ENDBRANCH   5   6
ENDBRANCH   4   5
BRANCH   4   8
HETATM    8  C   UNL     1      -9.492  12.067  68.243  1.00  0.00    -0.199 C  
BRANCH   8   9
HETATM    9  C   UNL     1     -10.479  13.253  68.333  1.00  0.00    -0.261 C  
BRANCH   9  10
HETATM   10  C   UNL     1     -10.414  14.220  67.177  1.00  0.00    -0.266 A  
HETATM   11  C   UNL     1     -10.439  15.598  67.355  1.00  0.00    -0.291 A  
HETATM   12  C   UNL     1     -10.522  16.420  68.612  1.00  0.00    -0.293 C  
HETATM   13  C   UNL     1     -10.492  17.853  68.076  1.00  0.00    -0.382 C  
HETATM   14  N   UNL     1     -10.412  17.778  66.692  1.00  0.00    -0.331 N  
HETATM   15  O   UNL     1     -10.533  18.878  68.736  1.00  0.00    -0.233 OA 
HETATM   16  H   UNL     1     -10.377  18.588  66.074  1.00  0.00     0.000 HD 
HETATM   17  C   UNL     1     -10.385  16.462  66.259  1.00  0.00    -0.329 A  
HETATM   18  C   UNL     1     -10.309  16.018  64.958  1.00  0.00    -0.140 A  
HETATM   19  C   UNL     1     -10.296  14.639  64.758  1.00  0.00    -0.286 A  
HETATM   20  C   UNL     1     -10.352  13.752  65.851  1.00  0.00    -0.315 A  
ENDBRANCH   9  10
ENDBRANCH   8   9
ENDBRANCH   4   8
ENDBRANCH   3   4
ENDBRANCH   2   3
TORSDOF 7
ENDMDL
MODEL      265
REMARK 921   NORMALIZED FREE ENERGY PREDICTED BY IDOCK:   -3.20 KCAL/MOL
REMARK 922        TOTAL FREE ENERGY PREDICTED BY IDOCK:   -5.39 KCAL/MOL
REMARK 923 INTER-LIGAND FREE ENERGY PREDICTED BY IDOCK:   -4.04 KCAL/MOL
REMARK 924 INTRA-LIGAND FREE ENERGY PREDICTED BY IDOCK:   -1.35 KCAL/MOL
REMARK 927      BINDING AFFINITY PREDICTED BY RF-SCORE:    0.00 PKD
ROOT
HETATM    1  C   UNL     1     -10.738   7.151  73.385  1.00  0.00    -0.410 C  
HETATM    2  C   UNL     1      -9.340   7.557  73.822  1.00  0.00    -0.331 C  
ENDROOT
BRANCH   2   3
HETATM    3  C   UNL     1      -8.215   6.799  73.101  1.00  0.00    -0.111 C  
BRANCH   3   4
HETATM    4  N   UNL     1      -8.430   6.444  71.681  1.00  0.00    -0.128 NA 
BRANCH   4   5
HETATM    5  C   UNL     1      -7.316   6.928  70.836  1.00  0.00    -0.077 C  
BRANCH   5   6
HETATM    6  C   UNL     1      -6.515   5.847  70.085  1.00  0.00    -0.039 C  
HETATM    7  C   UNL     1      -6.544   6.011  68.572  1.00  0.00    -0.058 C  
ENDBRANCH   5   6
ENDBRANCH   4   5
BRANCH   4   8
HETATM    8  C   UNL     1      -8.589   4.972  71.547  1.00  0.00    -0.124 C  
BRANCH   8   9
HETATM    9  C   UNL     1      -9.871   4.474  70.841  1.00  0.00    -0.269 C  
BRANCH   9  10
HETATM   10  C   UNL     1      -9.730   4.250  69.357  1.00  0.00    -0.257 A  
HETATM   11  C   UNL     1     -10.004   5.243  68.423  1.00  0.00    -0.220 A  
HETATM   12  C   UNL     1     -10.463   6.662  68.613  1.00  0.00    -0.241 C  
HETATM   13  C   UNL     1     -10.551   7.179  67.175  1.00  0.00    -0.347 C  
HETATM   14  N   UNL     1     -10.187   6.135  66.335  1.00  0.00    -0.400 N  
HETATM   15  O   UNL     1     -10.882   8.298  66.822  1.00  0.00    -0.188 OA 
HETATM   16  H   UNL     1     -10.158   6.199  65.317  1.00  0.00     0.000 HD 
HETATM   17  C   UNL     1      -9.869   4.995  67.055  1.00  0.00    -0.185 A  
HETATM   18  C   UNL     1      -9.468   3.778  66.550  1.00  0.00    -0.204 A  
HETATM   19  C   UNL     1      -9.200   2.767  67.470  1.00  0.00    -0.227 A  
HETATM   20  C   UNL     1      -9.333   2.997  68.853  1.00  0.00    -0.228 A  
ENDBRANCH   9  10
ENDBRANCH   8   9
ENDBRANCH   4   8
ENDBRANCH   3   4
ENDBRANCH   2   3
TORSDOF 7
ENDMDL
MODEL      266
REMARK 921   NORMALIZED FREE ENERGY PREDICTED BY IDOCK:   -3.19 KCAL/MOL
REMARK 922        TOTAL FREE ENERGY PREDICTED BY IDOCK:   -5.39 KCAL/MOL
REMARK 923 INTER-LIGAND FREE ENERGY PREDICTED BY IDOCK:   -4.68 KCAL/MOL
REMARK 924 INTRA-LIGAND FREE ENERGY PREDICTED BY IDOCK:   -0.71 KCAL/MOL
REMARK 927      BINDING AFFINITY PREDICTED BY RF-SCORE:    0.00 PKD
ROOT
HETATM    1  C   UNL     1      -8.688   8.021  73.693  1.00  0.00    -0.332 C  
HETATM    2  C   UNL     1      -9.810   7.023  73.454  1.00  0.00    -0.273 C  
ENDROOT
BRANCH   2   3
HETATM    3  C   UNL     1     -11.144   7.669  73.048  1.00  0.00    -0.381 C  
BRANCH   3   4
HETATM    4  N   UNL     1     -11.841   7.114  71.866  1.00  0.00    -0.289 NA 
BRANCH   4   5
HETATM    5  C   UNL     1     -13.142   7.785  71.650  1.00  0.00    -0.345 C  
BRANCH   5   6
HETATM    6  C   UNL     1     -13.296   9.183  72.278  1.00  0.00    -0.540 C  
HETATM    7  C   UNL     1     -13.218  10.316  71.266  1.00  0.00    -0.447 C  
ENDBRANCH   5   6
ENDBRANCH   4   5
BRANCH   4   8
HETATM    8  C   UNL     1     -10.977   7.245  70.664  1.00  0.00    -0.256 C  
BRANCH   8   9
HETATM    9  C   UNL     1     -11.241   6.253  69.508  1.00  0.00    -0.500 C  
BRANCH   9  10
HETATM   10  C   UNL     1     -10.045   5.436  69.089  1.00  0.00    -0.293 A  
HETATM   11  C   UNL     1      -9.489   4.455  69.902  1.00  0.00    -0.253 A  
HETATM   12  C   UNL     1      -9.885   3.984  71.275  1.00  0.00    -0.242 C  
HETATM   13  C   UNL     1      -8.859   2.885  71.559  1.00  0.00    -0.077 C  
HETATM   14  N   UNL     1      -8.018   2.806  70.456  1.00  0.00    -0.042 N  
HETATM   15  O   UNL     1      -8.783   2.202  72.566  1.00  0.00    -0.062 OA 
HETATM   16  H   UNL     1      -7.237   2.155  70.375  1.00  0.00     0.000 HD 
HETATM   17  C   UNL     1      -8.376   3.724  69.482  1.00  0.00    -0.056 A  
HETATM   18  C   UNL     1      -7.765   3.922  68.264  1.00  0.00    -0.065 A  
HETATM   19  C   UNL     1      -8.300   4.909  67.440  1.00  0.00    -0.105 A  
HETATM   20  C   UNL     1      -9.421   5.659  67.847  1.00  0.00    -0.120 A  
ENDBRANCH   9  10
ENDBRANCH   8   9
ENDBRANCH   4   8
ENDBRANCH   3   4
ENDBRANCH   2   3
TORSDOF 7
ENDMDL
MODEL      267
REMARK 921   NORMALIZED FREE ENERGY PREDICTED BY IDOCK:   -3.17 KCAL/MOL
REMARK 922        TOTAL FREE ENERGY PREDICTED BY IDOCK:   -5.36 KCAL/MOL
REMARK 923 INTER-LIGAND FREE ENERGY PREDICTED BY IDOCK:   -4.43 KCAL/MOL
REMARK 924 INTRA-LIGAND FREE ENERGY PREDICTED BY IDOCK:   -0.92 KCAL/MOL
REMARK 927      BINDING AFFINITY PREDICTED BY RF-SCORE:    0.00 PKD
ROOT
HETATM    1  C   UNL     1     -10.307   2.882  74.131  1.00  0.00    -0.218 C  
HETATM    2  C   UNL     1     -11.358   3.659  73.353  1.00  0.00    -0.209 C  
ENDROOT
BRANCH   2   3
HETATM    3  C   UNL     1     -11.205   5.185  73.449  1.00  0.00    -0.290 C  
BRANCH   3   4
HETATM    4  N   UNL     1     -11.103   5.943  72.183  1.00  0.00    -0.268 NA 
BRANCH   4   5
HETATM    5  C   UNL     1     -10.046   6.975  72.262  1.00  0.00    -0.177 C  
BRANCH   5   6
HETATM    6  C   UNL     1     -10.517   8.438  72.161  1.00  0.00    -0.396 C  
HETATM    7  C   UNL     1     -12.026   8.583  72.036  1.00  0.00    -0.427 C  
ENDBRANCH   5   6
ENDBRANCH   4   5
BRANCH   4   8
HETATM    8  C   UNL     1     -10.843   5.010  71.056  1.00  0.00     0.117 C  
BRANCH   8   9
HETATM    9  C   UNL     1      -9.493   5.172  70.319  1.00  0.00    -0.233 C  
BRANCH   9  10
HETATM   10  C   UNL     1      -9.593   5.201  68.815  1.00  0.00    -0.198 A  
HETATM   11  C   UNL     1      -9.891   6.361  68.109  1.00  0.00    -0.127 A  
HETATM   12  C   UNL     1     -10.162   7.758  68.595  1.00  0.00    -0.217 C  
HETATM   13  C   UNL     1     -10.400   8.524  67.293  1.00  0.00    -0.302 C  
HETATM   14  N   UNL     1     -10.276   7.618  66.248  1.00  0.00    -0.445 N  
HETATM   15  O   UNL     1     -10.656   9.712  67.182  1.00  0.00    -0.256 OA 
HETATM   16  H   UNL     1     -10.387   7.857  65.263  1.00  0.00     0.000 HD 
HETATM   17  C   UNL     1      -9.982   6.347  66.715  1.00  0.00    -0.171 A  
HETATM   18  C   UNL     1      -9.791   5.210  65.963  1.00  0.00    -0.184 A  
HETATM   19  C   UNL     1      -9.504   4.034  66.653  1.00  0.00    -0.214 A  
HETATM   20  C   UNL     1      -9.411   4.027  68.058  1.00  0.00    -0.220 A  
ENDBRANCH   9  10
ENDBRANCH   8   9
ENDBRANCH   4   8
ENDBRANCH   3   4
ENDBRANCH   2   3
TORSDOF 7
ENDMDL
MODEL      268
REMARK 921   NORMALIZED FREE ENERGY PREDICTED BY IDOCK:   -3.17 KCAL/MOL
REMARK 922        TOTAL FREE ENERGY PREDICTED BY IDOCK:   -5.36 KCAL/MOL
REMARK 923 INTER-LIGAND FREE ENERGY PREDICTED BY IDOCK:   -4.48 KCAL/MOL
REMARK 924 INTRA-LIGAND FREE ENERGY PREDICTED BY IDOCK:   -0.87 KCAL/MOL
REMARK 927      BINDING AFFINITY PREDICTED BY RF-SCORE:    0.00 PKD
ROOT
HETATM    1  C   UNL     1      -6.504   9.814  66.409  1.00  0.00    -0.071 C  
HETATM    2  C   UNL     1      -7.784  10.194  67.136  1.00  0.00    -0.092 C  
ENDROOT
BRANCH   2   3
HETATM    3  C   UNL     1      -7.866   9.665  68.576  1.00  0.00    -0.085 C  
BRANCH   3   4
HETATM    4  N   UNL     1      -8.977   8.743  68.905  1.00  0.00    -0.134 NA 
BRANCH   4   5
HETATM    5  C   UNL     1     -10.243   9.192  68.284  1.00  0.00    -0.206 C  
BRANCH   5   6
HETATM    6  C   UNL     1     -11.090  10.178  69.111  1.00  0.00    -0.257 C  
HETATM    7  C   UNL     1     -11.616  11.354  68.302  1.00  0.00    -0.376 C  
ENDBRANCH   5   6
ENDBRANCH   4   5
BRANCH   4   8
HETATM    8  C   UNL     1      -8.636   7.366  68.464  1.00  0.00    -0.128 C  
BRANCH   8   9
HETATM    9  C   UNL     1      -9.059   6.212  69.402  1.00  0.00    -0.135 C  
BRANCH   9  10
HETATM   10  C   UNL     1      -9.426   6.637  70.802  1.00  0.00    -0.173 A  
HETATM   11  C   UNL     1     -10.739   6.878  71.189  1.00  0.00    -0.252 A  
HETATM   12  C   UNL     1     -12.020   6.788  70.406  1.00  0.00    -0.343 C  
HETATM   13  C   UNL     1     -13.074   7.173  71.447  1.00  0.00    -0.352 C  
HETATM   14  N   UNL     1     -12.407   7.443  72.635  1.00  0.00    -0.512 N  
HETATM   15  O   UNL     1     -14.280   7.238  71.274  1.00  0.00    -0.394 OA 
HETATM   16  H   UNL     1     -12.866   7.727  73.500  1.00  0.00     0.000 HD 
HETATM   17  C   UNL     1     -11.039   7.277  72.493  1.00  0.00    -0.293 A  
HETATM   18  C   UNL     1     -10.076   7.458  73.461  1.00  0.00    -0.390 A  
HETATM   19  C   UNL     1      -8.753   7.233  73.089  1.00  0.00    -0.169 A  
HETATM   20  C   UNL     1      -8.430   6.833  71.778  1.00  0.00    -0.120 A  
ENDBRANCH   9  10
ENDBRANCH   8   9
ENDBRANCH   4   8
ENDBRANCH   3   4
ENDBRANCH   2   3
TORSDOF 7
ENDMDL
MODEL      269
REMARK 921   NORMALIZED FREE ENERGY PREDICTED BY IDOCK:   -3.17 KCAL/MOL
REMARK 922        TOTAL FREE ENERGY PREDICTED BY IDOCK:   -5.35 KCAL/MOL
REMARK 923 INTER-LIGAND FREE ENERGY PREDICTED BY IDOCK:   -4.86 KCAL/MOL
REMARK 924 INTRA-LIGAND FREE ENERGY PREDICTED BY IDOCK:   -0.49 KCAL/MOL
REMARK 927      BINDING AFFINITY PREDICTED BY RF-SCORE:    0.00 PKD
ROOT
HETATM    1  C   UNL     1      -8.994   3.946  69.881  1.00  0.00    -0.162 C  
HETATM    2  C   UNL     1      -9.476   5.200  70.591  1.00  0.00    -0.229 C  
ENDROOT
BRANCH   2   3
HETATM    3  C   UNL     1      -9.512   6.449  69.696  1.00  0.00    -0.147 C  
BRANCH   3   4
HETATM    4  N   UNL     1      -8.602   7.564  70.041  1.00  0.00    -0.138 NA 
BRANCH   4   5
HETATM    5  C   UNL     1      -7.775   7.956  68.877  1.00  0.00    -0.105 C  
BRANCH   5   6
HETATM    6  C   UNL     1      -8.076   7.225  67.555  1.00  0.00    -0.114 C  
HETATM    7  C   UNL     1      -9.240   7.825  66.781  1.00  0.00    -0.202 C  
ENDBRANCH   5   6
ENDBRANCH   4   5
BRANCH   4   8
HETATM    8  C   UNL     1      -9.388   8.722  70.539  1.00  0.00    -0.187 C  
BRANCH   8   9
HETATM    9  C   UNL     1     -10.870   8.794  70.102  1.00  0.00    -0.241 C  
BRANCH   9  10
HETATM   10  C   UNL     1     -11.625   9.992  70.618  1.00  0.00    -0.422 A  
HETATM   11  C   UNL     1     -11.469  11.263  70.075  1.00  0.00    -0.359 A  
HETATM   12  C   UNL     1     -10.602  11.742  68.943  1.00  0.00    -0.211 C  
HETATM   13  C   UNL     1     -10.934  13.234  68.877  1.00  0.00    -0.240 C  
HETATM   14  N   UNL     1     -11.864  13.498  69.874  1.00  0.00    -0.362 N  
HETATM   15  O   UNL     1     -10.471  14.050  68.098  1.00  0.00    -0.232 OA 
HETATM   16  H   UNL     1     -12.262  14.418  70.060  1.00  0.00     0.000 HD 
HETATM   17  C   UNL     1     -12.180  12.351  70.585  1.00  0.00    -0.278 A  
HETATM   18  C   UNL     1     -13.061  12.243  71.637  1.00  0.00    -0.408 A  
HETATM   19  C   UNL     1     -13.222  10.980  72.203  1.00  0.00    -0.316 A  
HETATM   20  C   UNL     1     -12.512   9.871  71.704  1.00  0.00    -0.507 A  
ENDBRANCH   9  10
ENDBRANCH   8   9
ENDBRANCH   4   8
ENDBRANCH   3   4
ENDBRANCH   2   3
TORSDOF 7
ENDMDL
MODEL      270
REMARK 921   NORMALIZED FREE ENERGY PREDICTED BY IDOCK:   -3.17 KCAL/MOL
REMARK 922        TOTAL FREE ENERGY PREDICTED BY IDOCK:   -5.35 KCAL/MOL
REMARK 923 INTER-LIGAND FREE ENERGY PREDICTED BY IDOCK:   -3.98 KCAL/MOL
REMARK 924 INTRA-LIGAND FREE ENERGY PREDICTED BY IDOCK:   -1.37 KCAL/MOL
REMARK 927      BINDING AFFINITY PREDICTED BY RF-SCORE:    0.00 PKD
ROOT
HETATM    1  C   UNL     1     -10.705   9.210  67.440  1.00  0.00    -0.247 C  
HETATM    2  C   UNL     1      -9.542   8.809  66.546  1.00  0.00    -0.302 C  
ENDROOT
BRANCH   2   3
HETATM    3  C   UNL     1      -8.413   8.071  67.283  1.00  0.00    -0.125 C  
BRANCH   3   4
HETATM    4  N   UNL     1      -8.617   7.766  68.717  1.00  0.00    -0.129 NA 
BRANCH   4   5
HETATM    5  C   UNL     1      -8.581   6.308  68.962  1.00  0.00    -0.123 C  
BRANCH   5   6
HETATM    6  C   UNL     1      -9.836   5.699  69.614  1.00  0.00    -0.243 C  
HETATM    7  C   UNL     1      -9.587   4.347  70.267  1.00  0.00    -0.263 C  
ENDBRANCH   5   6
ENDBRANCH   4   5
BRANCH   4   8
HETATM    8  C   UNL     1      -7.586   8.461  69.531  1.00  0.00    -0.090 C  
BRANCH   8   9
HETATM    9  C   UNL     1      -8.096   9.320  70.711  1.00  0.00    -0.194 C  
BRANCH   9  10
HETATM   10  C   UNL     1      -9.073   8.624  71.624  1.00  0.00    -0.318 A  
HETATM   11  C   UNL     1      -8.688   7.612  72.496  1.00  0.00    -0.176 A  
HETATM   12  C   UNL     1      -7.338   7.000  72.747  1.00  0.00    -0.077 C  
HETATM   13  C   UNL     1      -7.638   5.962  73.831  1.00  0.00    -0.092 C  
HETATM   14  N   UNL     1      -8.999   6.026  74.102  1.00  0.00    -0.126 N  
HETATM   15  O   UNL     1      -6.838   5.211  74.362  1.00  0.00    -0.074 OA 
HETATM   16  H   UNL     1      -9.476   5.440  74.787  1.00  0.00     0.000 HD 
HETATM   17  C   UNL     1      -9.624   6.986  73.322  1.00  0.00    -0.177 A  
HETATM   18  C   UNL     1     -10.960   7.317  73.327  1.00  0.00    -0.355 A  
HETATM   19  C   UNL     1     -11.368   8.321  72.451  1.00  0.00    -0.457 A  
HETATM   20  C   UNL     1     -10.440   8.962  71.608  1.00  0.00    -0.408 A  
ENDBRANCH   9  10
ENDBRANCH   8   9
ENDBRANCH   4   8
ENDBRANCH   3   4
ENDBRANCH   2   3
TORSDOF 7
ENDMDL
MODEL      271
REMARK 921   NORMALIZED FREE ENERGY PREDICTED BY IDOCK:   -3.16 KCAL/MOL
REMARK 922        TOTAL FREE ENERGY PREDICTED BY IDOCK:   -5.34 KCAL/MOL
REMARK 923 INTER-LIGAND FREE ENERGY PREDICTED BY IDOCK:   -4.08 KCAL/MOL
REMARK 924 INTRA-LIGAND FREE ENERGY PREDICTED BY IDOCK:   -1.26 KCAL/MOL
REMARK 927      BINDING AFFINITY PREDICTED BY RF-SCORE:    0.00 PKD
ROOT
HETATM    1  C   UNL     1     -10.613  15.727  66.642  1.00  0.00    -0.307 C  
HETATM    2  C   UNL     1      -9.504  14.815  66.141  1.00  0.00    -0.324 C  
ENDROOT
BRANCH   2   3
HETATM    3  C   UNL     1      -8.838  13.977  67.244  1.00  0.00    -0.218 C  
BRANCH   3   4
HETATM    4  N   UNL     1      -8.991  12.507  67.172  1.00  0.00    -0.193 NA 
BRANCH   4   5
HETATM    5  C   UNL     1      -8.264  11.841  68.276  1.00  0.00    -0.157 C  
BRANCH   5   6
HETATM    6  C   UNL     1      -7.333  10.683  67.872  1.00  0.00    -0.089 C  
HETATM    7  C   UNL     1      -6.657  10.888  66.524  1.00  0.00    -0.127 C  
ENDBRANCH   5   6
ENDBRANCH   4   5
BRANCH   4   8
HETATM    8  C   UNL     1     -10.433  12.149  67.202  1.00  0.00    -0.219 C  
BRANCH   8   9
HETATM    9  C   UNL     1     -10.984  11.386  65.975  1.00  0.00    -0.286 C  
BRANCH   9  10
HETATM   10  C   UNL     1     -10.049  10.351  65.401  1.00  0.00    -0.354 A  
HETATM   11  C   UNL     1      -9.865   9.104  65.990  1.00  0.00    -0.342 A  
HETATM   12  C   UNL     1     -10.482   8.505  67.223  1.00  0.00    -0.366 C  
HETATM   13  C   UNL     1      -9.844   7.116  67.274  1.00  0.00    -0.167 C  
HETATM   14  N   UNL     1      -8.984   7.013  66.189  1.00  0.00    -0.209 N  
HETATM   15  O   UNL     1     -10.046   6.251  68.111  1.00  0.00    -0.134 OA 
HETATM   16  H   UNL     1      -8.422   6.188  65.977  1.00  0.00     0.000 HD 
HETATM   17  C   UNL     1      -8.985   8.174  65.433  1.00  0.00     0.027 A  
HETATM   18  C   UNL     1      -8.254   8.423  64.293  1.00  0.00    -0.130 A  
HETATM   19  C   UNL     1      -8.416   9.671  63.696  1.00  0.00    -0.189 A  
HETATM   20  C   UNL     1      -9.297  10.623  64.243  1.00  0.00    -0.298 A  
ENDBRANCH   9  10
ENDBRANCH   8   9
ENDBRANCH   4   8
ENDBRANCH   3   4
ENDBRANCH   2   3
TORSDOF 7
ENDMDL
MODEL      272
REMARK 921   NORMALIZED FREE ENERGY PREDICTED BY IDOCK:   -3.16 KCAL/MOL
REMARK 922        TOTAL FREE ENERGY PREDICTED BY IDOCK:   -5.34 KCAL/MOL
REMARK 923 INTER-LIGAND FREE ENERGY PREDICTED BY IDOCK:   -4.37 KCAL/MOL
REMARK 924 INTRA-LIGAND FREE ENERGY PREDICTED BY IDOCK:   -0.96 KCAL/MOL
REMARK 927      BINDING AFFINITY PREDICTED BY RF-SCORE:    0.00 PKD
ROOT
HETATM    1  C   UNL     1      -9.327  10.863  65.497  1.00  0.00    -0.237 C  
HETATM    2  C   UNL     1      -9.618   9.378  65.647  1.00  0.00    -0.345 C  
ENDROOT
BRANCH   2   3
HETATM    3  C   UNL     1      -8.458   8.571  66.249  1.00  0.00    -0.124 C  
BRANCH   3   4
HETATM    4  N   UNL     1      -8.539   8.223  67.686  1.00  0.00    -0.130 NA 
BRANCH   4   5
HETATM    5  C   UNL     1      -8.318   6.775  67.897  1.00  0.00    -0.120 C  
BRANCH   5   6
HETATM    6  C   UNL     1      -6.850   6.322  68.001  1.00  0.00    -0.070 C  
HETATM    7  C   UNL     1      -6.586   4.967  67.360  1.00  0.00    -0.053 C  
ENDBRANCH   5   6
ENDBRANCH   4   5
BRANCH   4   8
HETATM    8  C   UNL     1      -7.549   9.023  68.454  1.00  0.00    -0.090 C  
BRANCH   8   9
HETATM    9  C   UNL     1      -8.071   9.744  69.718  1.00  0.00    -0.174 C  
BRANCH   9  10
HETATM   10  C   UNL     1      -9.422  10.395  69.563  1.00  0.00    -0.164 A  
HETATM   11  C   UNL     1     -10.570   9.883  70.157  1.00  0.00    -0.350 A  
HETATM   12  C   UNL     1     -10.762   8.671  71.028  1.00  0.00    -0.284 C  
HETATM   13  C   UNL     1     -12.261   8.714  71.331  1.00  0.00    -0.304 C  
HETATM   14  N   UNL     1     -12.787   9.821  70.679  1.00  0.00    -0.551 N  
HETATM   15  O   UNL     1     -12.889   7.923  72.016  1.00  0.00    -0.307 OA 
HETATM   16  H   UNL     1     -13.770  10.092  70.707  1.00  0.00     0.000 HD 
HETATM   17  C   UNL     1     -11.806  10.510  69.985  1.00  0.00    -0.308 A  
HETATM   18  C   UNL     1     -11.968  11.650  69.230  1.00  0.00    -0.382 A  
HETATM   19  C   UNL     1     -10.832  12.172  68.617  1.00  0.00    -0.268 A  
HETATM   20  C   UNL     1      -9.577  11.552  68.776  1.00  0.00    -0.112 A  
ENDBRANCH   9  10
ENDBRANCH   8   9
ENDBRANCH   4   8
ENDBRANCH   3   4
ENDBRANCH   2   3
TORSDOF 7
ENDMDL
MODEL      273
REMARK 921   NORMALIZED FREE ENERGY PREDICTED BY IDOCK:   -3.16 KCAL/MOL
REMARK 922        TOTAL FREE ENERGY PREDICTED BY IDOCK:   -5.33 KCAL/MOL
REMARK 923 INTER-LIGAND FREE ENERGY PREDICTED BY IDOCK:   -4.74 KCAL/MOL
REMARK 924 INTRA-LIGAND FREE ENERGY PREDICTED BY IDOCK:   -0.59 KCAL/MOL
REMARK 927      BINDING AFFINITY PREDICTED BY RF-SCORE:    0.00 PKD
ROOT
HETATM    1  C   UNL     1      -9.825  16.653  67.060  1.00  0.00    -0.260 C  
HETATM    2  C   UNL     1      -8.948  15.623  66.365  1.00  0.00    -0.362 C  
ENDROOT
BRANCH   2   3
HETATM    3  C   UNL     1      -8.288  14.618  67.322  1.00  0.00    -0.213 C  
BRANCH   3   4
HETATM    4  N   UNL     1      -8.564  13.181  67.101  1.00  0.00    -0.202 NA 
BRANCH   4   5
HETATM    5  C   UNL     1      -7.643  12.334  67.891  1.00  0.00    -0.127 C  
BRANCH   5   6
HETATM    6  C   UNL     1      -6.723  11.398  67.084  1.00  0.00    -0.121 C  
HETATM    7  C   UNL     1      -5.550  10.858  67.888  1.00  0.00    -0.039 C  
ENDBRANCH   5   6
ENDBRANCH   4   5
BRANCH   4   8
HETATM    8  C   UNL     1      -9.979  12.882  67.445  1.00  0.00    -0.217 C  
BRANCH   8   9
HETATM    9  C   UNL     1     -10.690  11.812  66.585  1.00  0.00    -0.300 C  
BRANCH   9  10
HETATM   10  C   UNL     1     -10.545  10.397  67.084  1.00  0.00    -0.319 A  
HETATM   11  C   UNL     1     -10.980  10.003  68.344  1.00  0.00    -0.266 A  
HETATM   12  C   UNL     1     -11.649  10.790  69.438  1.00  0.00    -0.380 C  
HETATM   13  C   UNL     1     -11.856   9.736  70.528  1.00  0.00    -0.240 C  
HETATM   14  N   UNL     1     -11.341   8.537  70.052  1.00  0.00    -0.450 N  
HETATM   15  O   UNL     1     -12.374   9.908  71.619  1.00  0.00    -0.372 OA 
HETATM   16  H   UNL     1     -11.344   7.662  70.575  1.00  0.00     0.000 HD 
HETATM   17  C   UNL     1     -10.821   8.684  68.775  1.00  0.00     0.030 A  
HETATM   18  C   UNL     1     -10.233   7.708  68.002  1.00  0.00    -0.248 A  
HETATM   19  C   UNL     1      -9.779   8.087  66.740  1.00  0.00    -0.305 A  
HETATM   20  C   UNL     1      -9.928   9.413  66.289  1.00  0.00    -0.353 A  
ENDBRANCH   9  10
ENDBRANCH   8   9
ENDBRANCH   4   8
ENDBRANCH   3   4
ENDBRANCH   2   3
TORSDOF 7
ENDMDL
MODEL      274
REMARK 921   NORMALIZED FREE ENERGY PREDICTED BY IDOCK:   -3.15 KCAL/MOL
REMARK 922        TOTAL FREE ENERGY PREDICTED BY IDOCK:   -5.32 KCAL/MOL
REMARK 923 INTER-LIGAND FREE ENERGY PREDICTED BY IDOCK:   -4.57 KCAL/MOL
REMARK 924 INTRA-LIGAND FREE ENERGY PREDICTED BY IDOCK:   -0.75 KCAL/MOL
REMARK 927      BINDING AFFINITY PREDICTED BY RF-SCORE:    0.00 PKD
ROOT
HETATM    1  C   UNL     1     -12.928  13.261  72.038  1.00  0.00    -0.401 C  
HETATM    2  C   UNL     1     -12.694  11.783  71.766  1.00  0.00    -0.299 C  
ENDROOT
BRANCH   2   3
HETATM    3  C   UNL     1     -13.144  11.326  70.370  1.00  0.00     0.233 C  
BRANCH   3   4
HETATM    4  N   UNL     1     -12.103  11.183  69.328  1.00  0.00    -0.357 NA 
BRANCH   4   5
HETATM    5  C   UNL     1     -11.780  12.490  68.714  1.00  0.00    -0.327 C  
BRANCH   5   6
HETATM    6  C   UNL     1     -10.318  12.689  68.273  1.00  0.00    -0.246 C  
HETATM    7  C   UNL     1     -10.105  12.517  66.777  1.00  0.00    -0.233 C  
ENDBRANCH   5   6
ENDBRANCH   4   5
BRANCH   4   8
HETATM    8  C   UNL     1     -10.886  10.563  69.914  1.00  0.00    -0.276 C  
BRANCH   8   9
HETATM    9  C   UNL     1     -10.652   9.066  69.603  1.00  0.00    -0.230 C  
BRANCH   9  10
HETATM   10  C   UNL     1     -10.888   8.134  70.764  1.00  0.00    -0.247 A  
HETATM   11  C   UNL     1     -10.015   8.049  71.842  1.00  0.00    -0.255 A  
HETATM   12  C   UNL     1      -8.734   8.785  72.122  1.00  0.00    -0.125 C  
HETATM   13  C   UNL     1      -8.309   8.212  73.476  1.00  0.00    -0.236 C  
HETATM   14  N   UNL     1      -9.263   7.273  73.848  1.00  0.00    -0.228 N  
HETATM   15  O   UNL     1      -7.316   8.514  74.116  1.00  0.00    -0.285 OA 
HETATM   16  H   UNL     1      -9.230   6.732  74.712  1.00  0.00     0.000 HD 
HETATM   17  C   UNL     1     -10.264   7.166  72.896  1.00  0.00    -0.230 A  
HETATM   18  C   UNL     1     -11.363   6.339  72.937  1.00  0.00    -0.187 A  
HETATM   19  C   UNL     1     -12.244   6.401  71.859  1.00  0.00    -0.332 A  
HETATM   20  C   UNL     1     -12.009   7.282  70.786  1.00  0.00    -0.311 A  
ENDBRANCH   9  10
ENDBRANCH   8   9
ENDBRANCH   4   8
ENDBRANCH   3   4
ENDBRANCH   2   3
TORSDOF 7
ENDMDL
MODEL      275
REMARK 921   NORMALIZED FREE ENERGY PREDICTED BY IDOCK:   -3.15 KCAL/MOL
REMARK 922        TOTAL FREE ENERGY PREDICTED BY IDOCK:   -5.32 KCAL/MOL
REMARK 923 INTER-LIGAND FREE ENERGY PREDICTED BY IDOCK:   -4.57 KCAL/MOL
REMARK 924 INTRA-LIGAND FREE ENERGY PREDICTED BY IDOCK:   -0.75 KCAL/MOL
REMARK 927      BINDING AFFINITY PREDICTED BY RF-SCORE:    0.00 PKD
ROOT
HETATM    1  C   UNL     1     -12.260  13.973  70.791  1.00  0.00    -0.438 C  
HETATM    2  C   UNL     1     -12.434  14.894  69.594  1.00  0.00    -0.174 C  
ENDROOT
BRANCH   2   3
HETATM    3  C   UNL     1     -11.124  15.218  68.859  1.00  0.00    -0.266 C  
BRANCH   3   4
HETATM    4  N   UNL     1     -10.860  14.510  67.587  1.00  0.00    -0.268 NA 
BRANCH   4   5
HETATM    5  C   UNL     1     -11.884  13.473  67.331  1.00  0.00    -0.384 C  
BRANCH   5   6
HETATM    6  C   UNL     1     -11.357  12.045  67.090  1.00  0.00    -0.396 C  
HETATM    7  C   UNL     1     -10.237  11.976  66.064  1.00  0.00    -0.256 C  
ENDBRANCH   5   6
ENDBRANCH   4   5
BRANCH   4   8
HETATM    8  C   UNL     1     -10.811  15.487  66.468  1.00  0.00    -0.284 C  
BRANCH   8   9
HETATM    9  C   UNL     1      -9.412  15.826  65.903  1.00  0.00    -0.377 C  
BRANCH   9  10
HETATM   10  C   UNL     1      -8.434  16.365  66.916  1.00  0.00    -0.254 A  
HETATM   11  C   UNL     1      -7.537  15.548  67.595  1.00  0.00    -0.182 A  
HETATM   12  C   UNL     1      -7.313  14.063  67.513  1.00  0.00    -0.187 C  
HETATM   13  C   UNL     1      -6.177  13.841  68.514  1.00  0.00    -0.092 C  
HETATM   14  N   UNL     1      -5.857  15.077  69.061  1.00  0.00    -0.095 N  
HETATM   15  O   UNL     1      -5.647  12.778  68.791  1.00  0.00    -0.064 OA 
HETATM   16  H   UNL     1      -5.131  15.225  69.762  1.00  0.00     0.000 HD 
HETATM   17  C   UNL     1      -6.651  16.083  68.533  1.00  0.00    -0.123 A  
HETATM   18  C   UNL     1      -6.608  17.423  68.844  1.00  0.00    -0.218 A  
HETATM   19  C   UNL     1      -7.508  18.256  68.183  1.00  0.00    -0.270 A  
HETATM   20  C   UNL     1      -8.411  17.735  67.237  1.00  0.00    -0.239 A  
ENDBRANCH   9  10
ENDBRANCH   8   9
ENDBRANCH   4   8
ENDBRANCH   3   4
ENDBRANCH   2   3
TORSDOF 7
ENDMDL
MODEL      276
REMARK 921   NORMALIZED FREE ENERGY PREDICTED BY IDOCK:   -3.13 KCAL/MOL
REMARK 922        TOTAL FREE ENERGY PREDICTED BY IDOCK:   -5.29 KCAL/MOL
REMARK 923 INTER-LIGAND FREE ENERGY PREDICTED BY IDOCK:   -5.41 KCAL/MOL
REMARK 924 INTRA-LIGAND FREE ENERGY PREDICTED BY IDOCK:    0.11 KCAL/MOL
REMARK 927      BINDING AFFINITY PREDICTED BY RF-SCORE:    0.00 PKD
ROOT
HETATM    1  C   UNL     1      -7.199  11.362  67.961  1.00  0.00    -0.084 C  
HETATM    2  C   UNL     1      -8.490  12.030  68.406  1.00  0.00    -0.147 C  
ENDROOT
BRANCH   2   3
HETATM    3  C   UNL     1      -8.688  13.445  67.842  1.00  0.00    -0.187 C  
BRANCH   3   4
HETATM    4  N   UNL     1      -9.948  13.724  67.117  1.00  0.00    -0.239 NA 
BRANCH   4   5
HETATM    5  C   UNL     1      -9.967  13.047  65.802  1.00  0.00    -0.254 C  
BRANCH   5   6
HETATM    6  C   UNL     1     -11.195  12.164  65.511  1.00  0.00    -0.381 C  
HETATM    7  C   UNL     1     -11.261  11.669  64.074  1.00  0.00    -0.448 C  
ENDBRANCH   5   6
ENDBRANCH   4   5
BRANCH   4   8
HETATM    8  C   UNL     1     -11.109  13.299  67.943  1.00  0.00    -0.262 C  
BRANCH   8   9
HETATM    9  C   UNL     1     -11.042  13.624  69.453  1.00  0.00    -0.193 C  
BRANCH   9  10
HETATM   10  C   UNL     1     -11.844  12.702  70.336  1.00  0.00    -0.238 A  
HETATM   11  C   UNL     1     -11.761  11.317  70.238  1.00  0.00    -0.415 A  
HETATM   12  C   UNL     1     -10.936  10.450  69.328  1.00  0.00    -0.287 C  
HETATM   13  C   UNL     1     -11.328   9.038  69.769  1.00  0.00     0.062 C  
HETATM   14  N   UNL     1     -12.261   9.164  70.789  1.00  0.00    -0.474 N  
HETATM   15  O   UNL     1     -10.906   7.988  69.312  1.00  0.00    -0.177 OA 
HETATM   16  H   UNL     1     -12.697   8.377  71.270  1.00  0.00     0.000 HD 
HETATM   17  C   UNL     1     -12.526  10.495  71.068  1.00  0.00    -0.400 A  
HETATM   18  C   UNL     1     -13.395  10.987  72.016  1.00  0.00    -0.393 A  
HETATM   19  C   UNL     1     -13.501  12.372  72.121  1.00  0.00    -0.481 A  
HETATM   20  C   UNL     1     -12.740  13.218  71.290  1.00  0.00    -0.411 A  
ENDBRANCH   9  10
ENDBRANCH   8   9
ENDBRANCH   4   8
ENDBRANCH   3   4
ENDBRANCH   2   3
TORSDOF 7
ENDMDL
MODEL      277
REMARK 921   NORMALIZED FREE ENERGY PREDICTED BY IDOCK:   -3.08 KCAL/MOL
REMARK 922        TOTAL FREE ENERGY PREDICTED BY IDOCK:   -5.23 KCAL/MOL
REMARK 923 INTER-LIGAND FREE ENERGY PREDICTED BY IDOCK:   -4.40 KCAL/MOL
REMARK 924 INTRA-LIGAND FREE ENERGY PREDICTED BY IDOCK:   -0.83 KCAL/MOL
REMARK 927      BINDING AFFINITY PREDICTED BY RF-SCORE:    0.00 PKD
ROOT
HETATM    1  C   UNL     1     -11.390  12.198  66.275  1.00  0.00    -0.411 C  
HETATM    2  C   UNL     1     -11.632  12.958  67.569  1.00  0.00    -0.409 C  
ENDROOT
BRANCH   2   3
HETATM    3  C   UNL     1     -10.467  13.868  67.986  1.00  0.00    -0.243 C  
BRANCH   3   4
HETATM    4  N   UNL     1      -9.387  14.094  66.999  1.00  0.00    -0.236 NA 
BRANCH   4   5
HETATM    5  C   UNL     1      -9.091  15.536  66.853  1.00  0.00    -0.241 C  
BRANCH   5   6
HETATM    6  C   UNL     1      -9.259  16.395  68.121  1.00  0.00    -0.201 C  
HETATM    7  C   UNL     1      -8.235  17.514  68.237  1.00  0.00    -0.263 C  
ENDBRANCH   5   6
ENDBRANCH   4   5
BRANCH   4   8
HETATM    8  C   UNL     1      -8.169  13.346  67.406  1.00  0.00    -0.183 C  
BRANCH   8   9
HETATM    9  C   UNL     1      -8.347  12.275  68.506  1.00  0.00    -0.084 C  
BRANCH   9  10
HETATM   10  C   UNL     1      -8.763  10.915  68.004  1.00  0.00    -0.132 A  
HETATM   11  C   UNL     1      -9.601  10.076  68.730  1.00  0.00    -0.168 A  
HETATM   12  C   UNL     1     -10.259  10.272  70.068  1.00  0.00    -0.214 C  
HETATM   13  C   UNL     1     -11.041   8.969  70.249  1.00  0.00    -0.235 C  
HETATM   14  N   UNL     1     -10.804   8.183  69.129  1.00  0.00    -0.412 N  
HETATM   15  O   UNL     1     -11.743   8.667  71.199  1.00  0.00    -0.278 OA 
HETATM   16  H   UNL     1     -11.202   7.255  68.983  1.00  0.00     0.000 HD 
HETATM   17  C   UNL     1      -9.959   8.820  68.235  1.00  0.00    -0.176 A  
HETATM   18  C   UNL     1      -9.513   8.336  67.025  1.00  0.00    -0.226 A  
HETATM   19  C   UNL     1      -8.662   9.158  66.289  1.00  0.00    -0.159 A  
HETATM   20  C   UNL     1      -8.288  10.426  66.772  1.00  0.00    -0.126 A  
ENDBRANCH   9  10
ENDBRANCH   8   9
ENDBRANCH   4   8
ENDBRANCH   3   4
ENDBRANCH   2   3
TORSDOF 7
ENDMDL
MODEL      278
REMARK 921   NORMALIZED FREE ENERGY PREDICTED BY IDOCK:   -3.07 KCAL/MOL
REMARK 922        TOTAL FREE ENERGY PREDICTED BY IDOCK:   -5.21 KCAL/MOL
REMARK 923 INTER-LIGAND FREE ENERGY PREDICTED BY IDOCK:   -4.25 KCAL/MOL
REMARK 924 INTRA-LIGAND FREE ENERGY PREDICTED BY IDOCK:   -0.96 KCAL/MOL
REMARK 927      BINDING AFFINITY PREDICTED BY RF-SCORE:    0.00 PKD
ROOT
HETATM    1  C   UNL     1     -10.300   9.079  71.567  1.00  0.00    -0.412 C  
HETATM    2  C   UNL     1      -9.665   9.552  70.270  1.00  0.00    -0.314 C  
ENDROOT
BRANCH   2   3
HETATM    3  C   UNL     1     -10.463  10.648  69.547  1.00  0.00    -0.204 C  
BRANCH   3   4
HETATM    4  N   UNL     1      -9.698  11.728  68.884  1.00  0.00    -0.056 NA 
BRANCH   4   5
HETATM    5  C   UNL     1      -8.390  11.235  68.400  1.00  0.00    -0.152 C  
BRANCH   5   6
HETATM    6  C   UNL     1      -7.565  12.222  67.553  1.00  0.00    -0.155 C  
HETATM    7  C   UNL     1      -6.359  11.584  66.879  1.00  0.00    -0.146 C  
ENDBRANCH   5   6
ENDBRANCH   4   5
BRANCH   4   8
HETATM    8  C   UNL     1     -10.493  12.294  67.764  1.00  0.00    -0.209 C  
BRANCH   8   9
HETATM    9  C   UNL     1     -11.165  11.281  66.809  1.00  0.00    -0.265 C  
BRANCH   9  10
HETATM   10  C   UNL     1     -10.225  10.594  65.851  1.00  0.00    -0.314 A  
HETATM   11  C   UNL     1      -9.909   9.244  65.955  1.00  0.00    -0.363 A  
HETATM   12  C   UNL     1     -10.371   8.206  66.941  1.00  0.00    -0.401 C  
HETATM   13  C   UNL     1      -9.645   6.947  66.463  1.00  0.00    -0.143 C  
HETATM   14  N   UNL     1      -8.883   7.300  65.357  1.00  0.00    -0.372 N  
HETATM   15  O   UNL     1      -9.713   5.834  66.958  1.00  0.00    -0.127 OA 
HETATM   16  H   UNL     1      -8.293   6.652  64.834  1.00  0.00     0.000 HD 
HETATM   17  C   UNL     1      -9.027   8.644  65.054  1.00  0.00    -0.007 A  
HETATM   18  C   UNL     1      -8.422   9.333  64.027  1.00  0.00    -0.202 A  
HETATM   19  C   UNL     1      -8.716  10.690  63.913  1.00  0.00    -0.134 A  
HETATM   20  C   UNL     1      -9.601  11.313  64.814  1.00  0.00    -0.269 A  
ENDBRANCH   9  10
ENDBRANCH   8   9
ENDBRANCH   4   8
ENDBRANCH   3   4
ENDBRANCH   2   3
TORSDOF 7
ENDMDL
MODEL      279
REMARK 921   NORMALIZED FREE ENERGY PREDICTED BY IDOCK:   -3.06 KCAL/MOL
REMARK 922        TOTAL FREE ENERGY PREDICTED BY IDOCK:   -5.19 KCAL/MOL
REMARK 923 INTER-LIGAND FREE ENERGY PREDICTED BY IDOCK:   -4.24 KCAL/MOL
REMARK 924 INTRA-LIGAND FREE ENERGY PREDICTED BY IDOCK:   -0.95 KCAL/MOL
REMARK 927      BINDING AFFINITY PREDICTED BY RF-SCORE:    0.00 PKD
ROOT
HETATM    1  C   UNL     1     -12.012  14.453  64.696  1.00  0.00    -0.475 C  
HETATM    2  C   UNL     1     -11.509  13.495  65.764  1.00  0.00    -0.331 C  
ENDROOT
BRANCH   2   3
HETATM    3  C   UNL     1     -10.538  12.426  65.237  1.00  0.00    -0.290 C  
BRANCH   3   4
HETATM    4  N   UNL     1      -9.841  11.584  66.234  1.00  0.00    -0.210 NA 
BRANCH   4   5
HETATM    5  C   UNL     1      -8.999  12.406  67.132  1.00  0.00    -0.195 C  
BRANCH   5   6
HETATM    6  C   UNL     1      -7.665  11.777  67.574  1.00  0.00    -0.143 C  
HETATM    7  C   UNL     1      -7.561  11.566  69.077  1.00  0.00    -0.058 C  
ENDBRANCH   5   6
ENDBRANCH   4   5
BRANCH   4   8
HETATM    8  C   UNL     1     -10.834  10.803  67.016  1.00  0.00    -0.252 C  
BRANCH   8   9
HETATM    9  C   UNL     1     -10.492   9.320  67.287  1.00  0.00    -0.334 C  
BRANCH   9  10
HETATM   10  C   UNL     1     -10.296   8.970  68.741  1.00  0.00    -0.236 A  
HETATM   11  C   UNL     1      -9.728   7.769  69.149  1.00  0.00    -0.161 A  
HETATM   12  C   UNL     1      -9.204   6.612  68.344  1.00  0.00    -0.122 C  
HETATM   13  C   UNL     1      -8.719   5.645  69.426  1.00  0.00    -0.109 C  
HETATM   14  N   UNL     1      -8.975   6.235  70.656  1.00  0.00    -0.143 N  
HETATM   15  O   UNL     1      -8.205   4.553  69.250  1.00  0.00    -0.068 OA 
HETATM   16  H   UNL     1      -8.753   5.808  71.556  1.00  0.00     0.000 HD 
HETATM   17  C   UNL     1      -9.570   7.477  70.506  1.00  0.00    -0.168 A  
HETATM   18  C   UNL     1      -9.959   8.338  71.508  1.00  0.00    -0.260 A  
HETATM   19  C   UNL     1     -10.541   9.542  71.119  1.00  0.00    -0.388 A  
HETATM   20  C   UNL     1     -10.712   9.853  69.756  1.00  0.00    -0.298 A  
ENDBRANCH   9  10
ENDBRANCH   8   9
ENDBRANCH   4   8
ENDBRANCH   3   4
ENDBRANCH   2   3
TORSDOF 7
ENDMDL
MODEL      280
REMARK 921   NORMALIZED FREE ENERGY PREDICTED BY IDOCK:   -3.06 KCAL/MOL
REMARK 922        TOTAL FREE ENERGY PREDICTED BY IDOCK:   -5.19 KCAL/MOL
REMARK 923 INTER-LIGAND FREE ENERGY PREDICTED BY IDOCK:   -4.43 KCAL/MOL
REMARK 924 INTRA-LIGAND FREE ENERGY PREDICTED BY IDOCK:   -0.76 KCAL/MOL
REMARK 927      BINDING AFFINITY PREDICTED BY RF-SCORE:    0.00 PKD
ROOT
HETATM    1  C   UNL     1     -13.256  12.373  72.015  1.00  0.00    -0.514 C  
HETATM    2  C   UNL     1     -12.773  11.038  71.471  1.00  0.00    -0.521 C  
ENDROOT
BRANCH   2   3
HETATM    3  C   UNL     1     -13.056  10.834  69.975  1.00  0.00     0.245 C  
BRANCH   3   4
HETATM    4  N   UNL     1     -11.942  11.069  69.029  1.00  0.00    -0.423 NA 
BRANCH   4   5
HETATM    5  C   UNL     1     -12.020  12.424  68.440  1.00  0.00    -0.216 C  
BRANCH   5   6
HETATM    6  C   UNL     1     -11.276  13.538  69.202  1.00  0.00    -0.310 C  
HETATM    7  C   UNL     1     -10.394  14.399  68.310  1.00  0.00    -0.239 C  
ENDBRANCH   5   6
ENDBRANCH   4   5
BRANCH   4   8
HETATM    8  C   UNL     1     -10.643  10.872  69.723  1.00  0.00    -0.074 C  
BRANCH   8   9
HETATM    9  C   UNL     1      -9.564  10.070  68.959  1.00  0.00    -0.200 C  
BRANCH   9  10
HETATM   10  C   UNL     1      -9.956   8.657  68.606  1.00  0.00    -0.197 A  
HETATM   11  C   UNL     1      -9.548   8.043  67.428  1.00  0.00    -0.196 A  
HETATM   12  C   UNL     1      -8.692   8.557  66.303  1.00  0.00    -0.164 C  
HETATM   13  C   UNL     1      -8.642   7.361  65.349  1.00  0.00    -0.041 C  
HETATM   14  N   UNL     1      -9.399   6.344  65.916  1.00  0.00    -0.367 N  
HETATM   15  O   UNL     1      -8.052   7.304  64.283  1.00  0.00    -0.126 OA 
HETATM   16  H   UNL     1      -9.540   5.428  65.492  1.00  0.00     0.000 HD 
HETATM   17  C   UNL     1      -9.937   6.735  67.132  1.00  0.00    -0.167 A  
HETATM   18  C   UNL     1     -10.736   5.984  67.965  1.00  0.00    -0.359 A  
HETATM   19  C   UNL     1     -11.165   6.587  69.145  1.00  0.00    -0.367 A  
HETATM   20  C   UNL     1     -10.785   7.906  69.460  1.00  0.00    -0.195 A  
ENDBRANCH   9  10
ENDBRANCH   8   9
ENDBRANCH   4   8
ENDBRANCH   3   4
ENDBRANCH   2   3
TORSDOF 7
ENDMDL
MODEL      281
REMARK 921   NORMALIZED FREE ENERGY PREDICTED BY IDOCK:   -3.06 KCAL/MOL
REMARK 922        TOTAL FREE ENERGY PREDICTED BY IDOCK:   -5.19 KCAL/MOL
REMARK 923 INTER-LIGAND FREE ENERGY PREDICTED BY IDOCK:   -4.87 KCAL/MOL
REMARK 924 INTRA-LIGAND FREE ENERGY PREDICTED BY IDOCK:   -0.32 KCAL/MOL
REMARK 927      BINDING AFFINITY PREDICTED BY RF-SCORE:    0.00 PKD
ROOT
HETATM    1  C   UNL     1      -9.542   9.627  66.402  1.00  0.00    -0.268 C  
HETATM    2  C   UNL     1      -9.322   8.156  66.718  1.00  0.00    -0.233 C  
ENDROOT
BRANCH   2   3
HETATM    3  C   UNL     1     -10.456   7.516  67.534  1.00  0.00    -0.271 C  
BRANCH   3   4
HETATM    4  N   UNL     1     -10.077   6.585  68.619  1.00  0.00    -0.153 NA 
BRANCH   4   5
HETATM    5  C   UNL     1     -10.046   5.186  68.136  1.00  0.00    -0.129 C  
BRANCH   5   6
HETATM    6  C   UNL     1      -9.759   4.108  69.198  1.00  0.00    -0.205 C  
HETATM    7  C   UNL     1      -9.955   4.595  70.626  1.00  0.00    -0.293 C  
ENDBRANCH   5   6
ENDBRANCH   4   5
BRANCH   4   8
HETATM    8  C   UNL     1      -8.758   6.976  69.181  1.00  0.00    -0.132 C  
BRANCH   8   9
HETATM    9  C   UNL     1      -8.736   8.218  70.101  1.00  0.00    -0.133 C  
BRANCH   9  10
HETATM   10  C   UNL     1      -9.997   8.438  70.898  1.00  0.00    -0.230 A  
HETATM   11  C   UNL     1     -10.870   9.488  70.639  1.00  0.00    -0.371 A  
HETATM   12  C   UNL     1     -10.809  10.576  69.603  1.00  0.00    -0.320 C  
HETATM   13  C   UNL     1     -12.087  11.371  69.879  1.00  0.00    -0.330 C  
HETATM   14  N   UNL     1     -12.731  10.765  70.949  1.00  0.00    -0.372 N  
HETATM   15  O   UNL     1     -12.475  12.359  69.278  1.00  0.00     0.035 OA 
HETATM   16  H   UNL     1     -13.612  11.089  71.349  1.00  0.00     0.000 HD 
HETATM   17  C   UNL     1     -12.025   9.664  71.405  1.00  0.00    -0.399 A  
HETATM   18  C   UNL     1     -12.367   8.830  72.446  1.00  0.00    -0.414 A  
HETATM   19  C   UNL     1     -11.499   7.779  72.729  1.00  0.00    -0.415 A  
HETATM   20  C   UNL     1     -10.328   7.587  71.970  1.00  0.00    -0.236 A  
ENDBRANCH   9  10
ENDBRANCH   8   9
ENDBRANCH   4   8
ENDBRANCH   3   4
ENDBRANCH   2   3
TORSDOF 7
ENDMDL
MODEL      282
REMARK 921   NORMALIZED FREE ENERGY PREDICTED BY IDOCK:   -3.03 KCAL/MOL
REMARK 922        TOTAL FREE ENERGY PREDICTED BY IDOCK:   -5.16 KCAL/MOL
REMARK 923 INTER-LIGAND FREE ENERGY PREDICTED BY IDOCK:   -4.48 KCAL/MOL
REMARK 924 INTRA-LIGAND FREE ENERGY PREDICTED BY IDOCK:   -0.68 KCAL/MOL
REMARK 927      BINDING AFFINITY PREDICTED BY RF-SCORE:    0.00 PKD
ROOT
HETATM    1  C   UNL     1     -10.373   3.609  63.956  1.00  0.00    -0.259 C  
HETATM    2  C   UNL     1      -9.615   4.488  64.937  1.00  0.00    -0.126 C  
ENDROOT
BRANCH   2   3
HETATM    3  C   UNL     1     -10.276   4.594  66.321  1.00  0.00    -0.275 C  
BRANCH   3   4
HETATM    4  N   UNL     1      -9.441   5.079  67.442  1.00  0.00    -0.130 NA 
BRANCH   4   5
HETATM    5  C   UNL     1      -8.488   4.037  67.886  1.00  0.00    -0.094 C  
BRANCH   5   6
HETATM    6  C   UNL     1      -8.577   3.624  69.368  1.00  0.00    -0.108 C  
HETATM    7  C   UNL     1      -9.723   4.288  70.116  1.00  0.00    -0.282 C  
ENDBRANCH   5   6
ENDBRANCH   4   5
BRANCH   4   8
HETATM    8  C   UNL     1      -8.719   6.312  67.037  1.00  0.00    -0.108 C  
BRANCH   8   9
HETATM    9  C   UNL     1      -9.425   7.657  67.326  1.00  0.00    -0.185 C  
BRANCH   9  10
HETATM   10  C   UNL     1      -9.383   8.651  66.194  1.00  0.00    -0.291 A  
HETATM   11  C   UNL     1     -10.086   9.850  66.228  1.00  0.00    -0.311 A  
HETATM   12  C   UNL     1     -10.982  10.428  67.289  1.00  0.00    -0.306 C  
HETATM   13  C   UNL     1     -11.403  11.766  66.676  1.00  0.00    -0.316 C  
HETATM   14  N   UNL     1     -10.798  11.862  65.430  1.00  0.00    -0.287 N  
HETATM   15  O   UNL     1     -12.138  12.599  67.180  1.00  0.00    -0.466 OA 
HETATM   16  H   UNL     1     -10.908  12.655  64.798  1.00  0.00     0.000 HD 
HETATM   17  C   UNL     1     -10.028  10.743  65.156  1.00  0.00    -0.291 A  
HETATM   18  C   UNL     1      -9.292  10.502  64.018  1.00  0.00    -0.308 A  
HETATM   19  C   UNL     1      -8.590   9.300  63.960  1.00  0.00    -0.204 A  
HETATM   20  C   UNL     1      -8.638   8.385  65.030  1.00  0.00    -0.133 A  
ENDBRANCH   9  10
ENDBRANCH   8   9
ENDBRANCH   4   8
ENDBRANCH   3   4
ENDBRANCH   2   3
TORSDOF 7
ENDMDL
MODEL      283
REMARK 921   NORMALIZED FREE ENERGY PREDICTED BY IDOCK:   -3.03 KCAL/MOL
REMARK 922        TOTAL FREE ENERGY PREDICTED BY IDOCK:   -5.15 KCAL/MOL
REMARK 923 INTER-LIGAND FREE ENERGY PREDICTED BY IDOCK:   -4.43 KCAL/MOL
REMARK 924 INTRA-LIGAND FREE ENERGY PREDICTED BY IDOCK:   -0.72 KCAL/MOL
REMARK 927      BINDING AFFINITY PREDICTED BY RF-SCORE:    0.00 PKD
ROOT
HETATM    1  C   UNL     1     -10.236   4.597  66.340  1.00  0.00    -0.293 C  
HETATM    2  C   UNL     1      -8.987   5.449  66.508  1.00  0.00    -0.120 C  
ENDROOT
BRANCH   2   3
HETATM    3  C   UNL     1      -8.992   6.321  67.773  1.00  0.00    -0.112 C  
BRANCH   3   4
HETATM    4  N   UNL     1      -8.555   5.692  69.040  1.00  0.00    -0.105 NA 
BRANCH   4   5
HETATM    5  C   UNL     1      -7.448   6.453  69.660  1.00  0.00    -0.085 C  
BRANCH   5   6
HETATM    6  C   UNL     1      -6.078   5.751  69.693  1.00  0.00    -0.025 C  
HETATM    7  C   UNL     1      -6.174   4.235  69.786  1.00  0.00    -0.027 C  
ENDBRANCH   5   6
ENDBRANCH   4   5
BRANCH   4   8
HETATM    8  C   UNL     1      -9.707   5.586  69.972  1.00  0.00    -0.178 C  
BRANCH   8   9
HETATM    9  C   UNL     1     -11.040   6.213  69.503  1.00  0.00    -0.490 C  
BRANCH   9  10
HETATM   10  C   UNL     1     -11.517   7.381  70.329  1.00  0.00    -0.206 A  
HETATM   11  C   UNL     1     -11.153   8.692  70.046  1.00  0.00    -0.161 A  
HETATM   12  C   UNL     1     -10.283   9.251  68.955  1.00  0.00    -0.217 C  
HETATM   13  C   UNL     1     -10.325  10.755  69.232  1.00  0.00    -0.205 C  
HETATM   14  N   UNL     1     -11.122  10.950  70.352  1.00  0.00    -0.459 N  
HETATM   15  O   UNL     1      -9.762  11.630  68.595  1.00  0.00    -0.192 OA 
HETATM   16  H   UNL     1     -11.324  11.861  70.763  1.00  0.00     0.000 HD 
HETATM   17  C   UNL     1     -11.609   9.748  70.839  1.00  0.00    -0.361 A  
HETATM   18  C   UNL     1     -12.427   9.565  71.931  1.00  0.00    -0.465 A  
HETATM   19  C   UNL     1     -12.793   8.256  72.238  1.00  0.00    -0.313 A  
HETATM   20  C   UNL     1     -12.341   7.179  71.452  1.00  0.00    -0.415 A  
ENDBRANCH   9  10
ENDBRANCH   8   9
ENDBRANCH   4   8
ENDBRANCH   3   4
ENDBRANCH   2   3
TORSDOF 7
ENDMDL
MODEL      284
REMARK 921   NORMALIZED FREE ENERGY PREDICTED BY IDOCK:   -3.01 KCAL/MOL
REMARK 922        TOTAL FREE ENERGY PREDICTED BY IDOCK:   -5.13 KCAL/MOL
REMARK 923 INTER-LIGAND FREE ENERGY PREDICTED BY IDOCK:   -5.04 KCAL/MOL
REMARK 924 INTRA-LIGAND FREE ENERGY PREDICTED BY IDOCK:   -0.08 KCAL/MOL
REMARK 927      BINDING AFFINITY PREDICTED BY RF-SCORE:    0.00 PKD
ROOT
HETATM    1  C   UNL     1     -10.701   5.055  73.501  1.00  0.00    -0.339 C  
HETATM    2  C   UNL     1     -10.691   6.556  73.263  1.00  0.00    -0.300 C  
ENDROOT
BRANCH   2   3
HETATM    3  C   UNL     1     -11.352   6.983  71.943  1.00  0.00    -0.257 C  
BRANCH   3   4
HETATM    4  N   UNL     1     -10.516   6.963  70.722  1.00  0.00    -0.214 NA 
BRANCH   4   5
HETATM    5  C   UNL     1     -11.054   6.013  69.723  1.00  0.00    -0.406 C  
BRANCH   5   6
HETATM    6  C   UNL     1     -10.392   4.622  69.685  1.00  0.00     0.041 C  
HETATM    7  C   UNL     1      -9.002   4.595  70.304  1.00  0.00    -0.144 C  
ENDBRANCH   5   6
ENDBRANCH   4   5
BRANCH   4   8
HETATM    8  C   UNL     1     -10.428   8.332  70.149  1.00  0.00    -0.225 C  
BRANCH   8   9
HETATM    9  C   UNL     1     -10.693   8.468  68.632  1.00  0.00    -0.082 C  
BRANCH   9  10
HETATM   10  C   UNL     1     -10.982   9.871  68.163  1.00  0.00    -0.261 A  
HETATM   11  C   UNL     1     -11.540  10.836  68.995  1.00  0.00    -0.370 A  
HETATM   12  C   UNL     1     -11.958  10.758  70.437  1.00  0.00    -0.448 C  
HETATM   13  C   UNL     1     -12.471  12.173  70.712  1.00  0.00    -0.271 C  
HETATM   14  N   UNL     1     -12.341  12.899  69.535  1.00  0.00    -0.085 N  
HETATM   15  O   UNL     1     -12.918  12.595  71.766  1.00  0.00    -0.370 OA 
HETATM   16  H   UNL     1     -12.610  13.877  69.430  1.00  0.00     0.000 HD 
HETATM   17  C   UNL     1     -11.801  12.123  68.522  1.00  0.00    -0.310 A  
HETATM   18  C   UNL     1     -11.534  12.515  67.229  1.00  0.00    -0.416 A  
HETATM   19  C   UNL     1     -10.986  11.559  66.377  1.00  0.00    -0.336 A  
HETATM   20  C   UNL     1     -10.719  10.255  66.834  1.00  0.00    -0.252 A  
ENDBRANCH   9  10
ENDBRANCH   8   9
ENDBRANCH   4   8
ENDBRANCH   3   4
ENDBRANCH   2   3
TORSDOF 7
ENDMDL
MODEL      285
REMARK 921   NORMALIZED FREE ENERGY PREDICTED BY IDOCK:   -3.00 KCAL/MOL
REMARK 922        TOTAL FREE ENERGY PREDICTED BY IDOCK:   -5.11 KCAL/MOL
REMARK 923 INTER-LIGAND FREE ENERGY PREDICTED BY IDOCK:   -4.10 KCAL/MOL
REMARK 924 INTRA-LIGAND FREE ENERGY PREDICTED BY IDOCK:   -1.01 KCAL/MOL
REMARK 927      BINDING AFFINITY PREDICTED BY RF-SCORE:    0.00 PKD
ROOT
HETATM    1  C   UNL     1     -11.629   7.976  72.443  1.00  0.00    -0.450 C  
HETATM    2  C   UNL     1     -11.309   6.964  71.353  1.00  0.00    -0.308 C  
ENDROOT
BRANCH   2   3
HETATM    3  C   UNL     1     -10.940   7.597  70.003  1.00  0.00    -0.228 C  
BRANCH   3   4
HETATM    4  N   UNL     1      -9.502   7.719  69.675  1.00  0.00    -0.157 NA 
BRANCH   4   5
HETATM    5  C   UNL     1      -8.702   6.704  70.396  1.00  0.00    -0.151 C  
BRANCH   5   6
HETATM    6  C   UNL     1      -7.487   7.232  71.182  1.00  0.00    -0.079 C  
HETATM    7  C   UNL     1      -7.562   8.720  71.490  1.00  0.00    -0.130 C  
ENDBRANCH   5   6
ENDBRANCH   4   5
BRANCH   4   8
HETATM    8  C   UNL     1      -9.308   7.593  68.207  1.00  0.00    -0.145 C  
BRANCH   8   9
HETATM    9  C   UNL     1      -8.160   8.421  67.585  1.00  0.00    -0.118 C  
BRANCH   9  10
HETATM   10  C   UNL     1      -8.409   9.907  67.529  1.00  0.00    -0.114 A  
HETATM   11  C   UNL     1      -9.090  10.510  66.477  1.00  0.00    -0.175 A  
HETATM   12  C   UNL     1      -9.705   9.913  65.241  1.00  0.00    -0.383 C  
HETATM   13  C   UNL     1     -10.293  11.138  64.537  1.00  0.00    -0.337 C  
HETATM   14  N   UNL     1     -10.003  12.247  65.320  1.00  0.00    -0.329 N  
HETATM   15  O   UNL     1     -10.902  11.148  63.480  1.00  0.00    -0.352 OA 
HETATM   16  H   UNL     1     -10.277  13.202  65.088  1.00  0.00     0.000 HD 
HETATM   17  C   UNL     1      -9.295  11.891  66.457  1.00  0.00    -0.216 A  
HETATM   18  C   UNL     1      -8.845  12.731  67.451  1.00  0.00    -0.190 A  
HETATM   19  C   UNL     1      -8.149  12.147  68.507  1.00  0.00    -0.112 A  
HETATM   20  C   UNL     1      -7.930  10.756  68.544  1.00  0.00    -0.130 A  
ENDBRANCH   9  10
ENDBRANCH   8   9
ENDBRANCH   4   8
ENDBRANCH   3   4
ENDBRANCH   2   3
TORSDOF 7
ENDMDL
MODEL      286
REMARK 921   NORMALIZED FREE ENERGY PREDICTED BY IDOCK:   -3.00 KCAL/MOL
REMARK 922        TOTAL FREE ENERGY PREDICTED BY IDOCK:   -5.10 KCAL/MOL
REMARK 923 INTER-LIGAND FREE ENERGY PREDICTED BY IDOCK:   -4.31 KCAL/MOL
REMARK 924 INTRA-LIGAND FREE ENERGY PREDICTED BY IDOCK:   -0.80 KCAL/MOL
REMARK 927      BINDING AFFINITY PREDICTED BY RF-SCORE:    0.00 PKD
ROOT
HETATM    1  C   UNL     1      -9.838   3.480  71.216  1.00  0.00    -0.205 C  
HETATM    2  C   UNL     1      -9.934   4.844  71.882  1.00  0.00    -0.250 C  
ENDROOT
BRANCH   2   3
HETATM    3  C   UNL     1      -9.678   6.023  70.930  1.00  0.00    -0.174 C  
BRANCH   3   4
HETATM    4  N   UNL     1      -8.533   6.910  71.232  1.00  0.00    -0.119 NA 
BRANCH   4   5
HETATM    5  C   UNL     1      -7.267   6.145  71.291  1.00  0.00    -0.079 C  
BRANCH   5   6
HETATM    6  C   UNL     1      -6.645   5.758  69.936  1.00  0.00    -0.046 C  
HETATM    7  C   UNL     1      -6.189   4.308  69.870  1.00  0.00    -0.027 C  
ENDBRANCH   5   6
ENDBRANCH   4   5
BRANCH   4   8
HETATM    8  C   UNL     1      -8.448   7.987  70.212  1.00  0.00    -0.127 C  
BRANCH   8   9
HETATM    9  C   UNL     1      -9.614   8.078  69.200  1.00  0.00    -0.156 C  
BRANCH   9  10
HETATM   10  C   UNL     1     -10.445   9.332  69.303  1.00  0.00    -0.228 A  
HETATM   11  C   UNL     1     -10.637  10.191  68.227  1.00  0.00    -0.262 A  
HETATM   12  C   UNL     1     -10.128  10.114  66.813  1.00  0.00    -0.277 C  
HETATM   13  C   UNL     1     -10.728  11.369  66.175  1.00  0.00    -0.267 C  
HETATM   14  N   UNL     1     -11.458  12.026  67.156  1.00  0.00    -0.334 N  
HETATM   15  O   UNL     1     -10.593  11.734  65.019  1.00  0.00    -0.267 OA 
HETATM   16  H   UNL     1     -11.967  12.898  67.007  1.00  0.00     0.000 HD 
HETATM   17  C   UNL     1     -11.408  11.347  68.363  1.00  0.00    -0.281 A  
HETATM   18  C   UNL     1     -12.013  11.709  69.545  1.00  0.00    -0.383 A  
HETATM   19  C   UNL     1     -11.823  10.868  70.639  1.00  0.00    -0.453 A  
HETATM   20  C   UNL     1     -11.047   9.699  70.522  1.00  0.00    -0.369 A  
ENDBRANCH   9  10
ENDBRANCH   8   9
ENDBRANCH   4   8
ENDBRANCH   3   4
ENDBRANCH   2   3
TORSDOF 7
ENDMDL
MODEL      287
REMARK 921   NORMALIZED FREE ENERGY PREDICTED BY IDOCK:   -2.99 KCAL/MOL
REMARK 922        TOTAL FREE ENERGY PREDICTED BY IDOCK:   -5.09 KCAL/MOL
REMARK 923 INTER-LIGAND FREE ENERGY PREDICTED BY IDOCK:   -4.43 KCAL/MOL
REMARK 924 INTRA-LIGAND FREE ENERGY PREDICTED BY IDOCK:   -0.66 KCAL/MOL
REMARK 927      BINDING AFFINITY PREDICTED BY RF-SCORE:    0.00 PKD
ROOT
HETATM    1  C   UNL     1     -11.066   7.436  72.988  1.00  0.00    -0.390 C  
HETATM    2  C   UNL     1     -11.727   6.448  72.040  1.00  0.00    -0.376 C  
ENDROOT
BRANCH   2   3
HETATM    3  C   UNL     1     -11.913   6.983  70.611  1.00  0.00    -0.313 C  
BRANCH   3   4
HETATM    4  N   UNL     1     -10.732   6.977  69.719  1.00  0.00    -0.233 NA 
BRANCH   4   5
HETATM    5  C   UNL     1     -11.074   6.432  68.386  1.00  0.00    -0.285 C  
BRANCH   5   6
HETATM    6  C   UNL     1     -10.119   5.360  67.827  1.00  0.00    -0.215 C  
HETATM    7  C   UNL     1     -10.115   5.283  66.308  1.00  0.00    -0.239 C  
ENDBRANCH   5   6
ENDBRANCH   4   5
BRANCH   4   8
HETATM    8  C   UNL     1     -10.184   8.353  69.599  1.00  0.00    -0.209 C  
BRANCH   8   9
HETATM    9  C   UNL     1      -8.876   8.511  68.790  1.00  0.00    -0.139 C  
BRANCH   9  10
HETATM   10  C   UNL     1      -8.980   9.414  67.587  1.00  0.00    -0.125 A  
HETATM   11  C   UNL     1      -8.460  10.703  67.575  1.00  0.00    -0.121 A  
HETATM   12  C   UNL     1      -7.726  11.471  68.640  1.00  0.00    -0.139 C  
HETATM   13  C   UNL     1      -7.441  12.807  67.951  1.00  0.00    -0.127 C  
HETATM   14  N   UNL     1      -7.980  12.739  66.673  1.00  0.00    -0.382 N  
HETATM   15  O   UNL     1      -6.854  13.763  68.429  1.00  0.00    -0.083 OA 
HETATM   16  H   UNL     1      -7.937  13.496  65.990  1.00  0.00     0.000 HD 
HETATM   17  C   UNL     1      -8.583  11.513  66.444  1.00  0.00    -0.159 A  
HETATM   18  C   UNL     1      -9.215  11.101  65.292  1.00  0.00    -0.218 A  
HETATM   19  C   UNL     1      -9.753   9.816  65.289  1.00  0.00    -0.371 A  
HETATM   20  C   UNL     1      -9.642   8.985  66.421  1.00  0.00    -0.309 A  
ENDBRANCH   9  10
ENDBRANCH   8   9
ENDBRANCH   4   8
ENDBRANCH   3   4
ENDBRANCH   2   3
TORSDOF 7
ENDMDL
MODEL      288
REMARK 921   NORMALIZED FREE ENERGY PREDICTED BY IDOCK:   -2.99 KCAL/MOL
REMARK 922        TOTAL FREE ENERGY PREDICTED BY IDOCK:   -5.09 KCAL/MOL
REMARK 923 INTER-LIGAND FREE ENERGY PREDICTED BY IDOCK:   -4.42 KCAL/MOL
REMARK 924 INTRA-LIGAND FREE ENERGY PREDICTED BY IDOCK:   -0.67 KCAL/MOL
REMARK 927      BINDING AFFINITY PREDICTED BY RF-SCORE:    0.00 PKD
ROOT
HETATM    1  C   UNL     1     -10.603   5.066  66.023  1.00  0.00    -0.286 C  
HETATM    2  C   UNL     1      -9.492   4.032  66.114  1.00  0.00    -0.192 C  
ENDROOT
BRANCH   2   3
HETATM    3  C   UNL     1      -9.298   3.447  67.522  1.00  0.00    -0.204 C  
BRANCH   3   4
HETATM    4  N   UNL     1      -8.195   3.992  68.343  1.00  0.00    -0.082 NA 
BRANCH   4   5
HETATM    5  C   UNL     1      -7.156   4.616  67.494  1.00  0.00    -0.065 C  
BRANCH   5   6
HETATM    6  C   UNL     1      -5.735   4.035  67.624  1.00  0.00    -0.022 C  
HETATM    7  C   UNL     1      -5.667   2.784  68.486  1.00  0.00    -0.023 C  
ENDBRANCH   5   6
ENDBRANCH   4   5
BRANCH   4   8
HETATM    8  C   UNL     1      -8.733   4.973  69.322  1.00  0.00    -0.091 C  
BRANCH   8   9
HETATM    9  C   UNL     1      -9.907   4.496  70.208  1.00  0.00    -0.299 C  
BRANCH   9  10
HETATM   10  C   UNL     1     -10.036   5.213  71.528  1.00  0.00    -0.248 A  
HETATM   11  C   UNL     1     -10.939   6.251  71.728  1.00  0.00    -0.305 A  
HETATM   12  C   UNL     1     -11.933   6.876  70.788  1.00  0.00    -0.424 C  
HETATM   13  C   UNL     1     -12.594   7.942  71.663  1.00  0.00    -0.321 C  
HETATM   14  N   UNL     1     -11.998   7.881  72.916  1.00  0.00    -0.619 N  
HETATM   15  O   UNL     1     -13.480   8.712  71.330  1.00  0.00    -0.311 OA 
HETATM   16  H   UNL     1     -12.246   8.484  73.701  1.00  0.00     0.000 HD 
HETATM   17  C   UNL     1     -11.024   6.897  72.963  1.00  0.00    -0.274 A  
HETATM   18  C   UNL     1     -10.236   6.560  74.041  1.00  0.00    -0.374 A  
HETATM   19  C   UNL     1      -9.316   5.530  73.856  1.00  0.00    -0.133 A  
HETATM   20  C   UNL     1      -9.213   4.869  72.617  1.00  0.00    -0.145 A  
ENDBRANCH   9  10
ENDBRANCH   8   9
ENDBRANCH   4   8
ENDBRANCH   3   4
ENDBRANCH   2   3
TORSDOF 7
ENDMDL
MODEL      289
REMARK 921   NORMALIZED FREE ENERGY PREDICTED BY IDOCK:   -2.98 KCAL/MOL
REMARK 922        TOTAL FREE ENERGY PREDICTED BY IDOCK:   -5.09 KCAL/MOL
REMARK 923 INTER-LIGAND FREE ENERGY PREDICTED BY IDOCK:   -4.11 KCAL/MOL
REMARK 924 INTRA-LIGAND FREE ENERGY PREDICTED BY IDOCK:   -0.98 KCAL/MOL
REMARK 927      BINDING AFFINITY PREDICTED BY RF-SCORE:    0.00 PKD
ROOT
HETATM    1  C   UNL     1      -6.638  17.869  68.601  1.00  0.00    -0.220 C  
HETATM    2  C   UNL     1      -6.045  17.026  67.484  1.00  0.00    -0.163 C  
ENDROOT
BRANCH   2   3
HETATM    3  C   UNL     1      -6.964  15.894  67.000  1.00  0.00    -0.138 C  
BRANCH   3   4
HETATM    4  N   UNL     1      -8.289  15.765  67.647  1.00  0.00    -0.153 NA 
BRANCH   4   5
HETATM    5  C   UNL     1      -9.382  15.954  66.667  1.00  0.00    -0.249 C  
BRANCH   5   6
HETATM    6  C   UNL     1     -10.805  15.651  67.172  1.00  0.00    -0.297 C  
HETATM    7  C   UNL     1     -11.550  14.636  66.318  1.00  0.00    -0.344 C  
ENDBRANCH   5   6
ENDBRANCH   4   5
BRANCH   4   8
HETATM    8  C   UNL     1      -8.400  14.438  68.307  1.00  0.00    -0.158 C  
BRANCH   8   9
HETATM    9  C   UNL     1      -8.181  13.197  67.412  1.00  0.00    -0.187 C  
BRANCH   9  10
HETATM   10  C   UNL     1      -9.179  12.085  67.616  1.00  0.00    -0.182 A  
HETATM   11  C   UNL     1      -9.220  10.960  66.800  1.00  0.00    -0.174 A  
HETATM   12  C   UNL     1      -8.371  10.579  65.618  1.00  0.00    -0.167 C  
HETATM   13  C   UNL     1      -8.953   9.223  65.214  1.00  0.00    -0.213 C  
HETATM   14  N   UNL     1      -9.996   8.941  66.086  1.00  0.00    -0.404 N  
HETATM   15  O   UNL     1      -8.580   8.515  64.294  1.00  0.00    -0.108 OA 
HETATM   16  H   UNL     1     -10.566   8.096  66.046  1.00  0.00     0.000 HD 
HETATM   17  C   UNL     1     -10.164   9.954  67.016  1.00  0.00    -0.233 A  
HETATM   18  C   UNL     1     -11.099  10.008  68.026  1.00  0.00    -0.263 A  
HETATM   19  C   UNL     1     -11.081  11.133  68.847  1.00  0.00    -0.293 A  
HETATM   20  C   UNL     1     -10.139  12.159  68.643  1.00  0.00    -0.161 A  
ENDBRANCH   9  10
ENDBRANCH   8   9
ENDBRANCH   4   8
ENDBRANCH   3   4
ENDBRANCH   2   3
TORSDOF 7
ENDMDL
MODEL      290
REMARK 921   NORMALIZED FREE ENERGY PREDICTED BY IDOCK:   -2.97 KCAL/MOL
REMARK 922        TOTAL FREE ENERGY PREDICTED BY IDOCK:   -5.07 KCAL/MOL
REMARK 923 INTER-LIGAND FREE ENERGY PREDICTED BY IDOCK:   -4.56 KCAL/MOL
REMARK 924 INTRA-LIGAND FREE ENERGY PREDICTED BY IDOCK:   -0.51 KCAL/MOL
REMARK 927      BINDING AFFINITY PREDICTED BY RF-SCORE:    0.00 PKD
ROOT
HETATM    1  C   UNL     1      -8.796   7.911  73.383  1.00  0.00    -0.324 C  
HETATM    2  C   UNL     1     -10.126   7.174  73.375  1.00  0.00    -0.345 C  
ENDROOT
BRANCH   2   3
HETATM    3  C   UNL     1     -11.291   7.992  72.797  1.00  0.00    -0.374 C  
BRANCH   3   4
HETATM    4  N   UNL     1     -12.104   7.367  71.731  1.00  0.00    -0.300 NA 
BRANCH   4   5
HETATM    5  C   UNL     1     -13.448   7.982  71.655  1.00  0.00    -0.337 C  
BRANCH   5   6
HETATM    6  C   UNL     1     -13.561   9.430  72.170  1.00  0.00    -0.528 C  
HETATM    7  C   UNL     1     -13.124  10.472  71.152  1.00  0.00    -0.450 C  
ENDBRANCH   5   6
ENDBRANCH   4   5
BRANCH   4   8
HETATM    8  C   UNL     1     -11.400   7.480  70.428  1.00  0.00    -0.233 C  
BRANCH   8   9
HETATM    9  C   UNL     1     -11.294   6.190  69.582  1.00  0.00    -0.442 C  
BRANCH   9  10
HETATM   10  C   UNL     1     -10.249   6.230  68.495  1.00  0.00    -0.205 A  
HETATM   11  C   UNL     1      -8.999   5.639  68.641  1.00  0.00    -0.113 A  
HETATM   12  C   UNL     1      -8.407   4.875  69.793  1.00  0.00    -0.077 C  
HETATM   13  C   UNL     1      -7.017   4.509  69.271  1.00  0.00    -0.050 C  
HETATM   14  N   UNL     1      -6.900   5.035  67.992  1.00  0.00    -0.058 N  
HETATM   15  O   UNL     1      -6.160   3.874  69.864  1.00  0.00    -0.021 OA 
HETATM   16  H   UNL     1      -6.071   4.942  67.405  1.00  0.00     0.000 HD 
HETATM   17  C   UNL     1      -8.054   5.703  67.614  1.00  0.00    -0.101 A  
HETATM   18  C   UNL     1      -8.289   6.343  66.418  1.00  0.00    -0.119 A  
HETATM   19  C   UNL     1      -9.532   6.952  66.258  1.00  0.00    -0.122 A  
HETATM   20  C   UNL     1     -10.497   6.901  67.283  1.00  0.00    -0.357 A  
ENDBRANCH   9  10
ENDBRANCH   8   9
ENDBRANCH   4   8
ENDBRANCH   3   4
ENDBRANCH   2   3
TORSDOF 7
ENDMDL
MODEL      291
REMARK 921   NORMALIZED FREE ENERGY PREDICTED BY IDOCK:   -2.97 KCAL/MOL
REMARK 922        TOTAL FREE ENERGY PREDICTED BY IDOCK:   -5.06 KCAL/MOL
REMARK 923 INTER-LIGAND FREE ENERGY PREDICTED BY IDOCK:   -4.41 KCAL/MOL
REMARK 924 INTRA-LIGAND FREE ENERGY PREDICTED BY IDOCK:   -0.65 KCAL/MOL
REMARK 927      BINDING AFFINITY PREDICTED BY RF-SCORE:    0.00 PKD
ROOT
HETATM    1  C   UNL     1      -7.507   9.913  64.083  1.00  0.00    -0.139 C  
HETATM    2  C   UNL     1      -7.983   8.923  65.134  1.00  0.00    -0.122 C  
ENDROOT
BRANCH   2   3
HETATM    3  C   UNL     1      -9.460   9.087  65.524  1.00  0.00    -0.150 C  
BRANCH   3   4
HETATM    4  N   UNL     1      -9.768   9.325  66.951  1.00  0.00    -0.175 NA 
BRANCH   4   5
HETATM    5  C   UNL     1     -10.993  10.141  67.104  1.00  0.00    -0.134 C  
BRANCH   5   6
HETATM    6  C   UNL     1     -10.786  11.666  67.180  1.00  0.00    -0.306 C  
HETATM    7  C   UNL     1     -11.020  12.242  68.569  1.00  0.00    -0.275 C  
ENDBRANCH   5   6
ENDBRANCH   4   5
BRANCH   4   8
HETATM    8  C   UNL     1      -9.912   8.026  67.659  1.00  0.00    -0.180 C  
BRANCH   8   9
HETATM    9  C   UNL     1      -9.231   7.910  69.042  1.00  0.00    -0.147 C  
BRANCH   9  10
HETATM   10  C   UNL     1     -10.161   8.047  70.220  1.00  0.00    -0.200 A  
HETATM   11  C   UNL     1     -10.505   6.970  71.029  1.00  0.00    -0.231 A  
HETATM   12  C   UNL     1     -10.086   5.527  70.964  1.00  0.00    -0.271 C  
HETATM   13  C   UNL     1     -10.824   4.912  72.155  1.00  0.00    -0.066 C  
HETATM   14  N   UNL     1     -11.553   5.926  72.762  1.00  0.00    -0.486 N  
HETATM   15  O   UNL     1     -10.788   3.746  72.512  1.00  0.00    -0.033 OA 
HETATM   16  H   UNL     1     -12.143   5.797  73.584  1.00  0.00     0.000 HD 
HETATM   17  C   UNL     1     -11.377   7.135  72.107  1.00  0.00    -0.264 A  
HETATM   18  C   UNL     1     -11.945   8.346  72.433  1.00  0.00    -0.451 A  
HETATM   19  C   UNL     1     -11.623   9.435  71.627  1.00  0.00    -0.466 A  
HETATM   20  C   UNL     1     -10.748   9.288  70.533  1.00  0.00    -0.313 A  
ENDBRANCH   9  10
ENDBRANCH   8   9
ENDBRANCH   4   8
ENDBRANCH   3   4
ENDBRANCH   2   3
TORSDOF 7
ENDMDL
MODEL      292
REMARK 921   NORMALIZED FREE ENERGY PREDICTED BY IDOCK:   -2.97 KCAL/MOL
REMARK 922        TOTAL FREE ENERGY PREDICTED BY IDOCK:   -5.06 KCAL/MOL
REMARK 923 INTER-LIGAND FREE ENERGY PREDICTED BY IDOCK:   -3.63 KCAL/MOL
REMARK 924 INTRA-LIGAND FREE ENERGY PREDICTED BY IDOCK:   -1.44 KCAL/MOL
REMARK 927      BINDING AFFINITY PREDICTED BY RF-SCORE:    0.00 PKD
ROOT
HETATM    1  C   UNL     1      -7.510  10.090  65.842  1.00  0.00    -0.115 C  
HETATM    2  C   UNL     1      -6.775  10.645  67.051  1.00  0.00    -0.086 C  
ENDROOT
BRANCH   2   3
HETATM    3  C   UNL     1      -6.368   9.577  68.079  1.00  0.00    -0.057 C  
BRANCH   3   4
HETATM    4  N   UNL     1      -7.387   9.153  69.064  1.00  0.00    -0.072 NA 
BRANCH   4   5
HETATM    5  C   UNL     1      -6.767   8.420  70.191  1.00  0.00    -0.039 C  
BRANCH   5   6
HETATM    6  C   UNL     1      -7.278   6.987  70.431  1.00  0.00    -0.075 C  
HETATM    7  C   UNL     1      -7.939   6.797  71.788  1.00  0.00    -0.101 C  
ENDBRANCH   5   6
ENDBRANCH   4   5
BRANCH   4   8
HETATM    8  C   UNL     1      -8.136  10.338  69.557  1.00  0.00    -0.162 C  
BRANCH   8   9
HETATM    9  C   UNL     1      -9.667  10.328  69.346  1.00  0.00    -0.242 C  
BRANCH   9  10
HETATM   10  C   UNL     1     -10.366   9.082  69.829  1.00  0.00    -0.219 A  
HETATM   11  C   UNL     1     -10.535   7.962  69.023  1.00  0.00    -0.210 A  
HETATM   12  C   UNL     1     -10.112   7.707  67.603  1.00  0.00    -0.249 C  
HETATM   13  C   UNL     1     -10.606   6.280  67.359  1.00  0.00    -0.291 C  
HETATM   14  N   UNL     1     -11.226   5.849  68.524  1.00  0.00    -0.101 N  
HETATM   15  O   UNL     1     -10.485   5.632  66.332  1.00  0.00    -0.229 OA 
HETATM   16  H   UNL     1     -11.651   4.930  68.643  1.00  0.00     0.000 HD 
HETATM   17  C   UNL     1     -11.195   6.829  69.504  1.00  0.00    -0.266 A  
HETATM   18  C   UNL     1     -11.712   6.746  70.777  1.00  0.00    -0.439 A  
HETATM   19  C   UNL     1     -11.563   7.864  71.596  1.00  0.00    -0.311 A  
HETATM   20  C   UNL     1     -10.904   9.017  71.128  1.00  0.00    -0.364 A  
ENDBRANCH   9  10
ENDBRANCH   8   9
ENDBRANCH   4   8
ENDBRANCH   3   4
ENDBRANCH   2   3
TORSDOF 7
ENDMDL
MODEL      293
REMARK 921   NORMALIZED FREE ENERGY PREDICTED BY IDOCK:   -2.96 KCAL/MOL
REMARK 922        TOTAL FREE ENERGY PREDICTED BY IDOCK:   -5.05 KCAL/MOL
REMARK 923 INTER-LIGAND FREE ENERGY PREDICTED BY IDOCK:   -4.40 KCAL/MOL
REMARK 924 INTRA-LIGAND FREE ENERGY PREDICTED BY IDOCK:   -0.65 KCAL/MOL
REMARK 927      BINDING AFFINITY PREDICTED BY RF-SCORE:    0.00 PKD
ROOT
HETATM    1  C   UNL     1      -9.626   3.124  70.656  1.00  0.00    -0.212 C  
HETATM    2  C   UNL     1      -9.935   4.052  71.819  1.00  0.00    -0.240 C  
ENDROOT
BRANCH   2   3
HETATM    3  C   UNL     1     -10.083   5.528  71.418  1.00  0.00    -0.201 C  
BRANCH   3   4
HETATM    4  N   UNL     1     -11.406   5.974  70.925  1.00  0.00    -0.278 NA 
BRANCH   4   5
HETATM    5  C   UNL     1     -12.029   6.934  71.863  1.00  0.00    -0.327 C  
BRANCH   5   6
HETATM    6  C   UNL     1     -11.343   8.309  71.979  1.00  0.00    -0.390 C  
HETATM    7  C   UNL     1     -10.136   8.310  72.904  1.00  0.00    -0.285 C  
ENDBRANCH   5   6
ENDBRANCH   4   5
BRANCH   4   8
HETATM    8  C   UNL     1     -11.263   6.576  69.574  1.00  0.00    -0.372 C  
BRANCH   8   9
HETATM    9  C   UNL     1      -9.822   6.859  69.090  1.00  0.00    -0.156 C  
BRANCH   9  10
HETATM   10  C   UNL     1      -9.657   8.135  68.304  1.00  0.00    -0.154 A  
HETATM   11  C   UNL     1      -8.826   9.168  68.724  1.00  0.00    -0.132 A  
HETATM   12  C   UNL     1      -7.952   9.285  69.942  1.00  0.00    -0.113 C  
HETATM   13  C   UNL     1      -7.317  10.665  69.765  1.00  0.00    -0.108 C  
HETATM   14  N   UNL     1      -7.816  11.206  68.587  1.00  0.00    -0.131 N  
HETATM   15  O   UNL     1      -6.520  11.202  70.516  1.00  0.00    -0.306 OA 
HETATM   16  H   UNL     1      -7.562  12.124  68.223  1.00  0.00     0.000 HD 
HETATM   17  C   UNL     1      -8.705  10.339  67.972  1.00  0.00    -0.122 A  
HETATM   18  C   UNL     1      -9.386  10.547  66.794  1.00  0.00    -0.180 A  
HETATM   19  C   UNL     1     -10.233   9.528  66.363  1.00  0.00    -0.302 A  
HETATM   20  C   UNL     1     -10.371   8.341  67.108  1.00  0.00    -0.387 A  
ENDBRANCH   9  10
ENDBRANCH   8   9
ENDBRANCH   4   8
ENDBRANCH   3   4
ENDBRANCH   2   3
TORSDOF 7
ENDMDL
MODEL      294
REMARK 921   NORMALIZED FREE ENERGY PREDICTED BY IDOCK:   -2.96 KCAL/MOL
REMARK 922        TOTAL FREE ENERGY PREDICTED BY IDOCK:   -5.05 KCAL/MOL
REMARK 923 INTER-LIGAND FREE ENERGY PREDICTED BY IDOCK:   -4.21 KCAL/MOL
REMARK 924 INTRA-LIGAND FREE ENERGY PREDICTED BY IDOCK:   -0.84 KCAL/MOL
REMARK 927      BINDING AFFINITY PREDICTED BY RF-SCORE:    0.00 PKD
ROOT
HETATM    1  C   UNL     1     -10.342   8.851  68.196  1.00  0.00    -0.261 C  
HETATM    2  C   UNL     1      -9.869   7.660  67.377  1.00  0.00    -0.226 C  
ENDROOT
BRANCH   2   3
HETATM    3  C   UNL     1     -10.643   6.363  67.656  1.00  0.00    -0.274 C  
BRANCH   3   4
HETATM    4  N   UNL     1      -9.878   5.206  68.170  1.00  0.00    -0.147 NA 
BRANCH   4   5
HETATM    5  C   UNL     1      -9.873   4.093  67.195  1.00  0.00    -0.137 C  
BRANCH   5   6
HETATM    6  C   UNL     1      -8.835   4.191  66.060  1.00  0.00    -0.121 C  
HETATM    7  C   UNL     1      -9.320   3.608  64.742  1.00  0.00    -0.153 C  
ENDBRANCH   5   6
ENDBRANCH   4   5
BRANCH   4   8
HETATM    8  C   UNL     1      -8.490   5.625  68.496  1.00  0.00    -0.105 C  
BRANCH   8   9
HETATM    9  C   UNL     1      -8.189   5.934  69.981  1.00  0.00    -0.121 C  
BRANCH   9  10
HETATM   10  C   UNL     1      -9.180   5.360  70.961  1.00  0.00    -0.179 A  
HETATM   11  C   UNL     1     -10.208   6.117  71.512  1.00  0.00    -0.243 A  
HETATM   12  C   UNL     1     -10.580   7.559  71.302  1.00  0.00    -0.230 C  
HETATM   13  C   UNL     1     -11.807   7.721  72.202  1.00  0.00    -0.324 C  
HETATM   14  N   UNL     1     -12.037   6.498  72.817  1.00  0.00    -0.442 N  
HETATM   15  O   UNL     1     -12.466   8.735  72.360  1.00  0.00    -0.379 OA 
HETATM   16  H   UNL     1     -12.795   6.318  73.474  1.00  0.00     0.000 HD 
HETATM   17  C   UNL     1     -11.103   5.552  72.423  1.00  0.00    -0.256 A  
HETATM   18  C   UNL     1     -11.028   4.240  72.831  1.00  0.00    -0.200 A  
HETATM   19  C   UNL     1      -9.997   3.468  72.299  1.00  0.00    -0.236 A  
HETATM   20  C   UNL     1      -9.083   4.020  71.381  1.00  0.00    -0.174 A  
ENDBRANCH   9  10
ENDBRANCH   8   9
ENDBRANCH   4   8
ENDBRANCH   3   4
ENDBRANCH   2   3
TORSDOF 7
ENDMDL
MODEL      295
REMARK 921   NORMALIZED FREE ENERGY PREDICTED BY IDOCK:   -2.94 KCAL/MOL
REMARK 922        TOTAL FREE ENERGY PREDICTED BY IDOCK:   -5.03 KCAL/MOL
REMARK 923 INTER-LIGAND FREE ENERGY PREDICTED BY IDOCK:   -4.28 KCAL/MOL
REMARK 924 INTRA-LIGAND FREE ENERGY PREDICTED BY IDOCK:   -0.75 KCAL/MOL
REMARK 927      BINDING AFFINITY PREDICTED BY RF-SCORE:    0.00 PKD
ROOT
HETATM    1  C   UNL     1     -10.205  14.718  67.915  1.00  0.00    -0.229 C  
HETATM    2  C   UNL     1     -10.641  14.003  69.184  1.00  0.00    -0.149 C  
ENDROOT
BRANCH   2   3
HETATM    3  C   UNL     1     -11.803  13.019  68.978  1.00  0.00    -0.316 C  
BRANCH   3   4
HETATM    4  N   UNL     1     -11.481  11.575  68.944  1.00  0.00    -0.259 NA 
BRANCH   4   5
HETATM    5  C   UNL     1     -12.520  10.780  69.634  1.00  0.00    -0.097 C  
BRANCH   5   6
HETATM    6  C   UNL     1     -12.308  10.553  71.143  1.00  0.00    -0.510 C  
HETATM    7  C   UNL     1     -13.184  11.435  72.019  1.00  0.00    -0.432 C  
ENDBRANCH   5   6
ENDBRANCH   4   5
BRANCH   4   8
HETATM    8  C   UNL     1     -11.326  11.128  67.535  1.00  0.00    -0.278 C  
BRANCH   8   9
HETATM    9  C   UNL     1     -10.411   9.906  67.292  1.00  0.00    -0.303 C  
BRANCH   9  10
HETATM   10  C   UNL     1      -9.528   9.534  68.456  1.00  0.00    -0.146 A  
HETATM   11  C   UNL     1      -9.677   8.341  69.154  1.00  0.00    -0.171 A  
HETATM   12  C   UNL     1     -10.650   7.211  68.961  1.00  0.00    -0.225 C  
HETATM   13  C   UNL     1     -10.242   6.229  70.061  1.00  0.00    -0.188 C  
HETATM   14  N   UNL     1      -9.180   6.796  70.753  1.00  0.00    -0.158 N  
HETATM   15  O   UNL     1     -10.752   5.146  70.297  1.00  0.00    -0.229 OA 
HETATM   16  H   UNL     1      -8.709   6.356  71.543  1.00  0.00     0.000 HD 
HETATM   17  C   UNL     1      -8.844   8.035  70.233  1.00  0.00    -0.145 A  
HETATM   18  C   UNL     1      -7.845   8.876  70.670  1.00  0.00    -0.124 A  
HETATM   19  C   UNL     1      -7.688  10.082  69.991  1.00  0.00    -0.181 A  
HETATM   20  C   UNL     1      -8.519  10.409  68.902  1.00  0.00    -0.144 A  
ENDBRANCH   9  10
ENDBRANCH   8   9
ENDBRANCH   4   8
ENDBRANCH   3   4
ENDBRANCH   2   3
TORSDOF 7
ENDMDL
MODEL      296
REMARK 921   NORMALIZED FREE ENERGY PREDICTED BY IDOCK:   -2.92 KCAL/MOL
REMARK 922        TOTAL FREE ENERGY PREDICTED BY IDOCK:   -5.00 KCAL/MOL
REMARK 923 INTER-LIGAND FREE ENERGY PREDICTED BY IDOCK:   -4.20 KCAL/MOL
REMARK 924 INTRA-LIGAND FREE ENERGY PREDICTED BY IDOCK:   -0.79 KCAL/MOL
REMARK 927      BINDING AFFINITY PREDICTED BY RF-SCORE:    0.00 PKD
ROOT
HETATM    1  C   UNL     1     -10.816   5.639  66.428  1.00  0.00    -0.172 C  
HETATM    2  C   UNL     1      -9.522   6.425  66.568  1.00  0.00    -0.189 C  
ENDROOT
BRANCH   2   3
HETATM    3  C   UNL     1      -9.724   7.944  66.679  1.00  0.00    -0.235 C  
BRANCH   3   4
HETATM    4  N   UNL     1      -8.596   8.747  67.201  1.00  0.00    -0.116 NA 
BRANCH   4   5
HETATM    5  C   UNL     1      -7.425   8.674  66.298  1.00  0.00    -0.090 C  
BRANCH   5   6
HETATM    6  C   UNL     1      -7.297   9.806  65.262  1.00  0.00    -0.120 C  
HETATM    7  C   UNL     1      -6.162   9.596  64.270  1.00  0.00    -0.103 C  
ENDBRANCH   5   6
ENDBRANCH   4   5
BRANCH   4   8
HETATM    8  C   UNL     1      -9.026  10.157  67.389  1.00  0.00    -0.134 C  
BRANCH   8   9
HETATM    9  C   UNL     1     -10.488  10.492  67.013  1.00  0.00    -0.304 C  
BRANCH   9  10
HETATM   10  C   UNL     1     -10.650  11.267  65.730  1.00  0.00    -0.306 A  
HETATM   11  C   UNL     1     -10.703  12.656  65.698  1.00  0.00    -0.297 A  
HETATM   12  C   UNL     1     -10.617  13.662  66.812  1.00  0.00    -0.273 C  
HETATM   13  C   UNL     1     -10.733  14.994  66.068  1.00  0.00    -0.326 C  
HETATM   14  N   UNL     1     -10.873  14.705  64.717  1.00  0.00    -0.538 N  
HETATM   15  O   UNL     1     -10.710  16.110  66.562  1.00  0.00    -0.302 OA 
HETATM   16  H   UNL     1     -10.973  15.409  63.986  1.00  0.00     0.000 HD 
HETATM   17  C   UNL     1     -10.862  13.338  64.490  1.00  0.00    -0.394 A  
HETATM   18  C   UNL     1     -10.978  12.697  63.277  1.00  0.00    -0.148 A  
HETATM   19  C   UNL     1     -10.939  11.305  63.289  1.00  0.00    -0.160 A  
HETATM   20  C   UNL     1     -10.783  10.599  64.498  1.00  0.00     0.003 A  
ENDBRANCH   9  10
ENDBRANCH   8   9
ENDBRANCH   4   8
ENDBRANCH   3   4
ENDBRANCH   2   3
TORSDOF 7
ENDMDL
MODEL      297
REMARK 921   NORMALIZED FREE ENERGY PREDICTED BY IDOCK:   -2.88 KCAL/MOL
REMARK 922        TOTAL FREE ENERGY PREDICTED BY IDOCK:   -4.94 KCAL/MOL
REMARK 923 INTER-LIGAND FREE ENERGY PREDICTED BY IDOCK:   -4.41 KCAL/MOL
REMARK 924 INTRA-LIGAND FREE ENERGY PREDICTED BY IDOCK:   -0.53 KCAL/MOL
REMARK 927      BINDING AFFINITY PREDICTED BY RF-SCORE:    0.00 PKD
ROOT
HETATM    1  C   UNL     1      -5.740  10.272  66.827  1.00  0.00    -0.051 C  
HETATM    2  C   UNL     1      -6.855  11.237  66.457  1.00  0.00    -0.101 C  
ENDROOT
BRANCH   2   3
HETATM    3  C   UNL     1      -8.263  10.628  66.546  1.00  0.00    -0.138 C  
BRANCH   3   4
HETATM    4  N   UNL     1      -9.410  11.562  66.607  1.00  0.00    -0.184 NA 
BRANCH   4   5
HETATM    5  C   UNL     1     -10.449  11.195  65.620  1.00  0.00    -0.248 C  
BRANCH   5   6
HETATM    6  C   UNL     1     -10.195  11.644  64.168  1.00  0.00    -0.372 C  
HETATM    7  C   UNL     1      -9.355  10.661  63.367  1.00  0.00    -0.324 C  
ENDBRANCH   5   6
ENDBRANCH   4   5
BRANCH   4   8
HETATM    8  C   UNL     1      -9.974  11.579  67.982  1.00  0.00    -0.189 C  
BRANCH   8   9
HETATM    9  C   UNL     1     -11.102  10.565  68.281  1.00  0.00    -0.340 C  
BRANCH   9  10
HETATM   10  C   UNL     1     -10.760   9.524  69.317  1.00  0.00    -0.240 A  
HETATM   11  C   UNL     1     -10.611   8.178  69.000  1.00  0.00    -0.167 A  
HETATM   12  C   UNL     1     -10.731   7.465  67.682  1.00  0.00    -0.278 C  
HETATM   13  C   UNL     1     -10.433   6.013  68.060  1.00  0.00    -0.233 C  
HETATM   14  N   UNL     1     -10.194   5.979  69.428  1.00  0.00    -0.193 N  
HETATM   15  O   UNL     1     -10.410   5.053  67.307  1.00  0.00    -0.188 OA 
HETATM   16  H   UNL     1      -9.970   5.133  69.952  1.00  0.00     0.000 HD 
HETATM   17  C   UNL     1     -10.301   7.241  69.989  1.00  0.00    -0.213 A  
HETATM   18  C   UNL     1     -10.129   7.578  71.313  1.00  0.00    -0.197 A  
HETATM   19  C   UNL     1     -10.287   8.920  71.652  1.00  0.00    -0.416 A  
HETATM   20  C   UNL     1     -10.602   9.879  70.670  1.00  0.00    -0.341 A  
ENDBRANCH   9  10
ENDBRANCH   8   9
ENDBRANCH   4   8
ENDBRANCH   3   4
ENDBRANCH   2   3
TORSDOF 7
ENDMDL
MODEL      298
REMARK 921   NORMALIZED FREE ENERGY PREDICTED BY IDOCK:   -2.86 KCAL/MOL
REMARK 922        TOTAL FREE ENERGY PREDICTED BY IDOCK:   -4.92 KCAL/MOL
REMARK 923 INTER-LIGAND FREE ENERGY PREDICTED BY IDOCK:   -3.75 KCAL/MOL
REMARK 924 INTRA-LIGAND FREE ENERGY PREDICTED BY IDOCK:   -1.17 KCAL/MOL
REMARK 927      BINDING AFFINITY PREDICTED BY RF-SCORE:    0.00 PKD
ROOT
HETATM    1  C   UNL     1      -6.686   6.638  67.228  1.00  0.00    -0.063 C  
HETATM    2  C   UNL     1      -7.132   7.023  68.630  1.00  0.00    -0.092 C  
ENDROOT
BRANCH   2   3
HETATM    3  C   UNL     1      -8.299   8.023  68.661  1.00  0.00    -0.127 C  
BRANCH   3   4
HETATM    4  N   UNL     1      -9.331   7.837  69.706  1.00  0.00    -0.153 NA 
BRANCH   4   5
HETATM    5  C   UNL     1      -9.568   9.094  70.451  1.00  0.00    -0.224 C  
BRANCH   5   6
HETATM    6  C   UNL     1     -10.503   8.993  71.670  1.00  0.00    -0.426 C  
HETATM    7  C   UNL     1     -11.783   9.802  71.523  1.00  0.00    -0.450 C  
ENDBRANCH   5   6
ENDBRANCH   4   5
BRANCH   4   8
HETATM    8  C   UNL     1     -10.591   7.348  69.088  1.00  0.00    -0.204 C  
BRANCH   8   9
HETATM    9  C   UNL     1     -11.177   6.034  69.654  1.00  0.00    -0.428 C  
BRANCH   9  10
HETATM   10  C   UNL     1     -10.165   4.943  69.899  1.00  0.00    -0.299 A  
HETATM   11  C   UNL     1      -9.532   4.267  68.863  1.00  0.00    -0.236 A  
HETATM   12  C   UNL     1      -9.662   4.421  67.372  1.00  0.00    -0.217 C  
HETATM   13  C   UNL     1      -8.677   3.377  66.842  1.00  0.00    -0.123 C  
HETATM   14  N   UNL     1      -8.109   2.745  67.941  1.00  0.00    -0.069 N  
HETATM   15  O   UNL     1      -8.432   3.133  65.672  1.00  0.00    -0.101 OA 
HETATM   16  H   UNL     1      -7.414   2.001  67.880  1.00  0.00     0.000 HD 
HETATM   17  C   UNL     1      -8.606   3.256  69.129  1.00  0.00    -0.071 A  
HETATM   18  C   UNL     1      -8.268   2.867  70.406  1.00  0.00    -0.068 A  
HETATM   19  C   UNL     1      -8.901   3.525  71.458  1.00  0.00    -0.138 A  
HETATM   20  C   UNL     1      -9.839   4.545  71.209  1.00  0.00    -0.260 A  
ENDBRANCH   9  10
ENDBRANCH   8   9
ENDBRANCH   4   8
ENDBRANCH   3   4
ENDBRANCH   2   3
TORSDOF 7
ENDMDL
MODEL      299
REMARK 921   NORMALIZED FREE ENERGY PREDICTED BY IDOCK:   -2.86 KCAL/MOL
REMARK 922        TOTAL FREE ENERGY PREDICTED BY IDOCK:   -4.91 KCAL/MOL
REMARK 923 INTER-LIGAND FREE ENERGY PREDICTED BY IDOCK:   -4.86 KCAL/MOL
REMARK 924 INTRA-LIGAND FREE ENERGY PREDICTED BY IDOCK:   -0.05 KCAL/MOL
REMARK 927      BINDING AFFINITY PREDICTED BY RF-SCORE:    0.00 PKD
ROOT
HETATM    1  C   UNL     1      -5.332  16.102  70.554  1.00  0.00    -0.169 C  
HETATM    2  C   UNL     1      -5.222  16.616  69.127  1.00  0.00    -0.128 C  
ENDROOT
BRANCH   2   3
HETATM    3  C   UNL     1      -6.571  16.740  68.403  1.00  0.00    -0.149 C  
BRANCH   3   4
HETATM    4  N   UNL     1      -6.948  15.657  67.467  1.00  0.00    -0.173 NA 
BRANCH   4   5
HETATM    5  C   UNL     1      -6.230  14.403  67.786  1.00  0.00    -0.136 C  
BRANCH   5   6
HETATM    6  C   UNL     1      -7.103  13.145  67.948  1.00  0.00    -0.129 C  
HETATM    7  C   UNL     1      -6.726  12.016  67.000  1.00  0.00    -0.099 C  
ENDBRANCH   5   6
ENDBRANCH   4   5
BRANCH   4   8
HETATM    8  C   UNL     1      -8.418  15.445  67.507  1.00  0.00    -0.173 C  
BRANCH   8   9
HETATM    9  C   UNL     1      -9.268  16.291  66.531  1.00  0.00    -0.299 C  
BRANCH   9  10
HETATM   10  C   UNL     1      -9.374  17.753  66.887  1.00  0.00    -0.272 A  
HETATM   11  C   UNL     1      -8.445  18.694  66.460  1.00  0.00    -0.302 A  
HETATM   12  C   UNL     1      -7.212  18.536  65.613  1.00  0.00    -0.154 C  
HETATM   13  C   UNL     1      -6.679  19.967  65.530  1.00  0.00    -0.285 C  
HETATM   14  N   UNL     1      -7.537  20.775  66.264  1.00  0.00    -0.510 N  
HETATM   15  O   UNL     1      -5.681  20.340  64.935  1.00  0.00    -0.175 OA 
HETATM   16  H   UNL     1      -7.420  21.781  66.382  1.00  0.00     0.000 HD 
HETATM   17  C   UNL     1      -8.573  20.038  66.817  1.00  0.00    -0.331 A  
HETATM   18  C   UNL     1      -9.601  20.511  67.600  1.00  0.00    -0.489 A  
HETATM   19  C   UNL     1     -10.537  19.581  68.048  1.00  0.00    -0.458 A  
HETATM   20  C   UNL     1     -10.423  18.220  67.702  1.00  0.00    -0.431 A  
ENDBRANCH   9  10
ENDBRANCH   8   9
ENDBRANCH   4   8
ENDBRANCH   3   4
ENDBRANCH   2   3
TORSDOF 7
ENDMDL
MODEL      300
REMARK 921   NORMALIZED FREE ENERGY PREDICTED BY IDOCK:   -2.85 KCAL/MOL
REMARK 922        TOTAL FREE ENERGY PREDICTED BY IDOCK:   -4.90 KCAL/MOL
REMARK 923 INTER-LIGAND FREE ENERGY PREDICTED BY IDOCK:   -4.27 KCAL/MOL
REMARK 924 INTRA-LIGAND FREE ENERGY PREDICTED BY IDOCK:   -0.63 KCAL/MOL
REMARK 927      BINDING AFFINITY PREDICTED BY RF-SCORE:    0.00 PKD
ROOT
HETATM    1  C   UNL     1      -9.490  15.704  69.402  1.00  0.00    -0.279 C  
HETATM    2  C   UNL     1     -10.878  15.820  68.793  1.00  0.00    -0.274 C  
ENDROOT
BRANCH   2   3
HETATM    3  C   UNL     1     -11.742  14.562  68.965  1.00  0.00    -0.311 C  
BRANCH   3   4
HETATM    4  N   UNL     1     -11.496  13.720  70.157  1.00  0.00    -0.142 NA 
BRANCH   4   5
HETATM    5  C   UNL     1     -12.742  13.512  70.929  1.00  0.00    -0.291 C  
BRANCH   5   6
HETATM    6  C   UNL     1     -13.064  14.576  71.994  1.00  0.00    -0.425 C  
HETATM    7  C   UNL     1     -11.831  15.263  72.560  1.00  0.00    -0.532 C  
ENDBRANCH   5   6
ENDBRANCH   4   5
BRANCH   4   8
HETATM    8  C   UNL     1     -10.912  12.418  69.742  1.00  0.00     0.308 C  
BRANCH   8   9
HETATM    9  C   UNL     1     -11.767  11.544  68.796  1.00  0.00    -0.397 C  
BRANCH   9  10
HETATM   10  C   UNL     1     -11.187  11.349  67.417  1.00  0.00    -0.370 A  
HETATM   11  C   UNL     1      -9.990  10.678  67.199  1.00  0.00    -0.234 A  
HETATM   12  C   UNL     1      -9.044  10.026  68.170  1.00  0.00    -0.121 C  
HETATM   13  C   UNL     1      -7.951   9.476  67.252  1.00  0.00    -0.106 C  
HETATM   14  N   UNL     1      -8.291   9.816  65.949  1.00  0.00    -0.122 N  
HETATM   15  O   UNL     1      -6.958   8.854  67.592  1.00  0.00    -0.073 OA 
HETATM   16  H   UNL     1      -7.735   9.576  65.129  1.00  0.00     0.000 HD 
HETATM   17  C   UNL     1      -9.481  10.525  65.908  1.00  0.00    -0.190 A  
HETATM   18  C   UNL     1     -10.114  11.019  64.789  1.00  0.00    -0.367 A  
HETATM   19  C   UNL     1     -11.309  11.706  64.989  1.00  0.00    -0.237 A  
HETATM   20  C   UNL     1     -11.837  11.873  66.284  1.00  0.00    -0.110 A  
ENDBRANCH   9  10
ENDBRANCH   8   9
ENDBRANCH   4   8
ENDBRANCH   3   4
ENDBRANCH   2   3
TORSDOF 7
ENDMDL
MODEL      301
REMARK 921   NORMALIZED FREE ENERGY PREDICTED BY IDOCK:   -2.84 KCAL/MOL
REMARK 922        TOTAL FREE ENERGY PREDICTED BY IDOCK:   -4.88 KCAL/MOL
REMARK 923 INTER-LIGAND FREE ENERGY PREDICTED BY IDOCK:   -4.25 KCAL/MOL
REMARK 924 INTRA-LIGAND FREE ENERGY PREDICTED BY IDOCK:   -0.63 KCAL/MOL
REMARK 927      BINDING AFFINITY PREDICTED BY RF-SCORE:    0.00 PKD
ROOT
HETATM    1  C   UNL     1     -12.258  11.022  70.260  1.00  0.00    -0.447 C  
HETATM    2  C   UNL     1     -11.311   9.967  70.810  1.00  0.00    -0.439 C  
ENDROOT
BRANCH   2   3
HETATM    3  C   UNL     1     -10.669   9.080  69.732  1.00  0.00    -0.225 C  
BRANCH   3   4
HETATM    4  N   UNL     1      -9.900   7.900  70.186  1.00  0.00    -0.184 NA 
BRANCH   4   5
HETATM    5  C   UNL     1      -9.883   7.810  71.663  1.00  0.00    -0.163 C  
BRANCH   5   6
HETATM    6  C   UNL     1     -10.809   6.750  72.288  1.00  0.00    -0.263 C  
HETATM    7  C   UNL     1     -10.634   6.601  73.792  1.00  0.00    -0.302 C  
ENDBRANCH   5   6
ENDBRANCH   4   5
BRANCH   4   8
HETATM    8  C   UNL     1     -10.476   6.665  69.591  1.00  0.00    -0.213 C  
BRANCH   8   9
HETATM    9  C   UNL     1     -11.018   6.778  68.147  1.00  0.00    -0.277 C  
BRANCH   9  10
HETATM   10  C   UNL     1      -9.979   6.616  67.067  1.00  0.00    -0.223 A  
HETATM   11  C   UNL     1      -9.558   7.676  66.272  1.00  0.00    -0.155 A  
HETATM   12  C   UNL     1      -9.971   9.122  66.272  1.00  0.00    -0.352 C  
HETATM   13  C   UNL     1      -9.107   9.715  65.157  1.00  0.00    -0.228 C  
HETATM   14  N   UNL     1      -8.339   8.684  64.632  1.00  0.00    -0.195 N  
HETATM   15  O   UNL     1      -9.091  10.878  64.788  1.00  0.00    -0.200 OA 
HETATM   16  H   UNL     1      -7.670   8.796  63.870  1.00  0.00     0.000 HD 
HETATM   17  C   UNL     1      -8.599   7.484  65.275  1.00  0.00    -0.002 A  
HETATM   18  C   UNL     1      -8.021   6.262  65.015  1.00  0.00    -0.120 A  
HETATM   19  C   UNL     1      -8.440   5.185  65.793  1.00  0.00    -0.124 A  
HETATM   20  C   UNL     1      -9.408   5.357  66.801  1.00  0.00    -0.136 A  
ENDBRANCH   9  10
ENDBRANCH   8   9
ENDBRANCH   4   8
ENDBRANCH   3   4
ENDBRANCH   2   3
TORSDOF 7
ENDMDL
MODEL      302
REMARK 921   NORMALIZED FREE ENERGY PREDICTED BY IDOCK:   -2.83 KCAL/MOL
REMARK 922        TOTAL FREE ENERGY PREDICTED BY IDOCK:   -4.87 KCAL/MOL
REMARK 923 INTER-LIGAND FREE ENERGY PREDICTED BY IDOCK:   -4.36 KCAL/MOL
REMARK 924 INTRA-LIGAND FREE ENERGY PREDICTED BY IDOCK:   -0.50 KCAL/MOL
REMARK 927      BINDING AFFINITY PREDICTED BY RF-SCORE:    0.00 PKD
ROOT
HETATM    1  C   UNL     1     -12.142  12.958  63.710  1.00  0.00    -0.583 C  
HETATM    2  C   UNL     1     -12.227  12.667  65.200  1.00  0.00    -0.539 C  
ENDROOT
BRANCH   2   3
HETATM    3  C   UNL     1     -11.185  11.654  65.698  1.00  0.00    -0.214 C  
BRANCH   3   4
HETATM    4  N   UNL     1     -10.995  11.531  67.161  1.00  0.00    -0.270 NA 
BRANCH   4   5
HETATM    5  C   UNL     1     -11.717  12.601  67.884  1.00  0.00    -0.358 C  
BRANCH   5   6
HETATM    6  C   UNL     1     -11.253  12.877  69.327  1.00  0.00    -0.251 C  
HETATM    7  C   UNL     1     -12.371  12.783  70.354  1.00  0.00    -0.324 C  
ENDBRANCH   5   6
ENDBRANCH   4   5
BRANCH   4   8
HETATM    8  C   UNL     1     -11.447  10.191  67.617  1.00  0.00     0.325 C  
BRANCH   8   9
HETATM    9  C   UNL     1     -10.425   9.037  67.500  1.00  0.00    -0.338 C  
BRANCH   9  10
HETATM   10  C   UNL     1     -10.509   8.002  68.594  1.00  0.00    -0.196 A  
HETATM   11  C   UNL     1     -10.052   6.700  68.426  1.00  0.00    -0.163 A  
HETATM   12  C   UNL     1      -9.411   6.035  67.239  1.00  0.00    -0.119 C  
HETATM   13  C   UNL     1      -9.155   4.616  67.751  1.00  0.00    -0.119 C  
HETATM   14  N   UNL     1      -9.623   4.553  69.057  1.00  0.00    -0.166 N  
HETATM   15  O   UNL     1      -8.640   3.700  67.132  1.00  0.00    -0.102 OA 
HETATM   16  H   UNL     1      -9.581   3.720  69.643  1.00  0.00     0.000 HD 
HETATM   17  C   UNL     1     -10.154   5.768  69.461  1.00  0.00    -0.214 A  
HETATM   18  C   UNL     1     -10.705   6.066  70.687  1.00  0.00    -0.341 A  
HETATM   19  C   UNL     1     -11.180   7.363  70.870  1.00  0.00    -0.292 A  
HETATM   20  C   UNL     1     -11.088   8.316  69.838  1.00  0.00    -0.100 A  
ENDBRANCH   9  10
ENDBRANCH   8   9
ENDBRANCH   4   8
ENDBRANCH   3   4
ENDBRANCH   2   3
TORSDOF 7
ENDMDL
MODEL      303
REMARK 921   NORMALIZED FREE ENERGY PREDICTED BY IDOCK:   -2.82 KCAL/MOL
REMARK 922        TOTAL FREE ENERGY PREDICTED BY IDOCK:   -4.86 KCAL/MOL
REMARK 923 INTER-LIGAND FREE ENERGY PREDICTED BY IDOCK:   -4.11 KCAL/MOL
REMARK 924 INTRA-LIGAND FREE ENERGY PREDICTED BY IDOCK:   -0.76 KCAL/MOL
REMARK 927      BINDING AFFINITY PREDICTED BY RF-SCORE:    0.00 PKD
ROOT
HETATM    1  C   UNL     1      -6.627   8.442  73.540  1.00  0.00    -0.127 C  
HETATM    2  C   UNL     1      -7.926   8.119  72.819  1.00  0.00    -0.209 C  
ENDROOT
BRANCH   2   3
HETATM    3  C   UNL     1      -7.930   6.749  72.123  1.00  0.00    -0.096 C  
BRANCH   3   4
HETATM    4  N   UNL     1      -7.328   6.665  70.774  1.00  0.00    -0.077 NA 
BRANCH   4   5
HETATM    5  C   UNL     1      -7.598   5.350  70.150  1.00  0.00    -0.073 C  
BRANCH   5   6
HETATM    6  C   UNL     1      -8.362   4.332  71.019  1.00  0.00    -0.094 C  
HETATM    7  C   UNL     1      -9.804   4.123  70.583  1.00  0.00    -0.249 C  
ENDBRANCH   5   6
ENDBRANCH   4   5
BRANCH   4   8
HETATM    8  C   UNL     1      -7.846   7.767  69.922  1.00  0.00    -0.105 C  
BRANCH   8   9
HETATM    9  C   UNL     1      -9.031   7.424  68.989  1.00  0.00    -0.131 C  
BRANCH   9  10
HETATM   10  C   UNL     1      -9.695   8.615  68.345  1.00  0.00    -0.176 A  
HETATM   11  C   UNL     1     -10.558   9.454  69.041  1.00  0.00    -0.233 A  
HETATM   12  C   UNL     1     -11.015   9.414  70.474  1.00  0.00    -0.332 C  
HETATM   13  C   UNL     1     -11.938  10.632  70.562  1.00  0.00    -0.352 C  
HETATM   14  N   UNL     1     -11.963  11.228  69.308  1.00  0.00    -0.339 N  
HETATM   15  O   UNL     1     -12.548  11.014  71.547  1.00  0.00    -0.379 OA 
HETATM   16  H   UNL     1     -12.502  12.062  69.079  1.00  0.00     0.000 HD 
HETATM   17  C   UNL     1     -11.161  10.543  68.409  1.00  0.00    -0.279 A  
HETATM   18  C   UNL     1     -10.950  10.851  67.084  1.00  0.00    -0.334 A  
HETATM   19  C   UNL     1     -10.098  10.015  66.366  1.00  0.00    -0.307 A  
HETATM   20  C   UNL     1      -9.482   8.910  66.985  1.00  0.00    -0.215 A  
ENDBRANCH   9  10
ENDBRANCH   8   9
ENDBRANCH   4   8
ENDBRANCH   3   4
ENDBRANCH   2   3
TORSDOF 7
ENDMDL
MODEL      304
REMARK 921   NORMALIZED FREE ENERGY PREDICTED BY IDOCK:   -2.79 KCAL/MOL
REMARK 922        TOTAL FREE ENERGY PREDICTED BY IDOCK:   -4.82 KCAL/MOL
REMARK 923 INTER-LIGAND FREE ENERGY PREDICTED BY IDOCK:   -4.94 KCAL/MOL
REMARK 924 INTRA-LIGAND FREE ENERGY PREDICTED BY IDOCK:    0.12 KCAL/MOL
REMARK 927      BINDING AFFINITY PREDICTED BY RF-SCORE:    0.00 PKD
ROOT
HETATM    1  C   UNL     1      -9.608   3.150  70.651  1.00  0.00    -0.212 C  
HETATM    2  C   UNL     1      -9.990   4.088  71.785  1.00  0.00    -0.240 C  
ENDROOT
BRANCH   2   3
HETATM    3  C   UNL     1     -10.212   5.543  71.344  1.00  0.00    -0.215 C  
BRANCH   3   4
HETATM    4  N   UNL     1     -11.525   5.887  70.753  1.00  0.00    -0.150 NA 
BRANCH   4   5
HETATM    5  C   UNL     1     -12.295   6.778  71.649  1.00  0.00    -0.362 C  
BRANCH   5   6
HETATM    6  C   UNL     1     -11.700   8.178  71.888  1.00  0.00    -0.362 C  
HETATM    7  C   UNL     1     -10.604   8.201  72.944  1.00  0.00    -0.327 C  
ENDBRANCH   5   6
ENDBRANCH   4   5
BRANCH   4   8
HETATM    8  C   UNL     1     -11.329   6.521  69.424  1.00  0.00    -0.332 C  
BRANCH   8   9
HETATM    9  C   UNL     1      -9.915   7.066  69.117  1.00  0.00    -0.165 C  
BRANCH   9  10
HETATM   10  C   UNL     1      -9.873   8.189  68.112  1.00  0.00    -0.194 A  
HETATM   11  C   UNL     1     -10.424   9.439  68.367  1.00  0.00    -0.256 A  
HETATM   12  C   UNL     1     -11.132   9.964  69.585  1.00  0.00    -0.279 C  
HETATM   13  C   UNL     1     -11.455  11.406  69.187  1.00  0.00    -0.299 C  
HETATM   14  N   UNL     1     -10.974  11.600  67.899  1.00  0.00    -0.211 N  
HETATM   15  O   UNL     1     -12.032  12.238  69.868  1.00  0.00    -0.324 OA 
HETATM   16  H   UNL     1     -11.054  12.475  67.381  1.00  0.00     0.000 HD 
HETATM   17  C   UNL     1     -10.372  10.453  67.408  1.00  0.00    -0.228 A  
HETATM   18  C   UNL     1      -9.789  10.286  66.172  1.00  0.00    -0.284 A  
HETATM   19  C   UNL     1      -9.242   9.036  65.892  1.00  0.00    -0.290 A  
HETATM   20  C   UNL     1      -9.287   8.000  66.845  1.00  0.00    -0.209 A  
ENDBRANCH   9  10
ENDBRANCH   8   9
ENDBRANCH   4   8
ENDBRANCH   3   4
ENDBRANCH   2   3
TORSDOF 7
ENDMDL
MODEL      305
REMARK 921   NORMALIZED FREE ENERGY PREDICTED BY IDOCK:   -2.79 KCAL/MOL
REMARK 922        TOTAL FREE ENERGY PREDICTED BY IDOCK:   -4.82 KCAL/MOL
REMARK 923 INTER-LIGAND FREE ENERGY PREDICTED BY IDOCK:   -3.68 KCAL/MOL
REMARK 924 INTRA-LIGAND FREE ENERGY PREDICTED BY IDOCK:   -1.14 KCAL/MOL
REMARK 927      BINDING AFFINITY PREDICTED BY RF-SCORE:    0.00 PKD
ROOT
HETATM    1  C   UNL     1      -6.123   6.599  68.703  1.00  0.00    -0.026 C  
HETATM    2  C   UNL     1      -6.403   6.214  70.147  1.00  0.00    -0.032 C  
ENDROOT
BRANCH   2   3
HETATM    3  C   UNL     1      -7.504   7.051  70.815  1.00  0.00    -0.082 C  
BRANCH   3   4
HETATM    4  N   UNL     1      -8.657   6.328  71.396  1.00  0.00    -0.131 NA 
BRANCH   4   5
HETATM    5  C   UNL     1      -8.616   6.360  72.875  1.00  0.00    -0.124 C  
BRANCH   5   6
HETATM    6  C   UNL     1      -9.935   6.726  73.582  1.00  0.00    -0.293 C  
HETATM    7  C   UNL     1     -10.651   5.530  74.190  1.00  0.00    -0.249 C  
ENDBRANCH   5   6
ENDBRANCH   4   5
BRANCH   4   8
HETATM    8  C   UNL     1      -9.926   6.915  70.893  1.00  0.00    -0.189 C  
BRANCH   8   9
HETATM    9  C   UNL     1     -10.670   6.122  69.795  1.00  0.00    -0.376 C  
BRANCH   9  10
HETATM   10  C   UNL     1      -9.921   5.985  68.494  1.00  0.00    -0.173 A  
HETATM   11  C   UNL     1      -9.861   7.010  67.556  1.00  0.00    -0.186 A  
HETATM   12  C   UNL     1     -10.458   8.391  67.578  1.00  0.00    -0.328 C  
HETATM   13  C   UNL     1      -9.989   8.978  66.245  1.00  0.00    -0.281 C  
HETATM   14  N   UNL     1      -9.240   8.002  65.601  1.00  0.00    -0.402 N  
HETATM   15  O   UNL     1     -10.227  10.095  65.817  1.00  0.00    -0.263 OA 
HETATM   16  H   UNL     1      -8.803   8.122  64.687  1.00  0.00     0.000 HD 
HETATM   17  C   UNL     1      -9.163   6.844  66.358  1.00  0.00    -0.152 A  
HETATM   18  C   UNL     1      -8.505   5.680  66.030  1.00  0.00    -0.132 A  
HETATM   19  C   UNL     1      -8.563   4.637  66.951  1.00  0.00    -0.104 A  
HETATM   20  C   UNL     1      -9.265   4.784  68.163  1.00  0.00    -0.155 A  
ENDBRANCH   9  10
ENDBRANCH   8   9
ENDBRANCH   4   8
ENDBRANCH   3   4
ENDBRANCH   2   3
TORSDOF 7
ENDMDL
MODEL      306
REMARK 921   NORMALIZED FREE ENERGY PREDICTED BY IDOCK:   -2.79 KCAL/MOL
REMARK 922        TOTAL FREE ENERGY PREDICTED BY IDOCK:   -4.81 KCAL/MOL
REMARK 923 INTER-LIGAND FREE ENERGY PREDICTED BY IDOCK:   -4.83 KCAL/MOL
REMARK 924 INTRA-LIGAND FREE ENERGY PREDICTED BY IDOCK:    0.01 KCAL/MOL
REMARK 927      BINDING AFFINITY PREDICTED BY RF-SCORE:    0.00 PKD
ROOT
HETATM    1  C   UNL     1      -5.616  15.958  70.423  1.00  0.00    -0.138 C  
HETATM    2  C   UNL     1      -5.155  16.627  69.138  1.00  0.00    -0.127 C  
ENDROOT
BRANCH   2   3
HETATM    3  C   UNL     1      -6.198  16.599  68.010  1.00  0.00    -0.130 C  
BRANCH   3   4
HETATM    4  N   UNL     1      -6.326  15.350  67.227  1.00  0.00    -0.312 NA 
BRANCH   4   5
HETATM    5  C   UNL     1      -5.455  14.286  67.774  1.00  0.00    -0.014 C  
BRANCH   5   6
HETATM    6  C   UNL     1      -6.175  13.065  68.377  1.00  0.00    -0.081 C  
HETATM    7  C   UNL     1      -5.226  12.009  68.923  1.00  0.00    -0.050 C  
ENDBRANCH   5   6
ENDBRANCH   4   5
BRANCH   4   8
HETATM    8  C   UNL     1      -7.745  14.910  67.208  1.00  0.00    -0.197 C  
BRANCH   8   9
HETATM    9  C   UNL     1      -8.722  15.754  66.359  1.00  0.00    -0.372 C  
BRANCH   9  10
HETATM   10  C   UNL     1     -10.079  15.131  66.147  1.00  0.00    -0.314 A  
HETATM   11  C   UNL     1     -10.836  14.619  67.195  1.00  0.00    -0.303 A  
HETATM   12  C   UNL     1     -10.547  14.555  68.669  1.00  0.00    -0.255 C  
HETATM   13  C   UNL     1     -11.804  13.882  69.226  1.00  0.00    -0.348 C  
HETATM   14  N   UNL     1     -12.645  13.618  68.153  1.00  0.00    -0.030 N  
HETATM   15  O   UNL     1     -12.032  13.619  70.395  1.00  0.00    -0.322 OA 
HETATM   16  H   UNL     1     -13.557  13.170  68.235  1.00  0.00     0.000 HD 
HETATM   17  C   UNL     1     -12.085  14.042  66.958  1.00  0.00    -0.420 A  
HETATM   18  C   UNL     1     -12.638  13.940  65.701  1.00  0.00    -0.553 A  
HETATM   19  C   UNL     1     -11.889  14.437  64.637  1.00  0.00    -0.460 A  
HETATM   20  C   UNL     1     -10.626  15.020  64.855  1.00  0.00    -0.400 A  
ENDBRANCH   9  10
ENDBRANCH   8   9
ENDBRANCH   4   8
ENDBRANCH   3   4
ENDBRANCH   2   3
TORSDOF 7
ENDMDL
MODEL      307
REMARK 921   NORMALIZED FREE ENERGY PREDICTED BY IDOCK:   -2.77 KCAL/MOL
REMARK 922        TOTAL FREE ENERGY PREDICTED BY IDOCK:   -4.79 KCAL/MOL
REMARK 923 INTER-LIGAND FREE ENERGY PREDICTED BY IDOCK:   -4.02 KCAL/MOL
REMARK 924 INTRA-LIGAND FREE ENERGY PREDICTED BY IDOCK:   -0.77 KCAL/MOL
REMARK 927      BINDING AFFINITY PREDICTED BY RF-SCORE:    0.00 PKD
ROOT
HETATM    1  C   UNL     1     -11.291   3.335  73.639  1.00  0.00    -0.217 C  
HETATM    2  C   UNL     1     -11.130   4.818  73.347  1.00  0.00    -0.422 C  
ENDROOT
BRANCH   2   3
HETATM    3  C   UNL     1      -9.779   5.187  72.716  1.00  0.00    -0.153 C  
BRANCH   3   4
HETATM    4  N   UNL     1      -9.765   5.518  71.273  1.00  0.00    -0.161 NA 
BRANCH   4   5
HETATM    5  C   UNL     1      -9.829   4.294  70.445  1.00  0.00    -0.198 C  
BRANCH   5   6
HETATM    6  C   UNL     1      -8.571   3.971  69.615  1.00  0.00    -0.105 C  
HETATM    7  C   UNL     1      -7.853   2.709  70.067  1.00  0.00    -0.049 C  
ENDBRANCH   5   6
ENDBRANCH   4   5
BRANCH   4   8
HETATM    8  C   UNL     1     -10.897   6.427  70.955  1.00  0.00    -0.263 C  
BRANCH   8   9
HETATM    9  C   UNL     1     -11.489   6.325  69.530  1.00  0.00    -0.387 C  
BRANCH   9  10
HETATM   10  C   UNL     1     -10.691   7.026  68.460  1.00  0.00    -0.219 A  
HETATM   11  C   UNL     1     -10.282   6.388  67.295  1.00  0.00    -0.237 A  
HETATM   12  C   UNL     1     -10.503   4.976  66.826  1.00  0.00    -0.273 C  
HETATM   13  C   UNL     1      -9.798   4.963  65.468  1.00  0.00    -0.092 C  
HETATM   14  N   UNL     1      -9.263   6.228  65.264  1.00  0.00    -0.331 N  
HETATM   15  O   UNL     1      -9.713   4.018  64.700  1.00  0.00    -0.166 OA 
HETATM   16  H   UNL     1      -8.736   6.502  64.435  1.00  0.00     0.000 HD 
HETATM   17  C   UNL     1      -9.537   7.069  66.330  1.00  0.00    -0.099 A  
HETATM   18  C   UNL     1      -9.162   8.387  66.465  1.00  0.00    -0.238 A  
HETATM   19  C   UNL     1      -9.552   9.040  67.632  1.00  0.00    -0.183 A  
HETATM   20  C   UNL     1     -10.301   8.370  68.618  1.00  0.00    -0.222 A  
ENDBRANCH   9  10
ENDBRANCH   8   9
ENDBRANCH   4   8
ENDBRANCH   3   4
ENDBRANCH   2   3
TORSDOF 7
ENDMDL
MODEL      308
REMARK 921   NORMALIZED FREE ENERGY PREDICTED BY IDOCK:   -2.74 KCAL/MOL
REMARK 922        TOTAL FREE ENERGY PREDICTED BY IDOCK:   -4.75 KCAL/MOL
REMARK 923 INTER-LIGAND FREE ENERGY PREDICTED BY IDOCK:   -4.32 KCAL/MOL
REMARK 924 INTRA-LIGAND FREE ENERGY PREDICTED BY IDOCK:   -0.43 KCAL/MOL
REMARK 927      BINDING AFFINITY PREDICTED BY RF-SCORE:    0.00 PKD
ROOT
HETATM    1  C   UNL     1     -10.542   4.743  65.696  1.00  0.00    -0.220 C  
HETATM    2  C   UNL     1      -9.390   3.790  65.974  1.00  0.00    -0.173 C  
ENDROOT
BRANCH   2   3
HETATM    3  C   UNL     1      -9.324   3.298  67.428  1.00  0.00    -0.201 C  
BRANCH   3   4
HETATM    4  N   UNL     1      -8.329   3.932  68.322  1.00  0.00    -0.090 NA 
BRANCH   4   5
HETATM    5  C   UNL     1      -6.983   3.929  67.707  1.00  0.00    -0.055 C  
BRANCH   5   6
HETATM    6  C   UNL     1      -5.867   3.247  68.520  1.00  0.00    -0.023 C  
HETATM    7  C   UNL     1      -6.357   2.620  69.817  1.00  0.00    -0.028 C  
ENDBRANCH   5   6
ENDBRANCH   4   5
BRANCH   4   8
HETATM    8  C   UNL     1      -8.755   5.317  68.648  1.00  0.00    -0.093 C  
BRANCH   8   9
HETATM    9  C   UNL     1     -10.253   5.526  68.968  1.00  0.00    -0.298 C  
BRANCH   9  10
HETATM   10  C   UNL     1     -10.538   6.589  69.998  1.00  0.00    -0.280 A  
HETATM   11  C   UNL     1     -10.677   6.300  71.351  1.00  0.00    -0.297 A  
HETATM   12  C   UNL     1     -10.587   4.990  72.084  1.00  0.00    -0.259 C  
HETATM   13  C   UNL     1     -10.828   5.404  73.537  1.00  0.00    -0.293 C  
HETATM   14  N   UNL     1     -11.031   6.778  73.550  1.00  0.00    -0.512 N  
HETATM   15  O   UNL     1     -10.845   4.670  74.511  1.00  0.00    -0.339 OA 
HETATM   16  H   UNL     1     -11.217   7.323  74.392  1.00  0.00     0.000 HD 
HETATM   17  C   UNL     1     -10.949   7.312  72.274  1.00  0.00    -0.249 A  
HETATM   18  C   UNL     1     -11.098   8.633  71.916  1.00  0.00    -0.416 A  
HETATM   19  C   UNL     1     -10.974   8.941  70.564  1.00  0.00    -0.280 A  
HETATM   20  C   UNL     1     -10.703   7.935  69.617  1.00  0.00    -0.218 A  
ENDBRANCH   9  10
ENDBRANCH   8   9
ENDBRANCH   4   8
ENDBRANCH   3   4
ENDBRANCH   2   3
TORSDOF 7
ENDMDL
MODEL      309
REMARK 921   NORMALIZED FREE ENERGY PREDICTED BY IDOCK:   -2.73 KCAL/MOL
REMARK 922        TOTAL FREE ENERGY PREDICTED BY IDOCK:   -4.74 KCAL/MOL
REMARK 923 INTER-LIGAND FREE ENERGY PREDICTED BY IDOCK:   -4.11 KCAL/MOL
REMARK 924 INTRA-LIGAND FREE ENERGY PREDICTED BY IDOCK:   -0.63 KCAL/MOL
REMARK 927      BINDING AFFINITY PREDICTED BY RF-SCORE:    0.00 PKD
ROOT
HETATM    1  C   UNL     1     -12.033  11.346  69.207  1.00  0.00    -0.400 C  
HETATM    2  C   UNL     1     -11.200  12.613  69.316  1.00  0.00    -0.255 C  
ENDROOT
BRANCH   2   3
HETATM    3  C   UNL     1      -9.879  12.561  68.533  1.00  0.00    -0.149 C  
BRANCH   3   4
HETATM    4  N   UNL     1      -9.911  11.973  67.175  1.00  0.00    -0.195 NA 
BRANCH   4   5
HETATM    5  C   UNL     1     -10.551  12.895  66.210  1.00  0.00    -0.266 C  
BRANCH   5   6
HETATM    6  C   UNL     1     -11.193  12.241  64.972  1.00  0.00    -0.367 C  
HETATM    7  C   UNL     1     -12.546  12.832  64.606  1.00  0.00    -0.491 C  
ENDBRANCH   5   6
ENDBRANCH   4   5
BRANCH   4   8
HETATM    8  C   UNL     1      -8.531  11.633  66.740  1.00  0.00    -0.177 C  
BRANCH   8   9
HETATM    9  C   UNL     1      -7.760  10.616  67.613  1.00  0.00    -0.097 C  
BRANCH   9  10
HETATM   10  C   UNL     1      -8.612   9.535  68.228  1.00  0.00    -0.120 A  
HETATM   11  C   UNL     1      -8.419   9.083  69.529  1.00  0.00    -0.125 A  
HETATM   12  C   UNL     1      -7.420   9.503  70.571  1.00  0.00    -0.159 C  
HETATM   13  C   UNL     1      -7.782   8.609  71.759  1.00  0.00    -0.088 C  
HETATM   14  N   UNL     1      -8.846   7.807  71.368  1.00  0.00    -0.130 N  
HETATM   15  O   UNL     1      -7.240   8.593  72.852  1.00  0.00    -0.305 OA 
HETATM   16  H   UNL     1      -9.292   7.111  71.965  1.00  0.00     0.000 HD 
HETATM   17  C   UNL     1      -9.224   8.073  70.061  1.00  0.00    -0.156 A  
HETATM   18  C   UNL     1     -10.237   7.469  69.351  1.00  0.00    -0.204 A  
HETATM   19  C   UNL     1     -10.438   7.900  68.042  1.00  0.00    -0.245 A  
HETATM   20  C   UNL     1      -9.635   8.915  67.486  1.00  0.00    -0.183 A  
ENDBRANCH   9  10
ENDBRANCH   8   9
ENDBRANCH   4   8
ENDBRANCH   3   4
ENDBRANCH   2   3
TORSDOF 7
ENDMDL
MODEL      310
REMARK 921   NORMALIZED FREE ENERGY PREDICTED BY IDOCK:   -2.72 KCAL/MOL
REMARK 922        TOTAL FREE ENERGY PREDICTED BY IDOCK:   -4.72 KCAL/MOL
REMARK 923 INTER-LIGAND FREE ENERGY PREDICTED BY IDOCK:   -4.18 KCAL/MOL
REMARK 924 INTRA-LIGAND FREE ENERGY PREDICTED BY IDOCK:   -0.54 KCAL/MOL
REMARK 927      BINDING AFFINITY PREDICTED BY RF-SCORE:    0.00 PKD
ROOT
HETATM    1  C   UNL     1     -14.063   7.422  71.504  1.00  0.00    -0.541 C  
HETATM    2  C   UNL     1     -12.608   7.766  71.784  1.00  0.00    -0.356 C  
ENDROOT
BRANCH   2   3
HETATM    3  C   UNL     1     -11.657   7.456  70.618  1.00  0.00    -0.268 C  
BRANCH   3   4
HETATM    4  N   UNL     1     -10.641   6.400  70.825  1.00  0.00    -0.228 NA 
BRANCH   4   5
HETATM    5  C   UNL     1     -10.559   5.501  69.653  1.00  0.00    -0.305 C  
BRANCH   5   6
HETATM    6  C   UNL     1      -9.196   5.441  68.939  1.00  0.00    -0.147 C  
HETATM    7  C   UNL     1      -9.159   4.456  67.780  1.00  0.00    -0.149 C  
ENDBRANCH   5   6
ENDBRANCH   4   5
BRANCH   4   8
HETATM    8  C   UNL     1      -9.320   7.020  71.105  1.00  0.00    -0.158 C  
BRANCH   8   9
HETATM    9  C   UNL     1      -9.323   8.521  71.477  1.00  0.00    -0.289 C  
BRANCH   9  10
HETATM   10  C   UNL     1      -8.532   9.406  70.548  1.00  0.00    -0.251 A  
HETATM   11  C   UNL     1      -9.138  10.231  69.607  1.00  0.00    -0.149 A  
HETATM   12  C   UNL     1     -10.592  10.450  69.292  1.00  0.00    -0.259 C  
HETATM   13  C   UNL     1     -10.536  11.488  68.169  1.00  0.00    -0.196 C  
HETATM   14  N   UNL     1      -9.198  11.765  67.924  1.00  0.00    -0.174 N  
HETATM   15  O   UNL     1     -11.487  11.983  67.587  1.00  0.00    -0.284 OA 
HETATM   16  H   UNL     1      -8.867  12.425  67.220  1.00  0.00     0.000 HD 
HETATM   17  C   UNL     1      -8.370  11.031  68.758  1.00  0.00    -0.144 A  
HETATM   18  C   UNL     1      -6.994  11.054  68.791  1.00  0.00    -0.081 A  
HETATM   19  C   UNL     1      -6.368  10.225  69.719  1.00  0.00    -0.071 A  
HETATM   20  C   UNL     1      -7.124   9.409  70.582  1.00  0.00    -0.127 A  
ENDBRANCH   9  10
ENDBRANCH   8   9
ENDBRANCH   4   8
ENDBRANCH   3   4
ENDBRANCH   2   3
TORSDOF 7
ENDMDL
MODEL      311
REMARK 921   NORMALIZED FREE ENERGY PREDICTED BY IDOCK:   -2.68 KCAL/MOL
REMARK 922        TOTAL FREE ENERGY PREDICTED BY IDOCK:   -4.66 KCAL/MOL
REMARK 923 INTER-LIGAND FREE ENERGY PREDICTED BY IDOCK:   -4.04 KCAL/MOL
REMARK 924 INTRA-LIGAND FREE ENERGY PREDICTED BY IDOCK:   -0.61 KCAL/MOL
REMARK 927      BINDING AFFINITY PREDICTED BY RF-SCORE:    0.00 PKD
ROOT
HETATM    1  C   UNL     1      -9.483   4.210  71.171  1.00  0.00    -0.234 C  
HETATM    2  C   UNL     1      -9.484   5.561  71.868  1.00  0.00    -0.171 C  
ENDROOT
BRANCH   2   3
HETATM    3  C   UNL     1      -9.490   6.760  70.907  1.00  0.00    -0.157 C  
BRANCH   3   4
HETATM    4  N   UNL     1     -10.395   6.694  69.737  1.00  0.00    -0.186 NA 
BRANCH   4   5
HETATM    5  C   UNL     1     -11.810   6.609  70.161  1.00  0.00    -0.284 C  
BRANCH   5   6
HETATM    6  C   UNL     1     -12.306   7.728  71.096  1.00  0.00    -0.268 C  
HETATM    7  C   UNL     1     -13.612   7.396  71.802  1.00  0.00    -0.396 C  
ENDBRANCH   5   6
ENDBRANCH   4   5
BRANCH   4   8
HETATM    8  C   UNL     1     -10.178   7.879  68.866  1.00  0.00    -0.205 C  
BRANCH   8   9
HETATM    9  C   UNL     1      -9.364   9.045  69.471  1.00  0.00    -0.160 C  
BRANCH   9  10
HETATM   10  C   UNL     1      -9.318  10.292  68.625  1.00  0.00    -0.162 A  
HETATM   11  C   UNL     1     -10.184  11.362  68.826  1.00  0.00    -0.209 A  
HETATM   12  C   UNL     1     -11.282  11.554  69.835  1.00  0.00    -0.183 C  
HETATM   13  C   UNL     1     -11.808  12.950  69.494  1.00  0.00    -0.320 C  
HETATM   14  N   UNL     1     -11.068  13.422  68.418  1.00  0.00    -0.259 N  
HETATM   15  O   UNL     1     -12.713  13.545  70.055  1.00  0.00    -0.138 OA 
HETATM   16  H   UNL     1     -11.207  14.332  67.980  1.00  0.00     0.000 HD 
HETATM   17  C   UNL     1     -10.117  12.498  68.016  1.00  0.00    -0.220 A  
HETATM   18  C   UNL     1      -9.213  12.631  66.986  1.00  0.00    -0.212 A  
HETATM   19  C   UNL     1      -8.345  11.565  66.762  1.00  0.00    -0.165 A  
HETATM   20  C   UNL     1      -8.399  10.410  67.565  1.00  0.00    -0.114 A  
ENDBRANCH   9  10
ENDBRANCH   8   9
ENDBRANCH   4   8
ENDBRANCH   3   4
ENDBRANCH   2   3
TORSDOF 7
ENDMDL
MODEL      312
REMARK 921   NORMALIZED FREE ENERGY PREDICTED BY IDOCK:   -2.66 KCAL/MOL
REMARK 922        TOTAL FREE ENERGY PREDICTED BY IDOCK:   -4.64 KCAL/MOL
REMARK 923 INTER-LIGAND FREE ENERGY PREDICTED BY IDOCK:   -3.81 KCAL/MOL
REMARK 924 INTRA-LIGAND FREE ENERGY PREDICTED BY IDOCK:   -0.82 KCAL/MOL
REMARK 927      BINDING AFFINITY PREDICTED BY RF-SCORE:    0.00 PKD
ROOT
HETATM    1  C   UNL     1     -10.736   5.612  66.522  1.00  0.00    -0.296 C  
HETATM    2  C   UNL     1      -9.381   6.301  66.512  1.00  0.00    -0.173 C  
ENDROOT
BRANCH   2   3
HETATM    3  C   UNL     1      -9.393   7.711  67.123  1.00  0.00    -0.146 C  
BRANCH   3   4
HETATM    4  N   UNL     1     -10.571   8.097  67.931  1.00  0.00    -0.187 NA 
BRANCH   4   5
HETATM    5  C   UNL     1     -10.294   7.954  69.378  1.00  0.00    -0.220 C  
BRANCH   5   6
HETATM    6  C   UNL     1      -9.763   9.210  70.094  1.00  0.00    -0.234 C  
HETATM    7  C   UNL     1      -9.328   8.954  71.529  1.00  0.00    -0.335 C  
ENDBRANCH   5   6
ENDBRANCH   4   5
BRANCH   4   8
HETATM    8  C   UNL     1     -10.968   9.492  67.608  1.00  0.00    -0.081 C  
BRANCH   8   9
HETATM    9  C   UNL     1     -10.047  10.269  66.640  1.00  0.00    -0.281 C  
BRANCH   9  10
HETATM   10  C   UNL     1      -9.130  11.267  67.302  1.00  0.00    -0.156 A  
HETATM   11  C   UNL     1      -9.560  12.530  67.692  1.00  0.00    -0.190 A  
HETATM   12  C   UNL     1     -10.912  13.180  67.581  1.00  0.00    -0.282 C  
HETATM   13  C   UNL     1     -10.674  14.553  68.214  1.00  0.00    -0.240 C  
HETATM   14  N   UNL     1      -9.342  14.608  68.601  1.00  0.00    -0.204 N  
HETATM   15  O   UNL     1     -11.497  15.443  68.355  1.00  0.00    -0.326 OA 
HETATM   16  H   UNL     1      -8.907  15.413  69.052  1.00  0.00     0.000 HD 
HETATM   17  C   UNL     1      -8.679  13.430  68.296  1.00  0.00    -0.172 A  
HETATM   18  C   UNL     1      -7.355  13.136  68.536  1.00  0.00    -0.111 A  
HETATM   19  C   UNL     1      -6.903  11.879  68.141  1.00  0.00    -0.071 A  
HETATM   20  C   UNL     1      -7.775  10.959  67.528  1.00  0.00    -0.109 A  
ENDBRANCH   9  10
ENDBRANCH   8   9
ENDBRANCH   4   8
ENDBRANCH   3   4
ENDBRANCH   2   3
TORSDOF 7
ENDMDL
MODEL      313
REMARK 921   NORMALIZED FREE ENERGY PREDICTED BY IDOCK:   -2.66 KCAL/MOL
REMARK 922        TOTAL FREE ENERGY PREDICTED BY IDOCK:   -4.64 KCAL/MOL
REMARK 923 INTER-LIGAND FREE ENERGY PREDICTED BY IDOCK:   -4.06 KCAL/MOL
REMARK 924 INTRA-LIGAND FREE ENERGY PREDICTED BY IDOCK:   -0.57 KCAL/MOL
REMARK 927      BINDING AFFINITY PREDICTED BY RF-SCORE:    0.00 PKD
ROOT
HETATM    1  C   UNL     1     -10.298  16.711  66.844  1.00  0.00    -0.299 C  
HETATM    2  C   UNL     1     -10.777  15.378  67.396  1.00  0.00    -0.296 C  
ENDROOT
BRANCH   2   3
HETATM    3  C   UNL     1     -10.744  14.231  66.374  1.00  0.00    -0.297 C  
BRANCH   3   4
HETATM    4  N   UNL     1     -11.152  12.887  66.840  1.00  0.00    -0.270 NA 
BRANCH   4   5
HETATM    5  C   UNL     1     -12.051  12.234  65.863  1.00  0.00    -0.186 C  
BRANCH   5   6
HETATM    6  C   UNL     1     -12.478  13.090  64.656  1.00  0.00    -0.460 C  
HETATM    7  C   UNL     1     -12.618  12.296  63.367  1.00  0.00    -0.545 C  
ENDBRANCH   5   6
ENDBRANCH   4   5
BRANCH   4   8
HETATM    8  C   UNL     1      -9.947  12.052  67.085  1.00  0.00    -0.195 C  
BRANCH   8   9
HETATM    9  C   UNL     1      -9.722  10.860  66.126  1.00  0.00    -0.252 C  
BRANCH   9  10
HETATM   10  C   UNL     1      -9.217   9.602  66.787  1.00  0.00    -0.181 A  
HETATM   11  C   UNL     1      -8.543   8.610  66.084  1.00  0.00    -0.158 A  
HETATM   12  C   UNL     1      -8.165   8.526  64.631  1.00  0.00    -0.162 C  
HETATM   13  C   UNL     1      -7.438   7.183  64.552  1.00  0.00    -0.099 C  
HETATM   14  N   UNL     1      -7.448   6.629  65.826  1.00  0.00    -0.079 N  
HETATM   15  O   UNL     1      -6.940   6.680  63.558  1.00  0.00    -0.047 OA 
HETATM   16  H   UNL     1      -7.031   5.729  66.065  1.00  0.00     0.000 HD 
HETATM   17  C   UNL     1      -8.097   7.455  66.730  1.00  0.00    -0.123 A  
HETATM   18  C   UNL     1      -8.293   7.223  68.073  1.00  0.00    -0.123 A  
HETATM   19  C   UNL     1      -8.978   8.201  68.791  1.00  0.00    -0.144 A  
HETATM   20  C   UNL     1      -9.438   9.371  68.158  1.00  0.00    -0.146 A  
ENDBRANCH   9  10
ENDBRANCH   8   9
ENDBRANCH   4   8
ENDBRANCH   3   4
ENDBRANCH   2   3
TORSDOF 7
ENDMDL
MODEL      314
REMARK 921   NORMALIZED FREE ENERGY PREDICTED BY IDOCK:   -2.65 KCAL/MOL
REMARK 922        TOTAL FREE ENERGY PREDICTED BY IDOCK:   -4.61 KCAL/MOL
REMARK 923 INTER-LIGAND FREE ENERGY PREDICTED BY IDOCK:   -3.25 KCAL/MOL
REMARK 924 INTRA-LIGAND FREE ENERGY PREDICTED BY IDOCK:   -1.37 KCAL/MOL
REMARK 927      BINDING AFFINITY PREDICTED BY RF-SCORE:    0.00 PKD
ROOT
HETATM    1  C   UNL     1     -10.868  10.211  67.337  1.00  0.00    -0.323 C  
HETATM    2  C   UNL     1     -10.041   9.045  66.819  1.00  0.00    -0.344 C  
ENDROOT
BRANCH   2   3
HETATM    3  C   UNL     1     -10.632   7.665  67.147  1.00  0.00    -0.340 C  
BRANCH   3   4
HETATM    4  N   UNL     1      -9.904   6.822  68.121  1.00  0.00    -0.135 NA 
BRANCH   4   5
HETATM    5  C   UNL     1      -9.699   5.454  67.595  1.00  0.00    -0.134 C  
BRANCH   5   6
HETATM    6  C   UNL     1      -9.683   4.322  68.639  1.00  0.00    -0.174 C  
HETATM    7  C   UNL     1      -8.322   3.662  68.799  1.00  0.00    -0.089 C  
ENDBRANCH   5   6
ENDBRANCH   4   5
BRANCH   4   8
HETATM    8  C   UNL     1      -8.602   7.454  68.460  1.00  0.00    -0.128 C  
BRANCH   8   9
HETATM    9  C   UNL     1      -8.383   7.840  69.941  1.00  0.00    -0.130 C  
BRANCH   9  10
HETATM   10  C   UNL     1      -7.997   6.695  70.843  1.00  0.00    -0.110 A  
HETATM   11  C   UNL     1      -8.925   6.016  71.624  1.00  0.00    -0.143 A  
HETATM   12  C   UNL     1     -10.410   6.209  71.768  1.00  0.00    -0.250 C  
HETATM   13  C   UNL     1     -10.792   5.120  72.772  1.00  0.00    -0.258 C  
HETATM   14  N   UNL     1      -9.629   4.445  73.117  1.00  0.00    -0.126 N  
HETATM   15  O   UNL     1     -11.910   4.884  73.201  1.00  0.00    -0.279 OA 
HETATM   16  H   UNL     1      -9.590   3.667  73.775  1.00  0.00     0.000 HD 
HETATM   17  C   UNL     1      -8.529   4.965  72.454  1.00  0.00    -0.120 A  
HETATM   18  C   UNL     1      -7.223   4.541  72.555  1.00  0.00    -0.080 A  
HETATM   19  C   UNL     1      -6.276   5.217  71.789  1.00  0.00    -0.030 A  
HETATM   20  C   UNL     1      -6.656   6.282  70.949  1.00  0.00    -0.053 A  
ENDBRANCH   9  10
ENDBRANCH   8   9
ENDBRANCH   4   8
ENDBRANCH   3   4
ENDBRANCH   2   3
TORSDOF 7
ENDMDL
MODEL      315
REMARK 921   NORMALIZED FREE ENERGY PREDICTED BY IDOCK:   -2.65 KCAL/MOL
REMARK 922        TOTAL FREE ENERGY PREDICTED BY IDOCK:   -4.61 KCAL/MOL
REMARK 923 INTER-LIGAND FREE ENERGY PREDICTED BY IDOCK:   -3.88 KCAL/MOL
REMARK 924 INTRA-LIGAND FREE ENERGY PREDICTED BY IDOCK:   -0.73 KCAL/MOL
REMARK 927      BINDING AFFINITY PREDICTED BY RF-SCORE:    0.00 PKD
ROOT
HETATM    1  C   UNL     1     -12.976   9.588  72.060  1.00  0.00    -0.514 C  
HETATM    2  C   UNL     1     -13.396  10.102  70.692  1.00  0.00    -0.088 C  
ENDROOT
BRANCH   2   3
HETATM    3  C   UNL     1     -13.105  11.594  70.469  1.00  0.00     0.345 C  
BRANCH   3   4
HETATM    4  N   UNL     1     -12.143  11.952  69.403  1.00  0.00    -0.256 NA 
BRANCH   4   5
HETATM    5  C   UNL     1     -11.201  12.996  69.862  1.00  0.00     0.151 C  
BRANCH   5   6
HETATM    6  C   UNL     1     -11.040  14.218  68.938  1.00  0.00    -0.283 C  
HETATM    7  C   UNL     1      -9.600  14.692  68.803  1.00  0.00    -0.210 C  
ENDBRANCH   5   6
ENDBRANCH   4   5
BRANCH   4   8
HETATM    8  C   UNL     1     -11.407  10.738  68.961  1.00  0.00    -0.284 C  
BRANCH   8   9
HETATM    9  C   UNL     1      -9.905  10.916  68.640  1.00  0.00    -0.194 C  
BRANCH   9  10
HETATM   10  C   UNL     1      -9.442  10.236  67.377  1.00  0.00    -0.174 A  
HETATM   11  C   UNL     1      -9.784  10.701  66.112  1.00  0.00    -0.253 A  
HETATM   12  C   UNL     1     -10.615  11.884  65.696  1.00  0.00    -0.311 C  
HETATM   13  C   UNL     1     -10.566  11.805  64.169  1.00  0.00    -0.353 C  
HETATM   14  N   UNL     1      -9.801  10.696  63.833  1.00  0.00    -0.318 N  
HETATM   15  O   UNL     1     -11.101  12.569  63.382  1.00  0.00    -0.459 OA 
HETATM   16  H   UNL     1      -9.604  10.402  62.877  1.00  0.00     0.000 HD 
HETATM   17  C   UNL     1      -9.342  10.039  64.964  1.00  0.00    -0.256 A  
HETATM   18  C   UNL     1      -8.560   8.907  65.005  1.00  0.00    -0.202 A  
HETATM   19  C   UNL     1      -8.217   8.419  66.265  1.00  0.00    -0.111 A  
HETATM   20  C   UNL     1      -8.655   9.071  67.434  1.00  0.00    -0.115 A  
ENDBRANCH   9  10
ENDBRANCH   8   9
ENDBRANCH   4   8
ENDBRANCH   3   4
ENDBRANCH   2   3
TORSDOF 7
ENDMDL
MODEL      316
REMARK 921   NORMALIZED FREE ENERGY PREDICTED BY IDOCK:   -2.64 KCAL/MOL
REMARK 922        TOTAL FREE ENERGY PREDICTED BY IDOCK:   -4.60 KCAL/MOL
REMARK 923 INTER-LIGAND FREE ENERGY PREDICTED BY IDOCK:   -3.75 KCAL/MOL
REMARK 924 INTRA-LIGAND FREE ENERGY PREDICTED BY IDOCK:   -0.85 KCAL/MOL
REMARK 927      BINDING AFFINITY PREDICTED BY RF-SCORE:    0.00 PKD
ROOT
HETATM    1  C   UNL     1     -12.433   8.267  71.361  1.00  0.00    -0.315 C  
HETATM    2  C   UNL     1     -11.134   8.025  70.610  1.00  0.00    -0.266 C  
ENDROOT
BRANCH   2   3
HETATM    3  C   UNL     1     -10.401   9.311  70.198  1.00  0.00    -0.222 C  
BRANCH   3   4
HETATM    4  N   UNL     1     -10.369   9.650  68.758  1.00  0.00    -0.206 NA 
BRANCH   4   5
HETATM    5  C   UNL     1     -11.022   8.597  67.948  1.00  0.00     0.149 C  
BRANCH   5   6
HETATM    6  C   UNL     1     -10.102   7.803  67.001  1.00  0.00    -0.343 C  
HETATM    7  C   UNL     1     -10.576   6.381  66.745  1.00  0.00    -0.328 C  
ENDBRANCH   5   6
ENDBRANCH   4   5
BRANCH   4   8
HETATM    8  C   UNL     1     -11.023  10.965  68.535  1.00  0.00    -0.230 C  
BRANCH   8   9
HETATM    9  C   UNL     1     -10.510  11.802  67.340  1.00  0.00    -0.238 C  
BRANCH   9  10
HETATM   10  C   UNL     1      -9.101  11.488  66.906  1.00  0.00    -0.181 A  
HETATM   11  C   UNL     1      -8.809  10.923  65.670  1.00  0.00    -0.201 A  
HETATM   12  C   UNL     1      -9.718  10.517  64.543  1.00  0.00    -0.375 C  
HETATM   13  C   UNL     1      -8.735   9.985  63.498  1.00  0.00    -0.222 C  
HETATM   14  N   UNL     1      -7.458  10.096  64.032  1.00  0.00    -0.186 N  
HETATM   15  O   UNL     1      -9.012   9.541  62.396  1.00  0.00    -0.245 OA 
HETATM   16  H   UNL     1      -6.606   9.812  63.549  1.00  0.00     0.000 HD 
HETATM   17  C   UNL     1      -7.491  10.640  65.307  1.00  0.00     0.006 A  
HETATM   18  C   UNL     1      -6.416  10.891  66.129  1.00  0.00    -0.114 A  
HETATM   19  C   UNL     1      -6.689  11.446  67.378  1.00  0.00    -0.094 A  
HETATM   20  C   UNL     1      -8.012  11.736  67.764  1.00  0.00    -0.141 A  
ENDBRANCH   9  10
ENDBRANCH   8   9
ENDBRANCH   4   8
ENDBRANCH   3   4
ENDBRANCH   2   3
TORSDOF 7
ENDMDL
MODEL      317
REMARK 921   NORMALIZED FREE ENERGY PREDICTED BY IDOCK:   -2.64 KCAL/MOL
REMARK 922        TOTAL FREE ENERGY PREDICTED BY IDOCK:   -4.60 KCAL/MOL
REMARK 923 INTER-LIGAND FREE ENERGY PREDICTED BY IDOCK:   -3.89 KCAL/MOL
REMARK 924 INTRA-LIGAND FREE ENERGY PREDICTED BY IDOCK:   -0.71 KCAL/MOL
REMARK 927      BINDING AFFINITY PREDICTED BY RF-SCORE:    0.00 PKD
ROOT
HETATM    1  C   UNL     1     -10.295   3.802  64.255  1.00  0.00    -0.253 C  
HETATM    2  C   UNL     1      -9.537   4.900  64.985  1.00  0.00     0.000 C  
ENDROOT
BRANCH   2   3
HETATM    3  C   UNL     1     -10.123   5.255  66.361  1.00  0.00    -0.226 C  
BRANCH   3   4
HETATM    4  N   UNL     1      -9.451   6.322  67.136  1.00  0.00    -0.121 NA 
BRANCH   4   5
HETATM    5  C   UNL     1      -8.059   5.944  67.467  1.00  0.00    -0.102 C  
BRANCH   5   6
HETATM    6  C   UNL     1      -7.010   7.067  67.370  1.00  0.00    -0.079 C  
HETATM    7  C   UNL     1      -5.610   6.566  67.049  1.00  0.00    -0.013 C  
ENDBRANCH   5   6
ENDBRANCH   4   5
BRANCH   4   8
HETATM    8  C   UNL     1      -9.481   7.595  66.371  1.00  0.00    -0.161 C  
BRANCH   8   9
HETATM    9  C   UNL     1     -10.407   8.708  66.912  1.00  0.00    -0.355 C  
BRANCH   9  10
HETATM   10  C   UNL     1      -9.754  10.058  67.064  1.00  0.00    -0.227 A  
HETATM   11  C   UNL     1      -9.995  11.107  66.183  1.00  0.00    -0.273 A  
HETATM   12  C   UNL     1     -10.881  11.180  64.970  1.00  0.00    -0.244 C  
HETATM   13  C   UNL     1     -10.676  12.619  64.494  1.00  0.00    -0.341 C  
HETATM   14  N   UNL     1      -9.773  13.220  65.362  1.00  0.00    -0.509 N  
HETATM   15  O   UNL     1     -11.200  13.150  63.529  1.00  0.00    -0.302 OA 
HETATM   16  H   UNL     1      -9.452  14.185  65.280  1.00  0.00     0.000 HD 
HETATM   17  C   UNL     1      -9.365  12.342  66.352  1.00  0.00    -0.219 A  
HETATM   18  C   UNL     1      -8.480  12.598  67.376  1.00  0.00    -0.186 A  
HETATM   19  C   UNL     1      -8.217  11.556  68.262  1.00  0.00    -0.152 A  
HETATM   20  C   UNL     1      -8.840  10.303  68.106  1.00  0.00    -0.123 A  
ENDBRANCH   9  10
ENDBRANCH   8   9
ENDBRANCH   4   8
ENDBRANCH   3   4
ENDBRANCH   2   3
TORSDOF 7
ENDMDL
MODEL      318
REMARK 921   NORMALIZED FREE ENERGY PREDICTED BY IDOCK:   -2.64 KCAL/MOL
REMARK 922        TOTAL FREE ENERGY PREDICTED BY IDOCK:   -4.60 KCAL/MOL
REMARK 923 INTER-LIGAND FREE ENERGY PREDICTED BY IDOCK:   -3.89 KCAL/MOL
REMARK 924 INTRA-LIGAND FREE ENERGY PREDICTED BY IDOCK:   -0.70 KCAL/MOL
REMARK 927      BINDING AFFINITY PREDICTED BY RF-SCORE:    0.00 PKD
ROOT
HETATM    1  C   UNL     1      -9.053   4.530  64.485  1.00  0.00    -0.148 C  
HETATM    2  C   UNL     1      -8.240   5.815  64.490  1.00  0.00    -0.122 C  
ENDROOT
BRANCH   2   3
HETATM    3  C   UNL     1      -8.523   6.729  65.692  1.00  0.00    -0.138 C  
BRANCH   3   4
HETATM    4  N   UNL     1      -8.005   6.305  67.011  1.00  0.00    -0.108 NA 
BRANCH   4   5
HETATM    5  C   UNL     1      -7.069   7.309  67.565  1.00  0.00    -0.085 C  
BRANCH   5   6
HETATM    6  C   UNL     1      -5.723   7.458  66.831  1.00  0.00    -0.027 C  
HETATM    7  C   UNL     1      -5.529   8.825  66.190  1.00  0.00    -0.037 C  
ENDBRANCH   5   6
ENDBRANCH   4   5
BRANCH   4   8
HETATM    8  C   UNL     1      -9.137   6.071  67.945  1.00  0.00    -0.117 C  
BRANCH   8   9
HETATM    9  C   UNL     1     -10.468   6.786  67.615  1.00  0.00    -0.287 C  
BRANCH   9  10
HETATM   10  C   UNL     1     -10.635   8.140  68.256  1.00  0.00    -0.153 A  
HETATM   11  C   UNL     1     -10.856   8.298  69.619  1.00  0.00    -0.154 A  
HETATM   12  C   UNL     1     -10.972   7.275  70.715  1.00  0.00    -0.273 C  
HETATM   13  C   UNL     1     -11.200   8.141  71.956  1.00  0.00    -0.310 C  
HETATM   14  N   UNL     1     -11.210   9.466  71.543  1.00  0.00    -0.378 N  
HETATM   15  O   UNL     1     -11.349   7.748  73.102  1.00  0.00    -0.374 OA 
HETATM   16  H   UNL     1     -11.345  10.262  72.167  1.00  0.00     0.000 HD 
HETATM   17  C   UNL     1     -11.015   9.570  70.175  1.00  0.00    -0.262 A  
HETATM   18  C   UNL     1     -10.967  10.726  69.429  1.00  0.00    -0.305 A  
HETATM   19  C   UNL     1     -10.758  10.587  68.058  1.00  0.00    -0.287 A  
HETATM   20  C   UNL     1     -10.599   9.314  67.479  1.00  0.00    -0.329 A  
ENDBRANCH   9  10
ENDBRANCH   8   9
ENDBRANCH   4   8
ENDBRANCH   3   4
ENDBRANCH   2   3
TORSDOF 7
ENDMDL
MODEL      319
REMARK 921   NORMALIZED FREE ENERGY PREDICTED BY IDOCK:   -2.61 KCAL/MOL
REMARK 922        TOTAL FREE ENERGY PREDICTED BY IDOCK:   -4.57 KCAL/MOL
REMARK 923 INTER-LIGAND FREE ENERGY PREDICTED BY IDOCK:   -3.89 KCAL/MOL
REMARK 924 INTRA-LIGAND FREE ENERGY PREDICTED BY IDOCK:   -0.67 KCAL/MOL
REMARK 927      BINDING AFFINITY PREDICTED BY RF-SCORE:    0.00 PKD
ROOT
HETATM    1  C   UNL     1     -12.126  11.869  69.199  1.00  0.00    -0.261 C  
HETATM    2  C   UNL     1     -11.874  10.698  70.135  1.00  0.00    -0.421 C  
ENDROOT
BRANCH   2   3
HETATM    3  C   UNL     1     -11.021   9.579  69.519  1.00  0.00    -0.195 C  
BRANCH   3   4
HETATM    4  N   UNL     1      -9.557   9.790  69.455  1.00  0.00    -0.197 NA 
BRANCH   4   5
HETATM    5  C   UNL     1      -8.870   9.102  70.571  1.00  0.00    -0.224 C  
BRANCH   5   6
HETATM    6  C   UNL     1      -9.778   8.374  71.581  1.00  0.00    -0.287 C  
HETATM    7  C   UNL     1      -9.372   6.930  71.833  1.00  0.00    -0.145 C  
ENDBRANCH   5   6
ENDBRANCH   4   5
BRANCH   4   8
HETATM    8  C   UNL     1      -9.036   9.317  68.146  1.00  0.00    -0.128 C  
BRANCH   8   9
HETATM    9  C   UNL     1      -8.993  10.356  67.002  1.00  0.00    -0.150 C  
BRANCH   9  10
HETATM   10  C   UNL     1      -8.252  11.628  67.328  1.00  0.00    -0.159 A  
HETATM   11  C   UNL     1      -8.843  12.882  67.223  1.00  0.00    -0.206 A  
HETATM   12  C   UNL     1     -10.233  13.276  66.806  1.00  0.00    -0.254 C  
HETATM   13  C   UNL     1     -10.199  14.801  66.931  1.00  0.00    -0.257 C  
HETATM   14  N   UNL     1      -8.925  15.155  67.357  1.00  0.00    -0.176 N  
HETATM   15  O   UNL     1     -11.115  15.572  66.698  1.00  0.00    -0.293 OA 
HETATM   16  H   UNL     1      -8.621  16.114  67.524  1.00  0.00     0.000 HD 
HETATM   17  C   UNL     1      -8.122  14.039  67.527  1.00  0.00    -0.186 A  
HETATM   18  C   UNL     1      -6.808  14.018  67.938  1.00  0.00    -0.172 A  
HETATM   19  C   UNL     1      -6.195  12.770  68.037  1.00  0.00    -0.103 A  
HETATM   20  C   UNL     1      -6.904  11.593  67.733  1.00  0.00    -0.079 A  
ENDBRANCH   9  10
ENDBRANCH   8   9
ENDBRANCH   4   8
ENDBRANCH   3   4
ENDBRANCH   2   3
TORSDOF 7
ENDMDL
MODEL      320
REMARK 921   NORMALIZED FREE ENERGY PREDICTED BY IDOCK:   -2.61 KCAL/MOL
REMARK 922        TOTAL FREE ENERGY PREDICTED BY IDOCK:   -4.56 KCAL/MOL
REMARK 923 INTER-LIGAND FREE ENERGY PREDICTED BY IDOCK:   -3.94 KCAL/MOL
REMARK 924 INTRA-LIGAND FREE ENERGY PREDICTED BY IDOCK:   -0.61 KCAL/MOL
REMARK 927      BINDING AFFINITY PREDICTED BY RF-SCORE:    0.00 PKD
ROOT
HETATM    1  C   UNL     1      -6.184   6.714  68.229  1.00  0.00    -0.030 C  
HETATM    2  C   UNL     1      -6.123   6.012  69.576  1.00  0.00    -0.029 C  
ENDROOT
BRANCH   2   3
HETATM    3  C   UNL     1      -7.169   6.506  70.586  1.00  0.00    -0.074 C  
BRANCH   3   4
HETATM    4  N   UNL     1      -8.159   5.524  71.083  1.00  0.00    -0.110 NA 
BRANCH   4   5
HETATM    5  C   UNL     1      -7.697   4.889  72.337  1.00  0.00    -0.092 C  
BRANCH   5   6
HETATM    6  C   UNL     1      -6.744   5.727  73.210  1.00  0.00    -0.075 C  
HETATM    7  C   UNL     1      -7.456   6.531  74.288  1.00  0.00    -0.098 C  
ENDBRANCH   5   6
ENDBRANCH   4   5
BRANCH   4   8
HETATM    8  C   UNL     1      -9.472   6.190  71.284  1.00  0.00    -0.163 C  
BRANCH   8   9
HETATM    9  C   UNL     1     -10.201   6.685  70.013  1.00  0.00    -0.215 C  
BRANCH   9  10
HETATM   10  C   UNL     1     -10.670   8.117  70.070  1.00  0.00    -0.243 A  
HETATM   11  C   UNL     1     -11.722   8.526  70.882  1.00  0.00    -0.274 A  
HETATM   12  C   UNL     1     -12.586   7.741  71.830  1.00  0.00    -0.356 C  
HETATM   13  C   UNL     1     -13.522   8.813  72.392  1.00  0.00    -0.401 C  
HETATM   14  N   UNL     1     -13.184  10.018  71.791  1.00  0.00    -0.424 N  
HETATM   15  O   UNL     1     -14.408   8.649  73.214  1.00  0.00    -0.143 OA 
HETATM   16  H   UNL     1     -13.649  10.906  71.980  1.00  0.00     0.000 HD 
HETATM   17  C   UNL     1     -12.133   9.860  70.901  1.00  0.00    -0.341 A  
HETATM   18  C   UNL     1     -11.542  10.838  70.133  1.00  0.00    -0.424 A  
HETATM   19  C   UNL     1     -10.494  10.445  69.303  1.00  0.00    -0.257 A  
HETATM   20  C   UNL     1     -10.066   9.104  69.268  1.00  0.00    -0.196 A  
ENDBRANCH   9  10
ENDBRANCH   8   9
ENDBRANCH   4   8
ENDBRANCH   3   4
ENDBRANCH   2   3
TORSDOF 7
ENDMDL
MODEL      321
REMARK 921   NORMALIZED FREE ENERGY PREDICTED BY IDOCK:   -2.61 KCAL/MOL
REMARK 922        TOTAL FREE ENERGY PREDICTED BY IDOCK:   -4.56 KCAL/MOL
REMARK 923 INTER-LIGAND FREE ENERGY PREDICTED BY IDOCK:   -3.79 KCAL/MOL
REMARK 924 INTRA-LIGAND FREE ENERGY PREDICTED BY IDOCK:   -0.77 KCAL/MOL
REMARK 927      BINDING AFFINITY PREDICTED BY RF-SCORE:    0.00 PKD
ROOT
HETATM    1  C   UNL     1     -10.295   3.800  64.258  1.00  0.00    -0.253 C  
HETATM    2  C   UNL     1      -9.520   4.873  65.005  1.00  0.00    -0.035 C  
ENDROOT
BRANCH   2   3
HETATM    3  C   UNL     1     -10.096   5.212  66.388  1.00  0.00    -0.239 C  
BRANCH   3   4
HETATM    4  N   UNL     1      -9.397   6.243  67.187  1.00  0.00    -0.120 NA 
BRANCH   4   5
HETATM    5  C   UNL     1      -8.014   5.823  67.507  1.00  0.00    -0.102 C  
BRANCH   5   6
HETATM    6  C   UNL     1      -7.097   6.907  68.103  1.00  0.00    -0.085 C  
HETATM    7  C   UNL     1      -7.217   7.041  69.614  1.00  0.00    -0.080 C  
ENDBRANCH   5   6
ENDBRANCH   4   5
BRANCH   4   8
HETATM    8  C   UNL     1      -9.397   7.535  66.453  1.00  0.00    -0.157 C  
BRANCH   8   9
HETATM    9  C   UNL     1     -10.280   8.663  67.034  1.00  0.00    -0.360 C  
BRANCH   9  10
HETATM   10  C   UNL     1      -9.581   9.986  67.214  1.00  0.00    -0.188 A  
HETATM   11  C   UNL     1     -10.166  11.054  67.886  1.00  0.00    -0.207 A  
HETATM   12  C   UNL     1     -11.510  11.171  68.551  1.00  0.00    -0.371 C  
HETATM   13  C   UNL     1     -11.489  12.602  69.094  1.00  0.00    -0.304 C  
HETATM   14  N   UNL     1     -10.270  13.164  68.738  1.00  0.00    -0.410 N  
HETATM   15  O   UNL     1     -12.376  13.156  69.722  1.00  0.00    -0.222 OA 
HETATM   16  H   UNL     1      -9.987  14.116  68.970  1.00  0.00     0.000 HD 
HETATM   17  C   UNL     1      -9.490  12.268  68.026  1.00  0.00    -0.206 A  
HETATM   18  C   UNL     1      -8.229  12.486  67.517  1.00  0.00    -0.175 A  
HETATM   19  C   UNL     1      -7.631  11.432  66.830  1.00  0.00    -0.151 A  
HETATM   20  C   UNL     1      -8.298  10.202  66.676  1.00  0.00    -0.123 A  
ENDBRANCH   9  10
ENDBRANCH   8   9
ENDBRANCH   4   8
ENDBRANCH   3   4
ENDBRANCH   2   3
TORSDOF 7
ENDMDL
MODEL      322
REMARK 921   NORMALIZED FREE ENERGY PREDICTED BY IDOCK:   -2.59 KCAL/MOL
REMARK 922        TOTAL FREE ENERGY PREDICTED BY IDOCK:   -4.53 KCAL/MOL
REMARK 923 INTER-LIGAND FREE ENERGY PREDICTED BY IDOCK:   -3.93 KCAL/MOL
REMARK 924 INTRA-LIGAND FREE ENERGY PREDICTED BY IDOCK:   -0.60 KCAL/MOL
REMARK 927      BINDING AFFINITY PREDICTED BY RF-SCORE:    0.00 PKD
ROOT
HETATM    1  C   UNL     1      -9.998  10.933  64.397  1.00  0.00    -0.381 C  
HETATM    2  C   UNL     1     -10.410  10.645  65.832  1.00  0.00    -0.291 C  
ENDROOT
BRANCH   2   3
HETATM    3  C   UNL     1      -9.452   9.704  66.580  1.00  0.00    -0.181 C  
BRANCH   3   4
HETATM    4  N   UNL     1      -9.964   8.369  66.960  1.00  0.00    -0.226 NA 
BRANCH   4   5
HETATM    5  C   UNL     1      -9.505   7.331  66.011  1.00  0.00     0.084 C  
BRANCH   5   6
HETATM    6  C   UNL     1      -9.378   5.904  66.576  1.00  0.00    -0.166 C  
HETATM    7  C   UNL     1     -10.618   5.050  66.355  1.00  0.00    -0.317 C  
ENDBRANCH   5   6
ENDBRANCH   4   5
BRANCH   4   8
HETATM    8  C   UNL     1      -9.535   8.041  68.345  1.00  0.00    -0.145 C  
BRANCH   8   9
HETATM    9  C   UNL     1     -10.642   7.595  69.327  1.00  0.00    -0.206 C  
BRANCH   9  10
HETATM   10  C   UNL     1     -10.181   7.382  70.747  1.00  0.00    -0.200 A  
HETATM   11  C   UNL     1      -9.945   6.116  71.272  1.00  0.00    -0.215 A  
HETATM   12  C   UNL     1     -10.065   4.757  70.639  1.00  0.00    -0.288 C  
HETATM   13  C   UNL     1      -9.643   3.823  71.775  1.00  0.00    -0.156 C  
HETATM   14  N   UNL     1      -9.348   4.613  72.877  1.00  0.00    -0.126 N  
HETATM   15  O   UNL     1      -9.579   2.605  71.731  1.00  0.00    -0.124 OA 
HETATM   16  H   UNL     1      -9.040   4.250  73.780  1.00  0.00     0.000 HD 
HETATM   17  C   UNL     1      -9.526   5.958  72.595  1.00  0.00    -0.146 A  
HETATM   18  C   UNL     1      -9.326   7.019  73.450  1.00  0.00    -0.198 A  
HETATM   19  C   UNL     1      -9.570   8.295  72.945  1.00  0.00    -0.320 A  
HETATM   20  C   UNL     1      -9.995   8.474  71.615  1.00  0.00    -0.329 A  
ENDBRANCH   9  10
ENDBRANCH   8   9
ENDBRANCH   4   8
ENDBRANCH   3   4
ENDBRANCH   2   3
TORSDOF 7
ENDMDL
MODEL      323
REMARK 921   NORMALIZED FREE ENERGY PREDICTED BY IDOCK:   -2.53 KCAL/MOL
REMARK 922        TOTAL FREE ENERGY PREDICTED BY IDOCK:   -4.45 KCAL/MOL
REMARK 923 INTER-LIGAND FREE ENERGY PREDICTED BY IDOCK:   -3.55 KCAL/MOL
REMARK 924 INTRA-LIGAND FREE ENERGY PREDICTED BY IDOCK:   -0.90 KCAL/MOL
REMARK 927      BINDING AFFINITY PREDICTED BY RF-SCORE:    0.00 PKD
ROOT
HETATM    1  C   UNL     1      -6.792   6.098  68.202  1.00  0.00    -0.067 C  
HETATM    2  C   UNL     1      -6.158   5.459  69.427  1.00  0.00    -0.025 C  
ENDROOT
BRANCH   2   3
HETATM    3  C   UNL     1      -6.695   5.999  70.762  1.00  0.00    -0.057 C  
BRANCH   3   4
HETATM    4  N   UNL     1      -7.558   5.104  71.564  1.00  0.00    -0.097 NA 
BRANCH   4   5
HETATM    5  C   UNL     1      -6.910   4.746  72.846  1.00  0.00    -0.070 C  
BRANCH   5   6
HETATM    6  C   UNL     1      -5.817   5.710  73.345  1.00  0.00    -0.039 C  
HETATM    7  C   UNL     1      -6.233   6.524  74.560  1.00  0.00    -0.073 C  
ENDBRANCH   5   6
ENDBRANCH   4   5
BRANCH   4   8
HETATM    8  C   UNL     1      -8.873   5.754  71.804  1.00  0.00    -0.136 C  
BRANCH   8   9
HETATM    9  C   UNL     1     -10.063   5.244  70.959  1.00  0.00    -0.289 C  
BRANCH   9  10
HETATM   10  C   UNL     1     -10.260   5.960  69.647  1.00  0.00    -0.281 A  
HETATM   11  C   UNL     1     -10.540   7.320  69.574  1.00  0.00    -0.244 A  
HETATM   12  C   UNL     1     -10.700   8.345  70.663  1.00  0.00    -0.245 C  
HETATM   13  C   UNL     1     -10.982   9.626  69.876  1.00  0.00    -0.252 C  
HETATM   14  N   UNL     1     -10.977   9.296  68.527  1.00  0.00    -0.456 N  
HETATM   15  O   UNL     1     -11.180  10.738  70.339  1.00  0.00    -0.292 OA 
HETATM   16  H   UNL     1     -11.140   9.962  67.772  1.00  0.00     0.000 HD 
HETATM   17  C   UNL     1     -10.724   7.947  68.339  1.00  0.00    -0.021 A  
HETATM   18  C   UNL     1     -10.646   7.277  67.139  1.00  0.00    -0.416 A  
HETATM   19  C   UNL     1     -10.379   5.910  67.192  1.00  0.00    -0.286 A  
HETATM   20  C   UNL     1     -10.193   5.260  68.427  1.00  0.00    -0.206 A  
ENDBRANCH   9  10
ENDBRANCH   8   9
ENDBRANCH   4   8
ENDBRANCH   3   4
ENDBRANCH   2   3
TORSDOF 7
ENDMDL
MODEL      324
REMARK 921   NORMALIZED FREE ENERGY PREDICTED BY IDOCK:   -2.53 KCAL/MOL
REMARK 922        TOTAL FREE ENERGY PREDICTED BY IDOCK:   -4.45 KCAL/MOL
REMARK 923 INTER-LIGAND FREE ENERGY PREDICTED BY IDOCK:   -3.57 KCAL/MOL
REMARK 924 INTRA-LIGAND FREE ENERGY PREDICTED BY IDOCK:   -0.88 KCAL/MOL
REMARK 927      BINDING AFFINITY PREDICTED BY RF-SCORE:    0.00 PKD
ROOT
HETATM    1  C   UNL     1     -10.800  11.915  65.805  1.00  0.00    -0.341 C  
HETATM    2  C   UNL     1     -10.134  11.288  67.019  1.00  0.00    -0.238 C  
ENDROOT
BRANCH   2   3
HETATM    3  C   UNL     1     -11.115  10.621  67.995  1.00  0.00    -0.301 C  
BRANCH   3   4
HETATM    4  N   UNL     1     -10.676   9.376  68.663  1.00  0.00    -0.194 NA 
BRANCH   4   5
HETATM    5  C   UNL     1     -10.389   8.313  67.674  1.00  0.00    -0.248 C  
BRANCH   5   6
HETATM    6  C   UNL     1      -9.653   7.070  68.208  1.00  0.00    -0.134 C  
HETATM    7  C   UNL     1     -10.587   5.986  68.724  1.00  0.00    -0.345 C  
ENDBRANCH   5   6
ENDBRANCH   4   5
BRANCH   4   8
HETATM    8  C   UNL     1      -9.481   9.648  69.502  1.00  0.00    -0.199 C  
BRANCH   8   9
HETATM    9  C   UNL     1      -9.631   9.407  71.022  1.00  0.00    -0.272 C  
BRANCH   9  10
HETATM   10  C   UNL     1      -8.557   8.544  71.635  1.00  0.00    -0.247 A  
HETATM   11  C   UNL     1      -8.840   7.347  72.282  1.00  0.00    -0.148 A  
HETATM   12  C   UNL     1     -10.153   6.651  72.520  1.00  0.00    -0.189 C  
HETATM   13  C   UNL     1      -9.729   5.389  73.273  1.00  0.00    -0.150 C  
HETATM   14  N   UNL     1      -8.349   5.434  73.418  1.00  0.00    -0.114 N  
HETATM   15  O   UNL     1     -10.462   4.503  73.680  1.00  0.00    -0.177 OA 
HETATM   16  H   UNL     1      -7.796   4.716  73.886  1.00  0.00     0.000 HD 
HETATM   17  C   UNL     1      -7.819   6.578  72.845  1.00  0.00    -0.101 A  
HETATM   18  C   UNL     1      -6.493   6.947  72.802  1.00  0.00    -0.058 A  
HETATM   19  C   UNL     1      -6.190   8.151  72.168  1.00  0.00    -0.054 A  
HETATM   20  C   UNL     1      -7.206   8.941  71.597  1.00  0.00    -0.057 A  
ENDBRANCH   9  10
ENDBRANCH   8   9
ENDBRANCH   4   8
ENDBRANCH   3   4
ENDBRANCH   2   3
TORSDOF 7
ENDMDL
MODEL      325
REMARK 921   NORMALIZED FREE ENERGY PREDICTED BY IDOCK:   -2.53 KCAL/MOL
REMARK 922        TOTAL FREE ENERGY PREDICTED BY IDOCK:   -4.44 KCAL/MOL
REMARK 923 INTER-LIGAND FREE ENERGY PREDICTED BY IDOCK:   -3.79 KCAL/MOL
REMARK 924 INTRA-LIGAND FREE ENERGY PREDICTED BY IDOCK:   -0.65 KCAL/MOL
REMARK 927      BINDING AFFINITY PREDICTED BY RF-SCORE:    0.00 PKD
ROOT
HETATM    1  C   UNL     1      -9.858   3.999  70.815  1.00  0.00    -0.233 C  
HETATM    2  C   UNL     1      -9.702   5.261  71.648  1.00  0.00    -0.211 C  
ENDROOT
BRANCH   2   3
HETATM    3  C   UNL     1      -9.840   6.562  70.842  1.00  0.00    -0.183 C  
BRANCH   3   4
HETATM    4  N   UNL     1     -10.954   6.651  69.872  1.00  0.00    -0.291 NA 
BRANCH   4   5
HETATM    5  C   UNL     1     -12.258   6.750  70.565  1.00  0.00    -0.195 C  
BRANCH   5   6
HETATM    6  C   UNL     1     -12.438   7.959  71.503  1.00  0.00    -0.341 C  
HETATM    7  C   UNL     1     -13.833   8.062  72.101  1.00  0.00    -0.268 C  
ENDBRANCH   5   6
ENDBRANCH   4   5
BRANCH   4   8
HETATM    8  C   UNL     1     -10.747   7.817  68.974  1.00  0.00    -0.103 C  
BRANCH   8   9
HETATM    9  C   UNL     1      -9.646   8.822  69.384  1.00  0.00    -0.163 C  
BRANCH   9  10
HETATM   10  C   UNL     1      -9.848  10.226  68.873  1.00  0.00    -0.200 A  
HETATM   11  C   UNL     1      -8.787  11.087  68.618  1.00  0.00    -0.164 A  
HETATM   12  C   UNL     1      -7.304  10.879  68.761  1.00  0.00    -0.104 C  
HETATM   13  C   UNL     1      -6.734  12.222  68.300  1.00  0.00    -0.064 C  
HETATM   14  N   UNL     1      -7.807  13.038  67.966  1.00  0.00    -0.133 N  
HETATM   15  O   UNL     1      -5.555  12.530  68.237  1.00  0.00    -0.053 OA 
HETATM   16  H   UNL     1      -7.717  13.995  67.626  1.00  0.00     0.000 HD 
HETATM   17  C   UNL     1      -9.014  12.384  68.153  1.00  0.00    -0.196 A  
HETATM   18  C   UNL     1     -10.275  12.888  67.923  1.00  0.00    -0.233 A  
HETATM   19  C   UNL     1     -11.352  12.044  68.184  1.00  0.00    -0.349 A  
HETATM   20  C   UNL     1     -11.143  10.734  68.657  1.00  0.00    -0.312 A  
ENDBRANCH   9  10
ENDBRANCH   8   9
ENDBRANCH   4   8
ENDBRANCH   3   4
ENDBRANCH   2   3
TORSDOF 7
ENDMDL
MODEL      326
REMARK 921   NORMALIZED FREE ENERGY PREDICTED BY IDOCK:   -2.52 KCAL/MOL
REMARK 922        TOTAL FREE ENERGY PREDICTED BY IDOCK:   -4.43 KCAL/MOL
REMARK 923 INTER-LIGAND FREE ENERGY PREDICTED BY IDOCK:   -3.70 KCAL/MOL
REMARK 924 INTRA-LIGAND FREE ENERGY PREDICTED BY IDOCK:   -0.73 KCAL/MOL
REMARK 927      BINDING AFFINITY PREDICTED BY RF-SCORE:    0.00 PKD
ROOT
HETATM    1  C   UNL     1      -6.625   9.572  65.947  1.00  0.00    -0.078 C  
HETATM    2  C   UNL     1      -5.668   9.915  67.078  1.00  0.00    -0.050 C  
ENDROOT
BRANCH   2   3
HETATM    3  C   UNL     1      -6.202   9.563  68.475  1.00  0.00    -0.048 C  
BRANCH   3   4
HETATM    4  N   UNL     1      -6.815   8.228  68.658  1.00  0.00    -0.062 NA 
BRANCH   4   5
HETATM    5  C   UNL     1      -5.795   7.218  69.017  1.00  0.00    -0.019 C  
BRANCH   5   6
HETATM    6  C   UNL     1      -6.156   6.276  70.181  1.00  0.00    -0.030 C  
HETATM    7  C   UNL     1      -5.589   4.873  70.026  1.00  0.00    -0.015 C  
ENDBRANCH   5   6
ENDBRANCH   4   5
BRANCH   4   8
HETATM    8  C   UNL     1      -7.874   8.299  69.698  1.00  0.00    -0.102 C  
BRANCH   8   9
HETATM    9  C   UNL     1      -9.325   8.050  69.228  1.00  0.00    -0.151 C  
BRANCH   9  10
HETATM   10  C   UNL     1     -10.195   9.281  69.177  1.00  0.00    -0.214 A  
HETATM   11  C   UNL     1     -11.253   9.483  70.055  1.00  0.00    -0.243 A  
HETATM   12  C   UNL     1     -11.767   8.628  71.180  1.00  0.00    -0.334 C  
HETATM   13  C   UNL     1     -12.933   9.457  71.723  1.00  0.00    -0.402 C  
HETATM   14  N   UNL     1     -13.018  10.610  70.954  1.00  0.00    -0.368 N  
HETATM   15  O   UNL     1     -13.662   9.165  72.657  1.00  0.00    -0.470 OA 
HETATM   16  H   UNL     1     -13.710  11.345  71.095  1.00  0.00     0.000 HD 
HETATM   17  C   UNL     1     -12.041  10.633  69.971  1.00  0.00    -0.316 A  
HETATM   18  C   UNL     1     -11.831  11.619  69.034  1.00  0.00    -0.391 A  
HETATM   19  C   UNL     1     -10.782  11.429  68.137  1.00  0.00    -0.241 A  
HETATM   20  C   UNL     1      -9.978  10.274  68.203  1.00  0.00    -0.168 A  
ENDBRANCH   9  10
ENDBRANCH   8   9
ENDBRANCH   4   8
ENDBRANCH   3   4
ENDBRANCH   2   3
TORSDOF 7
ENDMDL
MODEL      327
REMARK 921   NORMALIZED FREE ENERGY PREDICTED BY IDOCK:   -2.52 KCAL/MOL
REMARK 922        TOTAL FREE ENERGY PREDICTED BY IDOCK:   -4.43 KCAL/MOL
REMARK 923 INTER-LIGAND FREE ENERGY PREDICTED BY IDOCK:   -3.92 KCAL/MOL
REMARK 924 INTRA-LIGAND FREE ENERGY PREDICTED BY IDOCK:   -0.51 KCAL/MOL
REMARK 927      BINDING AFFINITY PREDICTED BY RF-SCORE:    0.00 PKD
ROOT
HETATM    1  C   UNL     1      -8.241   8.016  74.303  1.00  0.00    -0.308 C  
HETATM    2  C   UNL     1      -9.481   7.270  73.836  1.00  0.00    -0.316 C  
ENDROOT
BRANCH   2   3
HETATM    3  C   UNL     1     -10.458   8.131  73.022  1.00  0.00    -0.166 C  
BRANCH   3   4
HETATM    4  N   UNL     1     -10.562   7.863  71.570  1.00  0.00    -0.219 NA 
BRANCH   4   5
HETATM    5  C   UNL     1     -11.955   8.016  71.097  1.00  0.00    -0.277 C  
BRANCH   5   6
HETATM    6  C   UNL     1     -12.939   6.907  71.515  1.00  0.00    -0.362 C  
HETATM    7  C   UNL     1     -14.386   7.371  71.579  1.00  0.00    -0.594 C  
ENDBRANCH   5   6
ENDBRANCH   4   5
BRANCH   4   8
HETATM    8  C   UNL     1      -9.651   8.769  70.824  1.00  0.00    -0.208 C  
BRANCH   8   9
HETATM    9  C   UNL     1     -10.198   9.376  69.512  1.00  0.00    -0.219 C  
BRANCH   9  10
HETATM   10  C   UNL     1      -9.146   9.735  68.493  1.00  0.00    -0.128 A  
HETATM   11  C   UNL     1      -8.772   8.870  67.471  1.00  0.00    -0.124 A  
HETATM   12  C   UNL     1      -9.261   7.489  67.132  1.00  0.00    -0.161 C  
HETATM   13  C   UNL     1      -8.434   7.137  65.893  1.00  0.00    -0.147 C  
HETATM   14  N   UNL     1      -7.601   8.216  65.629  1.00  0.00    -0.080 N  
HETATM   15  O   UNL     1      -8.486   6.101  65.252  1.00  0.00    -0.148 OA 
HETATM   16  H   UNL     1      -6.936   8.254  64.856  1.00  0.00     0.000 HD 
HETATM   17  C   UNL     1      -7.787   9.235  66.550  1.00  0.00    -0.100 A  
HETATM   18  C   UNL     1      -7.134  10.446  66.592  1.00  0.00    -0.112 A  
HETATM   19  C   UNL     1      -7.487  11.322  67.616  1.00  0.00    -0.101 A  
HETATM   20  C   UNL     1      -8.475  10.971  68.556  1.00  0.00    -0.153 A  
ENDBRANCH   9  10
ENDBRANCH   8   9
ENDBRANCH   4   8
ENDBRANCH   3   4
ENDBRANCH   2   3
TORSDOF 7
ENDMDL
MODEL      328
REMARK 921   NORMALIZED FREE ENERGY PREDICTED BY IDOCK:   -2.50 KCAL/MOL
REMARK 922        TOTAL FREE ENERGY PREDICTED BY IDOCK:   -4.41 KCAL/MOL
REMARK 923 INTER-LIGAND FREE ENERGY PREDICTED BY IDOCK:   -3.85 KCAL/MOL
REMARK 924 INTRA-LIGAND FREE ENERGY PREDICTED BY IDOCK:   -0.56 KCAL/MOL
REMARK 927      BINDING AFFINITY PREDICTED BY RF-SCORE:    0.00 PKD
ROOT
HETATM    1  C   UNL     1      -5.235   9.979  63.875  1.00  0.00    -0.097 C  
HETATM    2  C   UNL     1      -6.630  10.563  64.028  1.00  0.00     0.083 C  
ENDROOT
BRANCH   2   3
HETATM    3  C   UNL     1      -7.700   9.531  64.418  1.00  0.00    -0.123 C  
BRANCH   3   4
HETATM    4  N   UNL     1      -8.886  10.020  65.156  1.00  0.00    -0.167 NA 
BRANCH   4   5
HETATM    5  C   UNL     1      -9.856  10.661  64.241  1.00  0.00    -0.330 C  
BRANCH   5   6
HETATM    6  C   UNL     1     -10.796  11.705  64.874  1.00  0.00    -0.359 C  
HETATM    7  C   UNL     1     -10.087  12.674  65.809  1.00  0.00    -0.284 C  
ENDBRANCH   5   6
ENDBRANCH   4   5
BRANCH   4   8
HETATM    8  C   UNL     1      -9.521   8.895  65.891  1.00  0.00    -0.234 C  
BRANCH   8   9
HETATM    9  C   UNL     1      -9.824   9.128  67.389  1.00  0.00    -0.237 C  
BRANCH   9  10
HETATM   10  C   UNL     1     -10.075   7.874  68.187  1.00  0.00    -0.228 A  
HETATM   11  C   UNL     1     -10.885   7.858  69.316  1.00  0.00    -0.077 A  
HETATM   12  C   UNL     1     -11.658   8.964  69.981  1.00  0.00     0.111 C  
HETATM   13  C   UNL     1     -12.329   8.245  71.152  1.00  0.00    -0.206 C  
HETATM   14  N   UNL     1     -11.937   6.914  71.104  1.00  0.00    -0.349 N  
HETATM   15  O   UNL     1     -13.071   8.741  71.984  1.00  0.00    -0.342 OA 
HETATM   16  H   UNL     1     -12.236   6.202  71.770  1.00  0.00     0.000 HD 
HETATM   17  C   UNL     1     -11.087   6.677  70.035  1.00  0.00    -0.339 A  
HETATM   18  C   UNL     1     -10.509   5.478  69.684  1.00  0.00    -0.379 A  
HETATM   19  C   UNL     1      -9.683   5.477  68.562  1.00  0.00    -0.175 A  
HETATM   20  C   UNL     1      -9.465   6.657  67.826  1.00  0.00    -0.121 A  
ENDBRANCH   9  10
ENDBRANCH   8   9
ENDBRANCH   4   8
ENDBRANCH   3   4
ENDBRANCH   2   3
TORSDOF 7
ENDMDL
MODEL      329
REMARK 921   NORMALIZED FREE ENERGY PREDICTED BY IDOCK:   -2.49 KCAL/MOL
REMARK 922        TOTAL FREE ENERGY PREDICTED BY IDOCK:   -4.39 KCAL/MOL
REMARK 923 INTER-LIGAND FREE ENERGY PREDICTED BY IDOCK:   -2.95 KCAL/MOL
REMARK 924 INTRA-LIGAND FREE ENERGY PREDICTED BY IDOCK:   -1.44 KCAL/MOL
REMARK 927      BINDING AFFINITY PREDICTED BY RF-SCORE:    0.00 PKD
ROOT
HETATM    1  C   UNL     1      -9.101   8.473  67.900  1.00  0.00    -0.145 C  
HETATM    2  C   UNL     1      -8.102   7.974  66.868  1.00  0.00    -0.108 C  
ENDROOT
BRANCH   2   3
HETATM    3  C   UNL     1      -7.121   6.922  67.406  1.00  0.00    -0.084 C  
BRANCH   3   4
HETATM    4  N   UNL     1      -7.423   6.313  68.721  1.00  0.00    -0.086 NA 
BRANCH   4   5
HETATM    5  C   UNL     1      -7.672   4.860  68.591  1.00  0.00    -0.077 C  
BRANCH   5   6
HETATM    6  C   UNL     1      -9.024   4.354  69.128  1.00  0.00    -0.151 C  
HETATM    7  C   UNL     1     -10.225   4.953  68.413  1.00  0.00    -0.098 C  
ENDBRANCH   5   6
ENDBRANCH   4   5
BRANCH   4   8
HETATM    8  C   UNL     1      -6.304   6.572  69.665  1.00  0.00    -0.038 C  
BRANCH   8   9
HETATM    9  C   UNL     1      -6.646   7.371  70.943  1.00  0.00    -0.043 C  
BRANCH   9  10
HETATM   10  C   UNL     1      -7.659   6.717  71.848  1.00  0.00    -0.096 A  
HETATM   11  C   UNL     1      -8.912   7.269  72.088  1.00  0.00    -0.148 A  
HETATM   12  C   UNL     1      -9.539   8.532  71.566  1.00  0.00    -0.297 C  
HETATM   13  C   UNL     1     -10.921   8.514  72.223  1.00  0.00    -0.355 C  
HETATM   14  N   UNL     1     -10.994   7.370  73.008  1.00  0.00    -0.405 N  
HETATM   15  O   UNL     1     -11.802   9.348  72.091  1.00  0.00    -0.310 OA 
HETATM   16  H   UNL     1     -11.807   7.105  73.563  1.00  0.00     0.000 HD 
HETATM   17  C   UNL     1      -9.820   6.636  72.940  1.00  0.00    -0.164 A  
HETATM   18  C   UNL     1      -9.543   5.453  73.586  1.00  0.00    -0.140 A  
HETATM   19  C   UNL     1      -8.288   4.890  73.367  1.00  0.00    -0.107 A  
HETATM   20  C   UNL     1      -7.357   5.514  72.515  1.00  0.00    -0.095 A  
ENDBRANCH   9  10
ENDBRANCH   8   9
ENDBRANCH   4   8
ENDBRANCH   3   4
ENDBRANCH   2   3
TORSDOF 7
ENDMDL
MODEL      330
REMARK 921   NORMALIZED FREE ENERGY PREDICTED BY IDOCK:   -2.48 KCAL/MOL
REMARK 922        TOTAL FREE ENERGY PREDICTED BY IDOCK:   -4.38 KCAL/MOL
REMARK 923 INTER-LIGAND FREE ENERGY PREDICTED BY IDOCK:   -3.04 KCAL/MOL
REMARK 924 INTRA-LIGAND FREE ENERGY PREDICTED BY IDOCK:   -1.34 KCAL/MOL
REMARK 927      BINDING AFFINITY PREDICTED BY RF-SCORE:    0.00 PKD
ROOT
HETATM    1  C   UNL     1      -9.399   9.763  64.374  1.00  0.00    -0.278 C  
HETATM    2  C   UNL     1      -9.571   9.252  65.796  1.00  0.00    -0.341 C  
ENDROOT
BRANCH   2   3
HETATM    3  C   UNL     1      -8.550   8.177  66.201  1.00  0.00    -0.139 C  
BRANCH   3   4
HETATM    4  N   UNL     1      -9.051   7.007  66.956  1.00  0.00    -0.132 NA 
BRANCH   4   5
HETATM    5  C   UNL     1     -10.528   7.028  67.054  1.00  0.00    -0.316 C  
BRANCH   5   6
HETATM    6  C   UNL     1     -11.138   6.282  68.256  1.00  0.00    -0.364 C  
HETATM    7  C   UNL     1     -10.847   6.944  69.594  1.00  0.00    -0.294 C  
ENDBRANCH   5   6
ENDBRANCH   4   5
BRANCH   4   8
HETATM    8  C   UNL     1      -8.586   5.753  66.309  1.00  0.00    -0.130 C  
BRANCH   8   9
HETATM    9  C   UNL     1      -7.562   4.905  67.098  1.00  0.00    -0.087 C  
BRANCH   9  10
HETATM   10  C   UNL     1      -8.021   4.469  68.466  1.00  0.00    -0.079 A  
HETATM   11  C   UNL     1      -7.581   5.086  69.632  1.00  0.00    -0.057 A  
HETATM   12  C   UNL     1      -6.633   6.236  69.831  1.00  0.00    -0.048 C  
HETATM   13  C   UNL     1      -6.616   6.394  71.353  1.00  0.00    -0.054 C  
HETATM   14  N   UNL     1      -7.456   5.423  71.882  1.00  0.00    -0.091 N  
HETATM   15  O   UNL     1      -5.982   7.216  71.993  1.00  0.00    -0.037 OA 
HETATM   16  H   UNL     1      -7.633   5.297  72.879  1.00  0.00     0.000 HD 
HETATM   17  C   UNL     1      -8.023   4.648  70.883  1.00  0.00    -0.081 A  
HETATM   18  C   UNL     1      -8.900   3.599  71.043  1.00  0.00    -0.136 A  
HETATM   19  C   UNL     1      -9.343   2.961  69.887  1.00  0.00    -0.213 A  
HETATM   20  C   UNL     1      -8.906   3.385  68.617  1.00  0.00    -0.162 A  
ENDBRANCH   9  10
ENDBRANCH   8   9
ENDBRANCH   4   8
ENDBRANCH   3   4
ENDBRANCH   2   3
TORSDOF 7
ENDMDL
MODEL      331
REMARK 921   NORMALIZED FREE ENERGY PREDICTED BY IDOCK:   -2.43 KCAL/MOL
REMARK 922        TOTAL FREE ENERGY PREDICTED BY IDOCK:   -4.31 KCAL/MOL
REMARK 923 INTER-LIGAND FREE ENERGY PREDICTED BY IDOCK:   -4.06 KCAL/MOL
REMARK 924 INTRA-LIGAND FREE ENERGY PREDICTED BY IDOCK:   -0.26 KCAL/MOL
REMARK 927      BINDING AFFINITY PREDICTED BY RF-SCORE:    0.00 PKD
ROOT
HETATM    1  C   UNL     1     -10.708  17.390  66.343  1.00  0.00    -0.084 C  
HETATM    2  C   UNL     1     -10.424  15.986  65.833  1.00  0.00    -0.373 C  
ENDROOT
BRANCH   2   3
HETATM    3  C   UNL     1     -11.102  14.876  66.650  1.00  0.00    -0.329 C  
BRANCH   3   4
HETATM    4  N   UNL     1     -11.712  13.753  65.904  1.00  0.00    -0.338 NA 
BRANCH   4   5
HETATM    5  C   UNL     1     -11.112  13.618  64.558  1.00  0.00    -0.386 C  
BRANCH   5   6
HETATM    6  C   UNL     1     -12.033  13.055  63.459  1.00  0.00    -0.615 C  
HETATM    7  C   UNL     1     -13.231  12.291  64.002  1.00  0.00     0.022 C  
ENDBRANCH   5   6
ENDBRANCH   4   5
BRANCH   4   8
HETATM    8  C   UNL     1     -11.558  12.493  66.677  1.00  0.00    -0.380 C  
BRANCH   8   9
HETATM    9  C   UNL     1     -10.438  11.531  66.218  1.00  0.00    -0.294 C  
BRANCH   9  10
HETATM   10  C   UNL     1      -9.661  10.884  67.337  1.00  0.00    -0.190 A  
HETATM   11  C   UNL     1      -8.373  11.280  67.676  1.00  0.00    -0.123 A  
HETATM   12  C   UNL     1      -7.493  12.350  67.090  1.00  0.00    -0.095 C  
HETATM   13  C   UNL     1      -6.229  12.248  67.946  1.00  0.00    -0.089 C  
HETATM   14  N   UNL     1      -6.430  11.228  68.866  1.00  0.00    -0.057 N  
HETATM   15  O   UNL     1      -5.222  12.929  67.843  1.00  0.00    -0.090 OA 
HETATM   16  H   UNL     1      -5.745  10.940  69.565  1.00  0.00     0.000 HD 
HETATM   17  C   UNL     1      -7.681  10.652  68.714  1.00  0.00    -0.117 A  
HETATM   18  C   UNL     1      -8.215   9.619  69.452  1.00  0.00    -0.132 A  
HETATM   19  C   UNL     1      -9.501   9.199  69.119  1.00  0.00    -0.156 A  
HETATM   20  C   UNL     1     -10.213   9.819  68.074  1.00  0.00    -0.229 A  
ENDBRANCH   9  10
ENDBRANCH   8   9
ENDBRANCH   4   8
ENDBRANCH   3   4
ENDBRANCH   2   3
TORSDOF 7
ENDMDL
MODEL      332
REMARK 921   NORMALIZED FREE ENERGY PREDICTED BY IDOCK:   -2.42 KCAL/MOL
REMARK 922        TOTAL FREE ENERGY PREDICTED BY IDOCK:   -4.30 KCAL/MOL
REMARK 923 INTER-LIGAND FREE ENERGY PREDICTED BY IDOCK:   -3.18 KCAL/MOL
REMARK 924 INTRA-LIGAND FREE ENERGY PREDICTED BY IDOCK:   -1.12 KCAL/MOL
REMARK 927      BINDING AFFINITY PREDICTED BY RF-SCORE:    0.00 PKD
ROOT
HETATM    1  C   UNL     1     -11.204   4.298  73.447  1.00  0.00    -0.361 C  
HETATM    2  C   UNL     1     -11.649   5.574  72.751  1.00  0.00    -0.298 C  
ENDROOT
BRANCH   2   3
HETATM    3  C   UNL     1     -10.783   6.800  73.079  1.00  0.00    -0.285 C  
BRANCH   3   4
HETATM    4  N   UNL     1     -10.002   7.401  71.975  1.00  0.00    -0.165 NA 
BRANCH   4   5
HETATM    5  C   UNL     1     -10.395   8.809  71.748  1.00  0.00    -0.343 C  
BRANCH   5   6
HETATM    6  C   UNL     1     -11.205   9.089  70.468  1.00  0.00    -0.301 C  
HETATM    7  C   UNL     1     -10.591  10.164  69.584  1.00  0.00    -0.286 C  
ENDBRANCH   5   6
ENDBRANCH   4   5
BRANCH   4   8
HETATM    8  C   UNL     1      -8.549   7.303  72.274  1.00  0.00    -0.116 C  
BRANCH   8   9
HETATM    9  C   UNL     1      -7.616   6.978  71.085  1.00  0.00    -0.086 C  
BRANCH   9  10
HETATM   10  C   UNL     1      -7.290   8.151  70.196  1.00  0.00    -0.060 A  
HETATM   11  C   UNL     1      -7.549   8.147  68.830  1.00  0.00    -0.098 A  
HETATM   12  C   UNL     1      -8.165   7.090  67.956  1.00  0.00    -0.119 C  
HETATM   13  C   UNL     1      -8.157   7.752  66.576  1.00  0.00    -0.111 C  
HETATM   14  N   UNL     1      -7.589   9.011  66.722  1.00  0.00    -0.090 N  
HETATM   15  O   UNL     1      -8.567   7.270  65.534  1.00  0.00    -0.140 OA 
HETATM   16  H   UNL     1      -7.456   9.674  65.959  1.00  0.00     0.000 HD 
HETATM   17  C   UNL     1      -7.225   9.251  68.038  1.00  0.00    -0.079 A  
HETATM   18  C   UNL     1      -6.638  10.389  68.542  1.00  0.00    -0.052 A  
HETATM   19  C   UNL     1      -6.359  10.407  69.907  1.00  0.00    -0.095 A  
HETATM   20  C   UNL     1      -6.675   9.303  70.722  1.00  0.00    -0.094 A  
ENDBRANCH   9  10
ENDBRANCH   8   9
ENDBRANCH   4   8
ENDBRANCH   3   4
ENDBRANCH   2   3
TORSDOF 7
ENDMDL
MODEL      333
REMARK 921   NORMALIZED FREE ENERGY PREDICTED BY IDOCK:   -2.38 KCAL/MOL
REMARK 922        TOTAL FREE ENERGY PREDICTED BY IDOCK:   -4.24 KCAL/MOL
REMARK 923 INTER-LIGAND FREE ENERGY PREDICTED BY IDOCK:   -3.76 KCAL/MOL
REMARK 924 INTRA-LIGAND FREE ENERGY PREDICTED BY IDOCK:   -0.48 KCAL/MOL
REMARK 927      BINDING AFFINITY PREDICTED BY RF-SCORE:    0.00 PKD
ROOT
HETATM    1  C   UNL     1      -9.901  10.913  64.362  1.00  0.00    -0.365 C  
HETATM    2  C   UNL     1     -10.216  10.722  65.837  1.00  0.00    -0.319 C  
ENDROOT
BRANCH   2   3
HETATM    3  C   UNL     1      -8.982  10.436  66.707  1.00  0.00    -0.140 C  
BRANCH   3   4
HETATM    4  N   UNL     1      -8.712   9.027  67.070  1.00  0.00    -0.116 NA 
BRANCH   4   5
HETATM    5  C   UNL     1      -7.308   8.661  66.779  1.00  0.00    -0.079 C  
BRANCH   5   6
HETATM    6  C   UNL     1      -6.910   8.629  65.292  1.00  0.00    -0.071 C  
HETATM    7  C   UNL     1      -5.746   7.695  64.994  1.00  0.00    -0.037 C  
ENDBRANCH   5   6
ENDBRANCH   4   5
BRANCH   4   8
HETATM    8  C   UNL     1      -9.026   8.808  68.506  1.00  0.00    -0.138 C  
BRANCH   8   9
HETATM    9  C   UNL     1     -10.072   7.717  68.828  1.00  0.00    -0.202 C  
BRANCH   9  10
HETATM   10  C   UNL     1     -10.426   7.590  70.289  1.00  0.00    -0.227 A  
HETATM   11  C   UNL     1      -9.961   6.547  71.081  1.00  0.00    -0.202 A  
HETATM   12  C   UNL     1      -9.070   5.384  70.741  1.00  0.00    -0.168 C  
HETATM   13  C   UNL     1      -8.962   4.645  72.077  1.00  0.00    -0.126 C  
HETATM   14  N   UNL     1      -9.724   5.346  73.003  1.00  0.00    -0.149 N  
HETATM   15  O   UNL     1      -8.329   3.626  72.297  1.00  0.00    -0.082 OA 
HETATM   16  H   UNL     1      -9.832   5.076  73.980  1.00  0.00     0.000 HD 
HETATM   17  C   UNL     1     -10.317   6.459  72.429  1.00  0.00    -0.190 A  
HETATM   18  C   UNL     1     -11.135   7.376  73.049  1.00  0.00    -0.390 A  
HETATM   19  C   UNL     1     -11.621   8.423  72.269  1.00  0.00    -0.453 A  
HETATM   20  C   UNL     1     -11.276   8.527  70.907  1.00  0.00    -0.304 A  
ENDBRANCH   9  10
ENDBRANCH   8   9
ENDBRANCH   4   8
ENDBRANCH   3   4
ENDBRANCH   2   3
TORSDOF 7
ENDMDL
MODEL      334
REMARK 921   NORMALIZED FREE ENERGY PREDICTED BY IDOCK:   -2.33 KCAL/MOL
REMARK 922        TOTAL FREE ENERGY PREDICTED BY IDOCK:   -4.17 KCAL/MOL
REMARK 923 INTER-LIGAND FREE ENERGY PREDICTED BY IDOCK:   -3.22 KCAL/MOL
REMARK 924 INTRA-LIGAND FREE ENERGY PREDICTED BY IDOCK:   -0.96 KCAL/MOL
REMARK 927      BINDING AFFINITY PREDICTED BY RF-SCORE:    0.00 PKD
ROOT
HETATM    1  C   UNL     1      -9.290   8.254  68.318  1.00  0.00    -0.138 C  
HETATM    2  C   UNL     1     -10.522   7.392  68.093  1.00  0.00    -0.241 C  
ENDROOT
BRANCH   2   3
HETATM    3  C   UNL     1     -11.058   6.724  69.369  1.00  0.00    -0.261 C  
BRANCH   3   4
HETATM    4  N   UNL     1     -10.098   6.477  70.467  1.00  0.00    -0.183 NA 
BRANCH   4   5
HETATM    5  C   UNL     1     -10.406   7.318  71.645  1.00  0.00    -0.197 C  
BRANCH   5   6
HETATM    6  C   UNL     1     -11.104   6.608  72.821  1.00  0.00    -0.283 C  
HETATM    7  C   UNL     1     -10.280   6.599  74.100  1.00  0.00    -0.390 C  
ENDBRANCH   5   6
ENDBRANCH   4   5
BRANCH   4   8
HETATM    8  C   UNL     1     -10.111   5.036  70.833  1.00  0.00    -0.232 C  
BRANCH   8   9
HETATM    9  C   UNL     1      -9.600   4.044  69.762  1.00  0.00    -0.280 C  
BRANCH   9  10
HETATM   10  C   UNL     1      -8.469   4.560  68.910  1.00  0.00    -0.093 A  
HETATM   11  C   UNL     1      -8.502   4.517  67.521  1.00  0.00    -0.103 A  
HETATM   12  C   UNL     1      -9.562   4.007  66.584  1.00  0.00    -0.228 C  
HETATM   13  C   UNL     1      -8.950   4.279  65.208  1.00  0.00    -0.137 C  
HETATM   14  N   UNL     1      -7.704   4.857  65.414  1.00  0.00    -0.085 N  
HETATM   15  O   UNL     1      -9.453   4.032  64.125  1.00  0.00    -0.149 OA 
HETATM   16  H   UNL     1      -7.072   5.142  64.666  1.00  0.00     0.000 HD 
HETATM   17  C   UNL     1      -7.430   4.998  66.765  1.00  0.00    -0.087 A  
HETATM   18  C   UNL     1      -6.293   5.530  67.330  1.00  0.00    -0.039 A  
HETATM   19  C   UNL     1      -6.236   5.570  68.722  1.00  0.00    -0.033 A  
HETATM   20  C   UNL     1      -7.305   5.088  69.501  1.00  0.00    -0.057 A  
ENDBRANCH   9  10
ENDBRANCH   8   9
ENDBRANCH   4   8
ENDBRANCH   3   4
ENDBRANCH   2   3
TORSDOF 7
ENDMDL
MODEL      335
REMARK 921   NORMALIZED FREE ENERGY PREDICTED BY IDOCK:   -2.31 KCAL/MOL
REMARK 922        TOTAL FREE ENERGY PREDICTED BY IDOCK:   -4.13 KCAL/MOL
REMARK 923 INTER-LIGAND FREE ENERGY PREDICTED BY IDOCK:   -3.49 KCAL/MOL
REMARK 924 INTRA-LIGAND FREE ENERGY PREDICTED BY IDOCK:   -0.64 KCAL/MOL
REMARK 927      BINDING AFFINITY PREDICTED BY RF-SCORE:    0.00 PKD
ROOT
HETATM    1  C   UNL     1     -12.118  11.881  69.208  1.00  0.00    -0.270 C  
HETATM    2  C   UNL     1     -12.064  10.609  70.040  1.00  0.00    -0.393 C  
ENDROOT
BRANCH   2   3
HETATM    3  C   UNL     1     -11.383   9.428  69.332  1.00  0.00     0.110 C  
BRANCH   3   4
HETATM    4  N   UNL     1      -9.910   9.327  69.431  1.00  0.00    -0.168 NA 
BRANCH   4   5
HETATM    5  C   UNL     1      -9.511   8.246  70.360  1.00  0.00    -0.167 C  
BRANCH   5   6
HETATM    6  C   UNL     1     -10.660   7.498  71.063  1.00  0.00    -0.230 C  
HETATM    7  C   UNL     1     -10.568   5.985  70.934  1.00  0.00    -0.310 C  
ENDBRANCH   5   6
ENDBRANCH   4   5
BRANCH   4   8
HETATM    8  C   UNL     1      -9.328   9.102  68.083  1.00  0.00    -0.138 C  
BRANCH   8   9
HETATM    9  C   UNL     1      -8.721  10.335  67.375  1.00  0.00    -0.128 C  
BRANCH   9  10
HETATM   10  C   UNL     1      -9.111  10.490  65.926  1.00  0.00    -0.192 A  
HETATM   11  C   UNL     1      -8.184  10.417  64.893  1.00  0.00    -0.145 A  
HETATM   12  C   UNL     1      -6.698  10.185  64.927  1.00  0.00    -0.124 C  
HETATM   13  C   UNL     1      -6.322  10.215  63.444  1.00  0.00    -0.140 C  
HETATM   14  N   UNL     1      -7.486  10.448  62.724  1.00  0.00    -0.179 N  
HETATM   15  O   UNL     1      -5.207  10.067  62.972  1.00  0.00    -0.086 OA 
HETATM   16  H   UNL     1      -7.529  10.520  61.707  1.00  0.00     0.000 HD 
HETATM   17  C   UNL     1      -8.582  10.573  63.563  1.00  0.00    -0.165 A  
HETATM   18  C   UNL     1      -9.887  10.807  63.194  1.00  0.00    -0.378 A  
HETATM   19  C   UNL     1     -10.829  10.895  64.217  1.00  0.00    -0.121 A  
HETATM   20  C   UNL     1     -10.447  10.744  65.564  1.00  0.00    -0.264 A  
ENDBRANCH   9  10
ENDBRANCH   8   9
ENDBRANCH   4   8
ENDBRANCH   3   4
ENDBRANCH   2   3
TORSDOF 7
ENDMDL
MODEL      336
REMARK 921   NORMALIZED FREE ENERGY PREDICTED BY IDOCK:   -2.28 KCAL/MOL
REMARK 922        TOTAL FREE ENERGY PREDICTED BY IDOCK:   -4.10 KCAL/MOL
REMARK 923 INTER-LIGAND FREE ENERGY PREDICTED BY IDOCK:   -3.95 KCAL/MOL
REMARK 924 INTRA-LIGAND FREE ENERGY PREDICTED BY IDOCK:   -0.15 KCAL/MOL
REMARK 927      BINDING AFFINITY PREDICTED BY RF-SCORE:    0.00 PKD
ROOT
HETATM    1  C   UNL     1      -9.077   8.127  72.984  1.00  0.00    -0.344 C  
HETATM    2  C   UNL     1      -9.503   6.951  72.119  1.00  0.00    -0.148 C  
ENDROOT
BRANCH   2   3
HETATM    3  C   UNL     1     -10.981   6.561  72.279  1.00  0.00    -0.249 C  
BRANCH   3   4
HETATM    4  N   UNL     1     -11.849   6.665  71.086  1.00  0.00    -0.348 NA 
BRANCH   4   5
HETATM    5  C   UNL     1     -12.993   7.570  71.336  1.00  0.00    -0.335 C  
BRANCH   5   6
HETATM    6  C   UNL     1     -12.658   8.919  72.000  1.00  0.00    -0.460 C  
HETATM    7  C   UNL     1     -12.868  10.116  71.085  1.00  0.00    -0.494 C  
ENDBRANCH   5   6
ENDBRANCH   4   5
BRANCH   4   8
HETATM    8  C   UNL     1     -11.053   7.135  69.922  1.00  0.00    -0.235 C  
BRANCH   8   9
HETATM    9  C   UNL     1     -10.133   6.092  69.246  1.00  0.00    -0.218 C  
BRANCH   9  10
HETATM   10  C   UNL     1      -9.375   6.601  68.046  1.00  0.00    -0.113 A  
HETATM   11  C   UNL     1      -8.685   7.808  68.056  1.00  0.00    -0.125 A  
HETATM   12  C   UNL     1      -8.518   8.829  69.148  1.00  0.00    -0.123 C  
HETATM   13  C   UNL     1      -7.638   9.889  68.482  1.00  0.00    -0.080 C  
HETATM   14  N   UNL     1      -7.388   9.466  67.183  1.00  0.00    -0.087 N  
HETATM   15  O   UNL     1      -7.230  10.921  68.988  1.00  0.00    -0.082 OA 
HETATM   16  H   UNL     1      -6.826   9.984  66.508  1.00  0.00     0.000 HD 
HETATM   17  C   UNL     1      -8.000   8.250  66.922  1.00  0.00    -0.099 A  
HETATM   18  C   UNL     1      -7.965   7.539  65.743  1.00  0.00    -0.117 A  
HETATM   19  C   UNL     1      -8.660   6.333  65.710  1.00  0.00    -0.153 A  
HETATM   20  C   UNL     1      -9.359   5.871  66.842  1.00  0.00    -0.136 A  
ENDBRANCH   9  10
ENDBRANCH   8   9
ENDBRANCH   4   8
ENDBRANCH   3   4
ENDBRANCH   2   3
TORSDOF 7
ENDMDL
MODEL      337
REMARK 921   NORMALIZED FREE ENERGY PREDICTED BY IDOCK:   -2.24 KCAL/MOL
REMARK 922        TOTAL FREE ENERGY PREDICTED BY IDOCK:   -4.04 KCAL/MOL
REMARK 923 INTER-LIGAND FREE ENERGY PREDICTED BY IDOCK:   -3.75 KCAL/MOL
REMARK 924 INTRA-LIGAND FREE ENERGY PREDICTED BY IDOCK:   -0.30 KCAL/MOL
REMARK 927      BINDING AFFINITY PREDICTED BY RF-SCORE:    0.00 PKD
ROOT
HETATM    1  C   UNL     1     -10.376  20.511  69.082  1.00  0.00     0.217 C  
HETATM    2  C   UNL     1      -9.345  19.402  68.944  1.00  0.00    -0.417 C  
ENDROOT
BRANCH   2   3
HETATM    3  C   UNL     1      -9.952  17.994  68.836  1.00  0.00    -0.341 C  
BRANCH   3   4
HETATM    4  N   UNL     1      -9.449  17.113  67.758  1.00  0.00    -0.250 NA 
BRANCH   4   5
HETATM    5  C   UNL     1      -8.851  17.903  66.659  1.00  0.00    -0.268 C  
BRANCH   5   6
HETATM    6  C   UNL     1      -7.335  18.157  66.755  1.00  0.00    -0.236 C  
HETATM    7  C   UNL     1      -6.870  19.368  65.960  1.00  0.00    -0.269 C  
ENDBRANCH   5   6
ENDBRANCH   4   5
BRANCH   4   8
HETATM    8  C   UNL     1      -8.460  16.153  68.314  1.00  0.00    -0.180 C  
BRANCH   8   9
HETATM    9  C   UNL     1      -8.350  14.783  67.605  1.00  0.00    -0.180 C  
BRANCH   9  10
HETATM   10  C   UNL     1      -9.370  13.761  68.040  1.00  0.00    -0.199 A  
HETATM   11  C   UNL     1      -9.528  12.542  67.390  1.00  0.00    -0.184 A  
HETATM   12  C   UNL     1      -8.801  11.964  66.207  1.00  0.00    -0.111 C  
HETATM   13  C   UNL     1      -9.471  10.599  66.039  1.00  0.00    -0.193 C  
HETATM   14  N   UNL     1     -10.445  10.489  67.023  1.00  0.00    -0.237 N  
HETATM   15  O   UNL     1      -9.208   9.756  65.197  1.00  0.00    -0.205 OA 
HETATM   16  H   UNL     1     -11.050   9.677  67.145  1.00  0.00     0.000 HD 
HETATM   17  C   UNL     1     -10.489  11.624  67.817  1.00  0.00    -0.187 A  
HETATM   18  C   UNL     1     -11.329  11.859  68.883  1.00  0.00    -0.335 A  
HETATM   19  C   UNL     1     -11.195  13.081  69.539  1.00  0.00    -0.146 A  
HETATM   20  C   UNL     1     -10.233  14.021  69.122  1.00  0.00    -0.025 A  
ENDBRANCH   9  10
ENDBRANCH   8   9
ENDBRANCH   4   8
ENDBRANCH   3   4
ENDBRANCH   2   3
TORSDOF 7
ENDMDL
MODEL      338
REMARK 921   NORMALIZED FREE ENERGY PREDICTED BY IDOCK:   -2.22 KCAL/MOL
REMARK 922        TOTAL FREE ENERGY PREDICTED BY IDOCK:   -4.02 KCAL/MOL
REMARK 923 INTER-LIGAND FREE ENERGY PREDICTED BY IDOCK:   -3.53 KCAL/MOL
REMARK 924 INTRA-LIGAND FREE ENERGY PREDICTED BY IDOCK:   -0.48 KCAL/MOL
REMARK 927      BINDING AFFINITY PREDICTED BY RF-SCORE:    0.00 PKD
ROOT
HETATM    1  C   UNL     1      -8.936   3.909  69.912  1.00  0.00    -0.162 C  
HETATM    2  C   UNL     1      -9.473   4.968  70.860  1.00  0.00    -0.222 C  
ENDROOT
BRANCH   2   3
HETATM    3  C   UNL     1      -9.745   6.325  70.192  1.00  0.00    -0.163 C  
BRANCH   3   4
HETATM    4  N   UNL     1     -10.872   6.403  69.236  1.00  0.00    -0.291 NA 
BRANCH   4   5
HETATM    5  C   UNL     1     -12.055   7.041  69.856  1.00  0.00     0.201 C  
BRANCH   5   6
HETATM    6  C   UNL     1     -11.895   7.482  71.324  1.00  0.00    -0.319 C  
HETATM    7  C   UNL     1     -12.516   6.515  72.320  1.00  0.00    -0.112 C  
ENDBRANCH   5   6
ENDBRANCH   4   5
BRANCH   4   8
HETATM    8  C   UNL     1     -10.451   7.148  68.021  1.00  0.00    -0.201 C  
BRANCH   8   9
HETATM    9  C   UNL     1      -9.177   8.016  68.146  1.00  0.00    -0.134 C  
BRANCH   9  10
HETATM   10  C   UNL     1      -8.774   8.734  66.883  1.00  0.00    -0.136 A  
HETATM   11  C   UNL     1      -9.448   9.858  66.417  1.00  0.00    -0.234 A  
HETATM   12  C   UNL     1     -10.633  10.591  66.982  1.00  0.00    -0.310 C  
HETATM   13  C   UNL     1     -10.834  11.725  65.975  1.00  0.00    -0.296 C  
HETATM   14  N   UNL     1      -9.863  11.586  64.991  1.00  0.00    -0.252 N  
HETATM   15  O   UNL     1     -11.688  12.595  66.017  1.00  0.00    -0.373 OA 
HETATM   16  H   UNL     1      -9.764  12.208  64.190  1.00  0.00     0.000 HD 
HETATM   17  C   UNL     1      -9.049  10.492  65.238  1.00  0.00    -0.190 A  
HETATM   18  C   UNL     1      -7.990  10.057  64.474  1.00  0.00    -0.148 A  
HETATM   19  C   UNL     1      -7.309   8.926  64.919  1.00  0.00    -0.093 A  
HETATM   20  C   UNL     1      -7.698   8.270  66.103  1.00  0.00    -0.097 A  
ENDBRANCH   9  10
ENDBRANCH   8   9
ENDBRANCH   4   8
ENDBRANCH   3   4
ENDBRANCH   2   3
TORSDOF 7
ENDMDL
MODEL      339
REMARK 921   NORMALIZED FREE ENERGY PREDICTED BY IDOCK:   -2.22 KCAL/MOL
REMARK 922        TOTAL FREE ENERGY PREDICTED BY IDOCK:   -4.01 KCAL/MOL
REMARK 923 INTER-LIGAND FREE ENERGY PREDICTED BY IDOCK:   -3.41 KCAL/MOL
REMARK 924 INTRA-LIGAND FREE ENERGY PREDICTED BY IDOCK:   -0.60 KCAL/MOL
REMARK 927      BINDING AFFINITY PREDICTED BY RF-SCORE:    0.00 PKD
ROOT
HETATM    1  C   UNL     1     -10.582  13.276  64.178  1.00  0.00    -0.331 C  
HETATM    2  C   UNL     1     -10.827  13.127  65.671  1.00  0.00    -0.294 C  
ENDROOT
BRANCH   2   3
HETATM    3  C   UNL     1     -10.442  11.750  66.233  1.00  0.00    -0.244 C  
BRANCH   3   4
HETATM    4  N   UNL     1     -10.796  11.462  67.641  1.00  0.00    -0.222 NA 
BRANCH   4   5
HETATM    5  C   UNL     1     -11.949  12.280  68.079  1.00  0.00    -0.187 C  
BRANCH   5   6
HETATM    6  C   UNL     1     -11.724  13.154  69.327  1.00  0.00    -0.376 C  
HETATM    7  C   UNL     1     -11.361  14.595  69.002  1.00  0.00    -0.299 C  
ENDBRANCH   5   6
ENDBRANCH   4   5
BRANCH   4   8
HETATM    8  C   UNL     1     -11.090  10.014  67.799  1.00  0.00    -0.180 C  
BRANCH   8   9
HETATM    9  C   UNL     1      -9.908   9.039  67.586  1.00  0.00    -0.220 C  
BRANCH   9  10
HETATM   10  C   UNL     1      -8.657   9.384  68.353  1.00  0.00    -0.124 A  
HETATM   11  C   UNL     1      -7.565  10.006  67.757  1.00  0.00    -0.090 A  
HETATM   12  C   UNL     1      -7.353  10.462  66.340  1.00  0.00    -0.120 C  
HETATM   13  C   UNL     1      -5.948  11.065  66.390  1.00  0.00    -0.143 C  
HETATM   14  N   UNL     1      -5.482  10.926  67.691  1.00  0.00    -0.040 N  
HETATM   15  O   UNL     1      -5.340  11.574  65.463  1.00  0.00    -0.169 OA 
HETATM   16  H   UNL     1      -4.566  11.242  68.010  1.00  0.00     0.000 HD 
HETATM   17  C   UNL     1      -6.419  10.302  68.499  1.00  0.00    -0.052 A  
HETATM   18  C   UNL     1      -6.294  10.004  69.837  1.00  0.00    -0.066 A  
HETATM   19  C   UNL     1      -7.373   9.370  70.449  1.00  0.00    -0.124 A  
HETATM   20  C   UNL     1      -8.536   9.059  69.717  1.00  0.00    -0.132 A  
ENDBRANCH   9  10
ENDBRANCH   8   9
ENDBRANCH   4   8
ENDBRANCH   3   4
ENDBRANCH   2   3
TORSDOF 7
ENDMDL
MODEL      340
REMARK 921   NORMALIZED FREE ENERGY PREDICTED BY IDOCK:   -2.19 KCAL/MOL
REMARK 922        TOTAL FREE ENERGY PREDICTED BY IDOCK:   -3.97 KCAL/MOL
REMARK 923 INTER-LIGAND FREE ENERGY PREDICTED BY IDOCK:   -4.06 KCAL/MOL
REMARK 924 INTRA-LIGAND FREE ENERGY PREDICTED BY IDOCK:    0.09 KCAL/MOL
REMARK 927      BINDING AFFINITY PREDICTED BY RF-SCORE:    0.00 PKD
ROOT
HETATM    1  C   UNL     1     -12.838  13.489  65.357  1.00  0.00    -0.420 C  
HETATM    2  C   UNL     1     -11.810  13.486  64.238  1.00  0.00    -0.471 C  
ENDROOT
BRANCH   2   3
HETATM    3  C   UNL     1     -10.603  12.572  64.500  1.00  0.00    -0.336 C  
BRANCH   3   4
HETATM    4  N   UNL     1     -10.782  11.461  65.462  1.00  0.00    -0.272 NA 
BRANCH   4   5
HETATM    5  C   UNL     1     -10.024  10.262  65.040  1.00  0.00    -0.323 C  
BRANCH   5   6
HETATM    6  C   UNL     1      -9.003  10.471  63.906  1.00  0.00    -0.232 C  
HETATM    7  C   UNL     1      -7.680   9.758  64.141  1.00  0.00    -0.134 C  
ENDBRANCH   5   6
ENDBRANCH   4   5
BRANCH   4   8
HETATM    8  C   UNL     1     -10.362  11.897  66.819  1.00  0.00    -0.209 C  
BRANCH   8   9
HETATM    9  C   UNL     1      -8.841  11.993  67.077  1.00  0.00    -0.197 C  
BRANCH   9  10
HETATM   10  C   UNL     1      -8.261  10.855  67.878  1.00  0.00    -0.114 A  
HETATM   11  C   UNL     1      -9.022  10.106  68.769  1.00  0.00    -0.147 A  
HETATM   12  C   UNL     1     -10.477  10.208  69.137  1.00  0.00    -0.242 C  
HETATM   13  C   UNL     1     -10.643   9.078  70.155  1.00  0.00    -0.224 C  
HETATM   14  N   UNL     1      -9.405   8.466  70.303  1.00  0.00    -0.162 N  
HETATM   15  O   UNL     1     -11.668   8.766  70.738  1.00  0.00    -0.279 OA 
HETATM   16  H   UNL     1      -9.224   7.678  70.925  1.00  0.00     0.000 HD 
HETATM   17  C   UNL     1      -8.448   9.063  69.499  1.00  0.00    -0.125 A  
HETATM   18  C   UNL     1      -7.120   8.716  69.393  1.00  0.00    -0.053 A  
HETATM   19  C   UNL     1      -6.338   9.463  68.514  1.00  0.00    -0.052 A  
HETATM   20  C   UNL     1      -6.898  10.520  67.771  1.00  0.00    -0.073 A  
ENDBRANCH   9  10
ENDBRANCH   8   9
ENDBRANCH   4   8
ENDBRANCH   3   4
ENDBRANCH   2   3
TORSDOF 7
ENDMDL
MODEL      341
REMARK 921   NORMALIZED FREE ENERGY PREDICTED BY IDOCK:   -2.18 KCAL/MOL
REMARK 922        TOTAL FREE ENERGY PREDICTED BY IDOCK:   -3.96 KCAL/MOL
REMARK 923 INTER-LIGAND FREE ENERGY PREDICTED BY IDOCK:   -2.95 KCAL/MOL
REMARK 924 INTRA-LIGAND FREE ENERGY PREDICTED BY IDOCK:   -1.01 KCAL/MOL
REMARK 927      BINDING AFFINITY PREDICTED BY RF-SCORE:    0.00 PKD
ROOT
HETATM    1  C   UNL     1     -10.529   4.678  65.615  1.00  0.00    -0.260 C  
HETATM    2  C   UNL     1      -9.390   3.737  65.975  1.00  0.00    -0.173 C  
ENDROOT
BRANCH   2   3
HETATM    3  C   UNL     1      -9.268   3.450  67.479  1.00  0.00    -0.192 C  
BRANCH   3   4
HETATM    4  N   UNL     1      -8.145   4.082  68.208  1.00  0.00    -0.080 NA 
BRANCH   4   5
HETATM    5  C   UNL     1      -7.038   3.123  68.416  1.00  0.00    -0.049 C  
BRANCH   5   6
HETATM    6  C   UNL     1      -6.792   2.676  69.870  1.00  0.00    -0.034 C  
HETATM    7  C   UNL     1      -7.923   3.045  70.818  1.00  0.00    -0.051 C  
ENDBRANCH   5   6
ENDBRANCH   4   5
BRANCH   4   8
HETATM    8  C   UNL     1      -7.672   5.278  67.463  1.00  0.00    -0.096 C  
BRANCH   8   9
HETATM    9  C   UNL     1      -8.250   6.642  67.902  1.00  0.00    -0.120 C  
BRANCH   9  10
HETATM   10  C   UNL     1      -9.242   6.575  69.036  1.00  0.00    -0.130 A  
HETATM   11  C   UNL     1      -8.852   6.607  70.370  1.00  0.00    -0.152 A  
HETATM   12  C   UNL     1      -7.485   6.712  70.987  1.00  0.00    -0.084 C  
HETATM   13  C   UNL     1      -7.793   6.705  72.485  1.00  0.00    -0.102 C  
HETATM   14  N   UNL     1      -9.170   6.597  72.626  1.00  0.00    -0.140 N  
HETATM   15  O   UNL     1      -6.985   6.776  73.396  1.00  0.00    -0.075 OA 
HETATM   16  H   UNL     1      -9.656   6.567  73.523  1.00  0.00     0.000 HD 
HETATM   17  C   UNL     1      -9.800   6.534  71.394  1.00  0.00    -0.176 A  
HETATM   18  C   UNL     1     -11.152   6.425  71.157  1.00  0.00    -0.344 A  
HETATM   19  C   UNL     1     -11.561   6.379  69.826  1.00  0.00    -0.397 A  
HETATM   20  C   UNL     1     -10.620   6.448  68.780  1.00  0.00    -0.295 A  
ENDBRANCH   9  10
ENDBRANCH   8   9
ENDBRANCH   4   8
ENDBRANCH   3   4
ENDBRANCH   2   3
TORSDOF 7
ENDMDL
MODEL      342
REMARK 921   NORMALIZED FREE ENERGY PREDICTED BY IDOCK:   -2.14 KCAL/MOL
REMARK 922        TOTAL FREE ENERGY PREDICTED BY IDOCK:   -3.90 KCAL/MOL
REMARK 923 INTER-LIGAND FREE ENERGY PREDICTED BY IDOCK:   -3.47 KCAL/MOL
REMARK 924 INTRA-LIGAND FREE ENERGY PREDICTED BY IDOCK:   -0.43 KCAL/MOL
REMARK 927      BINDING AFFINITY PREDICTED BY RF-SCORE:    0.00 PKD
ROOT
HETATM    1  C   UNL     1      -6.782  16.148  68.935  1.00  0.00    -0.147 C  
HETATM    2  C   UNL     1      -6.997  15.778  67.476  1.00  0.00    -0.216 C  
ENDROOT
BRANCH   2   3
HETATM    3  C   UNL     1      -8.327  15.058  67.203  1.00  0.00    -0.217 C  
BRANCH   3   4
HETATM    4  N   UNL     1      -9.279  14.929  68.329  1.00  0.00    -0.182 NA 
BRANCH   4   5
HETATM    5  C   UNL     1     -10.254  16.043  68.333  1.00  0.00    -0.236 C  
BRANCH   5   6
HETATM    6  C   UNL     1     -11.563  15.794  69.105  1.00  0.00    -0.399 C  
HETATM    7  C   UNL     1     -11.415  15.929  70.613  1.00  0.00    -0.426 C  
ENDBRANCH   5   6
ENDBRANCH   4   5
BRANCH   4   8
HETATM    8  C   UNL     1      -9.978  13.620  68.251  1.00  0.00    -0.236 C  
BRANCH   8   9
HETATM    9  C   UNL     1      -9.668  12.741  67.018  1.00  0.00    -0.224 C  
BRANCH   9  10
HETATM   10  C   UNL     1      -8.561  11.737  67.217  1.00  0.00    -0.162 A  
HETATM   11  C   UNL     1      -8.161  10.858  66.217  1.00  0.00    -0.165 A  
HETATM   12  C   UNL     1      -8.664  10.686  64.810  1.00  0.00    -0.170 C  
HETATM   13  C   UNL     1      -7.777   9.561  64.274  1.00  0.00    -0.124 C  
HETATM   14  N   UNL     1      -6.916   9.186  65.298  1.00  0.00    -0.083 N  
HETATM   15  O   UNL     1      -7.813   9.073  63.157  1.00  0.00    -0.121 OA 
HETATM   16  H   UNL     1      -6.212   8.452  65.218  1.00  0.00     0.000 HD 
HETATM   17  C   UNL     1      -7.136   9.937  66.442  1.00  0.00    -0.096 A  
HETATM   18  C   UNL     1      -6.469   9.836  67.642  1.00  0.00    -0.067 A  
HETATM   19  C   UNL     1      -6.863  10.701  68.661  1.00  0.00    -0.059 A  
HETATM   20  C   UNL     1      -7.897  11.635  68.454  1.00  0.00    -0.137 A  
ENDBRANCH   9  10
ENDBRANCH   8   9
ENDBRANCH   4   8
ENDBRANCH   3   4
ENDBRANCH   2   3
TORSDOF 7
ENDMDL
MODEL      343
REMARK 921   NORMALIZED FREE ENERGY PREDICTED BY IDOCK:   -2.11 KCAL/MOL
REMARK 922        TOTAL FREE ENERGY PREDICTED BY IDOCK:   -3.86 KCAL/MOL
REMARK 923 INTER-LIGAND FREE ENERGY PREDICTED BY IDOCK:   -3.18 KCAL/MOL
REMARK 924 INTRA-LIGAND FREE ENERGY PREDICTED BY IDOCK:   -0.68 KCAL/MOL
REMARK 927      BINDING AFFINITY PREDICTED BY RF-SCORE:    0.00 PKD
ROOT
HETATM    1  C   UNL     1     -10.448   2.804  74.126  1.00  0.00    -0.227 C  
HETATM    2  C   UNL     1     -11.301   3.721  73.265  1.00  0.00    -0.179 C  
ENDROOT
BRANCH   2   3
HETATM    3  C   UNL     1     -10.958   5.212  73.411  1.00  0.00    -0.320 C  
BRANCH   3   4
HETATM    4  N   UNL     1     -10.042   5.805  72.411  1.00  0.00    -0.176 NA 
BRANCH   4   5
HETATM    5  C   UNL     1      -8.648   5.819  72.907  1.00  0.00    -0.122 C  
BRANCH   5   6
HETATM    6  C   UNL     1      -7.925   7.178  72.857  1.00  0.00    -0.114 C  
HETATM    7  C   UNL     1      -8.238   8.078  74.043  1.00  0.00    -0.316 C  
ENDBRANCH   5   6
ENDBRANCH   4   5
BRANCH   4   8
HETATM    8  C   UNL     1     -10.137   5.053  71.133  1.00  0.00    -0.223 C  
BRANCH   8   9
HETATM    9  C   UNL     1      -8.863   4.310  70.669  1.00  0.00    -0.135 C  
BRANCH   9  10
HETATM   10  C   UNL     1      -8.931   3.748  69.272  1.00  0.00    -0.172 A  
HETATM   11  C   UNL     1      -8.682   4.522  68.144  1.00  0.00    -0.116 A  
HETATM   12  C   UNL     1      -8.310   5.974  68.017  1.00  0.00    -0.116 C  
HETATM   13  C   UNL     1      -8.178   6.153  66.504  1.00  0.00    -0.111 C  
HETATM   14  N   UNL     1      -8.461   4.929  65.913  1.00  0.00    -0.117 N  
HETATM   15  O   UNL     1      -7.883   7.180  65.914  1.00  0.00    -0.096 OA 
HETATM   16  H   UNL     1      -8.450   4.759  64.907  1.00  0.00     0.000 HD 
HETATM   17  C   UNL     1      -8.762   3.967  66.864  1.00  0.00    -0.116 A  
HETATM   18  C   UNL     1      -9.089   2.649  66.638  1.00  0.00    -0.138 A  
HETATM   19  C   UNL     1      -9.355   1.861  67.755  1.00  0.00    -0.182 A  
HETATM   20  C   UNL     1      -9.282   2.402  69.053  1.00  0.00    -0.205 A  
ENDBRANCH   9  10
ENDBRANCH   8   9
ENDBRANCH   4   8
ENDBRANCH   3   4
ENDBRANCH   2   3
TORSDOF 7
ENDMDL
MODEL      344
REMARK 921   NORMALIZED FREE ENERGY PREDICTED BY IDOCK:   -2.09 KCAL/MOL
REMARK 922        TOTAL FREE ENERGY PREDICTED BY IDOCK:   -3.83 KCAL/MOL
REMARK 923 INTER-LIGAND FREE ENERGY PREDICTED BY IDOCK:   -3.14 KCAL/MOL
REMARK 924 INTRA-LIGAND FREE ENERGY PREDICTED BY IDOCK:   -0.70 KCAL/MOL
REMARK 927      BINDING AFFINITY PREDICTED BY RF-SCORE:    0.00 PKD
ROOT
HETATM    1  C   UNL     1      -7.865   7.541  63.084  1.00  0.00    -0.133 C  
HETATM    2  C   UNL     1      -6.926   7.732  64.264  1.00  0.00    -0.068 C  
ENDROOT
BRANCH   2   3
HETATM    3  C   UNL     1      -7.207   6.789  65.445  1.00  0.00    -0.077 C  
BRANCH   3   4
HETATM    4  N   UNL     1      -8.382   5.896  65.343  1.00  0.00    -0.145 NA 
BRANCH   4   5
HETATM    5  C   UNL     1      -7.973   4.474  65.340  1.00  0.00    -0.098 C  
BRANCH   5   6
HETATM    6  C   UNL     1      -8.582   3.591  66.446  1.00  0.00    -0.117 C  
HETATM    7  C   UNL     1      -7.543   2.870  67.290  1.00  0.00    -0.069 C  
ENDBRANCH   5   6
ENDBRANCH   4   5
BRANCH   4   8
HETATM    8  C   UNL     1      -9.322   6.170  66.461  1.00  0.00    -0.153 C  
BRANCH   8   9
HETATM    9  C   UNL     1      -8.743   6.913  67.687  1.00  0.00    -0.120 C  
BRANCH   9  10
HETATM   10  C   UNL     1      -9.653   6.959  68.888  1.00  0.00    -0.139 A  
HETATM   11  C   UNL     1      -9.235   7.441  70.123  1.00  0.00    -0.151 A  
HETATM   12  C   UNL     1      -7.906   7.996  70.556  1.00  0.00    -0.094 C  
HETATM   13  C   UNL     1      -8.152   8.341  72.026  1.00  0.00    -0.141 C  
HETATM   14  N   UNL     1      -9.463   7.992  72.322  1.00  0.00    -0.187 N  
HETATM   15  O   UNL     1      -7.350   8.829  72.805  1.00  0.00    -0.344 OA 
HETATM   16  H   UNL     1      -9.898   8.112  73.237  1.00  0.00     0.000 HD 
HETATM   17  C   UNL     1     -10.105   7.460  71.215  1.00  0.00    -0.188 A  
HETATM   18  C   UNL     1     -11.404   7.010  71.146  1.00  0.00    -0.319 A  
HETATM   19  C   UNL     1     -11.838   6.511  69.920  1.00  0.00    -0.223 A  
HETATM   20  C   UNL     1     -10.975   6.481  68.808  1.00  0.00    -0.371 A  
ENDBRANCH   9  10
ENDBRANCH   8   9
ENDBRANCH   4   8
ENDBRANCH   3   4
ENDBRANCH   2   3
TORSDOF 7
ENDMDL
MODEL      345
REMARK 921   NORMALIZED FREE ENERGY PREDICTED BY IDOCK:   -2.06 KCAL/MOL
REMARK 922        TOTAL FREE ENERGY PREDICTED BY IDOCK:   -3.79 KCAL/MOL
REMARK 923 INTER-LIGAND FREE ENERGY PREDICTED BY IDOCK:   -3.60 KCAL/MOL
REMARK 924 INTRA-LIGAND FREE ENERGY PREDICTED BY IDOCK:   -0.19 KCAL/MOL
REMARK 927      BINDING AFFINITY PREDICTED BY RF-SCORE:    0.00 PKD
ROOT
HETATM    1  C   UNL     1      -8.723   3.790  69.971  1.00  0.00    -0.119 C  
HETATM    2  C   UNL     1      -9.130   4.582  71.203  1.00  0.00    -0.183 C  
ENDROOT
BRANCH   2   3
HETATM    3  C   UNL     1      -9.110   6.105  71.001  1.00  0.00    -0.147 C  
BRANCH   3   4
HETATM    4  N   UNL     1     -10.195   6.702  70.191  1.00  0.00    -0.184 NA 
BRANCH   4   5
HETATM    5  C   UNL     1     -11.168   7.417  71.046  1.00  0.00    -0.264 C  
BRANCH   5   6
HETATM    6  C   UNL     1     -10.634   8.655  71.791  1.00  0.00    -0.395 C  
HETATM    7  C   UNL     1      -9.888   8.318  73.073  1.00  0.00    -0.248 C  
ENDBRANCH   5   6
ENDBRANCH   4   5
BRANCH   4   8
HETATM    8  C   UNL     1      -9.618   7.619  69.173  1.00  0.00    -0.155 C  
BRANCH   8   9
HETATM    9  C   UNL     1     -10.457   7.852  67.895  1.00  0.00    -0.261 C  
BRANCH   9  10
HETATM   10  C   UNL     1      -9.659   8.245  66.677  1.00  0.00    -0.299 A  
HETATM   11  C   UNL     1      -8.795   7.365  66.036  1.00  0.00    -0.173 A  
HETATM   12  C   UNL     1      -8.455   5.932  66.342  1.00  0.00    -0.120 C  
HETATM   13  C   UNL     1      -7.456   5.583  65.237  1.00  0.00    -0.074 C  
HETATM   14  N   UNL     1      -7.290   6.716  64.453  1.00  0.00    -0.080 N  
HETATM   15  O   UNL     1      -6.899   4.510  65.070  1.00  0.00    -0.047 OA 
HETATM   16  H   UNL     1      -6.676   6.769  63.641  1.00  0.00     0.000 HD 
HETATM   17  C   UNL     1      -8.066   7.767  64.915  1.00  0.00    -0.136 A  
HETATM   18  C   UNL     1      -8.150   9.034  64.382  1.00  0.00    -0.146 A  
HETATM   19  C   UNL     1      -9.002   9.934  65.018  1.00  0.00    -0.239 A  
HETATM   20  C   UNL     1      -9.743   9.548  66.152  1.00  0.00    -0.324 A  
ENDBRANCH   9  10
ENDBRANCH   8   9
ENDBRANCH   4   8
ENDBRANCH   3   4
ENDBRANCH   2   3
TORSDOF 7
ENDMDL
MODEL      346
REMARK 921   NORMALIZED FREE ENERGY PREDICTED BY IDOCK:   -2.04 KCAL/MOL
REMARK 922        TOTAL FREE ENERGY PREDICTED BY IDOCK:   -3.75 KCAL/MOL
REMARK 923 INTER-LIGAND FREE ENERGY PREDICTED BY IDOCK:   -3.42 KCAL/MOL
REMARK 924 INTRA-LIGAND FREE ENERGY PREDICTED BY IDOCK:   -0.33 KCAL/MOL
REMARK 927      BINDING AFFINITY PREDICTED BY RF-SCORE:    0.00 PKD
ROOT
HETATM    1  C   UNL     1     -10.447   2.815  74.132  1.00  0.00    -0.227 C  
HETATM    2  C   UNL     1     -11.358   3.733  73.333  1.00  0.00    -0.224 C  
ENDROOT
BRANCH   2   3
HETATM    3  C   UNL     1     -11.067   5.229  73.532  1.00  0.00    -0.256 C  
BRANCH   3   4
HETATM    4  N   UNL     1     -10.241   5.908  72.509  1.00  0.00    -0.183 NA 
BRANCH   4   5
HETATM    5  C   UNL     1     -10.168   5.108  71.266  1.00  0.00    -0.222 C  
BRANCH   5   6
HETATM    6  C   UNL     1      -8.758   4.681  70.817  1.00  0.00    -0.133 C  
HETATM    7  C   UNL     1      -8.107   5.658  69.849  1.00  0.00    -0.095 C  
ENDBRANCH   5   6
ENDBRANCH   4   5
BRANCH   4   8
HETATM    8  C   UNL     1     -10.792   7.260  72.233  1.00  0.00    -0.238 C  
BRANCH   8   9
HETATM    9  C   UNL     1     -11.232   7.546  70.779  1.00  0.00    -0.287 C  
BRANCH   9  10
HETATM   10  C   UNL     1     -10.951   8.946  70.296  1.00  0.00    -0.266 A  
HETATM   11  C   UNL     1      -9.696   9.345  69.851  1.00  0.00    -0.236 A  
HETATM   12  C   UNL     1      -8.410   8.574  69.735  1.00  0.00    -0.124 C  
HETATM   13  C   UNL     1      -7.446   9.617  69.167  1.00  0.00    -0.079 C  
HETATM   14  N   UNL     1      -8.155  10.801  69.017  1.00  0.00    -0.156 N  
HETATM   15  O   UNL     1      -6.268   9.450  68.897  1.00  0.00    -0.043 OA 
HETATM   16  H   UNL     1      -7.757  11.668  68.657  1.00  0.00     0.000 HD 
HETATM   17  C   UNL     1      -9.473  10.654  69.419  1.00  0.00    -0.078 A  
HETATM   18  C   UNL     1     -10.457  11.617  69.407  1.00  0.00     0.061 A  
HETATM   19  C   UNL     1     -11.719  11.240  69.861  1.00  0.00    -0.430 A  
HETATM   20  C   UNL     1     -11.963   9.926  70.304  1.00  0.00    -0.209 A  
ENDBRANCH   9  10
ENDBRANCH   8   9
ENDBRANCH   4   8
ENDBRANCH   3   4
ENDBRANCH   2   3
TORSDOF 7
ENDMDL
MODEL      347
REMARK 921   NORMALIZED FREE ENERGY PREDICTED BY IDOCK:   -1.99 KCAL/MOL
REMARK 922        TOTAL FREE ENERGY PREDICTED BY IDOCK:   -3.69 KCAL/MOL
REMARK 923 INTER-LIGAND FREE ENERGY PREDICTED BY IDOCK:   -3.10 KCAL/MOL
REMARK 924 INTRA-LIGAND FREE ENERGY PREDICTED BY IDOCK:   -0.60 KCAL/MOL
REMARK 927      BINDING AFFINITY PREDICTED BY RF-SCORE:    0.00 PKD
ROOT
HETATM    1  C   UNL     1      -9.601   5.375  65.922  1.00  0.00    -0.116 C  
HETATM    2  C   UNL     1      -8.930   4.012  65.876  1.00  0.00    -0.128 C  
ENDROOT
BRANCH   2   3
HETATM    3  C   UNL     1      -9.038   3.219  67.188  1.00  0.00    -0.176 C  
BRANCH   3   4
HETATM    4  N   UNL     1      -7.985   3.433  68.206  1.00  0.00    -0.069 NA 
BRANCH   4   5
HETATM    5  C   UNL     1      -6.819   4.137  67.627  1.00  0.00    -0.051 C  
BRANCH   5   6
HETATM    6  C   UNL     1      -6.632   5.604  68.058  1.00  0.00    -0.053 C  
HETATM    7  C   UNL     1      -6.297   6.539  66.905  1.00  0.00    -0.041 C  
ENDBRANCH   5   6
ENDBRANCH   4   5
BRANCH   4   8
HETATM    8  C   UNL     1      -8.541   4.194  69.354  1.00  0.00    -0.077 C  
BRANCH   8   9
HETATM    9  C   UNL     1      -8.193   3.670  70.767  1.00  0.00    -0.080 C  
BRANCH   9  10
HETATM   10  C   UNL     1      -9.156   4.084  71.851  1.00  0.00    -0.167 A  
HETATM   11  C   UNL     1      -9.244   5.394  72.310  1.00  0.00    -0.155 A  
HETATM   12  C   UNL     1      -8.490   6.627  71.897  1.00  0.00    -0.114 C  
HETATM   13  C   UNL     1      -9.095   7.706  72.797  1.00  0.00    -0.165 C  
HETATM   14  N   UNL     1     -10.052   7.093  73.595  1.00  0.00    -0.318 N  
HETATM   15  O   UNL     1      -8.797   8.888  72.819  1.00  0.00    -0.324 OA 
HETATM   16  H   UNL     1     -10.614   7.578  74.294  1.00  0.00     0.000 HD 
HETATM   17  C   UNL     1     -10.144   5.737  73.322  1.00  0.00    -0.188 A  
HETATM   18  C   UNL     1     -10.983   4.825  73.921  1.00  0.00    -0.325 A  
HETATM   19  C   UNL     1     -10.901   3.505  73.482  1.00  0.00    -0.321 A  
HETATM   20  C   UNL     1      -9.998   3.138  72.466  1.00  0.00    -0.228 A  
ENDBRANCH   9  10
ENDBRANCH   8   9
ENDBRANCH   4   8
ENDBRANCH   3   4
ENDBRANCH   2   3
TORSDOF 7
ENDMDL
MODEL      348
REMARK 921   NORMALIZED FREE ENERGY PREDICTED BY IDOCK:   -1.99 KCAL/MOL
REMARK 922        TOTAL FREE ENERGY PREDICTED BY IDOCK:   -3.69 KCAL/MOL
REMARK 923 INTER-LIGAND FREE ENERGY PREDICTED BY IDOCK:   -3.23 KCAL/MOL
REMARK 924 INTRA-LIGAND FREE ENERGY PREDICTED BY IDOCK:   -0.45 KCAL/MOL
REMARK 927      BINDING AFFINITY PREDICTED BY RF-SCORE:    0.00 PKD
ROOT
HETATM    1  C   UNL     1      -8.485  13.718  66.610  1.00  0.00     0.138 C  
HETATM    2  C   UNL     1      -8.617  14.687  67.774  1.00  0.00    -0.175 C  
ENDROOT
BRANCH   2   3
HETATM    3  C   UNL     1      -9.251  14.072  69.031  1.00  0.00     0.153 C  
BRANCH   3   4
HETATM    4  N   UNL     1     -10.602  14.538  69.414  1.00  0.00    -0.201 NA 
BRANCH   4   5
HETATM    5  C   UNL     1     -10.690  16.015  69.368  1.00  0.00    -0.294 C  
BRANCH   5   6
HETATM    6  C   UNL     1     -11.713  16.602  68.377  1.00  0.00     0.288 C  
HETATM    7  C   UNL     1     -11.074  17.281  67.175  1.00  0.00     0.192 C  
ENDBRANCH   5   6
ENDBRANCH   4   5
BRANCH   4   8
HETATM    8  C   UNL     1     -11.619  13.923  68.522  1.00  0.00    -0.332 C  
BRANCH   8   9
HETATM    9  C   UNL     1     -11.597  12.382  68.405  1.00  0.00    -0.373 C  
BRANCH   9  10
HETATM   10  C   UNL     1     -11.061  11.854  67.098  1.00  0.00    -0.347 A  
HETATM   11  C   UNL     1     -10.305  10.690  67.019  1.00  0.00    -0.280 A  
HETATM   12  C   UNL     1      -9.863   9.736  68.094  1.00  0.00    -0.170 C  
HETATM   13  C   UNL     1      -9.081   8.683  67.305  1.00  0.00    -0.133 C  
HETATM   14  N   UNL     1      -9.108   9.059  65.969  1.00  0.00    -0.192 N  
HETATM   15  O   UNL     1      -8.529   7.694  67.758  1.00  0.00    -0.121 OA 
HETATM   16  H   UNL     1      -8.662   8.537  65.215  1.00  0.00     0.000 HD 
HETATM   17  C   UNL     1      -9.819  10.236  65.790  1.00  0.00    -0.257 A  
HETATM   18  C   UNL     1     -10.047  10.896  64.604  1.00  0.00    -0.391 A  
HETATM   19  C   UNL     1     -10.793  12.071  64.665  1.00  0.00    -0.357 A  
HETATM   20  C   UNL     1     -11.289  12.546  65.894  1.00  0.00    -0.380 A  
ENDBRANCH   9  10
ENDBRANCH   8   9
ENDBRANCH   4   8
ENDBRANCH   3   4
ENDBRANCH   2   3
TORSDOF 7
ENDMDL
MODEL      349
REMARK 921   NORMALIZED FREE ENERGY PREDICTED BY IDOCK:   -1.96 KCAL/MOL
REMARK 922        TOTAL FREE ENERGY PREDICTED BY IDOCK:   -3.65 KCAL/MOL
REMARK 923 INTER-LIGAND FREE ENERGY PREDICTED BY IDOCK:   -3.45 KCAL/MOL
REMARK 924 INTRA-LIGAND FREE ENERGY PREDICTED BY IDOCK:   -0.20 KCAL/MOL
REMARK 927      BINDING AFFINITY PREDICTED BY RF-SCORE:    0.00 PKD
ROOT
HETATM    1  C   UNL     1     -12.126  14.432  68.486  1.00  0.00    -0.278 C  
HETATM    2  C   UNL     1     -11.893  15.561  69.476  1.00  0.00    -0.390 C  
ENDROOT
BRANCH   2   3
HETATM    3  C   UNL     1     -10.409  15.851  69.754  1.00  0.00    -0.290 C  
BRANCH   3   4
HETATM    4  N   UNL     1      -9.607  16.429  68.654  1.00  0.00    -0.231 NA 
BRANCH   4   5
HETATM    5  C   UNL     1     -10.476  17.053  67.631  1.00  0.00    -0.343 C  
BRANCH   5   6
HETATM    6  C   UNL     1     -10.096  16.783  66.163  1.00  0.00    -0.360 C  
HETATM    7  C   UNL     1     -10.738  15.529  65.590  1.00  0.00    -0.378 C  
ENDBRANCH   5   6
ENDBRANCH   4   5
BRANCH   4   8
HETATM    8  C   UNL     1      -8.644  17.420  69.200  1.00  0.00     0.065 C  
BRANCH   8   9
HETATM    9  C   UNL     1      -7.150  17.023  69.172  1.00  0.00    -0.221 C  
BRANCH   9  10
HETATM   10  C   UNL     1      -6.890  15.543  69.057  1.00  0.00    -0.139 A  
HETATM   11  C   UNL     1      -6.389  14.789  70.113  1.00  0.00    -0.169 A  
HETATM   12  C   UNL     1      -6.013  15.195  71.511  1.00  0.00     0.475 C  
HETATM   13  C   UNL     1      -5.553  13.873  72.130  1.00  0.00    -0.138 C  
HETATM   14  N   UNL     1      -5.669  12.893  71.152  1.00  0.00    -0.234 N  
HETATM   15  O   UNL     1      -5.152  13.702  73.269  1.00  0.00    -0.273 OA 
HETATM   16  H   UNL     1      -5.428  11.912  71.290  1.00  0.00     0.000 HD 
HETATM   17  C   UNL     1      -6.154  13.420  69.965  1.00  0.00    -0.125 A  
HETATM   18  C   UNL     1      -6.393  12.741  68.792  1.00  0.00    -0.080 A  
HETATM   19  C   UNL     1      -6.883  13.481  67.719  1.00  0.00    -0.168 A  
HETATM   20  C   UNL     1      -7.124  14.863  67.847  1.00  0.00    -0.168 A  
ENDBRANCH   9  10
ENDBRANCH   8   9
ENDBRANCH   4   8
ENDBRANCH   3   4
ENDBRANCH   2   3
TORSDOF 7
ENDMDL
MODEL      350
REMARK 921   NORMALIZED FREE ENERGY PREDICTED BY IDOCK:   -1.89 KCAL/MOL
REMARK 922        TOTAL FREE ENERGY PREDICTED BY IDOCK:   -3.55 KCAL/MOL
REMARK 923 INTER-LIGAND FREE ENERGY PREDICTED BY IDOCK:   -2.66 KCAL/MOL
REMARK 924 INTRA-LIGAND FREE ENERGY PREDICTED BY IDOCK:   -0.89 KCAL/MOL
REMARK 927      BINDING AFFINITY PREDICTED BY RF-SCORE:    0.00 PKD
ROOT
HETATM    1  C   UNL     1     -10.533   7.614  69.306  1.00  0.00    -0.220 C  
HETATM    2  C   UNL     1      -9.253   8.276  69.791  1.00  0.00    -0.154 C  
ENDROOT
BRANCH   2   3
HETATM    3  C   UNL     1      -9.457   9.690  70.358  1.00  0.00    -0.222 C  
BRANCH   3   4
HETATM    4  N   UNL     1      -9.908  10.744  69.423  1.00  0.00    -0.145 NA 
BRANCH   4   5
HETATM    5  C   UNL     1     -10.963  11.583  70.033  1.00  0.00     0.245 C  
BRANCH   5   6
HETATM    6  C   UNL     1     -12.298  10.877  70.338  1.00  0.00    -0.436 C  
HETATM    7  C   UNL     1     -12.609  10.779  71.824  1.00  0.00    -0.382 C  
ENDBRANCH   5   6
ENDBRANCH   4   5
BRANCH   4   8
HETATM    8  C   UNL     1      -8.750  11.577  69.007  1.00  0.00     0.146 C  
BRANCH   8   9
HETATM    9  C   UNL     1      -8.515  11.730  67.486  1.00  0.00    -0.154 C  
BRANCH   9  10
HETATM   10  C   UNL     1      -7.655  10.657  66.867  1.00  0.00    -0.115 A  
HETATM   11  C   UNL     1      -7.900  10.145  65.598  1.00  0.00    -0.145 A  
HETATM   12  C   UNL     1      -8.970  10.484  64.597  1.00  0.00    -0.229 C  
HETATM   13  C   UNL     1      -8.637   9.556  63.427  1.00  0.00    -0.210 C  
HETATM   14  N   UNL     1      -7.522   8.812  63.789  1.00  0.00    -0.107 N  
HETATM   15  O   UNL     1      -9.237   9.475  62.367  1.00  0.00    -0.279 OA 
HETATM   16  H   UNL     1      -7.082   8.109  63.195  1.00  0.00     0.000 HD 
HETATM   17  C   UNL     1      -7.085   9.145  65.061  1.00  0.00    -0.092 A  
HETATM   18  C   UNL     1      -6.012   8.610  65.737  1.00  0.00    -0.048 A  
HETATM   19  C   UNL     1      -5.758   9.102  67.015  1.00  0.00    -0.045 A  
HETATM   20  C   UNL     1      -6.570  10.107  67.575  1.00  0.00    -0.068 A  
ENDBRANCH   9  10
ENDBRANCH   8   9
ENDBRANCH   4   8
ENDBRANCH   3   4
ENDBRANCH   2   3
TORSDOF 7
ENDMDL
MODEL      351
REMARK 921   NORMALIZED FREE ENERGY PREDICTED BY IDOCK:   -1.89 KCAL/MOL
REMARK 922        TOTAL FREE ENERGY PREDICTED BY IDOCK:   -3.54 KCAL/MOL
REMARK 923 INTER-LIGAND FREE ENERGY PREDICTED BY IDOCK:   -2.75 KCAL/MOL
REMARK 924 INTRA-LIGAND FREE ENERGY PREDICTED BY IDOCK:   -0.79 KCAL/MOL
REMARK 927      BINDING AFFINITY PREDICTED BY RF-SCORE:    0.00 PKD
ROOT
HETATM    1  C   UNL     1      -7.581   9.814  64.902  1.00  0.00    -0.128 C  
HETATM    2  C   UNL     1      -8.502   9.536  66.079  1.00  0.00    -0.132 C  
ENDROOT
BRANCH   2   3
HETATM    3  C   UNL     1      -7.811   8.841  67.262  1.00  0.00    -0.097 C  
BRANCH   3   4
HETATM    4  N   UNL     1      -8.466   7.642  67.829  1.00  0.00    -0.121 NA 
BRANCH   4   5
HETATM    5  C   UNL     1      -9.381   7.019  66.846  1.00  0.00    -0.153 C  
BRANCH   5   6
HETATM    6  C   UNL     1      -8.866   5.740  66.157  1.00  0.00    -0.146 C  
HETATM    7  C   UNL     1      -8.197   6.000  64.816  1.00  0.00    -0.123 C  
ENDBRANCH   5   6
ENDBRANCH   4   5
BRANCH   4   8
HETATM    8  C   UNL     1      -7.436   6.669  68.277  1.00  0.00    -0.095 C  
BRANCH   8   9
HETATM    9  C   UNL     1      -7.749   5.870  69.563  1.00  0.00    -0.097 C  
BRANCH   9  10
HETATM   10  C   UNL     1      -7.578   6.643  70.846  1.00  0.00    -0.089 A  
HETATM   11  C   UNL     1      -8.654   7.189  71.537  1.00  0.00    -0.115 A  
HETATM   12  C   UNL     1     -10.127   7.160  71.232  1.00  0.00    -0.196 C  
HETATM   13  C   UNL     1     -10.725   7.940  72.406  1.00  0.00    -0.305 C  
HETATM   14  N   UNL     1      -9.673   8.336  73.221  1.00  0.00    -0.159 N  
HETATM   15  O   UNL     1     -11.906   8.177  72.596  1.00  0.00    -0.395 OA 
HETATM   16  H   UNL     1      -9.783   8.875  74.080  1.00  0.00     0.000 HD 
HETATM   17  C   UNL     1      -8.455   7.905  72.719  1.00  0.00    -0.159 A  
HETATM   18  C   UNL     1      -7.210   8.117  73.267  1.00  0.00    -0.163 A  
HETATM   19  C   UNL     1      -6.118   7.588  72.583  1.00  0.00    -0.040 A  
HETATM   20  C   UNL     1      -6.298   6.865  71.388  1.00  0.00    -0.041 A  
ENDBRANCH   9  10
ENDBRANCH   8   9
ENDBRANCH   4   8
ENDBRANCH   3   4
ENDBRANCH   2   3
TORSDOF 7
ENDMDL
MODEL      352
REMARK 921   NORMALIZED FREE ENERGY PREDICTED BY IDOCK:   -1.88 KCAL/MOL
REMARK 922        TOTAL FREE ENERGY PREDICTED BY IDOCK:   -3.53 KCAL/MOL
REMARK 923 INTER-LIGAND FREE ENERGY PREDICTED BY IDOCK:   -2.92 KCAL/MOL
REMARK 924 INTRA-LIGAND FREE ENERGY PREDICTED BY IDOCK:   -0.61 KCAL/MOL
REMARK 927      BINDING AFFINITY PREDICTED BY RF-SCORE:    0.00 PKD
ROOT
HETATM    1  C   UNL     1      -9.836  20.309  66.732  1.00  0.00    -0.586 C  
HETATM    2  C   UNL     1     -10.296  18.930  67.177  1.00  0.00    -0.479 C  
ENDROOT
BRANCH   2   3
HETATM    3  C   UNL     1     -10.529  17.946  66.020  1.00  0.00    -0.293 C  
BRANCH   3   4
HETATM    4  N   UNL     1     -10.396  16.501  66.313  1.00  0.00    -0.319 NA 
BRANCH   4   5
HETATM    5  C   UNL     1     -10.494  15.695  65.077  1.00  0.00    -0.333 C  
BRANCH   5   6
HETATM    6  C   UNL     1     -11.188  14.327  65.213  1.00  0.00    -0.337 C  
HETATM    7  C   UNL     1     -10.242  13.146  65.054  1.00  0.00    -0.296 C  
ENDBRANCH   5   6
ENDBRANCH   4   5
BRANCH   4   8
HETATM    8  C   UNL     1      -9.107  16.245  67.006  1.00  0.00    -0.207 C  
BRANCH   8   9
HETATM    9  C   UNL     1      -9.182  15.929  68.518  1.00  0.00    -0.200 C  
BRANCH   9  10
HETATM   10  C   UNL     1      -7.992  15.187  69.070  1.00  0.00    -0.188 A  
HETATM   11  C   UNL     1      -7.981  13.806  69.229  1.00  0.00     0.363 A  
HETATM   12  C   UNL     1      -9.037  12.779  68.922  1.00  0.00     0.324 C  
HETATM   13  C   UNL     1      -8.356  11.470  69.326  1.00  0.00     0.337 C  
HETATM   14  N   UNL     1      -7.090  11.788  69.800  1.00  0.00    -0.335 N  
HETATM   15  O   UNL     1      -8.831  10.349  69.254  1.00  0.00    -0.166 OA 
HETATM   16  H   UNL     1      -6.415  11.104  70.140  1.00  0.00     0.000 HD 
HETATM   17  C   UNL     1      -6.862  13.154  69.751  1.00  0.00     0.245 A  
HETATM   18  C   UNL     1      -5.721  13.820  70.139  1.00  0.00    -0.133 A  
HETATM   19  C   UNL     1      -5.717  15.206  70.000  1.00  0.00    -0.129 A  
HETATM   20  C   UNL     1      -6.836  15.881  69.477  1.00  0.00    -0.192 A  
ENDBRANCH   9  10
ENDBRANCH   8   9
ENDBRANCH   4   8
ENDBRANCH   3   4
ENDBRANCH   2   3
TORSDOF 7
ENDMDL
MODEL      353
REMARK 921   NORMALIZED FREE ENERGY PREDICTED BY IDOCK:   -1.84 KCAL/MOL
REMARK 922        TOTAL FREE ENERGY PREDICTED BY IDOCK:   -3.47 KCAL/MOL
REMARK 923 INTER-LIGAND FREE ENERGY PREDICTED BY IDOCK:   -2.51 KCAL/MOL
REMARK 924 INTRA-LIGAND FREE ENERGY PREDICTED BY IDOCK:   -0.95 KCAL/MOL
REMARK 927      BINDING AFFINITY PREDICTED BY RF-SCORE:    0.00 PKD
ROOT
HETATM    1  C   UNL     1      -6.437   7.444  63.749  1.00  0.00    -0.052 C  
HETATM    2  C   UNL     1      -7.355   7.981  64.837  1.00  0.00    -0.084 C  
ENDROOT
BRANCH   2   3
HETATM    3  C   UNL     1      -6.959   7.548  66.257  1.00  0.00    -0.066 C  
BRANCH   3   4
HETATM    4  N   UNL     1      -7.979   6.845  67.067  1.00  0.00    -0.114 NA 
BRANCH   4   5
HETATM    5  C   UNL     1      -8.366   7.647  68.249  1.00  0.00    -0.125 C  
BRANCH   5   6
HETATM    6  C   UNL     1      -9.688   8.429  68.134  1.00  0.00    -0.175 C  
HETATM    7  C   UNL     1     -10.597   8.267  69.344  1.00  0.00    -0.203 C  
ENDBRANCH   5   6
ENDBRANCH   4   5
BRANCH   4   8
HETATM    8  C   UNL     1      -9.166   6.540  66.228  1.00  0.00    -0.133 C  
BRANCH   8   9
HETATM    9  C   UNL     1      -9.974   5.276  66.602  1.00  0.00    -0.227 C  
BRANCH   9  10
HETATM   10  C   UNL     1      -9.180   4.201  67.300  1.00  0.00    -0.178 A  
HETATM   11  C   UNL     1      -9.283   3.965  68.666  1.00  0.00    -0.211 A  
HETATM   12  C   UNL     1     -10.127   4.640  69.713  1.00  0.00    -0.243 C  
HETATM   13  C   UNL     1      -9.753   3.876  70.985  1.00  0.00    -0.182 C  
HETATM   14  N   UNL     1      -8.811   2.918  70.634  1.00  0.00    -0.077 N  
HETATM   15  O   UNL     1     -10.193   4.068  72.106  1.00  0.00    -0.182 OA 
HETATM   16  H   UNL     1      -8.384   2.264  71.290  1.00  0.00     0.000 HD 
HETATM   17  C   UNL     1      -8.526   2.965  69.278  1.00  0.00    -0.063 A  
HETATM   18  C   UNL     1      -7.643   2.165  68.588  1.00  0.00    -0.046 A  
HETATM   19  C   UNL     1      -7.517   2.393  67.220  1.00  0.00    -0.061 A  
HETATM   20  C   UNL     1      -8.270   3.399  66.585  1.00  0.00    -0.096 A  
ENDBRANCH   9  10
ENDBRANCH   8   9
ENDBRANCH   4   8
ENDBRANCH   3   4
ENDBRANCH   2   3
TORSDOF 7
ENDMDL
MODEL      354
REMARK 921   NORMALIZED FREE ENERGY PREDICTED BY IDOCK:   -1.61 KCAL/MOL
REMARK 922        TOTAL FREE ENERGY PREDICTED BY IDOCK:   -3.16 KCAL/MOL
REMARK 923 INTER-LIGAND FREE ENERGY PREDICTED BY IDOCK:   -3.55 KCAL/MOL
REMARK 924 INTRA-LIGAND FREE ENERGY PREDICTED BY IDOCK:    0.39 KCAL/MOL
REMARK 927      BINDING AFFINITY PREDICTED BY RF-SCORE:    0.00 PKD
ROOT
HETATM    1  C   UNL     1      -6.520   9.819  66.412  1.00  0.00    -0.071 C  
HETATM    2  C   UNL     1      -7.821  10.293  67.041  1.00  0.00    -0.107 C  
ENDROOT
BRANCH   2   3
HETATM    3  C   UNL     1      -8.040   9.789  68.476  1.00  0.00    -0.104 C  
BRANCH   3   4
HETATM    4  N   UNL     1      -9.260   8.996  68.744  1.00  0.00    -0.133 NA 
BRANCH   4   5
HETATM    5  C   UNL     1     -10.429   9.557  68.031  1.00  0.00    -0.230 C  
BRANCH   5   6
HETATM    6  C   UNL     1     -11.195  10.676  68.761  1.00  0.00    -0.337 C  
HETATM    7  C   UNL     1     -11.525  11.866  67.873  1.00  0.00    -0.385 C  
ENDBRANCH   5   6
ENDBRANCH   4   5
BRANCH   4   8
HETATM    8  C   UNL     1      -9.036   7.580  68.352  1.00  0.00    -0.133 C  
BRANCH   8   9
HETATM    9  C   UNL     1      -9.602   6.499  69.302  1.00  0.00    -0.143 C  
BRANCH   9  10
HETATM   10  C   UNL     1      -9.953   6.991  70.683  1.00  0.00    -0.194 A  
HETATM   11  C   UNL     1      -9.499   6.360  71.837  1.00  0.00    -0.157 A  
HETATM   12  C   UNL     1      -8.625   5.149  72.009  1.00  0.00    -0.130 C  
HETATM   13  C   UNL     1      -8.523   5.025  73.530  1.00  0.00    -0.106 C  
HETATM   14  N   UNL     1      -9.272   6.056  74.083  1.00  0.00    -0.129 N  
HETATM   15  O   UNL     1      -7.903   4.179  74.153  1.00  0.00    -0.085 OA 
HETATM   16  H   UNL     1      -9.381   6.214  75.085  1.00  0.00     0.000 HD 
HETATM   17  C   UNL     1      -9.852   6.841  73.100  1.00  0.00    -0.179 A  
HETATM   18  C   UNL     1     -10.656   7.943  73.284  1.00  0.00    -0.239 A  
HETATM   19  C   UNL     1     -11.130   8.581  72.140  1.00  0.00    -0.436 A  
HETATM   20  C   UNL     1     -10.788   8.110  70.858  1.00  0.00    -0.254 A  
ENDBRANCH   9  10
ENDBRANCH   8   9
ENDBRANCH   4   8
ENDBRANCH   3   4
ENDBRANCH   2   3
TORSDOF 7
ENDMDL
MODEL      355
REMARK 921   NORMALIZED FREE ENERGY PREDICTED BY IDOCK:   -1.43 KCAL/MOL
REMARK 922        TOTAL FREE ENERGY PREDICTED BY IDOCK:   -2.90 KCAL/MOL
REMARK 923 INTER-LIGAND FREE ENERGY PREDICTED BY IDOCK:   -2.47 KCAL/MOL
REMARK 924 INTRA-LIGAND FREE ENERGY PREDICTED BY IDOCK:   -0.43 KCAL/MOL
REMARK 927      BINDING AFFINITY PREDICTED BY RF-SCORE:    0.00 PKD
ROOT
HETATM    1  C   UNL     1     -11.005  14.750  64.274  1.00  0.00     0.135 C  
HETATM    2  C   UNL     1     -10.184  15.709  65.122  1.00  0.00    -0.297 C  
ENDROOT
BRANCH   2   3
HETATM    3  C   UNL     1      -9.340  15.019  66.205  1.00  0.00    -0.292 C  
BRANCH   3   4
HETATM    4  N   UNL     1      -9.395  15.578  67.574  1.00  0.00    -0.205 NA 
BRANCH   4   5
HETATM    5  C   UNL     1     -10.777  15.960  67.939  1.00  0.00    -0.312 C  
BRANCH   5   6
HETATM    6  C   UNL     1     -10.969  17.400  68.452  1.00  0.00    -0.118 C  
HETATM    7  C   UNL     1     -10.787  18.458  67.373  1.00  0.00    -0.306 C  
ENDBRANCH   5   6
ENDBRANCH   4   5
BRANCH   4   8
HETATM    8  C   UNL     1      -8.850  14.591  68.543  1.00  0.00    -0.182 C  
BRANCH   8   9
HETATM    9  C   UNL     1      -9.731  13.357  68.846  1.00  0.00     0.116 C  
BRANCH   9  10
HETATM   10  C   UNL     1      -9.373  12.117  68.066  1.00  0.00    -0.197 A  
HETATM   11  C   UNL     1     -10.107  11.690  66.965  1.00  0.00    -0.234 A  
HETATM   12  C   UNL     1     -11.324  12.284  66.312  1.00  0.00    -0.395 C  
HETATM   13  C   UNL     1     -11.589  11.316  65.158  1.00  0.00     0.296 C  
HETATM   14  N   UNL     1     -10.619  10.324  65.215  1.00  0.00    -0.040 N  
HETATM   15  O   UNL     1     -12.487  11.391  64.335  1.00  0.00     0.158 OA 
HETATM   16  H   UNL     1     -10.557   9.543  64.562  1.00  0.00     0.000 HD 
HETATM   17  C   UNL     1      -9.748  10.531  66.273  1.00  0.00    -0.205 A  
HETATM   18  C   UNL     1      -8.673   9.749  66.627  1.00  0.00    -0.142 A  
HETATM   19  C   UNL     1      -7.933  10.153  67.736  1.00  0.00    -0.102 A  
HETATM   20  C   UNL     1      -8.279  11.317  68.449  1.00  0.00    -0.149 A  
ENDBRANCH   9  10
ENDBRANCH   8   9
ENDBRANCH   4   8
ENDBRANCH   3   4
ENDBRANCH   2   3
TORSDOF 7
ENDMDL
MODEL      356
REMARK 921   NORMALIZED FREE ENERGY PREDICTED BY IDOCK:   -1.42 KCAL/MOL
REMARK 922        TOTAL FREE ENERGY PREDICTED BY IDOCK:   -2.88 KCAL/MOL
REMARK 923 INTER-LIGAND FREE ENERGY PREDICTED BY IDOCK:   -2.11 KCAL/MOL
REMARK 924 INTRA-LIGAND FREE ENERGY PREDICTED BY IDOCK:   -0.77 KCAL/MOL
REMARK 927      BINDING AFFINITY PREDICTED BY RF-SCORE:    0.00 PKD
ROOT
HETATM    1  C   UNL     1      -7.801   8.099  65.163  1.00  0.00    -0.118 C  
HETATM    2  C   UNL     1      -8.950   7.617  66.034  1.00  0.00    -0.178 C  
ENDROOT
BRANCH   2   3
HETATM    3  C   UNL     1      -8.581   6.455  66.969  1.00  0.00    -0.112 C  
BRANCH   3   4
HETATM    4  N   UNL     1      -9.455   5.261  66.954  1.00  0.00    -0.129 NA 
BRANCH   4   5
HETATM    5  C   UNL     1     -10.261   5.205  65.714  1.00  0.00    -0.053 C  
BRANCH   5   6
HETATM    6  C   UNL     1      -9.796   4.196  64.648  1.00  0.00    -0.184 C  
HETATM    7  C   UNL     1      -9.137   4.847  63.441  1.00  0.00     0.037 C  
ENDBRANCH   5   6
ENDBRANCH   4   5
BRANCH   4   8
HETATM    8  C   UNL     1      -8.632   4.033  67.101  1.00  0.00    -0.102 C  
BRANCH   8   9
HETATM    9  C   UNL     1      -9.262   2.867  67.898  1.00  0.00    -0.253 C  
BRANCH   9  10
HETATM   10  C   UNL     1      -8.723   2.690  69.295  1.00  0.00    -0.134 A  
HETATM   11  C   UNL     1      -9.241   3.378  70.386  1.00  0.00    -0.221 A  
HETATM   12  C   UNL     1     -10.363   4.376  70.470  1.00  0.00     0.074 C  
HETATM   13  C   UNL     1     -10.400   4.712  71.962  1.00  0.00    -0.164 C  
HETATM   14  N   UNL     1      -9.398   3.976  72.580  1.00  0.00    -0.117 N  
HETATM   15  O   UNL     1     -11.162   5.487  72.516  1.00  0.00    -0.264 OA 
HETATM   16  H   UNL     1      -9.194   4.006  73.578  1.00  0.00     0.000 HD 
HETATM   17  C   UNL     1      -8.710   3.194  71.665  1.00  0.00    -0.074 A  
HETATM   18  C   UNL     1      -7.660   2.342  71.925  1.00  0.00    -0.044 A  
HETATM   19  C   UNL     1      -7.119   1.653  70.842  1.00  0.00    -0.032 A  
HETATM   20  C   UNL     1      -7.639   1.827  69.545  1.00  0.00    -0.042 A  
ENDBRANCH   9  10
ENDBRANCH   8   9
ENDBRANCH   4   8
ENDBRANCH   3   4
ENDBRANCH   2   3
TORSDOF 7
ENDMDL
MODEL      357
REMARK 921   NORMALIZED FREE ENERGY PREDICTED BY IDOCK:   -1.23 KCAL/MOL
REMARK 922        TOTAL FREE ENERGY PREDICTED BY IDOCK:   -2.61 KCAL/MOL
REMARK 923 INTER-LIGAND FREE ENERGY PREDICTED BY IDOCK:   -2.63 KCAL/MOL
REMARK 924 INTRA-LIGAND FREE ENERGY PREDICTED BY IDOCK:    0.02 KCAL/MOL
REMARK 927      BINDING AFFINITY PREDICTED BY RF-SCORE:    0.00 PKD
ROOT
HETATM    1  C   UNL     1     -10.036   5.210  66.141  1.00  0.00    -0.216 C  
HETATM    2  C   UNL     1      -9.374   3.943  65.622  1.00  0.00    -0.161 C  
ENDROOT
BRANCH   2   3
HETATM    3  C   UNL     1      -9.347   2.792  66.639  1.00  0.00    -0.029 C  
BRANCH   3   4
HETATM    4  N   UNL     1      -8.086   2.563  67.380  1.00  0.00    -0.069 NA 
BRANCH   4   5
HETATM    5  C   UNL     1      -6.910   2.920  66.556  1.00  0.00    -0.052 C  
BRANCH   5   6
HETATM    6  C   UNL     1      -6.301   1.783  65.714  1.00  0.00    -0.023 C  
HETATM    7  C   UNL     1      -6.592   1.905  64.226  1.00  0.00    -0.023 C  
ENDBRANCH   5   6
ENDBRANCH   4   5
BRANCH   4   8
HETATM    8  C   UNL     1      -8.097   3.342  68.645  1.00  0.00    -0.061 C  
BRANCH   8   9
HETATM    9  C   UNL     1      -8.010   2.533  69.960  1.00  0.00    -0.053 C  
BRANCH   9  10
HETATM   10  C   UNL     1      -8.931   3.005  71.056  1.00  0.00    -0.165 A  
HETATM   11  C   UNL     1      -9.336   4.330  71.172  1.00  0.00    -0.218 A  
HETATM   12  C   UNL     1      -9.007   5.529  70.326  1.00  0.00    -0.155 C  
HETATM   13  C   UNL     1      -9.795   6.647  71.012  1.00  0.00    -0.182 C  
HETATM   14  N   UNL     1     -10.450   6.087  72.101  1.00  0.00    -0.201 N  
HETATM   15  O   UNL     1      -9.841   7.819  70.676  1.00  0.00    -0.181 OA 
HETATM   16  H   UNL     1     -11.050   6.607  72.741  1.00  0.00     0.000 HD 
HETATM   17  C   UNL     1     -10.184   4.731  72.206  1.00  0.00    -0.191 A  
HETATM   18  C   UNL     1     -10.664   3.863  73.161  1.00  0.00    -0.270 A  
HETATM   19  C   UNL     1     -10.260   2.533  73.069  1.00  0.00    -0.219 A  
HETATM   20  C   UNL     1      -9.403   2.110  72.035  1.00  0.00    -0.162 A  
ENDBRANCH   9  10
ENDBRANCH   8   9
ENDBRANCH   4   8
ENDBRANCH   3   4
ENDBRANCH   2   3
TORSDOF 7
ENDMDL
MODEL      358
REMARK 921   NORMALIZED FREE ENERGY PREDICTED BY IDOCK:   -0.76 KCAL/MOL
REMARK 922        TOTAL FREE ENERGY PREDICTED BY IDOCK:   -1.96 KCAL/MOL
REMARK 923 INTER-LIGAND FREE ENERGY PREDICTED BY IDOCK:   -2.80 KCAL/MOL
REMARK 924 INTRA-LIGAND FREE ENERGY PREDICTED BY IDOCK:    0.84 KCAL/MOL
REMARK 927      BINDING AFFINITY PREDICTED BY RF-SCORE:    0.00 PKD
ROOT
HETATM    1  C   UNL     1     -10.369  12.477  64.092  1.00  0.00    -0.416 C  
HETATM    2  C   UNL     1     -10.585  13.195  65.415  1.00  0.00    -0.311 C  
ENDROOT
BRANCH   2   3
HETATM    3  C   UNL     1     -10.160  12.379  66.645  1.00  0.00    -0.221 C  
BRANCH   3   4
HETATM    4  N   UNL     1     -10.439  12.957  67.979  1.00  0.00    -0.224 NA 
BRANCH   4   5
HETATM    5  C   UNL     1     -11.615  13.854  67.937  1.00  0.00    -0.342 C  
BRANCH   5   6
HETATM    6  C   UNL     1     -11.359  15.282  67.418  1.00  0.00    -0.285 C  
HETATM    7  C   UNL     1     -10.543  16.139  68.374  1.00  0.00    -0.286 C  
ENDBRANCH   5   6
ENDBRANCH   4   5
BRANCH   4   8
HETATM    8  C   UNL     1     -10.647  11.866  68.967  1.00  0.00    -0.115 C  
BRANCH   8   9
HETATM    9  C   UNL     1      -9.504  10.834  69.112  1.00  0.00    -0.151 C  
BRANCH   9  10
HETATM   10  C   UNL     1      -8.149  11.324  68.667  1.00  0.00    -0.145 A  
HETATM   11  C   UNL     1      -7.551  10.894  67.488  1.00  0.00    -0.101 A  
HETATM   12  C   UNL     1      -8.037   9.931  66.440  1.00  0.00    -0.118 C  
HETATM   13  C   UNL     1      -6.892   9.937  65.425  1.00  0.00    -0.112 C  
HETATM   14  N   UNL     1      -5.916  10.802  65.904  1.00  0.00    -0.142 N  
HETATM   15  O   UNL     1      -6.835   9.300  64.387  1.00  0.00    -0.083 OA 
HETATM   16  H   UNL     1      -5.037  10.997  65.425  1.00  0.00     0.000 HD 
HETATM   17  C   UNL     1      -6.290  11.364  67.114  1.00  0.00    -0.109 A  
HETATM   18  C   UNL     1      -5.569  12.261  67.870  1.00  0.00    -0.075 A  
HETATM   19  C   UNL     1      -6.147  12.694  69.061  1.00  0.00    -0.085 A  
HETATM   20  C   UNL     1      -7.416  12.229  69.458  1.00  0.00     0.523 A  
ENDBRANCH   9  10
ENDBRANCH   8   9
ENDBRANCH   4   8
ENDBRANCH   3   4
ENDBRANCH   2   3
TORSDOF 7
ENDMDL
MODEL      359
REMARK 921   NORMALIZED FREE ENERGY PREDICTED BY IDOCK:   -0.50 KCAL/MOL
REMARK 922        TOTAL FREE ENERGY PREDICTED BY IDOCK:   -1.58 KCAL/MOL
REMARK 923 INTER-LIGAND FREE ENERGY PREDICTED BY IDOCK:   -1.35 KCAL/MOL
REMARK 924 INTRA-LIGAND FREE ENERGY PREDICTED BY IDOCK:   -0.24 KCAL/MOL
REMARK 927      BINDING AFFINITY PREDICTED BY RF-SCORE:    0.00 PKD
ROOT
HETATM    1  C   UNL     1     -12.380  14.242  70.524  1.00  0.00    -0.430 C  
HETATM    2  C   UNL     1     -12.060  15.418  69.615  1.00  0.00    -0.354 C  
ENDROOT
BRANCH   2   3
HETATM    3  C   UNL     1     -10.601  15.892  69.697  1.00  0.00    -0.301 C  
BRANCH   3   4
HETATM    4  N   UNL     1      -9.824  15.936  68.438  1.00  0.00    -0.211 NA 
BRANCH   4   5
HETATM    5  C   UNL     1     -10.716  15.877  67.259  1.00  0.00    -0.306 C  
BRANCH   5   6
HETATM    6  C   UNL     1     -10.992  14.473  66.688  1.00  0.00    -0.321 C  
HETATM    7  C   UNL     1     -11.783  14.490  65.388  1.00  0.00    -0.354 C  
ENDBRANCH   5   6
ENDBRANCH   4   5
BRANCH   4   8
HETATM    8  C   UNL     1      -8.990  17.166  68.404  1.00  0.00    -0.259 C  
BRANCH   8   9
HETATM    9  C   UNL     1      -7.458  16.966  68.437  1.00  0.00    -0.206 C  
BRANCH   9  10
HETATM   10  C   UNL     1      -6.962  16.045  69.522  1.00  0.00    -0.191 A  
HETATM   11  C   UNL     1      -6.963  14.662  69.385  1.00  0.00    -0.163 A  
HETATM   12  C   UNL     1      -7.405  13.794  68.239  1.00  0.00    -0.118 C  
HETATM   13  C   UNL     1      -7.117  12.384  68.758  1.00  0.00    -0.098 C  
HETATM   14  N   UNL     1      -6.593  12.510  70.038  1.00  0.00    -0.357 N  
HETATM   15  O   UNL     1      -7.313  11.335  68.167  1.00  0.00    -0.081 OA 
HETATM   16  H   UNL     1      -6.311  11.725  70.624  1.00  0.00     0.000 HD 
HETATM   17  C   UNL     1      -6.502  13.840  70.416  1.00  0.00     0.086 A  
HETATM   18  C   UNL     1      -6.031  14.333  71.613  1.00  0.00    -0.020 A  
HETATM   19  C   UNL     1      -6.033  15.716  71.774  1.00  0.00     1.042 A  
HETATM   20  C   UNL     1      -6.496  16.561  70.747  1.00  0.00     1.295 A  
ENDBRANCH   9  10
ENDBRANCH   8   9
ENDBRANCH   4   8
ENDBRANCH   3   4
ENDBRANCH   2   3
TORSDOF 7
ENDMDL
MODEL      360
REMARK 921   NORMALIZED FREE ENERGY PREDICTED BY IDOCK:    2.22 KCAL/MOL
REMARK 922        TOTAL FREE ENERGY PREDICTED BY IDOCK:    2.24 KCAL/MOL
REMARK 923 INTER-LIGAND FREE ENERGY PREDICTED BY IDOCK:    1.11 KCAL/MOL
REMARK 924 INTRA-LIGAND FREE ENERGY PREDICTED BY IDOCK:    1.14 KCAL/MOL
REMARK 927      BINDING AFFINITY PREDICTED BY RF-SCORE:    0.00 PKD
ROOT
HETATM    1  C   UNL     1     -11.371  11.732  65.055  1.00  0.00    -0.288 C  
HETATM    2  C   UNL     1      -9.885  11.616  64.753  1.00  0.00    -0.261 C  
ENDROOT
BRANCH   2   3
HETATM    3  C   UNL     1      -9.173  10.502  65.536  1.00  0.00    -0.188 C  
BRANCH   3   4
HETATM    4  N   UNL     1      -7.693  10.487  65.512  1.00  0.00    -0.149 NA 
BRANCH   4   5
HETATM    5  C   UNL     1      -7.186   9.805  64.301  1.00  0.00    -0.129 C  
BRANCH   5   6
HETATM    6  C   UNL     1      -6.638  10.719  63.189  1.00  0.00     0.164 C  
HETATM    7  C   UNL     1      -5.232  11.232  63.462  1.00  0.00     0.528 C  
ENDBRANCH   5   6
ENDBRANCH   4   5
BRANCH   4   8
HETATM    8  C   UNL     1      -7.175  11.878  65.588  1.00  0.00     1.600 C  
BRANCH   8   9
HETATM    9  C   UNL     1      -7.150  12.534  66.988  1.00  0.00     0.031 C  
BRANCH   9  10
HETATM   10  C   UNL     1      -6.856  11.588  68.125  1.00  0.00    -0.068 A  
HETATM   11  C   UNL     1      -6.484  12.034  69.389  1.00  0.00    -0.115 A  
HETATM   12  C   UNL     1      -6.295  13.430  69.916  1.00  0.00    -0.060 C  
HETATM   13  C   UNL     1      -5.899  13.184  71.374  1.00  0.00     0.250 C  
HETATM   14  N   UNL     1      -5.876  11.810  71.573  1.00  0.00     0.394 N  
HETATM   15  O   UNL     1      -5.645  14.033  72.213  1.00  0.00    -0.294 OA 
HETATM   16  H   UNL     1      -5.641  11.362  72.459  1.00  0.00     0.000 HD 
HETATM   17  C   UNL     1      -6.213  11.127  70.415  1.00  0.00    -0.094 A  
HETATM   18  C   UNL     1      -6.290   9.762  70.250  1.00  0.00    -0.085 A  
HETATM   19  C   UNL     1      -6.650   9.296  68.988  1.00  0.00    -0.047 A  
HETATM   20  C   UNL     1      -6.925  10.195  67.939  1.00  0.00    -0.083 A  
ENDBRANCH   9  10
ENDBRANCH   8   9
ENDBRANCH   4   8
ENDBRANCH   3   4
ENDBRANCH   2   3
TORSDOF 7
ENDMDL
MODEL      361
REMARK 921   NORMALIZED FREE ENERGY PREDICTED BY IDOCK:    3.04 KCAL/MOL
REMARK 922        TOTAL FREE ENERGY PREDICTED BY IDOCK:    3.40 KCAL/MOL
REMARK 923 INTER-LIGAND FREE ENERGY PREDICTED BY IDOCK:    1.78 KCAL/MOL
REMARK 924 INTRA-LIGAND FREE ENERGY PREDICTED BY IDOCK:    1.62 KCAL/MOL
REMARK 927      BINDING AFFINITY PREDICTED BY RF-SCORE:    0.00 PKD
ROOT
HETATM    1  C   UNL     1      -6.778   9.046  63.273  1.00  0.00    -0.090 C  
HETATM    2  C   UNL     1      -7.179   9.220  64.729  1.00  0.00    -0.103 C  
ENDROOT
BRANCH   2   3
HETATM    3  C   UNL     1      -8.468  10.032  64.929  1.00  0.00    -0.166 C  
BRANCH   3   4
HETATM    4  N   UNL     1      -8.329  11.441  65.361  1.00  0.00     0.191 NA 
BRANCH   4   5
HETATM    5  C   UNL     1      -9.292  12.313  64.653  1.00  0.00     0.388 C  
BRANCH   5   6
HETATM    6  C   UNL     1     -10.469  11.601  63.960  1.00  0.00    -0.418 C  
HETATM    7  C   UNL     1     -11.314  10.762  64.907  1.00  0.00     0.649 C  
ENDBRANCH   5   6
ENDBRANCH   4   5
BRANCH   4   8
HETATM    8  C   UNL     1      -8.515  11.537  66.832  1.00  0.00    -0.165 C  
BRANCH   8   9
HETATM    9  C   UNL     1      -9.942  11.277  67.369  1.00  0.00    -0.206 C  
BRANCH   9  10
HETATM   10  C   UNL     1     -10.006  10.844  68.812  1.00  0.00    -0.203 A  
HETATM   11  C   UNL     1      -8.874  10.481  69.533  1.00  0.00    -0.043 A  
HETATM   12  C   UNL     1      -7.428  10.428  69.121  1.00  0.00    -0.112 C  
HETATM   13  C   UNL     1      -6.734   9.959  70.402  1.00  0.00    -0.136 C  
HETATM   14  N   UNL     1      -7.717   9.780  71.366  1.00  0.00     0.566 N  
HETATM   15  O   UNL     1      -5.539   9.771  70.556  1.00  0.00    -0.041 OA 
HETATM   16  H   UNL     1      -7.535   9.468  72.320  1.00  0.00     0.000 HD 
HETATM   17  C   UNL     1      -8.974  10.078  70.867  1.00  0.00     1.046 A  
HETATM   18  C   UNL     1     -10.172  10.012  71.541  1.00  0.00     1.270 A  
HETATM   19  C   UNL     1     -11.320  10.361  70.832  1.00  0.00    -0.307 A  
HETATM   20  C   UNL     1     -11.239  10.767  69.486  1.00  0.00    -0.342 A  
ENDBRANCH   9  10
ENDBRANCH   8   9
ENDBRANCH   4   8
ENDBRANCH   3   4
ENDBRANCH   2   3
TORSDOF 7
ENDMDL
MODEL      362
REMARK 921   NORMALIZED FREE ENERGY PREDICTED BY IDOCK:    4.61 KCAL/MOL
REMARK 922        TOTAL FREE ENERGY PREDICTED BY IDOCK:    5.61 KCAL/MOL
REMARK 923 INTER-LIGAND FREE ENERGY PREDICTED BY IDOCK:    2.49 KCAL/MOL
REMARK 924 INTRA-LIGAND FREE ENERGY PREDICTED BY IDOCK:    3.12 KCAL/MOL
REMARK 927      BINDING AFFINITY PREDICTED BY RF-SCORE:    0.00 PKD
ROOT
HETATM    1  C   UNL     1     -10.015  13.607  69.564  1.00  0.00     0.689 C  
HETATM    2  C   UNL     1      -9.496  12.644  68.508  1.00  0.00    -0.094 C  
ENDROOT
BRANCH   2   3
HETATM    3  C   UNL     1      -9.600  13.178  67.071  1.00  0.00    -0.241 C  
BRANCH   3   4
HETATM    4  N   UNL     1     -10.891  13.769  66.652  1.00  0.00    -0.287 NA 
BRANCH   4   5
HETATM    5  C   UNL     1     -11.194  14.992  67.428  1.00  0.00    -0.335 C  
BRANCH   5   6
HETATM    6  C   UNL     1     -11.455  16.268  66.606  1.00  0.00     0.578 C  
HETATM    7  C   UNL     1     -10.194  16.869  66.002  1.00  0.00    -0.350 C  
ENDBRANCH   5   6
ENDBRANCH   4   5
BRANCH   4   8
HETATM    8  C   UNL     1     -10.861  14.064  65.196  1.00  0.00    -0.369 C  
BRANCH   8   9
HETATM    9  C   UNL     1     -10.395  12.920  64.266  1.00  0.00    -0.396 C  
BRANCH   9  10
HETATM   10  C   UNL     1     -10.000  11.649  64.974  1.00  0.00    -0.297 A  
HETATM   11  C   UNL     1      -8.681  11.357  65.301  1.00  0.00     0.136 A  
HETATM   12  C   UNL     1      -7.419  12.143  65.071  1.00  0.00     3.546 C  
HETATM   13  C   UNL     1      -6.348  11.243  65.689  1.00  0.00     0.366 C  
HETATM   14  N   UNL     1      -6.986  10.110  66.177  1.00  0.00    -0.106 N  
HETATM   15  O   UNL     1      -5.150  11.468  65.745  1.00  0.00    -0.314 OA 
HETATM   16  H   UNL     1      -6.510   9.337  66.642  1.00  0.00     0.000 HD 
HETATM   17  C   UNL     1      -8.352  10.165  65.951  1.00  0.00    -0.136 A  
HETATM   18  C   UNL     1      -9.290   9.218  66.299  1.00  0.00    -0.257 A  
HETATM   19  C   UNL     1     -10.616   9.488  65.969  1.00  0.00     0.194 A  
HETATM   20  C   UNL     1     -10.967  10.683  65.311  1.00  0.00     0.161 A  
ENDBRANCH   9  10
ENDBRANCH   8   9
ENDBRANCH   4   8
ENDBRANCH   3   4
ENDBRANCH   2   3
TORSDOF 7
ENDMDL
MODEL      363
REMARK 921   NORMALIZED FREE ENERGY PREDICTED BY IDOCK:   18.54 KCAL/MOL
REMARK 922        TOTAL FREE ENERGY PREDICTED BY IDOCK:   25.24 KCAL/MOL
REMARK 923 INTER-LIGAND FREE ENERGY PREDICTED BY IDOCK:   23.42 KCAL/MOL
REMARK 924 INTRA-LIGAND FREE ENERGY PREDICTED BY IDOCK:    1.82 KCAL/MOL
REMARK 927      BINDING AFFINITY PREDICTED BY RF-SCORE:    0.00 PKD
ROOT
HETATM    1  C   UNL     1     -11.142  15.229  71.282  1.00  0.00    -0.306 C  
HETATM    2  C   UNL     1     -10.935  16.723  71.092  1.00  0.00     0.637 C  
ENDROOT
BRANCH   2   3
HETATM    3  C   UNL     1     -11.176  17.209  69.654  1.00  0.00     0.640 C  
BRANCH   3   4
HETATM    4  N   UNL     1     -10.950  16.241  68.558  1.00  0.00    -0.329 NA 
BRANCH   4   5
HETATM    5  C   UNL     1     -12.080  16.243  67.603  1.00  0.00     1.058 C  
BRANCH   5   6
HETATM    6  C   UNL     1     -13.431  15.743  68.149  1.00  0.00     4.845 C  
HETATM    7  C   UNL     1     -13.952  14.504  67.438  1.00  0.00     8.891 C  
ENDBRANCH   5   6
ENDBRANCH   4   5
BRANCH   4   8
HETATM    8  C   UNL     1      -9.675  16.557  67.863  1.00  0.00    -0.236 C  
BRANCH   8   9
HETATM    9  C   UNL     1      -8.556  17.191  68.721  1.00  0.00    -0.236 C  
BRANCH   9  10
HETATM   10  C   UNL     1      -8.818  18.611  69.155  1.00  0.00     0.013 A  
HETATM   11  C   UNL     1      -7.927  19.326  69.947  1.00  0.00     0.665 A  
HETATM   12  C   UNL     1      -6.597  18.928  70.525  1.00  0.00     0.544 C  
HETATM   13  C   UNL     1      -6.167  20.192  71.272  1.00  0.00    -0.155 C  
HETATM   14  N   UNL     1      -7.171  21.136  71.106  1.00  0.00     2.220 N  
HETATM   15  O   UNL     1      -5.135  20.350  71.904  1.00  0.00    -0.355 OA 
HETATM   16  H   UNL     1      -7.148  22.076  71.501  1.00  0.00     0.000 HD 
HETATM   17  C   UNL     1      -8.209  20.638  70.335  1.00  0.00     2.370 A  
HETATM   18  C   UNL     1      -9.363  21.296  69.971  1.00  0.00     3.477 A  
HETATM   19  C   UNL     1     -10.274  20.592  69.187  1.00  0.00     0.191 A  
HETATM   20  C   UNL     1     -10.009  19.267  68.788  1.00  0.00    -0.511 A  
ENDBRANCH   9  10
ENDBRANCH   8   9
ENDBRANCH   4   8
ENDBRANCH   3   4
ENDBRANCH   2   3
TORSDOF 7
ENDMDL
MODEL      364
REMARK 921   NORMALIZED FREE ENERGY PREDICTED BY IDOCK:   30.21 KCAL/MOL
REMARK 922        TOTAL FREE ENERGY PREDICTED BY IDOCK:   41.69 KCAL/MOL
REMARK 923 INTER-LIGAND FREE ENERGY PREDICTED BY IDOCK:   38.25 KCAL/MOL
REMARK 924 INTRA-LIGAND FREE ENERGY PREDICTED BY IDOCK:    3.44 KCAL/MOL
REMARK 927      BINDING AFFINITY PREDICTED BY RF-SCORE:    0.00 PKD
ROOT
HETATM    1  C   UNL     1     -11.158  15.235  71.308  1.00  0.00    -0.306 C  
HETATM    2  C   UNL     1     -10.958  16.742  71.303  1.00  0.00     0.729 C  
ENDROOT
BRANCH   2   3
HETATM    3  C   UNL     1     -11.129  17.390  69.921  1.00  0.00     1.005 C  
BRANCH   3   4
HETATM    4  N   UNL     1     -12.322  17.013  69.130  1.00  0.00     1.723 NA 
BRANCH   4   5
HETATM    5  C   UNL     1     -12.934  18.199  68.490  1.00  0.00     8.921 C  
BRANCH   5   6
HETATM    6  C   UNL     1     -14.059  17.917  67.476  1.00  0.00    10.347 C  
HETATM    7  C   UNL     1     -13.740  18.392  66.067  1.00  0.00    16.382 C  
ENDBRANCH   5   6
ENDBRANCH   4   5
BRANCH   4   8
HETATM    8  C   UNL     1     -11.950  15.999  68.110  1.00  0.00     0.263 C  
BRANCH   8   9
HETATM    9  C   UNL     1     -10.837  14.999  68.499  1.00  0.00    -0.250 C  
BRANCH   9  10
HETATM   10  C   UNL     1      -9.462  15.603  68.633  1.00  0.00    -0.204 A  
HETATM   11  C   UNL     1      -8.360  14.865  69.050  1.00  0.00    -0.175 A  
HETATM   12  C   UNL     1      -8.245  13.416  69.438  1.00  0.00     0.830 C  
HETATM   13  C   UNL     1      -6.758  13.278  69.773  1.00  0.00     0.131 C  
HETATM   14  N   UNL     1      -6.173  14.524  69.588  1.00  0.00    -0.123 N  
HETATM   15  O   UNL     1      -6.185  12.266  70.140  1.00  0.00    -0.138 OA 
HETATM   16  H   UNL     1      -5.184  14.723  69.742  1.00  0.00     0.000 HD 
HETATM   17  C   UNL     1      -7.103  15.461  69.169  1.00  0.00    -0.161 A  
HETATM   18  C   UNL     1      -6.875  16.790  68.891  1.00  0.00    -0.198 A  
HETATM   19  C   UNL     1      -7.969  17.550  68.483  1.00  0.00    -0.271 A  
HETATM   20  C   UNL     1      -9.245  16.967  68.359  1.00  0.00    -0.253 A  
ENDBRANCH   9  10
ENDBRANCH   8   9
ENDBRANCH   4   8
ENDBRANCH   3   4
ENDBRANCH   2   3
TORSDOF 7
ENDMDL
