MODEL        1
REMARK 921   NORMALIZED FREE ENERGY PREDICTED BY IDOCK:   -8.00 KCAL/MOL
REMARK 922        TOTAL FREE ENERGY PREDICTED BY IDOCK:   -9.17 KCAL/MOL
REMARK 923 INTER-LIGAND FREE ENERGY PREDICTED BY IDOCK:   -8.46 KCAL/MOL
REMARK 924 INTRA-LIGAND FREE ENERGY PREDICTED BY IDOCK:   -0.70 KCAL/MOL
REMARK 927      BINDING AFFINITY PREDICTED BY RF-SCORE:    0.00 PKD
ROOT
HETATM    1  O   UNL     1     -13.243  14.585  65.828  1.00  0.00    -0.209 OA 
HETATM    2  C   UNL     1     -12.222  13.706  65.922  1.00  0.00    -0.461 C  
HETATM    3  O   UNL     1     -12.382  12.511  65.753  1.00  0.00    -0.627 OA 
HETATM    4  C   UNL     1     -10.925  14.287  66.361  1.00  0.00    -0.311 A  
HETATM    5  C   UNL     1     -10.426  15.474  65.782  1.00  0.00    -0.361 A  
HETATM    6 CL   UNL     1     -11.324  16.295  64.534  1.00  0.00    -0.371 Cl 
HETATM    7  C   UNL     1      -9.183  15.997  66.192  1.00  0.00    -0.352 A  
HETATM    8 CL   UNL     1      -8.573  17.460  65.465  1.00  0.00     0.574 Cl 
HETATM    9  C   UNL     1      -8.437  15.347  67.188  1.00  0.00    -0.214 A  
HETATM   10  C   UNL     1      -8.931  14.165  67.775  1.00  0.00    -0.187 A  
HETATM   11 CL   UNL     1      -6.896  15.989  67.683  1.00  0.00    -0.165 Cl 
HETATM   12  C   UNL     1     -10.161  13.601  67.353  1.00  0.00    -0.241 A  
HETATM   13 CL   UNL     1      -8.034  13.396  69.059  1.00  0.00     0.132 Cl 
ENDROOT
BRANCH  12  14
HETATM   14  C   UNL     1     -10.593  12.274  67.931  1.00  0.00    -0.232 A  
HETATM   15  C   UNL     1     -11.255  12.197  69.120  1.00  0.00    -0.303 A  
HETATM   16  C   UNL     1     -11.562  13.386  69.916  1.00  0.00    -0.270 C  
HETATM   17  C   UNL     1     -12.391  13.340  70.972  1.00  0.00    -0.291 C  
HETATM   18  C   UNL     1     -13.013  12.041  71.388  1.00  0.00    -0.262 C  
HETATM   19  I   UNL     1     -12.818  15.036  72.057  1.00  0.00    -0.577 I  
HETATM   20  C   UNL     1     -12.484  10.802  70.734  1.00  0.00    -0.387 C  
HETATM   21  O   UNL     1     -13.891  11.998  72.245  1.00  0.00    -0.189 OA 
HETATM   22  I   UNL     1     -13.088   8.977  71.529  1.00  0.00    -0.345 I  
HETATM   23  C   UNL     1     -11.650  10.894  69.680  1.00  0.00    -0.322 A  
HETATM   24  O   UNL     1     -11.129   9.736  69.127  1.00  0.00    -0.204 OA 
HETATM   25  C   UNL     1     -10.497   9.769  67.915  1.00  0.00    -0.239 A  
HETATM   26  C   UNL     1     -10.098   8.541  67.356  1.00  0.00    -0.234 A  
HETATM   27  C   UNL     1      -9.441   8.513  66.123  1.00  0.00    -0.217 A  
HETATM   28  I   UNL     1     -10.482   6.725  68.368  1.00  0.00    -0.302 I  
HETATM   29  C   UNL     1      -9.227   9.710  65.440  1.00  0.00    -0.238 A  
HETATM   30  O   UNL     1      -9.000   7.338  65.579  1.00  0.00    -0.370 OA 
HETATM   31  H   UNL     1      -8.553   7.319  64.741  1.00  0.00     0.000 HD 
HETATM   32  I   UNL     1      -8.262   9.761  63.581  1.00  0.00    -0.205 I  
HETATM   33  C   UNL     1      -9.637  10.929  65.997  1.00  0.00    -0.248 A  
HETATM   34  C   UNL     1     -10.252  10.978  67.260  1.00  0.00    -0.234 A  
ENDBRANCH  12  14
TORSDOF 1
ENDMDL
MODEL        2
REMARK 921   NORMALIZED FREE ENERGY PREDICTED BY IDOCK:   -7.85 KCAL/MOL
REMARK 922        TOTAL FREE ENERGY PREDICTED BY IDOCK:   -9.01 KCAL/MOL
REMARK 923 INTER-LIGAND FREE ENERGY PREDICTED BY IDOCK:   -8.04 KCAL/MOL
REMARK 924 INTRA-LIGAND FREE ENERGY PREDICTED BY IDOCK:   -0.97 KCAL/MOL
REMARK 927      BINDING AFFINITY PREDICTED BY RF-SCORE:    0.00 PKD
ROOT
HETATM    1  O   UNL     1      -6.180  13.173  67.674  1.00  0.00    -0.143 OA 
HETATM    2  C   UNL     1      -7.406  13.358  68.211  1.00  0.00    -0.113 C  
HETATM    3  O   UNL     1      -7.779  12.744  69.194  1.00  0.00     0.122 OA 
HETATM    4  C   UNL     1      -8.300  14.269  67.448  1.00  0.00    -0.212 A  
HETATM    5  C   UNL     1      -7.838  15.518  66.979  1.00  0.00    -0.225 A  
HETATM    6 CL   UNL     1      -6.198  16.023  67.279  1.00  0.00    -0.192 Cl 
HETATM    7  C   UNL     1      -8.706  16.380  66.279  1.00  0.00    -0.334 A  
HETATM    8 CL   UNL     1      -8.126  17.923  65.709  1.00  0.00     0.007 Cl 
HETATM    9  C   UNL     1     -10.035  15.998  66.034  1.00  0.00    -0.339 A  
HETATM   10  C   UNL     1     -10.502  14.751  66.494  1.00  0.00    -0.291 A  
HETATM   11 CL   UNL     1     -11.108  17.071  65.181  1.00  0.00    -0.094 Cl 
HETATM   12  C   UNL     1      -9.658  13.884  67.231  1.00  0.00    -0.243 A  
HETATM   13 CL   UNL     1     -12.134  14.251  66.131  1.00  0.00    -0.430 Cl 
ENDROOT
BRANCH  12  14
HETATM   14  C   UNL     1     -10.237  12.609  67.801  1.00  0.00    -0.222 A  
HETATM   15  C   UNL     1     -10.914  12.602  68.983  1.00  0.00    -0.240 A  
HETATM   16  C   UNL     1     -11.097  13.815  69.781  1.00  0.00    -0.025 C  
HETATM   17  C   UNL     1     -11.935  13.857  70.830  1.00  0.00    -0.231 C  
HETATM   18  C   UNL     1     -12.699  12.632  71.236  1.00  0.00    -0.257 C  
HETATM   19  I   UNL     1     -12.185  15.587  71.917  1.00  0.00    -0.667 I  
HETATM   20  C   UNL     1     -12.302  11.344  70.582  1.00  0.00    -0.373 C  
HETATM   21  O   UNL     1     -13.583  12.683  72.086  1.00  0.00    -0.517 OA 
HETATM   22  I   UNL     1     -13.107   9.594  71.365  1.00  0.00    -0.407 I  
HETATM   23  C   UNL     1     -11.453  11.348  69.536  1.00  0.00    -0.312 A  
HETATM   24  O   UNL     1     -11.057  10.142  68.982  1.00  0.00    -0.223 OA 
HETATM   25  C   UNL     1     -10.414  10.109  67.776  1.00  0.00    -0.232 A  
HETATM   26  C   UNL     1     -10.146   8.847  67.216  1.00  0.00    -0.239 A  
HETATM   27  C   UNL     1      -9.486   8.751  65.989  1.00  0.00    -0.233 A  
HETATM   28  I   UNL     1     -10.735   7.081  68.218  1.00  0.00    -0.146 I  
HETATM   29  C   UNL     1      -9.136   9.920  65.311  1.00  0.00    -0.211 A  
HETATM   30  O   UNL     1      -9.170   7.536  65.444  1.00  0.00    -0.370 OA 
HETATM   31  H   UNL     1      -8.720   7.471  64.609  1.00  0.00     0.000 HD 
HETATM   32  I   UNL     1      -8.155   9.870  63.461  1.00  0.00    -0.188 I  
HETATM   33  C   UNL     1      -9.417  11.174  65.870  1.00  0.00    -0.241 A  
HETATM   34  C   UNL     1     -10.033  11.287  67.127  1.00  0.00    -0.219 A  
ENDBRANCH  12  14
TORSDOF 1
ENDMDL
MODEL        3
REMARK 921   NORMALIZED FREE ENERGY PREDICTED BY IDOCK:   -7.71 KCAL/MOL
REMARK 922        TOTAL FREE ENERGY PREDICTED BY IDOCK:   -8.86 KCAL/MOL
REMARK 923 INTER-LIGAND FREE ENERGY PREDICTED BY IDOCK:   -7.90 KCAL/MOL
REMARK 924 INTRA-LIGAND FREE ENERGY PREDICTED BY IDOCK:   -0.96 KCAL/MOL
REMARK 927      BINDING AFFINITY PREDICTED BY RF-SCORE:    0.00 PKD
ROOT
HETATM    1  O   UNL     1     -13.012  14.342  66.259  1.00  0.00    -0.136 OA 
HETATM    2  C   UNL     1     -12.011  13.443  66.384  1.00  0.00    -0.406 C  
HETATM    3  O   UNL     1     -12.205  12.245  66.297  1.00  0.00    -0.628 OA 
HETATM    4  C   UNL     1     -10.689  14.016  66.752  1.00  0.00    -0.285 A  
HETATM    5  C   UNL     1     -10.176  15.150  66.085  1.00  0.00    -0.295 A  
HETATM    6 CL   UNL     1     -11.086  15.913  64.809  1.00  0.00    -0.454 Cl 
HETATM    7  C   UNL     1      -8.910  15.666  66.428  1.00  0.00    -0.330 A  
HETATM    8 CL   UNL     1      -8.284  17.063  65.593  1.00  0.00     0.291 Cl 
HETATM    9  C   UNL     1      -8.154  15.061  67.446  1.00  0.00    -0.193 A  
HETATM   10  C   UNL     1      -8.661  13.933  68.120  1.00  0.00    -0.182 A  
HETATM   11 CL   UNL     1      -6.584  15.692  67.859  1.00  0.00    -0.152 Cl 
HETATM   12  C   UNL     1      -9.915  13.376  67.767  1.00  0.00    -0.233 A  
HETATM   13 CL   UNL     1      -7.749  13.225  69.428  1.00  0.00     0.425 Cl 
ENDROOT
BRANCH  12  14
HETATM   14  C   UNL     1     -10.364  12.100  68.440  1.00  0.00    -0.236 A  
HETATM   15  C   UNL     1      -9.997  10.877  67.964  1.00  0.00    -0.188 A  
HETATM   16  C   UNL     1      -9.171  10.726  66.765  1.00  0.00    -0.174 C  
HETATM   17  C   UNL     1      -8.634   9.546  66.416  1.00  0.00    -0.134 C  
HETATM   18  C   UNL     1      -8.892   8.323  67.244  1.00  0.00    -0.130 C  
HETATM   19  I   UNL     1      -7.460   9.373  64.734  1.00  0.00    -0.126 I  
HETATM   20  C   UNL     1      -9.944   8.439  68.305  1.00  0.00    -0.187 C  
HETATM   21  O   UNL     1      -8.291   7.273  67.039  1.00  0.00    -0.115 OA 
HETATM   22  I   UNL     1     -10.554   6.681  69.234  1.00  0.00    -0.361 I  
HETATM   23  C   UNL     1     -10.461   9.642  68.620  1.00  0.00    -0.210 A  
HETATM   24  O   UNL     1     -11.471   9.719  69.563  1.00  0.00    -0.144 OA 
HETATM   25  C   UNL     1     -11.837  10.925  70.094  1.00  0.00    -0.353 A  
HETATM   26  C   UNL     1     -12.785  10.918  71.132  1.00  0.00    -0.429 A  
HETATM   27  C   UNL     1     -13.202  12.121  71.708  1.00  0.00    -0.320 A  
HETATM   28  I   UNL     1     -13.595   9.096  71.835  1.00  0.00    -0.494 I  
HETATM   29  C   UNL     1     -12.635  13.317  71.270  1.00  0.00    -0.308 A  
HETATM   30  O   UNL     1     -14.159  12.147  72.687  1.00  0.00    -0.302 OA 
HETATM   31  H   UNL     1     -14.442  12.965  73.078  1.00  0.00     0.000 HD 
HETATM   32  I   UNL     1     -13.190  15.165  72.086  1.00  0.00    -0.673 I  
HETATM   33  C   UNL     1     -11.681  13.316  70.242  1.00  0.00    -0.217 A  
HETATM   34  C   UNL     1     -11.290  12.119  69.618  1.00  0.00    -0.223 A  
ENDBRANCH  12  14
TORSDOF 1
ENDMDL
MODEL        4
REMARK 921   NORMALIZED FREE ENERGY PREDICTED BY IDOCK:   -7.51 KCAL/MOL
REMARK 922        TOTAL FREE ENERGY PREDICTED BY IDOCK:   -8.66 KCAL/MOL
REMARK 923 INTER-LIGAND FREE ENERGY PREDICTED BY IDOCK:   -7.85 KCAL/MOL
REMARK 924 INTRA-LIGAND FREE ENERGY PREDICTED BY IDOCK:   -0.80 KCAL/MOL
REMARK 927      BINDING AFFINITY PREDICTED BY RF-SCORE:    0.00 PKD
ROOT
HETATM    1  O   UNL     1     -12.997  14.331  66.086  1.00  0.00    -0.219 OA 
HETATM    2  C   UNL     1     -12.023  13.397  66.151  1.00  0.00    -0.413 C  
HETATM    3  O   UNL     1     -12.243  12.219  65.939  1.00  0.00    -0.634 OA 
HETATM    4  C   UNL     1     -10.700  13.894  66.616  1.00  0.00    -0.281 A  
HETATM    5  C   UNL     1     -10.137  15.074  66.082  1.00  0.00    -0.294 A  
HETATM    6 CL   UNL     1     -10.985  15.985  64.862  1.00  0.00    -0.451 Cl 
HETATM    7  C   UNL     1      -8.872  15.517  66.516  1.00  0.00    -0.313 A  
HETATM    8 CL   UNL     1      -8.183  16.972  65.845  1.00  0.00    -0.158 Cl 
HETATM    9  C   UNL     1      -8.166  14.793  67.490  1.00  0.00    -0.185 A  
HETATM   10  C   UNL     1      -8.723  13.618  68.033  1.00  0.00    -0.176 A  
HETATM   11 CL   UNL     1      -6.596  15.336  68.014  1.00  0.00    -0.135 Cl 
HETATM   12  C   UNL     1      -9.978  13.134  67.585  1.00  0.00    -0.219 A  
HETATM   13 CL   UNL     1      -7.874  12.758  69.290  1.00  0.00     0.402 Cl 
ENDROOT
BRANCH  12  14
HETATM   14  C   UNL     1     -10.481  11.811  68.113  1.00  0.00    -0.221 A  
HETATM   15  C   UNL     1     -11.178  11.730  69.282  1.00  0.00    -0.318 A  
HETATM   16  C   UNL     1     -11.457  12.908  70.104  1.00  0.00     0.001 C  
HETATM   17  C   UNL     1     -12.315  12.868  71.136  1.00  0.00    -0.165 C  
HETATM   18  C   UNL     1     -13.003  11.586  71.498  1.00  0.00    -0.380 C  
HETATM   19  I   UNL     1     -12.701  14.551  72.257  1.00  0.00    -0.405 I  
HETATM   20  C   UNL     1     -12.509  10.344  70.821  1.00  0.00    -0.368 C  
HETATM   21  O   UNL     1     -13.905  11.557  72.330  1.00  0.00    -0.035 OA 
HETATM   22  I   UNL     1     -13.210   8.526  71.547  1.00  0.00    -0.226 I  
HETATM   23  C   UNL     1     -11.643  10.429  69.793  1.00  0.00    -0.269 A  
HETATM   24  O   UNL     1     -11.157   9.267  69.220  1.00  0.00    -0.147 OA 
HETATM   25  C   UNL     1     -10.490   9.306  68.027  1.00  0.00    -0.223 A  
HETATM   26  C   UNL     1     -10.128   8.078  67.444  1.00  0.00    -0.228 A  
HETATM   27  C   UNL     1      -9.440   8.056  66.228  1.00  0.00    -0.172 A  
HETATM   28  I   UNL     1     -10.617   6.253  68.392  1.00  0.00    -0.407 I  
HETATM   29  C   UNL     1      -9.157   9.262  65.585  1.00  0.00    -0.216 A  
HETATM   30  O   UNL     1      -9.033   6.879  65.662  1.00  0.00    -0.337 OA 
HETATM   31  H   UNL     1      -8.565   6.864  64.835  1.00  0.00     0.000 HD 
HETATM   32  I   UNL     1      -8.140   9.323  63.755  1.00  0.00    -0.187 I  
HETATM   33  C   UNL     1      -9.531  10.481  66.167  1.00  0.00    -0.222 A  
HETATM   34  C   UNL     1     -10.177  10.521  67.414  1.00  0.00    -0.253 A  
ENDBRANCH  12  14
TORSDOF 1
ENDMDL
MODEL        5
REMARK 921   NORMALIZED FREE ENERGY PREDICTED BY IDOCK:   -7.03 KCAL/MOL
REMARK 922        TOTAL FREE ENERGY PREDICTED BY IDOCK:   -8.14 KCAL/MOL
REMARK 923 INTER-LIGAND FREE ENERGY PREDICTED BY IDOCK:   -7.09 KCAL/MOL
REMARK 924 INTRA-LIGAND FREE ENERGY PREDICTED BY IDOCK:   -1.05 KCAL/MOL
REMARK 927      BINDING AFFINITY PREDICTED BY RF-SCORE:    0.00 PKD
ROOT
HETATM    1  O   UNL     1      -6.739  14.184  67.426  1.00  0.00    -0.252 OA 
HETATM    2  C   UNL     1      -7.959  13.840  67.893  1.00  0.00    -0.157 C  
HETATM    3  O   UNL     1      -8.102  13.217  68.928  1.00  0.00     0.022 OA 
HETATM    4  C   UNL     1      -9.096  14.172  66.994  1.00  0.00    -0.255 A  
HETATM    5  C   UNL     1      -9.203  15.445  66.394  1.00  0.00    -0.305 A  
HETATM    6 CL   UNL     1      -7.995  16.666  66.690  1.00  0.00    -0.283 Cl 
HETATM    7  C   UNL     1     -10.300  15.752  65.564  1.00  0.00    -0.404 A  
HETATM    8 CL   UNL     1     -10.425  17.330  64.833  1.00  0.00     0.388 Cl 
HETATM    9  C   UNL     1     -11.291  14.787  65.320  1.00  0.00    -0.363 A  
HETATM   10  C   UNL     1     -11.190  13.512  65.910  1.00  0.00    -0.300 A  
HETATM   11 CL   UNL     1     -12.653  15.173  64.305  1.00  0.00    -0.151 Cl 
HETATM   12  C   UNL     1     -10.114  13.194  66.776  1.00  0.00    -0.253 A  
HETATM   13 CL   UNL     1     -12.387  12.295  65.551  1.00  0.00    -0.278 Cl 
ENDROOT
BRANCH  12  14
HETATM   14  C   UNL     1     -10.109  11.854  67.474  1.00  0.00    -0.206 A  
HETATM   15  C   UNL     1      -9.479  10.773  66.935  1.00  0.00    -0.192 A  
HETATM   16  C   UNL     1      -8.795  10.837  65.642  1.00  0.00    -0.202 C  
HETATM   17  C   UNL     1      -7.999   9.846  65.208  1.00  0.00    -0.137 C  
HETATM   18  C   UNL     1      -7.808   8.612  66.038  1.00  0.00    -0.102 C  
HETATM   19  I   UNL     1      -7.035   9.980  63.394  1.00  0.00    -0.055 I  
HETATM   20  C   UNL     1      -8.715   8.450  67.219  1.00  0.00    -0.127 C  
HETATM   21  O   UNL     1      -6.970   7.766  65.742  1.00  0.00    -0.056 OA 
HETATM   22  I   UNL     1      -8.699   6.606  68.181  1.00  0.00    -0.112 I  
HETATM   23  C   UNL     1      -9.501   9.468  67.617  1.00  0.00    -0.131 A  
HETATM   24  O   UNL     1     -10.372   9.277  68.676  1.00  0.00    -0.195 OA 
HETATM   25  C   UNL     1     -10.989  10.343  69.270  1.00  0.00    -0.242 A  
HETATM   26  C   UNL     1     -11.767  10.090  70.415  1.00  0.00    -0.286 A  
HETATM   27  C   UNL     1     -12.426  11.139  71.060  1.00  0.00    -0.403 A  
HETATM   28  I   UNL     1     -11.951   8.126  71.175  1.00  0.00    -0.182 I  
HETATM   29  C   UNL     1     -12.268  12.439  70.579  1.00  0.00    -0.295 A  
HETATM   30  O   UNL     1     -13.227  10.915  72.146  1.00  0.00    -0.584 OA 
HETATM   31  H   UNL     1     -13.676  11.628  72.585  1.00  0.00     0.000 HD 
HETATM   32  I   UNL     1     -13.209  14.074  71.491  1.00  0.00    -0.401 I  
HETATM   33  C   UNL     1     -11.482  12.686  69.445  1.00  0.00    -0.330 A  
HETATM   34  C   UNL     1     -10.855  11.635  68.755  1.00  0.00    -0.262 A  
ENDBRANCH  12  14
TORSDOF 1
ENDMDL
MODEL        6
REMARK 921   NORMALIZED FREE ENERGY PREDICTED BY IDOCK:   -7.03 KCAL/MOL
REMARK 922        TOTAL FREE ENERGY PREDICTED BY IDOCK:   -8.14 KCAL/MOL
REMARK 923 INTER-LIGAND FREE ENERGY PREDICTED BY IDOCK:   -7.09 KCAL/MOL
REMARK 924 INTRA-LIGAND FREE ENERGY PREDICTED BY IDOCK:   -1.05 KCAL/MOL
REMARK 927      BINDING AFFINITY PREDICTED BY RF-SCORE:    0.00 PKD
ROOT
HETATM    1  O   UNL     1      -6.236  13.146  67.655  1.00  0.00    -0.143 OA 
HETATM    2  C   UNL     1      -7.480  13.245  68.172  1.00  0.00    -0.128 C  
HETATM    3  O   UNL     1      -7.821  12.618  69.158  1.00  0.00     0.165 OA 
HETATM    4  C   UNL     1      -8.428  14.076  67.382  1.00  0.00    -0.209 A  
HETATM    5  C   UNL     1      -8.055  15.349  66.901  1.00  0.00    -0.224 A  
HETATM    6 CL   UNL     1      -6.461  15.981  67.218  1.00  0.00    -0.215 Cl 
HETATM    7  C   UNL     1      -8.973  16.134  66.176  1.00  0.00    -0.337 A  
HETATM    8 CL   UNL     1      -8.502  17.709  65.592  1.00  0.00     0.286 Cl 
HETATM    9  C   UNL     1     -10.266  15.650  65.918  1.00  0.00    -0.351 A  
HETATM   10  C   UNL     1     -10.645  14.377  66.389  1.00  0.00    -0.297 A  
HETATM   11 CL   UNL     1     -11.404  16.627  65.034  1.00  0.00    -0.046 Cl 
HETATM   12  C   UNL     1      -9.750  13.586  67.151  1.00  0.00    -0.244 A  
HETATM   13 CL   UNL     1     -12.229  13.751  66.010  1.00  0.00    -0.469 Cl 
ENDROOT
BRANCH  12  14
HETATM   14  C   UNL     1     -10.240  12.280  67.731  1.00  0.00    -0.206 A  
HETATM   15  C   UNL     1     -10.009  11.092  67.105  1.00  0.00    -0.215 A  
HETATM   16  C   UNL     1      -9.298  11.013  65.828  1.00  0.00    -0.236 C  
HETATM   17  C   UNL     1      -8.885   9.842  65.315  1.00  0.00    -0.181 C  
HETATM   18  C   UNL     1      -9.168   8.559  66.037  1.00  0.00    -0.202 C  
HETATM   19  I   UNL     1      -7.868   9.769  63.527  1.00  0.00    -0.164 I  
HETATM   20  C   UNL     1     -10.118   8.634  67.193  1.00  0.00    -0.261 C  
HETATM   21  O   UNL     1      -8.669   7.498  65.675  1.00  0.00    -0.144 OA 
HETATM   22  I   UNL     1     -10.784   6.833  67.992  1.00  0.00    -0.289 I  
HETATM   23  C   UNL     1     -10.512   9.830  67.672  1.00  0.00    -0.251 A  
HETATM   24  O   UNL     1     -11.433   9.875  68.704  1.00  0.00    -0.066 OA 
HETATM   25  C   UNL     1     -11.660  11.040  69.383  1.00  0.00    -0.312 A  
HETATM   26  C   UNL     1     -12.518  10.987  70.496  1.00  0.00    -0.344 A  
HETATM   27  C   UNL     1     -12.792  12.148  71.225  1.00  0.00    -0.250 A  
HETATM   28  I   UNL     1     -13.407   9.161  71.083  1.00  0.00     0.098 I  
HETATM   29  C   UNL     1     -12.171  13.343  70.859  1.00  0.00    -0.282 A  
HETATM   30  O   UNL     1     -13.661  12.136  72.282  1.00  0.00    -0.550 OA 
HETATM   31  H   UNL     1     -13.847  12.925  72.778  1.00  0.00     0.000 HD 
HETATM   32  I   UNL     1     -12.513  15.127  71.902  1.00  0.00    -0.583 I  
HETATM   33  C   UNL     1     -11.307  13.385  69.756  1.00  0.00    -0.150 A  
HETATM   34  C   UNL     1     -11.063  12.238  68.983  1.00  0.00    -0.289 A  
ENDBRANCH  12  14
TORSDOF 1
ENDMDL
MODEL        7
REMARK 921   NORMALIZED FREE ENERGY PREDICTED BY IDOCK:   -6.99 KCAL/MOL
REMARK 922        TOTAL FREE ENERGY PREDICTED BY IDOCK:   -8.10 KCAL/MOL
REMARK 923 INTER-LIGAND FREE ENERGY PREDICTED BY IDOCK:   -7.28 KCAL/MOL
REMARK 924 INTRA-LIGAND FREE ENERGY PREDICTED BY IDOCK:   -0.82 KCAL/MOL
REMARK 927      BINDING AFFINITY PREDICTED BY RF-SCORE:    0.00 PKD
ROOT
HETATM    1  O   UNL     1      -6.827  14.158  67.300  1.00  0.00    -0.226 OA 
HETATM    2  C   UNL     1      -8.051  13.838  67.773  1.00  0.00    -0.176 C  
HETATM    3  O   UNL     1      -8.200  13.163  68.775  1.00  0.00    -0.048 OA 
HETATM    4  C   UNL     1      -9.191  14.265  66.919  1.00  0.00    -0.268 A  
HETATM    5  C   UNL     1      -9.257  15.573  66.393  1.00  0.00    -0.305 A  
HETATM    6 CL   UNL     1      -7.994  16.726  66.730  1.00  0.00    -0.247 Cl 
HETATM    7  C   UNL     1     -10.357  15.969  65.605  1.00  0.00    -0.392 A  
HETATM    8 CL   UNL     1     -10.430  17.590  64.966  1.00  0.00     0.354 Cl 
HETATM    9  C   UNL     1     -11.391  15.061  65.330  1.00  0.00    -0.349 A  
HETATM   10  C   UNL     1     -11.331  13.751  65.846  1.00  0.00    -0.307 A  
HETATM   11 CL   UNL     1     -12.755  15.557  64.368  1.00  0.00     0.199 Cl 
HETATM   12  C   UNL     1     -10.253  13.342  66.670  1.00  0.00    -0.274 A  
HETATM   13 CL   UNL     1     -12.584  12.605  65.447  1.00  0.00    -0.434 Cl 
ENDROOT
BRANCH  12  14
HETATM   14  C   UNL     1     -10.289  11.966  67.292  1.00  0.00    -0.228 A  
HETATM   15  C   UNL     1     -10.839  11.755  68.521  1.00  0.00    -0.261 A  
HETATM   16  C   UNL     1     -11.399  12.847  69.319  1.00  0.00    -0.303 C  
HETATM   17  C   UNL     1     -12.125  12.619  70.426  1.00  0.00    -0.300 C  
HETATM   18  C   UNL     1     -12.362  11.216  70.898  1.00  0.00    -0.399 C  
HETATM   19  I   UNL     1     -12.917  14.178  71.512  1.00  0.00    -0.447 I  
HETATM   20  C   UNL     1     -11.566  10.138  70.229  1.00  0.00    -0.302 C  
HETATM   21  O   UNL     1     -13.147  10.972  71.810  1.00  0.00    -0.469 OA 
HETATM   22  I   UNL     1     -11.626   8.243  71.085  1.00  0.00    -0.302 I  
HETATM   23  C   UNL     1     -10.847  10.411  69.124  1.00  0.00    -0.236 A  
HETATM   24  O   UNL     1     -10.075   9.413  68.554  1.00  0.00    -0.174 OA 
HETATM   25  C   UNL     1      -9.544   9.572  67.305  1.00  0.00    -0.150 A  
HETATM   26  C   UNL     1      -8.872   8.474  66.738  1.00  0.00    -0.139 A  
HETATM   27  C   UNL     1      -8.303   8.581  65.467  1.00  0.00    -0.156 A  
HETATM   28  I   UNL     1      -8.710   6.652  67.797  1.00  0.00    -0.111 I  
HETATM   29  C   UNL     1      -8.448   9.772  64.755  1.00  0.00    -0.164 A  
HETATM   30  O   UNL     1      -7.601   7.545  64.912  1.00  0.00    -0.086 OA 
HETATM   31  H   UNL     1      -7.214   7.618  64.047  1.00  0.00     0.000 HD 
HETATM   32  I   UNL     1      -7.638  10.016  62.838  1.00  0.00    -0.135 I  
HETATM   33  C   UNL     1      -9.129  10.859  65.320  1.00  0.00    -0.217 A  
HETATM   34  C   UNL     1      -9.661  10.784  66.618  1.00  0.00    -0.227 A  
ENDBRANCH  12  14
TORSDOF 1
ENDMDL
MODEL        8
REMARK 921   NORMALIZED FREE ENERGY PREDICTED BY IDOCK:   -6.95 KCAL/MOL
REMARK 922        TOTAL FREE ENERGY PREDICTED BY IDOCK:   -8.05 KCAL/MOL
REMARK 923 INTER-LIGAND FREE ENERGY PREDICTED BY IDOCK:   -7.08 KCAL/MOL
REMARK 924 INTRA-LIGAND FREE ENERGY PREDICTED BY IDOCK:   -0.98 KCAL/MOL
REMARK 927      BINDING AFFINITY PREDICTED BY RF-SCORE:    0.00 PKD
ROOT
HETATM    1  O   UNL     1     -12.919  13.243  66.177  1.00  0.00    -0.153 OA 
HETATM    2  C   UNL     1     -11.751  12.569  66.250  1.00  0.00    -0.404 C  
HETATM    3  O   UNL     1     -11.689  11.365  66.086  1.00  0.00    -0.266 OA 
HETATM    4  C   UNL     1     -10.576  13.383  66.663  1.00  0.00    -0.282 A  
HETATM    5  C   UNL     1     -10.317  14.640  66.072  1.00  0.00    -0.305 A  
HETATM    6 CL   UNL     1     -11.377  15.273  64.842  1.00  0.00    -0.399 Cl 
HETATM    7  C   UNL     1      -9.186  15.387  66.457  1.00  0.00    -0.292 A  
HETATM    8 CL   UNL     1      -8.873  16.935  65.716  1.00  0.00    -0.040 Cl 
HETATM    9  C   UNL     1      -8.313  14.891  67.438  1.00  0.00    -0.194 A  
HETATM   10  C   UNL     1      -8.567  13.641  68.036  1.00  0.00    -0.175 A  
HETATM   11 CL   UNL     1      -6.908  15.811  67.901  1.00  0.00    -0.145 Cl 
HETATM   12  C   UNL     1      -9.678  12.856  67.640  1.00  0.00    -0.212 A  
HETATM   13 CL   UNL     1      -7.517  13.059  69.302  1.00  0.00     0.201 Cl 
ENDROOT
BRANCH  12  14
HETATM   14  C   UNL     1      -9.845  11.475  68.228  1.00  0.00    -0.203 A  
HETATM   15  C   UNL     1      -9.206  10.394  67.697  1.00  0.00    -0.157 A  
HETATM   16  C   UNL     1      -8.346  10.502  66.517  1.00  0.00    -0.141 C  
HETATM   17  C   UNL     1      -7.554   9.493  66.120  1.00  0.00    -0.100 C  
HETATM   18  C   UNL     1      -7.549   8.195  66.872  1.00  0.00    -0.095 C  
HETATM   19  I   UNL     1      -6.341   9.686  64.469  1.00  0.00    -0.118 I  
HETATM   20  C   UNL     1      -8.619   8.012  67.904  1.00  0.00    -0.129 C  
HETATM   21  O   UNL     1      -6.726   7.318  66.628  1.00  0.00    -0.057 OA 
HETATM   22  I   UNL     1      -8.839   6.110  68.716  1.00  0.00    -0.118 I  
HETATM   23  C   UNL     1      -9.395   9.050  68.269  1.00  0.00    -0.139 A  
HETATM   24  O   UNL     1     -10.414   8.845  69.183  1.00  0.00    -0.224 OA 
HETATM   25  C   UNL     1     -11.048   9.905  69.768  1.00  0.00    -0.254 A  
HETATM   26  C   UNL     1     -11.990   9.626  70.775  1.00  0.00    -0.277 A  
HETATM   27  C   UNL     1     -12.674  10.670  71.403  1.00  0.00    -0.440 A  
HETATM   28  I   UNL     1     -12.387   7.631  71.351  1.00  0.00    -0.319 I  
HETATM   29  C   UNL     1     -12.379  11.987  71.049  1.00  0.00    -0.238 A  
HETATM   30  O   UNL     1     -13.630  10.425  72.352  1.00  0.00    -0.593 OA 
HETATM   31  H   UNL     1     -14.095  11.135  72.779  1.00  0.00     0.000 HD 
HETATM   32  I   UNL     1     -13.346  13.613  71.948  1.00  0.00    -0.489 I  
HETATM   33  C   UNL     1     -11.430  12.258  70.053  1.00  0.00    -0.133 A  
HETATM   34  C   UNL     1     -10.773  11.218  69.376  1.00  0.00    -0.188 A  
ENDBRANCH  12  14
TORSDOF 1
ENDMDL
MODEL        9
REMARK 921   NORMALIZED FREE ENERGY PREDICTED BY IDOCK:   -6.72 KCAL/MOL
REMARK 922        TOTAL FREE ENERGY PREDICTED BY IDOCK:   -7.82 KCAL/MOL
REMARK 923 INTER-LIGAND FREE ENERGY PREDICTED BY IDOCK:   -7.06 KCAL/MOL
REMARK 924 INTRA-LIGAND FREE ENERGY PREDICTED BY IDOCK:   -0.76 KCAL/MOL
REMARK 927      BINDING AFFINITY PREDICTED BY RF-SCORE:    0.00 PKD
ROOT
HETATM    1  O   UNL     1     -10.865  12.577  63.943  1.00  0.00    -0.366 OA 
HETATM    2  C   UNL     1     -10.762  11.624  64.895  1.00  0.00    -0.296 C  
HETATM    3  O   UNL     1     -11.708  11.297  65.586  1.00  0.00    -0.017 OA 
HETATM    4  C   UNL     1      -9.389  11.094  65.113  1.00  0.00    -0.237 A  
HETATM    5  C   UNL     1      -8.574  10.713  64.025  1.00  0.00    -0.098 A  
HETATM    6 CL   UNL     1      -9.158  10.859  62.389  1.00  0.00    -0.338 Cl 
HETATM    7  C   UNL     1      -7.285  10.190  64.250  1.00  0.00    -0.108 A  
HETATM    8 CL   UNL     1      -6.290   9.716  62.899  1.00  0.00    -0.101 Cl 
HETATM    9  C   UNL     1      -6.799  10.053  65.560  1.00  0.00    -0.120 A  
HETATM   10  C   UNL     1      -7.603  10.436  66.651  1.00  0.00    -0.114 A  
HETATM   11 CL   UNL     1      -5.211   9.393  65.836  1.00  0.00    -0.035 Cl 
HETATM   12  C   UNL     1      -8.915  10.931  66.450  1.00  0.00    -0.186 A  
HETATM   13 CL   UNL     1      -6.970  10.327  68.273  1.00  0.00    -0.073 Cl 
ENDROOT
BRANCH  12  14
HETATM   14  C   UNL     1      -9.780  11.221  67.654  1.00  0.00    -0.183 A  
HETATM   15  C   UNL     1     -10.374  10.218  68.362  1.00  0.00    -0.202 A  
HETATM   16  C   UNL     1     -10.231   8.811  67.985  1.00  0.00    -0.264 C  
HETATM   17  C   UNL     1     -10.633   7.815  68.790  1.00  0.00    -0.135 C  
HETATM   18  C   UNL     1     -11.275   8.122  70.110  1.00  0.00    -0.134 C  
HETATM   19  I   UNL     1     -10.397   5.846  68.238  1.00  0.00    -0.315 I  
HETATM   20  C   UNL     1     -11.651   9.551  70.358  1.00  0.00    -0.212 C  
HETATM   21  O   UNL     1     -11.506   7.239  70.930  1.00  0.00    -0.275 OA 
HETATM   22  I   UNL     1     -12.835   9.946  72.022  1.00  0.00    -0.262 I  
HETATM   23  C   UNL     1     -11.231  10.519  69.521  1.00  0.00    -0.271 A  
HETATM   24  O   UNL     1     -11.637  11.825  69.738  1.00  0.00    -0.295 OA 
HETATM   25  C   UNL     1     -11.035  12.859  69.078  1.00  0.00    -0.197 A  
HETATM   26  C   UNL     1     -11.413  14.166  69.433  1.00  0.00    -0.288 A  
HETATM   27  C   UNL     1     -10.836  15.263  68.787  1.00  0.00    -0.254 A  
HETATM   28  I   UNL     1     -12.857  14.494  70.943  1.00  0.00    -0.372 I  
HETATM   29  C   UNL     1      -9.854  15.043  67.821  1.00  0.00    -0.220 A  
HETATM   30  O   UNL     1     -11.221  16.543  69.079  1.00  0.00    -0.305 OA 
HETATM   31  H   UNL     1     -10.828  17.289  68.640  1.00  0.00     0.000 HD 
HETATM   32  I   UNL     1      -8.927  16.627  66.812  1.00  0.00    -0.338 I  
HETATM   33  C   UNL     1      -9.473  13.738  67.480  1.00  0.00    -0.220 A  
HETATM   34  C   UNL     1     -10.082  12.624  68.083  1.00  0.00    -0.231 A  
ENDBRANCH  12  14
TORSDOF 1
ENDMDL
MODEL       10
REMARK 921   NORMALIZED FREE ENERGY PREDICTED BY IDOCK:   -6.54 KCAL/MOL
REMARK 922        TOTAL FREE ENERGY PREDICTED BY IDOCK:   -7.62 KCAL/MOL
REMARK 923 INTER-LIGAND FREE ENERGY PREDICTED BY IDOCK:   -6.56 KCAL/MOL
REMARK 924 INTRA-LIGAND FREE ENERGY PREDICTED BY IDOCK:   -1.07 KCAL/MOL
REMARK 927      BINDING AFFINITY PREDICTED BY RF-SCORE:    0.00 PKD
ROOT
HETATM    1  O   UNL     1      -6.379  13.683  67.332  1.00  0.00    -0.307 OA 
HETATM    2  C   UNL     1      -7.565  13.230  67.796  1.00  0.00    -0.161 C  
HETATM    3  O   UNL     1      -7.643  12.495  68.762  1.00  0.00    -0.102 OA 
HETATM    4  C   UNL     1      -8.748  13.597  66.971  1.00  0.00    -0.204 A  
HETATM    5  C   UNL     1      -8.935  14.920  66.514  1.00  0.00    -0.253 A  
HETATM    6 CL   UNL     1      -7.775  16.162  66.903  1.00  0.00    -0.262 Cl 
HETATM    7  C   UNL     1     -10.073  15.256  65.755  1.00  0.00    -0.356 A  
HETATM    8 CL   UNL     1     -10.297  16.895  65.201  1.00  0.00    -0.027 Cl 
HETATM    9  C   UNL     1     -11.026  14.274  65.438  1.00  0.00    -0.333 A  
HETATM   10  C   UNL     1     -10.844  12.951  65.885  1.00  0.00    -0.272 A  
HETATM   11 CL   UNL     1     -12.439  14.696  64.511  1.00  0.00    -0.412 Cl 
HETATM   12  C   UNL     1      -9.725  12.598  66.680  1.00  0.00    -0.249 A  
HETATM   13 CL   UNL     1     -11.995  11.720  65.434  1.00  0.00    -0.057 Cl 
ENDROOT
BRANCH  12  14
HETATM   14  C   UNL     1      -9.633  11.194  67.230  1.00  0.00    -0.182 A  
HETATM   15  C   UNL     1      -8.946  10.216  66.575  1.00  0.00    -0.161 A  
HETATM   16  C   UNL     1      -8.282  10.459  65.293  1.00  0.00    -0.162 C  
HETATM   17  C   UNL     1      -7.434   9.570  64.751  1.00  0.00    -0.112 C  
HETATM   18  C   UNL     1      -7.161   8.268  65.443  1.00  0.00    -0.067 C  
HETATM   19  I   UNL     1      -6.501   9.954  62.957  1.00  0.00    -0.134 I  
HETATM   20  C   UNL     1      -8.043   7.926  66.604  1.00  0.00    -0.107 C  
HETATM   21  O   UNL     1      -6.278   7.510  65.053  1.00  0.00    -0.038 OA 
HETATM   22  I   UNL     1      -7.907   5.994  67.363  1.00  0.00    -0.102 I  
HETATM   23  C   UNL     1      -8.884   8.847  67.113  1.00  0.00    -0.123 A  
HETATM   24  O   UNL     1      -9.729   8.492  68.150  1.00  0.00    -0.148 OA 
HETATM   25  C   UNL     1     -10.401   9.449  68.858  1.00  0.00    -0.213 A  
HETATM   26  C   UNL     1     -11.149   9.029  69.973  1.00  0.00    -0.182 A  
HETATM   27  C   UNL     1     -11.862   9.962  70.730  1.00  0.00    -0.330 A  
HETATM   28  I   UNL     1     -11.209   6.988  70.519  1.00  0.00    -0.360 I  
HETATM   29  C   UNL     1     -11.787  11.313  70.391  1.00  0.00    -0.350 A  
HETATM   30  O   UNL     1     -12.636   9.575  71.790  1.00  0.00    -0.352 OA 
HETATM   31  H   UNL     1     -13.121  10.210  72.305  1.00  0.00     0.000 HD 
HETATM   32  I   UNL     1     -12.812  12.781  71.478  1.00  0.00    -0.005 I  
HETATM   33  C   UNL     1     -11.030  11.726  69.286  1.00  0.00    -0.231 A  
HETATM   34  C   UNL     1     -10.350  10.794  68.484  1.00  0.00    -0.202 A  
ENDBRANCH  12  14
TORSDOF 1
ENDMDL
MODEL       11
REMARK 921   NORMALIZED FREE ENERGY PREDICTED BY IDOCK:   -6.51 KCAL/MOL
REMARK 922        TOTAL FREE ENERGY PREDICTED BY IDOCK:   -7.59 KCAL/MOL
REMARK 923 INTER-LIGAND FREE ENERGY PREDICTED BY IDOCK:   -6.65 KCAL/MOL
REMARK 924 INTRA-LIGAND FREE ENERGY PREDICTED BY IDOCK:   -0.94 KCAL/MOL
REMARK 927      BINDING AFFINITY PREDICTED BY RF-SCORE:    0.00 PKD
ROOT
HETATM    1  O   UNL     1      -6.257   9.017  67.966  1.00  0.00    -0.050 OA 
HETATM    2  C   UNL     1      -7.016  10.122  67.802  1.00  0.00    -0.084 C  
HETATM    3  O   UNL     1      -7.261  10.880  68.722  1.00  0.00    -0.077 OA 
HETATM    4  C   UNL     1      -7.625  10.278  66.453  1.00  0.00    -0.117 A  
HETATM    5  C   UNL     1      -6.855  10.100  65.283  1.00  0.00    -0.137 A  
HETATM    6 CL   UNL     1      -5.165   9.688  65.390  1.00  0.00    -0.039 Cl 
HETATM    7  C   UNL     1      -7.441  10.275  64.013  1.00  0.00    -0.071 A  
HETATM    8 CL   UNL     1      -6.479  10.060  62.574  1.00  0.00    -0.112 Cl 
HETATM    9  C   UNL     1      -8.798  10.618  63.903  1.00  0.00    -0.163 A  
HETATM   10  C   UNL     1      -9.575  10.791  65.066  1.00  0.00    -0.254 A  
HETATM   11 CL   UNL     1      -9.516  10.847  62.333  1.00  0.00    -0.251 Cl 
HETATM   12  C   UNL     1      -8.998  10.655  66.353  1.00  0.00    -0.176 A  
HETATM   13 CL   UNL     1     -11.276  11.151  64.924  1.00  0.00    -0.122 Cl 
ENDROOT
BRANCH  12  14
HETATM   14  C   UNL     1      -9.842  10.962  67.568  1.00  0.00    -0.192 A  
HETATM   15  C   UNL     1     -10.410   9.969  68.309  1.00  0.00    -0.224 A  
HETATM   16  C   UNL     1     -10.260   8.556  67.959  1.00  0.00    -0.264 C  
HETATM   17  C   UNL     1     -10.635   7.573  68.793  1.00  0.00    -0.156 C  
HETATM   18  C   UNL     1     -11.254   7.902  70.119  1.00  0.00    -0.152 C  
HETATM   19  I   UNL     1     -10.390   5.595  68.278  1.00  0.00    -0.200 I  
HETATM   20  C   UNL     1     -11.641   9.332  70.344  1.00  0.00    -0.173 C  
HETATM   21  O   UNL     1     -11.460   7.034  70.962  1.00  0.00    -0.273 OA 
HETATM   22  I   UNL     1     -12.797   9.750  72.022  1.00  0.00    -0.337 I  
HETATM   23  C   UNL     1     -11.248  10.285  69.478  1.00  0.00    -0.261 A  
HETATM   24  O   UNL     1     -11.664  11.591  69.675  1.00  0.00    -0.294 OA 
HETATM   25  C   UNL     1     -11.086  12.617  68.981  1.00  0.00    -0.238 A  
HETATM   26  C   UNL     1     -11.471  13.928  69.316  1.00  0.00    -0.297 A  
HETATM   27  C   UNL     1     -10.919  15.016  68.636  1.00  0.00    -0.257 A  
HETATM   28  I   UNL     1     -12.888  14.273  70.847  1.00  0.00    -0.308 I  
HETATM   29  C   UNL     1      -9.953  14.786  67.655  1.00  0.00    -0.226 A  
HETATM   30  O   UNL     1     -11.311  16.299  68.908  1.00  0.00    -0.342 OA 
HETATM   31  H   UNL     1     -10.935  17.039  68.445  1.00  0.00     0.000 HD 
HETATM   32  I   UNL     1      -9.063  16.358  66.594  1.00  0.00    -0.362 I  
HETATM   33  C   UNL     1      -9.565  13.477  67.334  1.00  0.00    -0.227 A  
HETATM   34  C   UNL     1     -10.150  12.371  67.973  1.00  0.00    -0.214 A  
ENDBRANCH  12  14
TORSDOF 1
ENDMDL
MODEL       12
REMARK 921   NORMALIZED FREE ENERGY PREDICTED BY IDOCK:   -6.50 KCAL/MOL
REMARK 922        TOTAL FREE ENERGY PREDICTED BY IDOCK:   -7.59 KCAL/MOL
REMARK 923 INTER-LIGAND FREE ENERGY PREDICTED BY IDOCK:   -6.52 KCAL/MOL
REMARK 924 INTRA-LIGAND FREE ENERGY PREDICTED BY IDOCK:   -1.07 KCAL/MOL
REMARK 927      BINDING AFFINITY PREDICTED BY RF-SCORE:    0.00 PKD
ROOT
HETATM    1  O   UNL     1     -12.553  12.706  65.852  1.00  0.00    -0.526 OA 
HETATM    2  C   UNL     1     -11.327  12.138  65.861  1.00  0.00    -0.356 C  
HETATM    3  O   UNL     1     -11.150  10.979  65.535  1.00  0.00    -0.091 OA 
HETATM    4  C   UNL     1     -10.239  12.992  66.409  1.00  0.00    -0.283 A  
HETATM    5  C   UNL     1     -10.094  14.336  66.002  1.00  0.00    -0.318 A  
HETATM    6 CL   UNL     1     -11.195  15.034  64.845  1.00  0.00    -0.411 Cl 
HETATM    7  C   UNL     1      -9.043  15.124  66.512  1.00  0.00    -0.294 A  
HETATM    8 CL   UNL     1      -8.869  16.781  65.998  1.00  0.00    -0.283 Cl 
HETATM    9  C   UNL     1      -8.138  14.579  67.438  1.00  0.00    -0.200 A  
HETATM   10  C   UNL     1      -8.279  13.241  67.853  1.00  0.00    -0.163 A  
HETATM   11 CL   UNL     1      -6.831  15.551  68.056  1.00  0.00    -0.133 Cl 
HETATM   12  C   UNL     1      -9.307  12.420  67.326  1.00  0.00    -0.184 A  
HETATM   13 CL   UNL     1      -7.193  12.588  69.052  1.00  0.00    -0.049 Cl 
ENDROOT
BRANCH  12  14
HETATM   14  C   UNL     1      -9.348  10.960  67.715  1.00  0.00    -0.162 A  
HETATM   15  C   UNL     1     -10.113  10.523  68.756  1.00  0.00    -0.202 A  
HETATM   16  C   UNL     1     -10.913  11.438  69.570  1.00  0.00    -0.226 C  
HETATM   17  C   UNL     1     -11.824  10.994  70.452  1.00  0.00    -0.367 C  
HETATM   18  C   UNL     1     -12.029   9.522  70.650  1.00  0.00    -0.197 C  
HETATM   19  I   UNL     1     -12.949  12.310  71.565  1.00  0.00     0.083 I  
HETATM   20  C   UNL     1     -11.025   8.612  70.011  1.00  0.00    -0.203 C  
HETATM   21  O   UNL     1     -12.956   9.092  71.329  1.00  0.00    -0.306 OA 
HETATM   22  I   UNL     1     -11.091   6.603  70.545  1.00  0.00    -0.440 I  
HETATM   23  C   UNL     1     -10.125   9.100  69.136  1.00  0.00    -0.194 A  
HETATM   24  O   UNL     1      -9.172   8.251  68.601  1.00  0.00    -0.143 OA 
HETATM   25  C   UNL     1      -8.417   8.640  67.530  1.00  0.00    -0.124 A  
HETATM   26  C   UNL     1      -7.553   7.687  66.962  1.00  0.00    -0.103 A  
HETATM   27  C   UNL     1      -6.752   8.030  65.869  1.00  0.00    -0.049 A  
HETATM   28  I   UNL     1      -7.450   5.727  67.748  1.00  0.00    -0.078 I  
HETATM   29  C   UNL     1      -6.854   9.312  65.327  1.00  0.00    -0.081 A  
HETATM   30  O   UNL     1      -5.867   7.137  65.328  1.00  0.00    -0.035 OA 
HETATM   31  H   UNL     1      -5.323   7.371  64.585  1.00  0.00     0.000 HD 
HETATM   32  I   UNL     1      -5.701   9.908  63.683  1.00  0.00    -0.140 I  
HETATM   33  C   UNL     1      -7.726  10.253  65.891  1.00  0.00    -0.137 A  
HETATM   34  C   UNL     1      -8.499   9.939  67.022  1.00  0.00    -0.121 A  
ENDBRANCH  12  14
TORSDOF 1
ENDMDL
MODEL       13
REMARK 921   NORMALIZED FREE ENERGY PREDICTED BY IDOCK:   -6.48 KCAL/MOL
REMARK 922        TOTAL FREE ENERGY PREDICTED BY IDOCK:   -7.56 KCAL/MOL
REMARK 923 INTER-LIGAND FREE ENERGY PREDICTED BY IDOCK:   -6.56 KCAL/MOL
REMARK 924 INTRA-LIGAND FREE ENERGY PREDICTED BY IDOCK:   -1.00 KCAL/MOL
REMARK 927      BINDING AFFINITY PREDICTED BY RF-SCORE:    0.00 PKD
ROOT
HETATM    1  O   UNL     1     -10.726   4.792  65.674  1.00  0.00    -0.274 OA 
HETATM    2  C   UNL     1     -10.586   5.674  66.688  1.00  0.00    -0.295 C  
HETATM    3  O   UNL     1     -11.465   6.460  66.986  1.00  0.00    -0.196 OA 
HETATM    4  C   UNL     1      -9.242   5.694  67.326  1.00  0.00    -0.110 A  
HETATM    5  C   UNL     1      -8.595   4.496  67.699  1.00  0.00    -0.103 A  
HETATM    6 CL   UNL     1      -9.357   2.954  67.413  1.00  0.00    -0.224 Cl 
HETATM    7  C   UNL     1      -7.333   4.533  68.325  1.00  0.00    -0.065 A  
HETATM    8 CL   UNL     1      -6.546   3.047  68.787  1.00  0.00    -0.036 Cl 
HETATM    9  C   UNL     1      -6.706   5.764  68.574  1.00  0.00    -0.057 A  
HETATM   10  C   UNL     1      -7.342   6.965  68.201  1.00  0.00    -0.097 A  
HETATM   11 CL   UNL     1      -5.153   5.808  69.361  1.00  0.00    -0.004 Cl 
HETATM   12  C   UNL     1      -8.626   6.952  67.602  1.00  0.00    -0.121 A  
HETATM   13 CL   UNL     1      -6.530   8.488  68.451  1.00  0.00    -0.055 Cl 
ENDROOT
BRANCH  12  14
HETATM   14  C   UNL     1      -9.316   8.268  67.324  1.00  0.00    -0.181 A  
HETATM   15  C   UNL     1      -9.155   8.918  66.137  1.00  0.00    -0.251 A  
HETATM   16  C   UNL     1      -8.290   8.398  65.077  1.00  0.00    -0.169 C  
HETATM   17  C   UNL     1      -8.292   8.917  63.838  1.00  0.00    -0.159 C  
HETATM   18  C   UNL     1      -9.177  10.082  63.509  1.00  0.00    -0.277 C  
HETATM   19  I   UNL     1      -7.078   8.147  62.365  1.00  0.00    -0.096 I  
HETATM   20  C   UNL     1      -9.849  10.763  64.662  1.00  0.00    -0.307 C  
HETATM   21  O   UNL     1      -9.315  10.473  62.354  1.00  0.00    -0.265 OA 
HETATM   22  I   UNL     1     -10.803  12.569  64.272  1.00  0.00    -0.528 I  
HETATM   23  C   UNL     1      -9.817  10.210  65.889  1.00  0.00    -0.245 A  
HETATM   24  O   UNL     1     -10.396  10.884  66.950  1.00  0.00    -0.219 OA 
HETATM   25  C   UNL     1     -10.612  10.251  68.142  1.00  0.00    -0.221 A  
HETATM   26  C   UNL     1     -11.312  10.957  69.137  1.00  0.00    -0.283 A  
HETATM   27  C   UNL     1     -11.556  10.362  70.378  1.00  0.00    -0.337 A  
HETATM   28  I   UNL     1     -12.003  12.922  68.776  1.00  0.00     0.025 I  
HETATM   29  C   UNL     1     -11.135   9.050  70.598  1.00  0.00    -0.265 A  
HETATM   30  O   UNL     1     -12.192  11.043  71.380  1.00  0.00    -0.295 OA 
HETATM   31  H   UNL     1     -12.358  10.639  72.224  1.00  0.00     0.000 HD 
HETATM   32  I   UNL     1     -11.469   8.076  72.422  1.00  0.00    -0.416 I  
HETATM   33  C   UNL     1     -10.448   8.348  69.598  1.00  0.00    -0.221 A  
HETATM   34  C   UNL     1     -10.150   8.951  68.364  1.00  0.00    -0.215 A  
ENDBRANCH  12  14
TORSDOF 1
ENDMDL
MODEL       14
REMARK 921   NORMALIZED FREE ENERGY PREDICTED BY IDOCK:   -6.47 KCAL/MOL
REMARK 922        TOTAL FREE ENERGY PREDICTED BY IDOCK:   -7.55 KCAL/MOL
REMARK 923 INTER-LIGAND FREE ENERGY PREDICTED BY IDOCK:   -7.10 KCAL/MOL
REMARK 924 INTRA-LIGAND FREE ENERGY PREDICTED BY IDOCK:   -0.45 KCAL/MOL
REMARK 927      BINDING AFFINITY PREDICTED BY RF-SCORE:    0.00 PKD
ROOT
HETATM    1  O   UNL     1     -12.123  11.617  68.390  1.00  0.00    -0.522 OA 
HETATM    2  C   UNL     1     -10.963  12.177  68.800  1.00  0.00    -0.232 C  
HETATM    3  O   UNL     1     -10.924  13.282  69.308  1.00  0.00    -0.196 OA 
HETATM    4  C   UNL     1      -9.737  11.399  68.476  1.00  0.00    -0.199 A  
HETATM    5  C   UNL     1      -9.665  10.013  68.732  1.00  0.00    -0.171 A  
HETATM    6 CL   UNL     1     -11.022   9.172  69.433  1.00  0.00    -0.165 Cl 
HETATM    7  C   UNL     1      -8.487   9.295  68.442  1.00  0.00    -0.120 A  
HETATM    8 CL   UNL     1      -8.408   7.584  68.768  1.00  0.00    -0.128 Cl 
HETATM    9  C   UNL     1      -7.379   9.954  67.887  1.00  0.00    -0.088 A  
HETATM   10  C   UNL     1      -7.443  11.337  67.624  1.00  0.00    -0.101 A  
HETATM   11 CL   UNL     1      -5.919   9.068  67.544  1.00  0.00    -0.049 Cl 
HETATM   12  C   UNL     1      -8.605  12.085  67.940  1.00  0.00    -0.165 A  
HETATM   13 CL   UNL     1      -6.088  12.139  66.873  1.00  0.00    -0.100 Cl 
ENDROOT
BRANCH  12  14
HETATM   14  C   UNL     1      -8.586  13.583  67.745  1.00  0.00    -0.183 A  
HETATM   15  C   UNL     1      -7.868  14.398  68.568  1.00  0.00    -0.138 A  
HETATM   16  C   UNL     1      -7.098  13.878  69.699  1.00  0.00     0.151 C  
HETATM   17  C   UNL     1      -6.228  14.642  70.379  1.00  0.00    -0.168 C  
HETATM   18  C   UNL     1      -6.037  16.083  70.009  1.00  0.00    -0.143 C  
HETATM   19  I   UNL     1      -5.146  13.872  71.951  1.00  0.00    -0.210 I  
HETATM   20  C   UNL     1      -7.017  16.661  69.033  1.00  0.00    -0.212 C  
HETATM   21  O   UNL     1      -5.141  16.757  70.506  1.00  0.00    -0.193 OA 
HETATM   22  I   UNL     1      -6.981  18.723  68.763  1.00  0.00    -0.325 I  
HETATM   23  C   UNL     1      -7.877  15.859  68.378  1.00  0.00    -0.145 A  
HETATM   24  O   UNL     1      -8.810  16.421  67.523  1.00  0.00    -0.179 OA 
HETATM   25  C   UNL     1      -9.517  15.638  66.654  1.00  0.00    -0.259 A  
HETATM   26  C   UNL     1     -10.360  16.287  65.733  1.00  0.00    -0.374 A  
HETATM   27  C   UNL     1     -11.113  15.537  64.825  1.00  0.00    -0.407 A  
HETATM   28  I   UNL     1     -10.505  18.395  65.709  1.00  0.00     0.514 I  
HETATM   29  C   UNL     1     -10.983  14.148  64.817  1.00  0.00    -0.400 A  
HETATM   30  O   UNL     1     -11.978  16.139  63.951  1.00  0.00    -1.331 OA 
HETATM   31  H   UNL     1     -12.489  15.630  63.333  1.00  0.00     0.000 HD 
HETATM   32  I   UNL     1     -12.063  12.948  63.482  1.00  0.00    -0.255 I  
HETATM   33  C   UNL     1     -10.132  13.510  65.729  1.00  0.00    -0.298 A  
HETATM   34  C   UNL     1      -9.409  14.246  66.683  1.00  0.00    -0.302 A  
ENDBRANCH  12  14
TORSDOF 1
ENDMDL
MODEL       15
REMARK 921   NORMALIZED FREE ENERGY PREDICTED BY IDOCK:   -6.46 KCAL/MOL
REMARK 922        TOTAL FREE ENERGY PREDICTED BY IDOCK:   -7.54 KCAL/MOL
REMARK 923 INTER-LIGAND FREE ENERGY PREDICTED BY IDOCK:   -6.68 KCAL/MOL
REMARK 924 INTRA-LIGAND FREE ENERGY PREDICTED BY IDOCK:   -0.87 KCAL/MOL
REMARK 927      BINDING AFFINITY PREDICTED BY RF-SCORE:    0.00 PKD
ROOT
HETATM    1  O   UNL     1     -10.974  12.478  63.856  1.00  0.00    -0.360 OA 
HETATM    2  C   UNL     1     -10.837  11.526  64.805  1.00  0.00    -0.297 C  
HETATM    3  O   UNL     1     -11.780  11.132  65.465  1.00  0.00     0.124 OA 
HETATM    4  C   UNL     1      -9.439  11.088  65.064  1.00  0.00    -0.269 A  
HETATM    5  C   UNL     1      -8.567  10.771  64.000  1.00  0.00    -0.028 A  
HETATM    6 CL   UNL     1      -9.108  10.890  62.348  1.00  0.00    -0.338 Cl 
HETATM    7  C   UNL     1      -7.253  10.334  64.263  1.00  0.00    -0.063 A  
HETATM    8 CL   UNL     1      -6.186   9.938  62.942  1.00  0.00    -0.113 Cl 
HETATM    9  C   UNL     1      -6.799  10.221  65.587  1.00  0.00    -0.133 A  
HETATM   10  C   UNL     1      -7.661  10.541  66.655  1.00  0.00    -0.123 A  
HETATM   11 CL   UNL     1      -5.180   9.667  65.910  1.00  0.00    -0.035 Cl 
HETATM   12  C   UNL     1      -8.997  10.948  66.414  1.00  0.00    -0.186 A  
HETATM   13 CL   UNL     1      -7.073  10.463  68.295  1.00  0.00    -0.077 Cl 
ENDROOT
BRANCH  12  14
HETATM   14  C   UNL     1      -9.917  11.170  67.593  1.00  0.00    -0.195 A  
HETATM   15  C   UNL     1     -10.211  12.424  68.038  1.00  0.00    -0.219 A  
HETATM   16  C   UNL     1      -9.638  13.622  67.424  1.00  0.00    -0.226 C  
HETATM   17  C   UNL     1     -10.083  14.854  67.717  1.00  0.00    -0.234 C  
HETATM   18  C   UNL     1     -11.181  15.042  68.721  1.00  0.00    -0.277 C  
HETATM   19  I   UNL     1      -9.268  16.517  66.817  1.00  0.00    -0.325 I  
HETATM   20  C   UNL     1     -11.567  13.840  69.528  1.00  0.00    -0.297 C  
HETATM   21  O   UNL     1     -11.711  16.136  68.891  1.00  0.00    -0.357 OA 
HETATM   22  I   UNL     1     -12.839  14.151  71.144  1.00  0.00    -0.401 I  
HETATM   23  C   UNL     1     -11.092  12.623  69.202  1.00  0.00    -0.195 A  
HETATM   24  O   UNL     1     -11.418  11.535  69.994  1.00  0.00    -0.282 OA 
HETATM   25  C   UNL     1     -11.176  10.262  69.560  1.00  0.00    -0.261 A  
HETATM   26  C   UNL     1     -11.640   9.202  70.361  1.00  0.00    -0.146 A  
HETATM   27  C   UNL     1     -11.416   7.880  69.972  1.00  0.00     0.054 A  
HETATM   28  I   UNL     1     -12.677   9.591  72.162  1.00  0.00    -0.259 I  
HETATM   29  C   UNL     1     -10.767   7.627  68.762  1.00  0.00    -0.077 A  
HETATM   30  O   UNL     1     -11.813   6.830  70.755  1.00  0.00    -0.361 OA 
HETATM   31  H   UNL     1     -11.660   5.930  70.490  1.00  0.00     0.000 HD 
HETATM   32  I   UNL     1     -10.401   5.676  68.094  1.00  0.00    -0.208 I  
HETATM   33  C   UNL     1     -10.319   8.688  67.963  1.00  0.00    -0.277 A  
HETATM   34  C   UNL     1     -10.490  10.023  68.367  1.00  0.00    -0.235 A  
ENDBRANCH  12  14
TORSDOF 1
ENDMDL
MODEL       16
REMARK 921   NORMALIZED FREE ENERGY PREDICTED BY IDOCK:   -6.32 KCAL/MOL
REMARK 922        TOTAL FREE ENERGY PREDICTED BY IDOCK:   -7.39 KCAL/MOL
REMARK 923 INTER-LIGAND FREE ENERGY PREDICTED BY IDOCK:   -6.49 KCAL/MOL
REMARK 924 INTRA-LIGAND FREE ENERGY PREDICTED BY IDOCK:   -0.90 KCAL/MOL
REMARK 927      BINDING AFFINITY PREDICTED BY RF-SCORE:    0.00 PKD
ROOT
HETATM    1  O   UNL     1      -6.157  12.292  67.966  1.00  0.00    -0.057 OA 
HETATM    2  C   UNL     1      -7.415  12.233  68.454  1.00  0.00    -0.122 C  
HETATM    3  O   UNL     1      -7.698  11.566  69.431  1.00  0.00     0.030 OA 
HETATM    4  C   UNL     1      -8.442  12.941  67.642  1.00  0.00    -0.183 A  
HETATM    5  C   UNL     1      -8.219  14.252  67.170  1.00  0.00    -0.160 A  
HETATM    6 CL   UNL     1      -6.726  15.078  67.524  1.00  0.00    -0.202 Cl 
HETATM    7  C   UNL     1      -9.212  14.918  66.423  1.00  0.00    -0.284 A  
HETATM    8 CL   UNL     1      -8.929  16.541  65.850  1.00  0.00    -0.259 Cl 
HETATM    9  C   UNL     1     -10.427  14.276  66.135  1.00  0.00    -0.292 A  
HETATM   10  C   UNL     1     -10.655  12.965  66.597  1.00  0.00    -0.261 A  
HETATM   11 CL   UNL     1     -11.658  15.106  65.224  1.00  0.00    -0.262 Cl 
HETATM   12  C   UNL     1      -9.686  12.290  67.380  1.00  0.00    -0.185 A  
HETATM   13 CL   UNL     1     -12.138  12.146  66.181  1.00  0.00    -0.245 Cl 
ENDROOT
BRANCH  12  14
HETATM   14  C   UNL     1     -10.022  10.931  67.948  1.00  0.00    -0.195 A  
HETATM   15  C   UNL     1     -10.790  10.798  69.066  1.00  0.00    -0.278 A  
HETATM   16  C   UNL     1     -11.310  11.956  69.794  1.00  0.00    -0.223 C  
HETATM   17  C   UNL     1     -12.233  11.831  70.762  1.00  0.00    -0.326 C  
HETATM   18  C   UNL     1     -12.744  10.476  71.150  1.00  0.00    -0.418 C  
HETATM   19  I   UNL     1     -12.959  13.484  71.751  1.00  0.00    -0.304 I  
HETATM   20  C   UNL     1     -12.013   9.296  70.586  1.00  0.00    -0.152 C  
HETATM   21  O   UNL     1     -13.694  10.346  71.915  1.00  0.00    -0.212 OA 
HETATM   22  I   UNL     1     -12.485   7.427  71.367  1.00  0.00    -0.355 I  
HETATM   23  C   UNL     1     -11.090   9.466  69.620  1.00  0.00    -0.142 A  
HETATM   24  O   UNL     1     -10.388   8.368  69.154  1.00  0.00    -0.215 OA 
HETATM   25  C   UNL     1      -9.642   8.454  68.012  1.00  0.00    -0.149 A  
HETATM   26  C   UNL     1      -9.051   7.272  67.530  1.00  0.00    -0.124 A  
HETATM   27  C   UNL     1      -8.272   7.300  66.370  1.00  0.00    -0.120 A  
HETATM   28  I   UNL     1      -9.329   5.440  68.547  1.00  0.00    -0.184 I  
HETATM   29  C   UNL     1      -8.125   8.503  65.679  1.00  0.00    -0.119 A  
HETATM   30  O   UNL     1      -7.646   6.175  65.906  1.00  0.00    -0.083 OA 
HETATM   31  H   UNL     1      -7.116   6.194  65.117  1.00  0.00     0.000 HD 
HETATM   32  I   UNL     1      -6.986   8.635  63.925  1.00  0.00    -0.091 I  
HETATM   33  C   UNL     1      -8.726   9.675  66.158  1.00  0.00    -0.152 A  
HETATM   34  C   UNL     1      -9.469   9.673  67.351  1.00  0.00    -0.170 A  
ENDBRANCH  12  14
TORSDOF 1
ENDMDL
MODEL       17
REMARK 921   NORMALIZED FREE ENERGY PREDICTED BY IDOCK:   -6.21 KCAL/MOL
REMARK 922        TOTAL FREE ENERGY PREDICTED BY IDOCK:   -7.28 KCAL/MOL
REMARK 923 INTER-LIGAND FREE ENERGY PREDICTED BY IDOCK:   -6.21 KCAL/MOL
REMARK 924 INTRA-LIGAND FREE ENERGY PREDICTED BY IDOCK:   -1.07 KCAL/MOL
REMARK 927      BINDING AFFINITY PREDICTED BY RF-SCORE:    0.00 PKD
ROOT
HETATM    1  O   UNL     1      -7.059  10.080  71.075  1.00  0.00    -0.325 OA 
HETATM    2  C   UNL     1      -7.170   9.470  69.875  1.00  0.00    -0.093 C  
HETATM    3  O   UNL     1      -6.804  10.003  68.844  1.00  0.00    -0.052 OA 
HETATM    4  C   UNL     1      -7.876   8.161  69.893  1.00  0.00    -0.104 A  
HETATM    5  C   UNL     1      -7.560   7.176  70.855  1.00  0.00    -0.085 A  
HETATM    6 CL   UNL     1      -6.330   7.474  72.053  1.00  0.00    -0.042 Cl 
HETATM    7  C   UNL     1      -8.221   5.932  70.843  1.00  0.00    -0.125 A  
HETATM    8 CL   UNL     1      -7.817   4.721  72.031  1.00  0.00    -0.098 Cl 
HETATM    9  C   UNL     1      -9.208   5.667  69.880  1.00  0.00    -0.146 A  
HETATM   10  C   UNL     1      -9.534   6.646  68.921  1.00  0.00    -0.130 A  
HETATM   11 CL   UNL     1     -10.014   4.123  69.860  1.00  0.00    -0.225 Cl 
HETATM   12  C   UNL     1      -8.857   7.890  68.892  1.00  0.00    -0.142 A  
HETATM   13 CL   UNL     1     -10.807   6.337  67.768  1.00  0.00    -0.382 Cl 
ENDROOT
BRANCH  12  14
HETATM   14  C   UNL     1      -9.161   8.862  67.775  1.00  0.00    -0.153 A  
HETATM   15  C   UNL     1     -10.084   9.854  67.928  1.00  0.00    -0.210 A  
HETATM   16  C   UNL     1     -10.849  10.020  69.164  1.00  0.00    -0.253 C  
HETATM   17  C   UNL     1     -11.597  11.111  69.396  1.00  0.00    -0.318 C  
HETATM   18  C   UNL     1     -11.693  12.195  68.365  1.00  0.00    -0.332 C  
HETATM   19  I   UNL     1     -12.643  11.323  71.156  1.00  0.00    -0.264 I  
HETATM   20  C   UNL     1     -11.125  11.888  67.012  1.00  0.00    -0.302 C  
HETATM   21  O   UNL     1     -12.238  13.266  68.612  1.00  0.00    -0.277 OA 
HETATM   22  I   UNL     1     -11.541  13.233  65.481  1.00  0.00    -0.436 I  
HETATM   23  C   UNL     1     -10.385  10.780  66.823  1.00  0.00    -0.243 A  
HETATM   24  O   UNL     1      -9.917  10.488  65.553  1.00  0.00    -0.245 OA 
HETATM   25  C   UNL     1      -8.961   9.529  65.367  1.00  0.00    -0.201 A  
HETATM   26  C   UNL     1      -8.445   9.366  64.069  1.00  0.00    -0.195 A  
HETATM   27  C   UNL     1      -7.470   8.397  63.818  1.00  0.00    -0.120 A  
HETATM   28  I   UNL     1      -9.133  10.579  62.480  1.00  0.00    -0.344 I  
HETATM   29  C   UNL     1      -6.989   7.627  64.878  1.00  0.00    -0.055 A  
HETATM   30  O   UNL     1      -6.986   8.184  62.556  1.00  0.00    -0.086 OA 
HETATM   31  H   UNL     1      -6.323   7.525  62.386  1.00  0.00     0.000 HD 
HETATM   32  I   UNL     1      -5.519   6.161  64.596  1.00  0.00    -0.018 I  
HETATM   33  C   UNL     1      -7.499   7.803  66.172  1.00  0.00    -0.079 A  
HETATM   34  C   UNL     1      -8.516   8.737  66.429  1.00  0.00    -0.127 A  
ENDBRANCH  12  14
TORSDOF 1
ENDMDL
MODEL       18
REMARK 921   NORMALIZED FREE ENERGY PREDICTED BY IDOCK:   -6.15 KCAL/MOL
REMARK 922        TOTAL FREE ENERGY PREDICTED BY IDOCK:   -7.21 KCAL/MOL
REMARK 923 INTER-LIGAND FREE ENERGY PREDICTED BY IDOCK:   -6.27 KCAL/MOL
REMARK 924 INTRA-LIGAND FREE ENERGY PREDICTED BY IDOCK:   -0.95 KCAL/MOL
REMARK 927      BINDING AFFINITY PREDICTED BY RF-SCORE:    0.00 PKD
ROOT
HETATM    1  O   UNL     1     -10.117   4.616  67.217  1.00  0.00    -0.179 OA 
HETATM    2  C   UNL     1     -10.312   5.867  67.689  1.00  0.00    -0.212 C  
HETATM    3  O   UNL     1     -11.121   6.626  67.189  1.00  0.00    -0.392 OA 
HETATM    4  C   UNL     1      -9.387   6.284  68.777  1.00  0.00    -0.124 A  
HETATM    5  C   UNL     1      -9.130   5.438  69.878  1.00  0.00    -0.135 A  
HETATM    6 CL   UNL     1      -9.891   3.874  69.988  1.00  0.00    -0.234 Cl 
HETATM    7  C   UNL     1      -8.271   5.859  70.913  1.00  0.00    -0.125 A  
HETATM    8 CL   UNL     1      -7.966   4.809  72.271  1.00  0.00    -0.104 Cl 
HETATM    9  C   UNL     1      -7.655   7.119  70.850  1.00  0.00    -0.085 A  
HETATM   10  C   UNL     1      -7.902   7.967  69.752  1.00  0.00    -0.104 A  
HETATM   11 CL   UNL     1      -6.605   7.642  72.137  1.00  0.00    -0.053 Cl 
HETATM   12  C   UNL     1      -8.790   7.579  68.718  1.00  0.00    -0.131 A  
HETATM   13 CL   UNL     1      -7.084   9.504  69.645  1.00  0.00    -0.066 Cl 
ENDROOT
BRANCH  12  14
HETATM   14  C   UNL     1      -9.110   8.567  67.621  1.00  0.00    -0.144 A  
HETATM   15  C   UNL     1     -10.041   9.547  67.795  1.00  0.00    -0.244 A  
HETATM   16  C   UNL     1     -10.801   9.685  69.038  1.00  0.00    -0.206 C  
HETATM   17  C   UNL     1     -11.559  10.764  69.293  1.00  0.00    -0.305 C  
HETATM   18  C   UNL     1     -11.671  11.865  68.281  1.00  0.00    -0.321 C  
HETATM   19  I   UNL     1     -12.597  10.935  71.062  1.00  0.00    -0.438 I  
HETATM   20  C   UNL     1     -11.107  11.587  66.920  1.00  0.00    -0.307 C  
HETATM   21  O   UNL     1     -12.225  12.926  68.549  1.00  0.00    -0.203 OA 
HETATM   22  I   UNL     1     -11.545  12.954  65.415  1.00  0.00    -0.470 I  
HETATM   23  C   UNL     1     -10.357  10.489  66.707  1.00  0.00    -0.245 A  
HETATM   24  O   UNL     1      -9.894  10.223  65.430  1.00  0.00    -0.255 OA 
HETATM   25  C   UNL     1      -8.929   9.277  65.223  1.00  0.00    -0.213 A  
HETATM   26  C   UNL     1      -8.419   9.142  63.919  1.00  0.00    -0.180 A  
HETATM   27  C   UNL     1      -7.436   8.187  63.647  1.00  0.00    -0.120 A  
HETATM   28  I   UNL     1      -9.128  10.375  62.356  1.00  0.00    -0.307 I  
HETATM   29  C   UNL     1      -6.941   7.404  64.690  1.00  0.00    -0.051 A  
HETATM   30  O   UNL     1      -6.957   8.001  62.379  1.00  0.00    -0.085 OA 
HETATM   31  H   UNL     1      -6.289   7.351  62.193  1.00  0.00     0.000 HD 
HETATM   32  I   UNL     1      -5.460   5.957  64.376  1.00  0.00    -0.018 I  
HETATM   33  C   UNL     1      -7.446   7.552  65.990  1.00  0.00    -0.083 A  
HETATM   34  C   UNL     1      -8.471   8.472  66.269  1.00  0.00    -0.130 A  
ENDBRANCH  12  14
TORSDOF 1
ENDMDL
MODEL       19
REMARK 921   NORMALIZED FREE ENERGY PREDICTED BY IDOCK:   -6.12 KCAL/MOL
REMARK 922        TOTAL FREE ENERGY PREDICTED BY IDOCK:   -7.18 KCAL/MOL
REMARK 923 INTER-LIGAND FREE ENERGY PREDICTED BY IDOCK:   -6.26 KCAL/MOL
REMARK 924 INTRA-LIGAND FREE ENERGY PREDICTED BY IDOCK:   -0.92 KCAL/MOL
REMARK 927      BINDING AFFINITY PREDICTED BY RF-SCORE:    0.00 PKD
ROOT
HETATM    1  O   UNL     1      -6.452   6.334  70.532  1.00  0.00    -0.041 OA 
HETATM    2  C   UNL     1      -6.987   6.825  69.392  1.00  0.00    -0.067 C  
HETATM    3  O   UNL     1      -7.107   8.020  69.198  1.00  0.00    -0.065 OA 
HETATM    4  C   UNL     1      -7.524   5.803  68.454  1.00  0.00    -0.081 A  
HETATM    5  C   UNL     1      -6.775   4.653  68.123  1.00  0.00    -0.054 A  
HETATM    6 CL   UNL     1      -5.194   4.399  68.813  1.00  0.00    -0.007 Cl 
HETATM    7  C   UNL     1      -7.287   3.707  67.214  1.00  0.00    -0.064 A  
HETATM    8 CL   UNL     1      -6.350   2.294  66.807  1.00  0.00    -0.024 Cl 
HETATM    9  C   UNL     1      -8.554   3.897  66.637  1.00  0.00    -0.111 A  
HETATM   10  C   UNL     1      -9.311   5.038  66.967  1.00  0.00    -0.128 A  
HETATM   11 CL   UNL     1      -9.179   2.733  65.503  1.00  0.00    -0.141 Cl 
HETATM   12  C   UNL     1      -8.800   6.021  67.851  1.00  0.00    -0.110 A  
HETATM   13 CL   UNL     1     -10.911   5.237  66.300  1.00  0.00    -0.288 Cl 
ENDROOT
BRANCH  12  14
HETATM   14  C   UNL     1      -9.599   7.281  68.084  1.00  0.00    -0.145 A  
HETATM   15  C   UNL     1      -9.573   8.315  67.196  1.00  0.00    -0.234 A  
HETATM   16  C   UNL     1      -8.754   8.277  65.984  1.00  0.00    -0.181 C  
HETATM   17  C   UNL     1      -8.885   9.191  65.009  1.00  0.00    -0.189 C  
HETATM   18  C   UNL     1      -9.872  10.311  65.150  1.00  0.00    -0.321 C  
HETATM   19  I   UNL     1      -7.732   9.095  63.307  1.00  0.00    -0.140 I  
HETATM   20  C   UNL     1     -10.503  10.485  66.498  1.00  0.00    -0.212 C  
HETATM   21  O   UNL     1     -10.122  11.064  64.214  1.00  0.00    -0.283 OA 
HETATM   22  I   UNL     1     -11.609  12.218  66.811  1.00  0.00    -0.266 I  
HETATM   23  C   UNL     1     -10.341   9.546  67.449  1.00  0.00    -0.258 A  
HETATM   24  O   UNL     1     -10.887   9.753  68.705  1.00  0.00    -0.222 OA 
HETATM   25  C   UNL     1     -10.969   8.728  69.605  1.00  0.00    -0.105 A  
HETATM   26  C   UNL     1     -11.642   8.978  70.815  1.00  0.00    -0.265 A  
HETATM   27  C   UNL     1     -11.751   7.970  71.777  1.00  0.00    -0.291 A  
HETATM   28  I   UNL     1     -12.495  10.873  71.199  1.00  0.00    -0.411 I  
HETATM   29  C   UNL     1     -11.223   6.708  71.502  1.00  0.00    -0.270 A  
HETATM   30  O   UNL     1     -12.357   8.199  72.982  1.00  0.00    -0.666 OA 
HETATM   31  H   UNL     1     -12.431   7.513  73.636  1.00  0.00     0.000 HD 
HETATM   32  I   UNL     1     -11.352   5.135  72.879  1.00  0.00    -0.115 I  
HETATM   33  C   UNL     1     -10.564   6.463  70.289  1.00  0.00    -0.290 A  
HETATM   34  C   UNL     1     -10.401   7.481  69.335  1.00  0.00    -0.213 A  
ENDBRANCH  12  14
TORSDOF 1
ENDMDL
MODEL       20
REMARK 921   NORMALIZED FREE ENERGY PREDICTED BY IDOCK:   -6.10 KCAL/MOL
REMARK 922        TOTAL FREE ENERGY PREDICTED BY IDOCK:   -7.16 KCAL/MOL
REMARK 923 INTER-LIGAND FREE ENERGY PREDICTED BY IDOCK:   -6.43 KCAL/MOL
REMARK 924 INTRA-LIGAND FREE ENERGY PREDICTED BY IDOCK:   -0.73 KCAL/MOL
REMARK 927      BINDING AFFINITY PREDICTED BY RF-SCORE:    0.00 PKD
ROOT
HETATM    1  O   UNL     1      -6.393   9.024  68.144  1.00  0.00    -0.054 OA 
HETATM    2  C   UNL     1      -7.151  10.127  67.957  1.00  0.00    -0.084 C  
HETATM    3  O   UNL     1      -7.465  10.858  68.877  1.00  0.00    -0.098 OA 
HETATM    4  C   UNL     1      -7.669  10.311  66.574  1.00  0.00    -0.113 A  
HETATM    5  C   UNL     1      -6.820  10.171  65.454  1.00  0.00    -0.128 A  
HETATM    6 CL   UNL     1      -5.137   9.772  65.665  1.00  0.00    -0.038 Cl 
HETATM    7  C   UNL     1      -7.321  10.373  64.153  1.00  0.00     0.013 A  
HETATM    8 CL   UNL     1      -6.262  10.204  62.777  1.00  0.00    -0.125 Cl 
HETATM    9  C   UNL     1      -8.672  10.705  63.960  1.00  0.00    -0.131 A  
HETATM   10  C   UNL     1      -9.526  10.841  65.071  1.00  0.00    -0.241 A  
HETATM   11 CL   UNL     1      -9.284  10.968  62.351  1.00  0.00    -0.327 Cl 
HETATM   12  C   UNL     1      -9.036  10.678  66.391  1.00  0.00    -0.183 A  
HETATM   13 CL   UNL     1     -11.218  11.189  64.824  1.00  0.00    -0.140 Cl 
ENDROOT
BRANCH  12  14
HETATM   14  C   UNL     1      -9.964  10.946  67.554  1.00  0.00    -0.201 A  
HETATM   15  C   UNL     1     -10.286  12.216  67.929  1.00  0.00    -0.203 A  
HETATM   16  C   UNL     1      -9.736  13.390  67.250  1.00  0.00    -0.232 C  
HETATM   17  C   UNL     1     -10.208  14.627  67.474  1.00  0.00    -0.225 C  
HETATM   18  C   UNL     1     -11.312  14.847  68.464  1.00  0.00    -0.298 C  
HETATM   19  I   UNL     1      -9.426  16.253  66.484  1.00  0.00    -0.373 I  
HETATM   20  C   UNL     1     -11.675  13.683  69.335  1.00  0.00    -0.324 C  
HETATM   21  O   UNL     1     -11.866  15.936  68.572  1.00  0.00    -0.366 OA 
HETATM   22  I   UNL     1     -12.957  14.055  70.930  1.00  0.00    -0.147 I  
HETATM   23  C   UNL     1     -11.174  12.460  69.078  1.00  0.00    -0.266 A  
HETATM   24  O   UNL     1     -11.478  11.411  69.929  1.00  0.00    -0.283 OA 
HETATM   25  C   UNL     1     -11.209  10.121  69.567  1.00  0.00    -0.238 A  
HETATM   26  C   UNL     1     -11.652   9.098  70.425  1.00  0.00    -0.146 A  
HETATM   27  C   UNL     1     -11.399   7.761  70.109  1.00  0.00    -0.110 A  
HETATM   28  I   UNL     1     -12.702   9.564  72.199  1.00  0.00    -0.259 I  
HETATM   29  C   UNL     1     -10.742   7.456  68.916  1.00  0.00    -0.130 A  
HETATM   30  O   UNL     1     -11.776   6.748  70.949  1.00  0.00    -0.332 OA 
HETATM   31  H   UNL     1     -11.604   5.838  70.735  1.00  0.00     0.000 HD 
HETATM   32  I   UNL     1     -10.333   5.479  68.358  1.00  0.00    -0.133 I  
HETATM   33  C   UNL     1     -10.314   8.480  68.060  1.00  0.00    -0.272 A  
HETATM   34  C   UNL     1     -10.514   9.831  68.389  1.00  0.00    -0.250 A  
ENDBRANCH  12  14
TORSDOF 1
ENDMDL
MODEL       21
REMARK 921   NORMALIZED FREE ENERGY PREDICTED BY IDOCK:   -6.03 KCAL/MOL
REMARK 922        TOTAL FREE ENERGY PREDICTED BY IDOCK:   -7.09 KCAL/MOL
REMARK 923 INTER-LIGAND FREE ENERGY PREDICTED BY IDOCK:   -6.15 KCAL/MOL
REMARK 924 INTRA-LIGAND FREE ENERGY PREDICTED BY IDOCK:   -0.94 KCAL/MOL
REMARK 927      BINDING AFFINITY PREDICTED BY RF-SCORE:    0.00 PKD
ROOT
HETATM    1  O   UNL     1      -6.287   7.545  70.178  1.00  0.00    -0.033 OA 
HETATM    2  C   UNL     1      -6.726   7.646  68.904  1.00  0.00    -0.050 C  
HETATM    3  O   UNL     1      -6.696   8.697  68.292  1.00  0.00    -0.063 OA 
HETATM    4  C   UNL     1      -7.356   6.416  68.354  1.00  0.00    -0.087 A  
HETATM    5  C   UNL     1      -6.741   5.154  68.503  1.00  0.00    -0.050 A  
HETATM    6 CL   UNL     1      -5.223   5.004  69.346  1.00  0.00     0.000 Cl 
HETATM    7  C   UNL     1      -7.338   4.002  67.954  1.00  0.00    -0.067 A  
HETATM    8 CL   UNL     1      -6.566   2.449  68.139  1.00  0.00    -0.029 Cl 
HETATM    9  C   UNL     1      -8.556   4.100  67.261  1.00  0.00    -0.101 A  
HETATM   10  C   UNL     1      -9.179   5.355  67.113  1.00  0.00    -0.111 A  
HETATM   11 CL   UNL     1      -9.284   2.677  66.571  1.00  0.00    -0.123 Cl 
HETATM   12  C   UNL     1      -8.579   6.531  67.626  1.00  0.00    -0.116 A  
HETATM   13 CL   UNL     1     -10.724   5.463  66.310  1.00  0.00    -0.299 Cl 
ENDROOT
BRANCH  12  14
HETATM   14  C   UNL     1      -9.227   7.866  67.342  1.00  0.00    -0.160 A  
HETATM   15  C   UNL     1      -9.040   8.511  66.156  1.00  0.00    -0.245 A  
HETATM   16  C   UNL     1      -8.183   7.965  65.102  1.00  0.00    -0.143 C  
HETATM   17  C   UNL     1      -8.162   8.483  63.863  1.00  0.00    -0.127 C  
HETATM   18  C   UNL     1      -9.010   9.673  63.527  1.00  0.00    -0.217 C  
HETATM   19  I   UNL     1      -6.962   7.676  62.399  1.00  0.00    -0.083 I  
HETATM   20  C   UNL     1      -9.669  10.375  64.676  1.00  0.00    -0.329 C  
HETATM   21  O   UNL     1      -9.129  10.068  62.371  1.00  0.00    -0.248 OA 
HETATM   22  I   UNL     1     -10.566  12.208  64.279  1.00  0.00    -0.515 I  
HETATM   23  C   UNL     1      -9.661   9.822  65.904  1.00  0.00    -0.266 A  
HETATM   24  O   UNL     1     -10.228  10.513  66.961  1.00  0.00    -0.207 OA 
HETATM   25  C   UNL     1     -10.470   9.887  68.151  1.00  0.00    -0.215 A  
HETATM   26  C   UNL     1     -11.155  10.614  69.141  1.00  0.00    -0.255 A  
HETATM   27  C   UNL     1     -11.425  10.028  70.381  1.00  0.00    -0.314 A  
HETATM   28  I   UNL     1     -11.786  12.598  68.774  1.00  0.00    -0.275 I  
HETATM   29  C   UNL     1     -11.044   8.704  70.604  1.00  0.00    -0.249 A  
HETATM   30  O   UNL     1     -12.047  10.728  71.379  1.00  0.00    -0.307 OA 
HETATM   31  H   UNL     1     -12.231  10.329  72.221  1.00  0.00     0.000 HD 
HETATM   32  I   UNL     1     -11.420   7.741  72.426  1.00  0.00    -0.420 I  
HETATM   33  C   UNL     1     -10.372   7.982  69.608  1.00  0.00    -0.220 A  
HETATM   34  C   UNL     1     -10.048   8.574  68.377  1.00  0.00    -0.221 A  
ENDBRANCH  12  14
TORSDOF 1
ENDMDL
MODEL       22
REMARK 921   NORMALIZED FREE ENERGY PREDICTED BY IDOCK:   -6.00 KCAL/MOL
REMARK 922        TOTAL FREE ENERGY PREDICTED BY IDOCK:   -7.05 KCAL/MOL
REMARK 923 INTER-LIGAND FREE ENERGY PREDICTED BY IDOCK:   -6.30 KCAL/MOL
REMARK 924 INTRA-LIGAND FREE ENERGY PREDICTED BY IDOCK:   -0.75 KCAL/MOL
REMARK 927      BINDING AFFINITY PREDICTED BY RF-SCORE:    0.00 PKD
ROOT
HETATM    1  O   UNL     1     -11.702  14.640  67.811  1.00  0.00    -0.347 OA 
HETATM    2  C   UNL     1     -11.238  13.384  67.994  1.00  0.00    -0.268 C  
HETATM    3  O   UNL     1     -11.052  12.919  69.103  1.00  0.00    -0.243 OA 
HETATM    4  C   UNL     1     -10.861  12.662  66.749  1.00  0.00    -0.279 A  
HETATM    5  C   UNL     1     -11.716  12.651  65.626  1.00  0.00    -0.412 A  
HETATM    6 CL   UNL     1     -13.242  13.492  65.668  1.00  0.00    -0.047 Cl 
HETATM    7  C   UNL     1     -11.355  11.941  64.463  1.00  0.00    -0.316 A  
HETATM    8 CL   UNL     1     -12.422  11.929  63.084  1.00  0.00    -0.538 Cl 
HETATM    9  C   UNL     1     -10.135  11.247  64.410  1.00  0.00    -0.303 A  
HETATM   10  C   UNL     1      -9.273  11.258  65.524  1.00  0.00    -0.202 A  
HETATM   11 CL   UNL     1      -9.698  10.359  62.977  1.00  0.00    -0.338 Cl 
HETATM   12  C   UNL     1      -9.632  11.935  66.716  1.00  0.00    -0.214 A  
HETATM   13 CL   UNL     1      -7.730  10.450  65.432  1.00  0.00    -0.146 Cl 
ENDROOT
BRANCH  12  14
HETATM   14  C   UNL     1      -8.728  11.822  67.922  1.00  0.00    -0.164 A  
HETATM   15  C   UNL     1      -7.911  12.847  68.296  1.00  0.00    -0.142 A  
HETATM   16  C   UNL     1      -7.840  14.099  67.542  1.00  0.00    -0.207 C  
HETATM   17  C   UNL     1      -7.203  15.181  68.019  1.00  0.00    -0.127 C  
HETATM   18  C   UNL     1      -6.511  15.126  69.348  1.00  0.00    -0.136 C  
HETATM   19  I   UNL     1      -7.143  16.934  66.942  1.00  0.00    -0.296 I  
HETATM   20  C   UNL     1      -6.367  13.773  69.975  1.00  0.00    -0.084 C  
HETATM   21  O   UNL     1      -6.059  16.138  69.876  1.00  0.00    -0.180 OA 
HETATM   22  I   UNL     1      -5.127  13.625  71.638  1.00  0.00    -0.184 I  
HETATM   23  C   UNL     1      -7.019  12.713  69.461  1.00  0.00     0.181 A  
HETATM   24  O   UNL     1      -6.828  11.463  70.023  1.00  0.00    -0.067 OA 
HETATM   25  C   UNL     1      -7.655  10.423  69.703  1.00  0.00    -0.153 A  
HETATM   26  C   UNL     1      -7.479   9.213  70.399  1.00  0.00    -0.106 A  
HETATM   27  C   UNL     1      -8.291   8.114  70.110  1.00  0.00    -0.125 A  
HETATM   28  I   UNL     1      -5.987   9.037  71.887  1.00  0.00     0.038 I  
HETATM   29  C   UNL     1      -9.302   8.246  69.157  1.00  0.00    -0.151 A  
HETATM   30  O   UNL     1      -8.110   6.911  70.737  1.00  0.00    -0.111 OA 
HETATM   31  H   UNL     1      -8.662   6.163  70.541  1.00  0.00     0.000 HD 
HETATM   32  I   UNL     1     -10.574   6.655  68.671  1.00  0.00    -0.335 I  
HETATM   33  C   UNL     1      -9.480   9.459  68.476  1.00  0.00    -0.150 A  
HETATM   34  C   UNL     1      -8.637  10.556  68.718  1.00  0.00    -0.146 A  
ENDBRANCH  12  14
TORSDOF 1
ENDMDL
MODEL       23
REMARK 921   NORMALIZED FREE ENERGY PREDICTED BY IDOCK:   -5.99 KCAL/MOL
REMARK 922        TOTAL FREE ENERGY PREDICTED BY IDOCK:   -7.05 KCAL/MOL
REMARK 923 INTER-LIGAND FREE ENERGY PREDICTED BY IDOCK:   -5.98 KCAL/MOL
REMARK 924 INTRA-LIGAND FREE ENERGY PREDICTED BY IDOCK:   -1.07 KCAL/MOL
REMARK 927      BINDING AFFINITY PREDICTED BY RF-SCORE:    0.00 PKD
ROOT
HETATM    1  O   UNL     1      -6.134   6.470  70.080  1.00  0.00    -0.028 OA 
HETATM    2  C   UNL     1      -6.749   7.003  69.002  1.00  0.00    -0.056 C  
HETATM    3  O   UNL     1      -6.831   8.206  68.834  1.00  0.00    -0.058 OA 
HETATM    4  C   UNL     1      -7.417   6.022  68.105  1.00  0.00    -0.089 A  
HETATM    5  C   UNL     1      -6.754   4.846  67.691  1.00  0.00    -0.055 A  
HETATM    6 CL   UNL     1      -5.130   4.510  68.228  1.00  0.00    -0.003 Cl 
HETATM    7  C   UNL     1      -7.392   3.938  66.822  1.00  0.00    -0.072 A  
HETATM    8 CL   UNL     1      -6.562   2.492  66.312  1.00  0.00    -0.031 Cl 
HETATM    9  C   UNL     1      -8.696   4.194  66.368  1.00  0.00    -0.115 A  
HETATM   10  C   UNL     1      -9.367   5.362  66.781  1.00  0.00    -0.134 A  
HETATM   11 CL   UNL     1      -9.476   3.077  65.283  1.00  0.00    -0.125 Cl 
HETATM   12  C   UNL     1      -8.731   6.306  67.626  1.00  0.00    -0.113 A  
HETATM   13 CL   UNL     1     -11.011   5.643  66.269  1.00  0.00    -0.130 Cl 
ENDROOT
BRANCH  12  14
HETATM   14  C   UNL     1      -9.448   7.597  67.949  1.00  0.00    -0.156 A  
HETATM   15  C   UNL     1     -10.181   7.737  69.088  1.00  0.00    -0.210 A  
HETATM   16  C   UNL     1     -10.341   6.645  70.050  1.00  0.00    -0.232 C  
HETATM   17  C   UNL     1     -10.880   6.840  71.264  1.00  0.00    -0.232 C  
HETATM   18  C   UNL     1     -11.367   8.200  71.666  1.00  0.00    -0.264 C  
HETATM   19  I   UNL     1     -11.068   5.286  72.600  1.00  0.00    -0.233 I  
HETATM   20  C   UNL     1     -11.440   9.234  70.584  1.00  0.00    -0.274 C  
HETATM   21  O   UNL     1     -11.717   8.440  72.817  1.00  0.00    -0.367 OA 
HETATM   22  I   UNL     1     -12.421  11.012  71.035  1.00  0.00    -0.390 I  
HETATM   23  C   UNL     1     -10.891   8.995  69.378  1.00  0.00    -0.138 A  
HETATM   24  O   UNL     1     -11.020   9.942  68.376  1.00  0.00    -0.231 OA 
HETATM   25  C   UNL     1     -10.268   9.856  67.237  1.00  0.00    -0.222 A  
HETATM   26  C   UNL     1     -10.361  10.914  66.315  1.00  0.00    -0.250 A  
HETATM   27  C   UNL     1      -9.620  10.877  65.130  1.00  0.00    -0.243 A  
HETATM   28  I   UNL     1     -11.617  12.570  66.702  1.00  0.00    -0.360 I  
HETATM   29  C   UNL     1      -8.761   9.803  64.898  1.00  0.00    -0.183 A  
HETATM   30  O   UNL     1      -9.728  11.869  64.193  1.00  0.00    -0.421 OA 
HETATM   31  H   UNL     1      -9.225  11.844  63.388  1.00  0.00     0.000 HD 
HETATM   32  I   UNL     1      -7.605   9.672  63.156  1.00  0.00    -0.136 I  
HETATM   33  C   UNL     1      -8.665   8.758  65.828  1.00  0.00    -0.209 A  
HETATM   34  C   UNL     1      -9.442   8.755  66.998  1.00  0.00    -0.218 A  
ENDBRANCH  12  14
TORSDOF 1
ENDMDL
MODEL       24
REMARK 921   NORMALIZED FREE ENERGY PREDICTED BY IDOCK:   -5.95 KCAL/MOL
REMARK 922        TOTAL FREE ENERGY PREDICTED BY IDOCK:   -7.00 KCAL/MOL
REMARK 923 INTER-LIGAND FREE ENERGY PREDICTED BY IDOCK:   -6.03 KCAL/MOL
REMARK 924 INTRA-LIGAND FREE ENERGY PREDICTED BY IDOCK:   -0.98 KCAL/MOL
REMARK 927      BINDING AFFINITY PREDICTED BY RF-SCORE:    0.00 PKD
ROOT
HETATM    1  O   UNL     1      -7.001  10.356  70.691  1.00  0.00    -0.324 OA 
HETATM    2  C   UNL     1      -7.210   9.636  69.567  1.00  0.00    -0.080 C  
HETATM    3  O   UNL     1      -6.871  10.039  68.470  1.00  0.00    -0.054 OA 
HETATM    4  C   UNL     1      -7.988   8.382  69.755  1.00  0.00    -0.104 A  
HETATM    5  C   UNL     1      -7.676   7.482  70.797  1.00  0.00    -0.083 A  
HETATM    6 CL   UNL     1      -6.369   7.822  71.898  1.00  0.00    -0.039 Cl 
HETATM    7  C   UNL     1      -8.407   6.286  70.946  1.00  0.00    -0.127 A  
HETATM    8 CL   UNL     1      -8.009   5.178  72.233  1.00  0.00    -0.107 Cl 
HETATM    9  C   UNL     1      -9.457   5.986  70.063  1.00  0.00    -0.156 A  
HETATM   10  C   UNL     1      -9.778   6.882  69.024  1.00  0.00    -0.150 A  
HETATM   11 CL   UNL     1     -10.349   4.501  70.241  1.00  0.00    -0.131 Cl 
HETATM   12  C   UNL     1      -9.034   8.073  68.834  1.00  0.00    -0.141 A  
HETATM   13 CL   UNL     1     -11.126   6.538  67.971  1.00  0.00    -0.360 Cl 
ENDROOT
BRANCH  12  14
HETATM   14  C   UNL     1      -9.342   8.944  67.639  1.00  0.00    -0.156 A  
HETATM   15  C   UNL     1      -8.786   8.700  66.418  1.00  0.00    -0.167 A  
HETATM   16  C   UNL     1      -7.843   7.603  66.200  1.00  0.00    -0.096 C  
HETATM   17  C   UNL     1      -7.459   7.231  64.968  1.00  0.00    -0.089 C  
HETATM   18  C   UNL     1      -7.974   7.959  63.763  1.00  0.00    -0.119 C  
HETATM   19  I   UNL     1      -6.147   5.668  64.695  1.00  0.00    -0.026 I  
HETATM   20  C   UNL     1      -8.719   9.234  64.016  1.00  0.00    -0.171 C  
HETATM   21  O   UNL     1      -7.765   7.544  62.627  1.00  0.00    -0.111 OA 
HETATM   22  I   UNL     1      -9.147  10.426  62.366  1.00  0.00    -0.307 I  
HETATM   23  C   UNL     1      -9.080   9.572  65.268  1.00  0.00    -0.224 A  
HETATM   24  O   UNL     1      -9.719  10.781  65.485  1.00  0.00    -0.211 OA 
HETATM   25  C   UNL     1     -10.325  11.043  66.682  1.00  0.00    -0.240 A  
HETATM   26  C   UNL     1     -11.056  12.239  66.794  1.00  0.00    -0.296 A  
HETATM   27  C   UNL     1     -11.692  12.562  67.996  1.00  0.00    -0.355 A  
HETATM   28  I   UNL     1     -11.206  13.563  65.153  1.00  0.00    -0.385 I  
HETATM   29  C   UNL     1     -11.625  11.665  69.063  1.00  0.00    -0.316 A  
HETATM   30  O   UNL     1     -12.369  13.741  68.148  1.00  0.00    -0.436 OA 
HETATM   31  H   UNL     1     -12.801  13.961  68.965  1.00  0.00     0.000 HD 
HETATM   32  I   UNL     1     -12.557  12.062  70.896  1.00  0.00     0.038 I  
HETATM   33  C   UNL     1     -10.904  10.469  68.941  1.00  0.00    -0.275 A  
HETATM   34  C   UNL     1     -10.216  10.155  67.756  1.00  0.00    -0.232 A  
ENDBRANCH  12  14
TORSDOF 1
ENDMDL
MODEL       25
REMARK 921   NORMALIZED FREE ENERGY PREDICTED BY IDOCK:   -5.92 KCAL/MOL
REMARK 922        TOTAL FREE ENERGY PREDICTED BY IDOCK:   -6.97 KCAL/MOL
REMARK 923 INTER-LIGAND FREE ENERGY PREDICTED BY IDOCK:   -6.02 KCAL/MOL
REMARK 924 INTRA-LIGAND FREE ENERGY PREDICTED BY IDOCK:   -0.95 KCAL/MOL
REMARK 927      BINDING AFFINITY PREDICTED BY RF-SCORE:    0.00 PKD
ROOT
HETATM    1  O   UNL     1     -10.456   5.172  67.597  1.00  0.00    -0.151 OA 
HETATM    2  C   UNL     1     -10.601   6.471  67.938  1.00  0.00    -0.252 C  
HETATM    3  O   UNL     1     -11.378   7.208  67.360  1.00  0.00    -0.097 OA 
HETATM    4  C   UNL     1      -9.660   6.960  68.981  1.00  0.00    -0.136 A  
HETATM    5  C   UNL     1      -9.438   6.221  70.164  1.00  0.00    -0.159 A  
HETATM    6 CL   UNL     1     -10.262   4.709  70.430  1.00  0.00    -0.269 Cl 
HETATM    7  C   UNL     1      -8.562   6.710  71.154  1.00  0.00    -0.130 A  
HETATM    8 CL   UNL     1      -8.300   5.793  72.614  1.00  0.00    -0.116 Cl 
HETATM    9  C   UNL     1      -7.896   7.932  70.966  1.00  0.00    -0.089 A  
HETATM   10  C   UNL     1      -8.107   8.672  69.786  1.00  0.00    -0.114 A  
HETATM   11 CL   UNL     1      -6.825   8.540  72.197  1.00  0.00    -0.097 Cl 
HETATM   12  C   UNL     1      -9.010   8.217  68.794  1.00  0.00    -0.144 A  
HETATM   13 CL   UNL     1      -7.227  10.156  69.526  1.00  0.00    -0.099 Cl 
ENDROOT
BRANCH  12  14
HETATM   14  C   UNL     1      -9.289   9.100  67.599  1.00  0.00    -0.154 A  
HETATM   15  C   UNL     1      -8.688   8.880  66.396  1.00  0.00    -0.148 A  
HETATM   16  C   UNL     1      -7.723   7.799  66.196  1.00  0.00    -0.089 C  
HETATM   17  C   UNL     1      -7.291   7.448  64.974  1.00  0.00    -0.078 C  
HETATM   18  C   UNL     1      -7.775   8.185  63.761  1.00  0.00    -0.142 C  
HETATM   19  I   UNL     1      -5.949   5.907  64.727  1.00  0.00    -0.027 I  
HETATM   20  C   UNL     1      -8.547   9.446  64.004  1.00  0.00    -0.205 C  
HETATM   21  O   UNL     1      -7.522   7.788  62.628  1.00  0.00    -0.095 OA 
HETATM   22  I   UNL     1      -8.934  10.654  62.356  1.00  0.00    -0.314 I  
HETATM   23  C   UNL     1      -8.955   9.763  65.248  1.00  0.00    -0.193 A  
HETATM   24  O   UNL     1      -9.617  10.960  65.458  1.00  0.00    -0.198 OA 
HETATM   25  C   UNL     1     -10.268  11.198  66.637  1.00  0.00    -0.232 A  
HETATM   26  C   UNL     1     -11.019  12.382  66.738  1.00  0.00    -0.263 A  
HETATM   27  C   UNL     1     -11.700  12.681  67.922  1.00  0.00    -0.358 A  
HETATM   28  I   UNL     1     -11.132  13.726  65.110  1.00  0.00    -0.412 I  
HETATM   29  C   UNL     1     -11.657  11.771  68.979  1.00  0.00    -0.311 A  
HETATM   30  O   UNL     1     -12.399  13.849  68.065  1.00  0.00    -0.476 OA 
HETATM   31  H   UNL     1     -12.862  14.052  68.870  1.00  0.00     0.000 HD 
HETATM   32  I   UNL     1     -12.658  12.131  70.784  1.00  0.00     0.067 I  
HETATM   33  C   UNL     1     -10.916  10.587  68.866  1.00  0.00    -0.291 A  
HETATM   34  C   UNL     1     -10.184  10.298  67.702  1.00  0.00    -0.247 A  
ENDBRANCH  12  14
TORSDOF 1
ENDMDL
MODEL       26
REMARK 921   NORMALIZED FREE ENERGY PREDICTED BY IDOCK:   -5.91 KCAL/MOL
REMARK 922        TOTAL FREE ENERGY PREDICTED BY IDOCK:   -6.95 KCAL/MOL
REMARK 923 INTER-LIGAND FREE ENERGY PREDICTED BY IDOCK:   -6.11 KCAL/MOL
REMARK 924 INTRA-LIGAND FREE ENERGY PREDICTED BY IDOCK:   -0.84 KCAL/MOL
REMARK 927      BINDING AFFINITY PREDICTED BY RF-SCORE:    0.00 PKD
ROOT
HETATM    1  O   UNL     1      -8.228   9.131  64.801  1.00  0.00    -0.131 OA 
HETATM    2  C   UNL     1      -8.087  10.316  65.435  1.00  0.00    -0.147 C  
HETATM    3  O   UNL     1      -7.045  10.640  65.974  1.00  0.00    -0.128 OA 
HETATM    4  C   UNL     1      -9.325  11.135  65.528  1.00  0.00    -0.247 A  
HETATM    5  C   UNL     1     -10.149  11.340  64.399  1.00  0.00    -0.303 A  
HETATM    6 CL   UNL     1      -9.735  10.630  62.862  1.00  0.00    -0.350 Cl 
HETATM    7  C   UNL     1     -11.306  12.139  64.498  1.00  0.00    -0.334 A  
HETATM    8 CL   UNL     1     -12.312  12.390  63.097  1.00  0.00    -0.466 Cl 
HETATM    9  C   UNL     1     -11.652  12.729  65.724  1.00  0.00    -0.376 A  
HETATM   10  C   UNL     1     -10.839  12.525  66.857  1.00  0.00    -0.248 A  
HETATM   11 CL   UNL     1     -13.075  13.727  65.840  1.00  0.00    -0.254 Cl 
HETATM   12  C   UNL     1      -9.653  11.755  66.771  1.00  0.00    -0.212 A  
HETATM   13 CL   UNL     1     -11.309  13.205  68.393  1.00  0.00    -0.303 Cl 
ENDROOT
BRANCH  12  14
HETATM   14  C   UNL     1      -8.755  11.660  67.983  1.00  0.00    -0.157 A  
HETATM   15  C   UNL     1      -7.916  12.677  68.329  1.00  0.00    -0.153 A  
HETATM   16  C   UNL     1      -7.816  13.904  67.538  1.00  0.00    -0.193 C  
HETATM   17  C   UNL     1      -7.157  14.986  67.985  1.00  0.00    -0.132 C  
HETATM   18  C   UNL     1      -6.470  14.956  69.317  1.00  0.00    -0.121 C  
HETATM   19  I   UNL     1      -7.054  16.704  66.856  1.00  0.00    -0.219 I  
HETATM   20  C   UNL     1      -6.357  13.619  69.985  1.00  0.00    -0.065 C  
HETATM   21  O   UNL     1      -5.997  15.972  69.816  1.00  0.00    -0.151 OA 
HETATM   22  I   UNL     1      -5.126  13.495  71.657  1.00  0.00    -0.155 I  
HETATM   23  C   UNL     1      -7.031  12.559  69.500  1.00  0.00     0.177 A  
HETATM   24  O   UNL     1      -6.869  11.322  70.100  1.00  0.00    -0.136 OA 
HETATM   25  C   UNL     1      -7.718  10.291  69.810  1.00  0.00    -0.151 A  
HETATM   26  C   UNL     1      -7.570   9.100  70.542  1.00  0.00    -0.125 A  
HETATM   27  C   UNL     1      -8.406   8.010  70.283  1.00  0.00    -0.125 A  
HETATM   28  I   UNL     1      -6.087   8.936  72.040  1.00  0.00     0.045 I  
HETATM   29  C   UNL     1      -9.410   8.136  69.323  1.00  0.00    -0.151 A  
HETATM   30  O   UNL     1      -8.253   6.823  70.947  1.00  0.00    -0.120 OA 
HETATM   31  H   UNL     1      -8.821   6.082  70.771  1.00  0.00     0.000 HD 
HETATM   32  I   UNL     1     -10.716   6.559  68.880  1.00  0.00    -0.381 I  
HETATM   33  C   UNL     1      -9.560   9.331  68.605  1.00  0.00    -0.152 A  
HETATM   34  C   UNL     1      -8.694  10.417  68.817  1.00  0.00    -0.146 A  
ENDBRANCH  12  14
TORSDOF 1
ENDMDL
MODEL       27
REMARK 921   NORMALIZED FREE ENERGY PREDICTED BY IDOCK:   -5.86 KCAL/MOL
REMARK 922        TOTAL FREE ENERGY PREDICTED BY IDOCK:   -6.90 KCAL/MOL
REMARK 923 INTER-LIGAND FREE ENERGY PREDICTED BY IDOCK:   -6.13 KCAL/MOL
REMARK 924 INTRA-LIGAND FREE ENERGY PREDICTED BY IDOCK:   -0.77 KCAL/MOL
REMARK 927      BINDING AFFINITY PREDICTED BY RF-SCORE:    0.00 PKD
ROOT
HETATM    1  O   UNL     1     -11.539  14.492  67.813  1.00  0.00    -0.330 OA 
HETATM    2  C   UNL     1     -11.075  13.226  67.903  1.00  0.00    -0.262 C  
HETATM    3  O   UNL     1     -10.854  12.694  68.974  1.00  0.00    -0.222 OA 
HETATM    4  C   UNL     1     -10.743  12.582  66.604  1.00  0.00    -0.261 A  
HETATM    5  C   UNL     1     -11.636  12.642  65.512  1.00  0.00    -0.370 A  
HETATM    6 CL   UNL     1     -13.156  13.483  65.658  1.00  0.00    -0.237 Cl 
HETATM    7  C   UNL     1     -11.317  12.005  64.296  1.00  0.00    -0.364 A  
HETATM    8 CL   UNL     1     -12.431  12.081  62.956  1.00  0.00    -0.360 Cl 
HETATM    9  C   UNL     1     -10.103  11.312  64.159  1.00  0.00    -0.320 A  
HETATM   10  C   UNL     1      -9.204  11.252  65.242  1.00  0.00    -0.172 A  
HETATM   11 CL   UNL     1      -9.719  10.514  62.660  1.00  0.00    -0.280 Cl 
HETATM   12  C   UNL     1      -9.520  11.855  66.485  1.00  0.00    -0.226 A  
HETATM   13 CL   UNL     1      -7.668  10.448  65.048  1.00  0.00    -0.129 Cl 
ENDROOT
BRANCH  12  14
HETATM   14  C   UNL     1      -8.576  11.666  67.650  1.00  0.00    -0.142 A  
HETATM   15  C   UNL     1      -8.531  10.495  68.346  1.00  0.00    -0.128 A  
HETATM   16  C   UNL     1      -9.407   9.367  68.027  1.00  0.00    -0.140 C  
HETATM   17  C   UNL     1      -9.223   8.150  68.564  1.00  0.00    -0.136 C  
HETATM   18  C   UNL     1      -8.114   7.916  69.545  1.00  0.00    -0.121 C  
HETATM   19  I   UNL     1     -10.460   6.579  68.075  1.00  0.00    -0.390 I  
HETATM   20  C   UNL     1      -7.403   9.131  70.058  1.00  0.00    -0.070 C  
HETATM   21  O   UNL     1      -7.827   6.786  69.929  1.00  0.00    -0.110 OA 
HETATM   22  I   UNL     1      -6.100   8.864  71.656  1.00  0.00    -0.021 I  
HETATM   23  C   UNL     1      -7.621  10.334  69.493  1.00  0.00    -0.150 A  
HETATM   24  O   UNL     1      -6.996  11.452  70.019  1.00  0.00    -0.032 OA 
HETATM   25  C   UNL     1      -6.984  12.632  69.328  1.00  0.00     0.040 A  
HETATM   26  C   UNL     1      -6.231  13.692  69.864  1.00  0.00    -0.118 A  
HETATM   27  C   UNL     1      -6.188  14.923  69.205  1.00  0.00    -0.110 A  
HETATM   28  I   UNL     1      -5.157  13.443  71.668  1.00  0.00    -0.120 I  
HETATM   29  C   UNL     1      -6.864  15.071  67.994  1.00  0.00    -0.141 A  
HETATM   30  O   UNL     1      -5.502  15.986  69.728  1.00  0.00    -0.123 OA 
HETATM   31  H   UNL     1      -5.473  16.824  69.280  1.00  0.00     0.000 HD 
HETATM   32  I   UNL     1      -6.843  16.876  66.932  1.00  0.00    -0.257 I  
HETATM   33  C   UNL     1      -7.603  14.006  67.460  1.00  0.00    -0.195 A  
HETATM   34  C   UNL     1      -7.699  12.779  68.137  1.00  0.00    -0.137 A  
ENDBRANCH  12  14
TORSDOF 1
ENDMDL
MODEL       28
REMARK 921   NORMALIZED FREE ENERGY PREDICTED BY IDOCK:   -5.78 KCAL/MOL
REMARK 922        TOTAL FREE ENERGY PREDICTED BY IDOCK:   -6.82 KCAL/MOL
REMARK 923 INTER-LIGAND FREE ENERGY PREDICTED BY IDOCK:   -5.84 KCAL/MOL
REMARK 924 INTRA-LIGAND FREE ENERGY PREDICTED BY IDOCK:   -0.98 KCAL/MOL
REMARK 927      BINDING AFFINITY PREDICTED BY RF-SCORE:    0.00 PKD
ROOT
HETATM    1  O   UNL     1      -6.882  10.368  70.605  1.00  0.00    -0.328 OA 
HETATM    2  C   UNL     1      -7.141   9.199  69.980  1.00  0.00    -0.060 C  
HETATM    3  O   UNL     1      -6.569   8.873  68.957  1.00  0.00    -0.047 OA 
HETATM    4  C   UNL     1      -8.253   8.402  70.565  1.00  0.00    -0.113 A  
HETATM    5  C   UNL     1      -8.336   8.179  71.957  1.00  0.00    -0.152 A  
HETATM    6 CL   UNL     1      -7.134   8.841  73.031  1.00  0.00     0.042 Cl 
HETATM    7  C   UNL     1      -9.382   7.401  72.492  1.00  0.00    -0.146 A  
HETATM    8 CL   UNL     1      -9.472   7.128  74.212  1.00  0.00    -0.274 Cl 
HETATM    9  C   UNL     1     -10.356   6.850  71.644  1.00  0.00    -0.199 A  
HETATM   10  C   UNL     1     -10.284   7.072  70.254  1.00  0.00    -0.193 A  
HETATM   11 CL   UNL     1     -11.640   5.877  72.306  1.00  0.00    -0.355 Cl 
HETATM   12  C   UNL     1      -9.221   7.820  69.691  1.00  0.00    -0.153 A  
HETATM   13 CL   UNL     1     -11.532   6.441  69.211  1.00  0.00    -0.410 Cl 
ENDROOT
BRANCH  12  14
HETATM   14  C   UNL     1      -9.124   7.935  68.187  1.00  0.00    -0.133 A  
HETATM   15  C   UNL     1      -8.525   6.967  67.438  1.00  0.00    -0.121 A  
HETATM   16  C   UNL     1      -7.921   5.779  68.042  1.00  0.00    -0.101 C  
HETATM   17  C   UNL     1      -7.522   4.730  67.303  1.00  0.00    -0.082 C  
HETATM   18  C   UNL     1      -7.661   4.760  65.811  1.00  0.00    -0.090 C  
HETATM   19  I   UNL     1      -6.696   3.065  68.188  1.00  0.00    -0.046 I  
HETATM   20  C   UNL     1      -8.030   6.076  65.196  1.00  0.00    -0.123 C  
HETATM   21  O   UNL     1      -7.452   3.762  65.129  1.00  0.00    -0.071 OA 
HETATM   22  I   UNL     1      -7.901   6.226  63.126  1.00  0.00    -0.016 I  
HETATM   23  C   UNL     1      -8.419   7.104  65.975  1.00  0.00    -0.145 A  
HETATM   24  O   UNL     1      -8.701   8.327  65.391  1.00  0.00    -0.164 OA 
HETATM   25  C   UNL     1      -9.340   9.305  66.100  1.00  0.00    -0.212 A  
HETATM   26  C   UNL     1      -9.701  10.477  65.411  1.00  0.00    -0.257 A  
HETATM   27  C   UNL     1     -10.350  11.515  66.086  1.00  0.00    -0.245 A  
HETATM   28  I   UNL     1      -9.271  10.689  63.352  1.00  0.00    -0.362 I  
HETATM   29  C   UNL     1     -10.669  11.353  67.435  1.00  0.00    -0.232 A  
HETATM   30  O   UNL     1     -10.670  12.685  65.452  1.00  0.00    -0.269 OA 
HETATM   31  H   UNL     1     -11.112  13.390  65.912  1.00  0.00     0.000 HD 
HETATM   32  I   UNL     1     -11.652  12.851  68.521  1.00  0.00    -0.376 I  
HETATM   33  C   UNL     1     -10.316  10.178  68.112  1.00  0.00    -0.217 A  
HETATM   34  C   UNL     1      -9.617   9.148  67.460  1.00  0.00    -0.186 A  
ENDBRANCH  12  14
TORSDOF 1
ENDMDL
MODEL       29
REMARK 921   NORMALIZED FREE ENERGY PREDICTED BY IDOCK:   -5.77 KCAL/MOL
REMARK 922        TOTAL FREE ENERGY PREDICTED BY IDOCK:   -6.81 KCAL/MOL
REMARK 923 INTER-LIGAND FREE ENERGY PREDICTED BY IDOCK:   -5.85 KCAL/MOL
REMARK 924 INTRA-LIGAND FREE ENERGY PREDICTED BY IDOCK:   -0.96 KCAL/MOL
REMARK 927      BINDING AFFINITY PREDICTED BY RF-SCORE:    0.00 PKD
ROOT
HETATM    1  O   UNL     1     -10.706   4.598  65.497  1.00  0.00    -0.275 OA 
HETATM    2  C   UNL     1     -10.586   5.419  66.563  1.00  0.00    -0.289 C  
HETATM    3  O   UNL     1     -11.435   6.247  66.838  1.00  0.00    -0.134 OA 
HETATM    4  C   UNL     1      -9.297   5.318  67.297  1.00  0.00    -0.123 A  
HETATM    5  C   UNL     1      -8.756   4.063  67.652  1.00  0.00    -0.105 A  
HETATM    6 CL   UNL     1      -9.590   2.591  67.231  1.00  0.00    -0.021 Cl 
HETATM    7  C   UNL     1      -7.546   3.985  68.369  1.00  0.00    -0.066 A  
HETATM    8 CL   UNL     1      -6.892   2.429  68.807  1.00  0.00    -0.039 Cl 
HETATM    9  C   UNL     1      -6.863   5.158  68.728  1.00  0.00    -0.051 A  
HETATM   10  C   UNL     1      -7.391   6.415  68.373  1.00  0.00    -0.087 A  
HETATM   11 CL   UNL     1      -5.374   5.061  69.626  1.00  0.00    -0.003 Cl 
HETATM   12  C   UNL     1      -8.625   6.517  67.683  1.00  0.00    -0.116 A  
HETATM   13 CL   UNL     1      -6.506   7.867  68.762  1.00  0.00    -0.047 Cl 
ENDROOT
BRANCH  12  14
HETATM   14  C   UNL     1      -9.207   7.888  67.425  1.00  0.00    -0.160 A  
HETATM   15  C   UNL     1      -9.990   8.513  68.349  1.00  0.00    -0.208 A  
HETATM   16  C   UNL     1     -10.334   7.889  69.627  1.00  0.00    -0.216 C  
HETATM   17  C   UNL     1     -10.922   8.576  70.619  1.00  0.00    -0.239 C  
HETATM   18  C   UNL     1     -11.274  10.022  70.431  1.00  0.00    -0.323 C  
HETATM   19  I   UNL     1     -11.372   7.672  72.412  1.00  0.00    -0.417 I  
HETATM   20  C   UNL     1     -11.160  10.566  69.040  1.00  0.00    -0.249 C  
HETATM   21  O   UNL     1     -11.666  10.711  71.368  1.00  0.00    -0.196 OA 
HETATM   22  I   UNL     1     -11.956  12.456  68.692  1.00  0.00     0.150 I  
HETATM   23  C   UNL     1     -10.568   9.840  68.073  1.00  0.00    -0.243 A  
HETATM   24  O   UNL     1     -10.523  10.339  66.783  1.00  0.00    -0.234 OA 
HETATM   25  C   UNL     1      -9.716   9.763  65.842  1.00  0.00    -0.266 A  
HETATM   26  C   UNL     1      -9.628  10.392  64.587  1.00  0.00    -0.300 A  
HETATM   27  C   UNL     1      -8.824   9.845  63.584  1.00  0.00    -0.237 A  
HETATM   28  I   UNL     1     -10.708  12.168  64.197  1.00  0.00    -0.557 I  
HETATM   29  C   UNL     1      -8.081   8.697  63.859  1.00  0.00    -0.163 A  
HETATM   30  O   UNL     1      -8.758  10.409  62.338  1.00  0.00    -0.180 OA 
HETATM   31  H   UNL     1      -8.211  10.037  61.656  1.00  0.00     0.000 HD 
HETATM   32  I   UNL     1      -6.840   7.816  62.419  1.00  0.00    -0.084 I  
HETATM   33  C   UNL     1      -8.164   8.082  65.116  1.00  0.00    -0.147 A  
HETATM   34  C   UNL     1      -9.008   8.590  66.117  1.00  0.00    -0.220 A  
ENDBRANCH  12  14
TORSDOF 1
ENDMDL
MODEL       30
REMARK 921   NORMALIZED FREE ENERGY PREDICTED BY IDOCK:   -5.76 KCAL/MOL
REMARK 922        TOTAL FREE ENERGY PREDICTED BY IDOCK:   -6.80 KCAL/MOL
REMARK 923 INTER-LIGAND FREE ENERGY PREDICTED BY IDOCK:   -6.07 KCAL/MOL
REMARK 924 INTRA-LIGAND FREE ENERGY PREDICTED BY IDOCK:   -0.73 KCAL/MOL
REMARK 927      BINDING AFFINITY PREDICTED BY RF-SCORE:    0.00 PKD
ROOT
HETATM    1  O   UNL     1      -8.350   9.120  64.422  1.00  0.00    -0.156 OA 
HETATM    2  C   UNL     1      -8.134  10.263  65.108  1.00  0.00    -0.151 C  
HETATM    3  O   UNL     1      -7.056  10.521  65.610  1.00  0.00    -0.142 OA 
HETATM    4  C   UNL     1      -9.335  11.118  65.305  1.00  0.00    -0.243 A  
HETATM    5  C   UNL     1     -10.204  11.412  64.231  1.00  0.00    -0.315 A  
HETATM    6 CL   UNL     1      -9.891  10.772  62.640  1.00  0.00    -0.236 Cl 
HETATM    7  C   UNL     1     -11.324  12.244  64.429  1.00  0.00    -0.336 A  
HETATM    8 CL   UNL     1     -12.386  12.605  63.094  1.00  0.00    -0.449 Cl 
HETATM    9  C   UNL     1     -11.589  12.779  65.700  1.00  0.00    -0.370 A  
HETATM   10  C   UNL     1     -10.731  12.487  66.778  1.00  0.00    -0.236 A  
HETATM   11 CL   UNL     1     -12.966  13.819  65.938  1.00  0.00    -0.385 Cl 
HETATM   12  C   UNL     1      -9.579  11.682  66.594  1.00  0.00    -0.220 A  
HETATM   13 CL   UNL     1     -11.101  13.099  68.369  1.00  0.00    -0.280 Cl 
ENDROOT
BRANCH  12  14
HETATM   14  C   UNL     1      -8.629  11.490  67.753  1.00  0.00    -0.138 A  
HETATM   15  C   UNL     1      -8.591  10.323  68.456  1.00  0.00    -0.126 A  
HETATM   16  C   UNL     1      -9.481   9.202  68.150  1.00  0.00    -0.155 C  
HETATM   17  C   UNL     1      -9.306   7.987  68.694  1.00  0.00    -0.146 C  
HETATM   18  C   UNL     1      -8.191   7.748  69.668  1.00  0.00    -0.127 C  
HETATM   19  I   UNL     1     -10.564   6.427  68.225  1.00  0.00    -0.407 I  
HETATM   20  C   UNL     1      -7.464   8.958  70.167  1.00  0.00    -0.065 C  
HETATM   21  O   UNL     1      -7.914   6.617  70.057  1.00  0.00    -0.112 OA 
HETATM   22  I   UNL     1      -6.151   8.687  71.757  1.00  0.00    -0.063 I  
HETATM   23  C   UNL     1      -7.673  10.160  69.597  1.00  0.00    -0.163 A  
HETATM   24  O   UNL     1      -7.032  11.274  70.110  1.00  0.00    -0.090 OA 
HETATM   25  C   UNL     1      -7.013  12.449  69.412  1.00  0.00     0.084 A  
HETATM   26  C   UNL     1      -6.244  13.505  69.935  1.00  0.00    -0.108 A  
HETATM   27  C   UNL     1      -6.193  14.731  69.268  1.00  0.00    -0.110 A  
HETATM   28  I   UNL     1      -5.159  13.255  71.732  1.00  0.00    -0.041 I  
HETATM   29  C   UNL     1      -6.877  14.878  68.061  1.00  0.00    -0.137 A  
HETATM   30  O   UNL     1      -5.492  15.790  69.779  1.00  0.00    -0.113 OA 
HETATM   31  H   UNL     1      -5.457  16.624  69.325  1.00  0.00     0.000 HD 
HETATM   32  I   UNL     1      -6.845  16.677  66.987  1.00  0.00    -0.214 I  
HETATM   33  C   UNL     1      -7.632  13.818  67.539  1.00  0.00    -0.185 A  
HETATM   34  C   UNL     1      -7.736  12.596  68.225  1.00  0.00    -0.135 A  
ENDBRANCH  12  14
TORSDOF 1
ENDMDL
MODEL       31
REMARK 921   NORMALIZED FREE ENERGY PREDICTED BY IDOCK:   -5.74 KCAL/MOL
REMARK 922        TOTAL FREE ENERGY PREDICTED BY IDOCK:   -6.78 KCAL/MOL
REMARK 923 INTER-LIGAND FREE ENERGY PREDICTED BY IDOCK:   -5.82 KCAL/MOL
REMARK 924 INTRA-LIGAND FREE ENERGY PREDICTED BY IDOCK:   -0.95 KCAL/MOL
REMARK 927      BINDING AFFINITY PREDICTED BY RF-SCORE:    0.00 PKD
ROOT
HETATM    1  O   UNL     1     -10.275   4.581  65.097  1.00  0.00    -0.183 OA 
HETATM    2  C   UNL     1     -10.273   5.050  66.364  1.00  0.00    -0.273 C  
HETATM    3  O   UNL     1     -11.206   5.685  66.819  1.00  0.00    -0.062 OA 
HETATM    4  C   UNL     1      -9.006   4.839  67.114  1.00  0.00    -0.114 A  
HETATM    5  C   UNL     1      -8.359   3.584  67.113  1.00  0.00    -0.092 A  
HETATM    6 CL   UNL     1      -9.032   2.244  66.224  1.00  0.00    -0.130 Cl 
HETATM    7  C   UNL     1      -7.173   3.393  67.849  1.00  0.00    -0.051 A  
HETATM    8 CL   UNL     1      -6.387   1.836  67.846  1.00  0.00    -0.024 Cl 
HETATM    9  C   UNL     1      -6.619   4.456  68.582  1.00  0.00    -0.045 A  
HETATM   10  C   UNL     1      -7.254   5.713  68.583  1.00  0.00    -0.078 A  
HETATM   11 CL   UNL     1      -5.160   4.214  69.502  1.00  0.00     0.000 Cl 
HETATM   12  C   UNL     1      -8.467   5.917  67.880  1.00  0.00    -0.107 A  
HETATM   13 CL   UNL     1      -6.527   7.048  69.440  1.00  0.00    -0.042 Cl 
ENDROOT
BRANCH  12  14
HETATM   14  C   UNL     1      -9.169   7.249  68.004  1.00  0.00    -0.131 A  
HETATM   15  C   UNL     1      -9.966   7.536  69.072  1.00  0.00    -0.175 A  
HETATM   16  C   UNL     1     -10.209   6.568  70.143  1.00  0.00    -0.226 C  
HETATM   17  C   UNL     1     -10.814   6.914  71.290  1.00  0.00    -0.234 C  
HETATM   18  C   UNL     1     -11.291   8.320  71.499  1.00  0.00    -0.268 C  
HETATM   19  I   UNL     1     -11.120   5.532  72.784  1.00  0.00    -0.302 I  
HETATM   20  C   UNL     1     -11.275   9.220  70.302  1.00  0.00    -0.231 C  
HETATM   21  O   UNL     1     -11.703   8.700  72.591  1.00  0.00    -0.325 OA 
HETATM   22  I   UNL     1     -12.237  11.055  70.481  1.00  0.00    -0.448 I  
HETATM   23  C   UNL     1     -10.661   8.831  69.168  1.00  0.00    -0.184 A  
HETATM   24  O   UNL     1     -10.706   9.655  68.057  1.00  0.00    -0.240 OA 
HETATM   25  C   UNL     1      -9.890   9.423  66.985  1.00  0.00    -0.201 A  
HETATM   26  C   UNL     1      -9.902  10.366  65.941  1.00  0.00    -0.235 A  
HETATM   27  C   UNL     1      -9.093  10.177  64.817  1.00  0.00    -0.222 A  
HETATM   28  I   UNL     1     -11.138  12.077  66.054  1.00  0.00    -0.353 I  
HETATM   29  C   UNL     1      -8.248   9.068  64.766  1.00  0.00    -0.160 A  
HETATM   30  O   UNL     1      -9.121  11.053  63.766  1.00  0.00    -0.290 OA 
HETATM   31  H   UNL     1      -8.571  10.925  63.002  1.00  0.00     0.000 HD 
HETATM   32  I   UNL     1      -6.994   8.713  63.126  1.00  0.00    -0.091 I  
HETATM   33  C   UNL     1      -8.233   8.138  65.815  1.00  0.00    -0.126 A  
HETATM   34  C   UNL     1      -9.078   8.287  66.927  1.00  0.00    -0.181 A  
ENDBRANCH  12  14
TORSDOF 1
ENDMDL
MODEL       32
REMARK 921   NORMALIZED FREE ENERGY PREDICTED BY IDOCK:   -5.72 KCAL/MOL
REMARK 922        TOTAL FREE ENERGY PREDICTED BY IDOCK:   -6.76 KCAL/MOL
REMARK 923 INTER-LIGAND FREE ENERGY PREDICTED BY IDOCK:   -5.71 KCAL/MOL
REMARK 924 INTRA-LIGAND FREE ENERGY PREDICTED BY IDOCK:   -1.05 KCAL/MOL
REMARK 927      BINDING AFFINITY PREDICTED BY RF-SCORE:    0.00 PKD
ROOT
HETATM    1  O   UNL     1      -6.796  10.001  70.957  1.00  0.00    -0.340 OA 
HETATM    2  C   UNL     1      -7.086   8.868  70.280  1.00  0.00    -0.049 C  
HETATM    3  O   UNL     1      -6.471   8.535  69.284  1.00  0.00    -0.041 OA 
HETATM    4  C   UNL     1      -8.280   8.127  70.770  1.00  0.00    -0.111 A  
HETATM    5  C   UNL     1      -8.465   7.873  72.146  1.00  0.00    -0.132 A  
HETATM    6 CL   UNL     1      -7.295   8.427  73.313  1.00  0.00    -0.146 Cl 
HETATM    7  C   UNL     1      -9.589   7.148  72.591  1.00  0.00    -0.148 A  
HETATM    8 CL   UNL     1      -9.804   6.833  74.293  1.00  0.00    -0.339 Cl 
HETATM    9  C   UNL     1     -10.539   6.683  71.667  1.00  0.00    -0.217 A  
HETATM   10  C   UNL     1     -10.365   6.938  70.293  1.00  0.00    -0.199 A  
HETATM   11 CL   UNL     1     -11.920   5.776  72.219  1.00  0.00    -0.252 Cl 
HETATM   12  C   UNL     1      -9.225   7.633  69.820  1.00  0.00    -0.147 A  
HETATM   13 CL   UNL     1     -11.581   6.416  69.156  1.00  0.00    -0.278 Cl 
ENDROOT
BRANCH  12  14
HETATM   14  C   UNL     1      -9.025   7.782  68.330  1.00  0.00    -0.131 A  
HETATM   15  C   UNL     1      -9.488   8.873  67.656  1.00  0.00    -0.164 A  
HETATM   16  C   UNL     1     -10.225   9.945  68.326  1.00  0.00    -0.204 C  
HETATM   17  C   UNL     1     -10.496  11.110  67.716  1.00  0.00    -0.193 C  
HETATM   18  C   UNL     1     -10.068  11.338  66.297  1.00  0.00    -0.230 C  
HETATM   19  I   UNL     1     -11.515  12.606  68.696  1.00  0.00    -0.416 I  
HETATM   20  C   UNL     1      -9.558  10.144  65.549  1.00  0.00    -0.250 C  
HETATM   21  O   UNL     1     -10.163  12.442  65.770  1.00  0.00    -0.250 OA 
HETATM   22  I   UNL     1      -9.279  10.358  63.499  1.00  0.00    -0.367 I  
HETATM   23  C   UNL     1      -9.305   8.993  66.199  1.00  0.00    -0.232 A  
HETATM   24  O   UNL     1      -8.887   7.887  65.479  1.00  0.00    -0.130 OA 
HETATM   25  C   UNL     1      -8.377   6.792  66.120  1.00  0.00    -0.130 A  
HETATM   26  C   UNL     1      -7.862   5.753  65.323  1.00  0.00    -0.106 A  
HETATM   27  C   UNL     1      -7.334   4.607  65.923  1.00  0.00    -0.077 A  
HETATM   28  I   UNL     1      -7.880   5.906  63.215  1.00  0.00    -0.061 I  
HETATM   29  C   UNL     1      -7.287   4.528  67.315  1.00  0.00    -0.074 A  
HETATM   30  O   UNL     1      -6.871   3.561  65.172  1.00  0.00    -0.047 OA 
HETATM   31  H   UNL     1      -6.512   2.781  65.580  1.00  0.00     0.000 HD 
HETATM   32  I   UNL     1      -6.501   2.853  68.298  1.00  0.00    -0.033 I  
HETATM   33  C   UNL     1      -7.791   5.572  68.103  1.00  0.00    -0.092 A  
HETATM   34  C   UNL     1      -8.373   6.708  67.514  1.00  0.00    -0.121 A  
ENDBRANCH  12  14
TORSDOF 1
ENDMDL
MODEL       33
REMARK 921   NORMALIZED FREE ENERGY PREDICTED BY IDOCK:   -5.70 KCAL/MOL
REMARK 922        TOTAL FREE ENERGY PREDICTED BY IDOCK:   -6.74 KCAL/MOL
REMARK 923 INTER-LIGAND FREE ENERGY PREDICTED BY IDOCK:   -6.72 KCAL/MOL
REMARK 924 INTRA-LIGAND FREE ENERGY PREDICTED BY IDOCK:   -0.02 KCAL/MOL
REMARK 927      BINDING AFFINITY PREDICTED BY RF-SCORE:    0.00 PKD
ROOT
HETATM    1  O   UNL     1     -10.582  14.433  67.800  1.00  0.00    -0.244 OA 
HETATM    2  C   UNL     1      -9.947  13.385  68.371  1.00  0.00    -0.231 C  
HETATM    3  O   UNL     1      -8.779  13.134  68.138  1.00  0.00    -0.182 OA 
HETATM    4  C   UNL     1     -10.807  12.501  69.202  1.00  0.00    -0.134 A  
HETATM    5  C   UNL     1     -11.700  13.040  70.154  1.00  0.00    -0.170 A  
HETATM    6 CL   UNL     1     -11.821  14.765  70.376  1.00  0.00    -0.327 Cl 
HETATM    7  C   UNL     1     -12.490  12.188  70.951  1.00  0.00    -0.279 A  
HETATM    8 CL   UNL     1     -13.584  12.864  72.128  1.00  0.00    -0.626 Cl 
HETATM    9  C   UNL     1     -12.401  10.795  70.797  1.00  0.00    -0.383 A  
HETATM   10  C   UNL     1     -11.517  10.249  69.846  1.00  0.00    -0.273 A  
HETATM   11 CL   UNL     1     -13.368   9.744  71.794  1.00  0.00    -0.489 Cl 
HETATM   12  C   UNL     1     -10.687  11.086  69.059  1.00  0.00    -0.258 A  
HETATM   13 CL   UNL     1     -11.458   8.521  69.611  1.00  0.00     0.205 Cl 
ENDROOT
BRANCH  12  14
HETATM   14  C   UNL     1      -9.675  10.451  68.134  1.00  0.00    -0.165 A  
HETATM   15  C   UNL     1      -8.602   9.764  68.619  1.00  0.00    -0.121 A  
HETATM   16  C   UNL     1      -8.353   9.623  70.054  1.00  0.00    -0.197 C  
HETATM   17  C   UNL     1      -7.426   8.779  70.536  1.00  0.00    -0.075 C  
HETATM   18  C   UNL     1      -6.588   7.962  69.599  1.00  0.00    -0.038 C  
HETATM   19  I   UNL     1      -7.117   8.590  72.562  1.00  0.00     0.123 I  
HETATM   20  C   UNL     1      -6.671   8.312  68.144  1.00  0.00    -0.065 C  
HETATM   21  O   UNL     1      -5.849   7.074  70.011  1.00  0.00    -0.023 OA 
HETATM   22  I   UNL     1      -5.280   7.429  66.875  1.00  0.00    -0.024 I  
HETATM   23  C   UNL     1      -7.612   9.169  67.704  1.00  0.00    -0.085 A  
HETATM   24  O   UNL     1      -7.635   9.521  66.366  1.00  0.00    -0.096 OA 
HETATM   25  C   UNL     1      -8.713  10.172  65.836  1.00  0.00    -0.146 A  
HETATM   26  C   UNL     1      -8.723  10.393  64.447  1.00  0.00    -0.198 A  
HETATM   27  C   UNL     1      -9.796  11.060  63.851  1.00  0.00    -0.317 A  
HETATM   28  I   UNL     1      -7.119   9.724  63.242  1.00  0.00    -0.121 I  
HETATM   29  C   UNL     1     -10.872  11.462  64.643  1.00  0.00    -0.292 A  
HETATM   30  O   UNL     1      -9.809  11.331  62.509  1.00  0.00    -0.584 OA 
HETATM   31  H   UNL     1     -10.539  11.784  62.104  1.00  0.00     0.000 HD 
HETATM   32  I   UNL     1     -12.528  12.456  63.832  1.00  0.00    -0.403 I  
HETATM   33  C   UNL     1     -10.861  11.228  66.025  1.00  0.00    -0.273 A  
HETATM   34  C   UNL     1      -9.765  10.606  66.647  1.00  0.00    -0.225 A  
ENDBRANCH  12  14
TORSDOF 1
ENDMDL
MODEL       34
REMARK 921   NORMALIZED FREE ENERGY PREDICTED BY IDOCK:   -5.63 KCAL/MOL
REMARK 922        TOTAL FREE ENERGY PREDICTED BY IDOCK:   -6.67 KCAL/MOL
REMARK 923 INTER-LIGAND FREE ENERGY PREDICTED BY IDOCK:   -5.62 KCAL/MOL
REMARK 924 INTRA-LIGAND FREE ENERGY PREDICTED BY IDOCK:   -1.05 KCAL/MOL
REMARK 927      BINDING AFFINITY PREDICTED BY RF-SCORE:    0.00 PKD
ROOT
HETATM    1  O   UNL     1     -10.084   4.409  67.774  1.00  0.00    -0.084 OA 
HETATM    2  C   UNL     1     -10.240   5.714  68.088  1.00  0.00    -0.186 C  
HETATM    3  O   UNL     1     -11.061   6.419  67.532  1.00  0.00    -0.352 OA 
HETATM    4  C   UNL     1      -9.259   6.249  69.070  1.00  0.00    -0.127 A  
HETATM    5  C   UNL     1      -8.962   5.547  70.259  1.00  0.00    -0.137 A  
HETATM    6 CL   UNL     1      -9.738   4.025  70.604  1.00  0.00    -0.267 Cl 
HETATM    7  C   UNL     1      -8.049   6.079  71.191  1.00  0.00    -0.121 A  
HETATM    8 CL   UNL     1      -7.695   5.206  72.659  1.00  0.00    -0.096 Cl 
HETATM    9  C   UNL     1      -7.420   7.309  70.938  1.00  0.00    -0.075 A  
HETATM   10  C   UNL     1      -7.706   8.014  69.752  1.00  0.00    -0.101 A  
HETATM   11 CL   UNL     1      -6.303   7.972  72.099  1.00  0.00    -0.047 Cl 
HETATM   12  C   UNL     1      -8.648   7.514  68.818  1.00  0.00    -0.129 A  
HETATM   13 CL   UNL     1      -6.873   9.508  69.411  1.00  0.00    -0.048 Cl 
ENDROOT
BRANCH  12  14
HETATM   14  C   UNL     1      -9.006   8.360  67.618  1.00  0.00    -0.141 A  
HETATM   15  C   UNL     1      -8.414   8.161  66.406  1.00  0.00    -0.133 A  
HETATM   16  C   UNL     1      -7.384   7.141  66.202  1.00  0.00    -0.075 C  
HETATM   17  C   UNL     1      -6.954   6.800  64.977  1.00  0.00    -0.051 C  
HETATM   18  C   UNL     1      -7.507   7.487  63.764  1.00  0.00    -0.108 C  
HETATM   19  I   UNL     1      -5.520   5.346  64.724  1.00  0.00    -0.014 I  
HETATM   20  C   UNL     1      -8.354   8.699  64.005  1.00  0.00    -0.120 C  
HETATM   21  O   UNL     1      -7.250   7.090  62.631  1.00  0.00    -0.059 OA 
HETATM   22  I   UNL     1      -8.850   9.855  62.348  1.00  0.00    -0.341 I  
HETATM   23  C   UNL     1      -8.758   9.008  65.252  1.00  0.00    -0.193 A  
HETATM   24  O   UNL     1      -9.493  10.163  65.458  1.00  0.00    -0.193 OA 
HETATM   25  C   UNL     1     -10.135  10.375  66.646  1.00  0.00    -0.224 A  
HETATM   26  C   UNL     1     -10.960  11.510  66.746  1.00  0.00    -0.294 A  
HETATM   27  C   UNL     1     -11.636  11.782  67.939  1.00  0.00    -0.307 A  
HETATM   28  I   UNL     1     -11.189  12.820  65.103  1.00  0.00    -0.381 I  
HETATM   29  C   UNL     1     -11.515  10.893  69.007  1.00  0.00    -0.302 A  
HETATM   30  O   UNL     1     -12.406  12.904  68.080  1.00  0.00    -0.098 OA 
HETATM   31  H   UNL     1     -12.866  13.089  68.890  1.00  0.00     0.000 HD 
HETATM   32  I   UNL     1     -12.503  11.214  70.826  1.00  0.00    -0.358 I  
HETATM   33  C   UNL     1     -10.701   9.757  68.896  1.00  0.00    -0.241 A  
HETATM   34  C   UNL     1      -9.974   9.498  67.722  1.00  0.00    -0.216 A  
ENDBRANCH  12  14
TORSDOF 1
ENDMDL
MODEL       35
REMARK 921   NORMALIZED FREE ENERGY PREDICTED BY IDOCK:   -5.53 KCAL/MOL
REMARK 922        TOTAL FREE ENERGY PREDICTED BY IDOCK:   -6.56 KCAL/MOL
REMARK 923 INTER-LIGAND FREE ENERGY PREDICTED BY IDOCK:   -5.56 KCAL/MOL
REMARK 924 INTRA-LIGAND FREE ENERGY PREDICTED BY IDOCK:   -1.01 KCAL/MOL
REMARK 927      BINDING AFFINITY PREDICTED BY RF-SCORE:    0.00 PKD
ROOT
HETATM    1  O   UNL     1      -5.395   5.266  67.488  1.00  0.00    -0.010 OA 
HETATM    2  C   UNL     1      -6.409   6.034  67.034  1.00  0.00    -0.042 C  
HETATM    3  O   UNL     1      -6.574   7.177  67.418  1.00  0.00    -0.054 OA 
HETATM    4  C   UNL     1      -7.369   5.345  66.131  1.00  0.00    -0.081 A  
HETATM    5  C   UNL     1      -6.915   4.545  65.059  1.00  0.00    -0.061 A  
HETATM    6 CL   UNL     1      -5.208   4.341  64.770  1.00  0.00    -0.009 Cl 
HETATM    7  C   UNL     1      -7.837   3.919  64.198  1.00  0.00    -0.085 A  
HETATM    8 CL   UNL     1      -7.265   2.939  62.873  1.00  0.00    -0.043 Cl 
HETATM    9  C   UNL     1      -9.217   4.079  64.405  1.00  0.00    -0.151 A  
HETATM   10  C   UNL     1      -9.679   4.870  65.476  1.00  0.00    -0.112 A  
HETATM   11 CL   UNL     1     -10.355   3.315  63.331  1.00  0.00    -0.191 Cl 
HETATM   12  C   UNL     1      -8.769   5.538  66.333  1.00  0.00    -0.123 A  
HETATM   13 CL   UNL     1     -11.392   5.012  65.770  1.00  0.00     0.210 Cl 
ENDROOT
BRANCH  12  14
HETATM   14  C   UNL     1      -9.312   6.465  67.395  1.00  0.00    -0.119 A  
HETATM   15  C   UNL     1      -9.609   6.017  68.647  1.00  0.00    -0.141 A  
HETATM   16  C   UNL     1      -9.447   4.613  69.028  1.00  0.00    -0.221 C  
HETATM   17  C   UNL     1      -9.536   4.208  70.305  1.00  0.00    -0.181 C  
HETATM   18  C   UNL     1      -9.835   5.196  71.392  1.00  0.00    -0.179 C  
HETATM   19  I   UNL     1      -9.281   2.228  70.808  1.00  0.00    -0.186 I  
HETATM   20  C   UNL     1     -10.258   6.566  70.957  1.00  0.00    -0.189 C  
HETATM   21  O   UNL     1      -9.767   4.884  72.577  1.00  0.00    -0.144 OA 
HETATM   22  I   UNL     1     -10.997   7.841  72.424  1.00  0.00    -0.466 I  
HETATM   23  C   UNL     1     -10.158   6.929  69.664  1.00  0.00    -0.184 A  
HETATM   24  O   UNL     1     -10.606   8.180  69.276  1.00  0.00    -0.222 OA 
HETATM   25  C   UNL     1     -10.290   8.680  68.044  1.00  0.00    -0.223 A  
HETATM   26  C   UNL     1     -10.676  10.003  67.760  1.00  0.00    -0.280 A  
HETATM   27  C   UNL     1     -10.386  10.565  66.514  1.00  0.00    -0.233 A  
HETATM   28  I   UNL     1     -11.698  11.157  69.205  1.00  0.00    -0.420 I  
HETATM   29  C   UNL     1      -9.675   9.813  65.578  1.00  0.00    -0.312 A  
HETATM   30  O   UNL     1     -10.792  11.832  66.193  1.00  0.00    -0.270 OA 
HETATM   31  H   UNL     1     -10.595  12.214  65.346  1.00  0.00     0.000 HD 
HETATM   32  I   UNL     1      -9.185  10.580  63.691  1.00  0.00    -0.365 I  
HETATM   33  C   UNL     1      -9.283   8.500  65.872  1.00  0.00    -0.245 A  
HETATM   34  C   UNL     1      -9.613   7.903  67.100  1.00  0.00    -0.222 A  
ENDBRANCH  12  14
TORSDOF 1
ENDMDL
MODEL       36
REMARK 921   NORMALIZED FREE ENERGY PREDICTED BY IDOCK:   -5.53 KCAL/MOL
REMARK 922        TOTAL FREE ENERGY PREDICTED BY IDOCK:   -6.56 KCAL/MOL
REMARK 923 INTER-LIGAND FREE ENERGY PREDICTED BY IDOCK:   -5.71 KCAL/MOL
REMARK 924 INTRA-LIGAND FREE ENERGY PREDICTED BY IDOCK:   -0.85 KCAL/MOL
REMARK 927      BINDING AFFINITY PREDICTED BY RF-SCORE:    0.00 PKD
ROOT
HETATM    1  O   UNL     1      -7.337   8.446  71.314  1.00  0.00    -0.070 OA 
HETATM    2  C   UNL     1      -7.323   8.160  69.993  1.00  0.00    -0.061 C  
HETATM    3  O   UNL     1      -6.958   8.970  69.161  1.00  0.00    -0.057 OA 
HETATM    4  C   UNL     1      -7.895   6.837  69.627  1.00  0.00    -0.115 A  
HETATM    5  C   UNL     1      -7.534   5.667  70.329  1.00  0.00    -0.080 A  
HETATM    6 CL   UNL     1      -6.404   5.745  71.654  1.00  0.00    -0.046 Cl 
HETATM    7  C   UNL     1      -8.066   4.418  69.953  1.00  0.00    -0.063 A  
HETATM    8 CL   UNL     1      -7.607   2.978  70.824  1.00  0.00    -0.040 Cl 
HETATM    9  C   UNL     1      -8.970   4.330  68.882  1.00  0.00    -0.109 A  
HETATM   10  C   UNL     1      -9.341   5.493  68.179  1.00  0.00    -0.111 A  
HETATM   11 CL   UNL     1      -9.616   2.783  68.411  1.00  0.00    -0.193 Cl 
HETATM   12  C   UNL     1      -8.790   6.754  68.517  1.00  0.00    -0.123 A  
HETATM   13 CL   UNL     1     -10.514   5.389  66.893  1.00  0.00    -0.313 Cl 
ENDROOT
BRANCH  12  14
HETATM   14  C   UNL     1      -9.131   7.953  67.663  1.00  0.00    -0.139 A  
HETATM   15  C   UNL     1     -10.043   8.881  68.070  1.00  0.00    -0.239 A  
HETATM   16  C   UNL     1     -10.762   8.759  69.338  1.00  0.00    -0.180 C  
HETATM   17  C   UNL     1     -11.497   9.765  69.839  1.00  0.00    -0.140 C  
HETATM   18  C   UNL     1     -11.625  11.055  69.085  1.00  0.00    -0.319 C  
HETATM   19  I   UNL     1     -12.478   9.567  71.637  1.00  0.00    -0.503 I  
HETATM   20  C   UNL     1     -11.108  11.066  67.679  1.00  0.00    -0.300 C  
HETATM   21  O   UNL     1     -12.157  12.039  69.589  1.00  0.00    -0.285 OA 
HETATM   22  I   UNL     1     -11.573  12.721  66.510  1.00  0.00    -0.437 I  
HETATM   23  C   UNL     1     -10.380  10.032  67.215  1.00  0.00    -0.237 A  
HETATM   24  O   UNL     1      -9.959  10.038  65.896  1.00  0.00    -0.247 OA 
HETATM   25  C   UNL     1      -9.014   9.151  65.464  1.00  0.00    -0.205 A  
HETATM   26  C   UNL     1      -8.547   9.289  64.144  1.00  0.00    -0.188 A  
HETATM   27  C   UNL     1      -7.586   8.406  63.645  1.00  0.00    -0.132 A  
HETATM   28  I   UNL     1      -9.287  10.829  62.899  1.00  0.00    -0.382 I  
HETATM   29  C   UNL     1      -7.069   7.418  64.484  1.00  0.00    -0.061 A  
HETATM   30  O   UNL     1      -7.148   8.488  62.351  1.00  0.00    -0.097 OA 
HETATM   31  H   UNL     1      -6.495   7.888  62.011  1.00  0.00     0.000 HD 
HETATM   32  I   UNL     1      -5.617   6.060  63.823  1.00  0.00    -0.018 I  
HETATM   33  C   UNL     1      -7.531   7.293  65.801  1.00  0.00    -0.084 A  
HETATM   34  C   UNL     1      -8.535   8.140  66.301  1.00  0.00    -0.136 A  
ENDBRANCH  12  14
TORSDOF 1
ENDMDL
MODEL       37
REMARK 921   NORMALIZED FREE ENERGY PREDICTED BY IDOCK:   -5.51 KCAL/MOL
REMARK 922        TOTAL FREE ENERGY PREDICTED BY IDOCK:   -6.53 KCAL/MOL
REMARK 923 INTER-LIGAND FREE ENERGY PREDICTED BY IDOCK:   -5.58 KCAL/MOL
REMARK 924 INTRA-LIGAND FREE ENERGY PREDICTED BY IDOCK:   -0.95 KCAL/MOL
REMARK 927      BINDING AFFINITY PREDICTED BY RF-SCORE:    0.00 PKD
ROOT
HETATM    1  O   UNL     1      -5.535   5.293  67.895  1.00  0.00    -0.010 OA 
HETATM    2  C   UNL     1      -6.547   6.064  67.441  1.00  0.00    -0.056 C  
HETATM    3  O   UNL     1      -6.777   7.166  67.904  1.00  0.00    -0.057 OA 
HETATM    4  C   UNL     1      -7.425   5.422  66.426  1.00  0.00    -0.087 A  
HETATM    5  C   UNL     1      -6.878   4.728  65.325  1.00  0.00    -0.060 A  
HETATM    6 CL   UNL     1      -5.151   4.602  65.128  1.00  0.00    -0.008 Cl 
HETATM    7  C   UNL     1      -7.723   4.147  64.359  1.00  0.00    -0.084 A  
HETATM    8 CL   UNL     1      -7.037   3.298  62.999  1.00  0.00    -0.046 Cl 
HETATM    9  C   UNL     1      -9.118   4.245  64.491  1.00  0.00    -0.150 A  
HETATM   10  C   UNL     1      -9.672   4.931  65.590  1.00  0.00    -0.145 A  
HETATM   11 CL   UNL     1     -10.160   3.538  63.288  1.00  0.00    -0.156 Cl 
HETATM   12  C   UNL     1      -8.841   5.554  66.554  1.00  0.00    -0.121 A  
HETATM   13 CL   UNL     1     -11.404   4.994  65.786  1.00  0.00     0.210 Cl 
ENDROOT
BRANCH  12  14
HETATM   14  C   UNL     1      -9.480   6.373  67.651  1.00  0.00    -0.120 A  
HETATM   15  C   UNL     1      -9.771   7.693  67.475  1.00  0.00    -0.197 A  
HETATM   16  C   UNL     1      -9.459   8.399  66.231  1.00  0.00    -0.292 C  
HETATM   17  C   UNL     1      -9.929   9.630  65.976  1.00  0.00    -0.274 C  
HETATM   18  C   UNL     1     -10.779  10.340  66.987  1.00  0.00    -0.216 C  
HETATM   19  I   UNL     1      -9.489  10.585  64.206  1.00  0.00    -0.393 I  
HETATM   20  C   UNL     1     -10.864   9.719  68.348  1.00  0.00    -0.201 C  
HETATM   21  O   UNL     1     -11.348  11.394  66.717  1.00  0.00    -0.363 OA 
HETATM   22  I   UNL     1     -11.752  10.848  69.852  1.00  0.00    -0.485 I  
HETATM   23  C   UNL     1     -10.374   8.483  68.562  1.00  0.00    -0.198 A  
HETATM   24  O   UNL     1     -10.414   7.952  69.840  1.00  0.00    -0.220 OA 
HETATM   25  C   UNL     1     -10.170   6.623  70.048  1.00  0.00    -0.187 A  
HETATM   26  C   UNL     1     -10.344   6.126  71.352  1.00  0.00    -0.214 A  
HETATM   27  C   UNL     1     -10.103   4.777  71.625  1.00  0.00    -0.194 A  
HETATM   28  I   UNL     1     -10.968   7.405  72.915  1.00  0.00    -0.334 I  
HETATM   29  C   UNL     1      -9.731   3.927  70.583  1.00  0.00    -0.178 A  
HETATM   30  O   UNL     1     -10.217   4.277  72.894  1.00  0.00    -0.153 OA 
HETATM   31  H   UNL     1     -10.053   3.359  73.080  1.00  0.00     0.000 HD 
HETATM   32  I   UNL     1      -9.362   1.890  70.899  1.00  0.00    -0.152 I  
HETATM   33  C   UNL     1      -9.571   4.427  69.283  1.00  0.00    -0.261 A  
HETATM   34  C   UNL     1      -9.759   5.791  69.003  1.00  0.00    -0.180 A  
ENDBRANCH  12  14
TORSDOF 1
ENDMDL
MODEL       38
REMARK 921   NORMALIZED FREE ENERGY PREDICTED BY IDOCK:   -5.50 KCAL/MOL
REMARK 922        TOTAL FREE ENERGY PREDICTED BY IDOCK:   -6.53 KCAL/MOL
REMARK 923 INTER-LIGAND FREE ENERGY PREDICTED BY IDOCK:   -5.78 KCAL/MOL
REMARK 924 INTRA-LIGAND FREE ENERGY PREDICTED BY IDOCK:   -0.75 KCAL/MOL
REMARK 927      BINDING AFFINITY PREDICTED BY RF-SCORE:    0.00 PKD
ROOT
HETATM    1  O   UNL     1      -7.217   7.975  71.121  1.00  0.00    -0.052 OA 
HETATM    2  C   UNL     1      -7.334   7.851  69.781  1.00  0.00    -0.078 C  
HETATM    3  O   UNL     1      -7.102   8.775  69.024  1.00  0.00    -0.063 OA 
HETATM    4  C   UNL     1      -7.877   6.548  69.311  1.00  0.00    -0.110 A  
HETATM    5  C   UNL     1      -7.384   5.327  69.820  1.00  0.00    -0.064 A  
HETATM    6 CL   UNL     1      -6.121   5.316  71.022  1.00  0.00    -0.021 Cl 
HETATM    7  C   UNL     1      -7.893   4.101  69.347  1.00  0.00    -0.056 A  
HETATM    8 CL   UNL     1      -7.271   2.599  69.978  1.00  0.00    -0.040 Cl 
HETATM    9  C   UNL     1      -8.903   4.086  68.372  1.00  0.00    -0.107 A  
HETATM   10  C   UNL     1      -9.405   5.300  67.863  1.00  0.00    -0.116 A  
HETATM   11 CL   UNL     1      -9.520   2.569  67.778  1.00  0.00    -0.222 Cl 
HETATM   12  C   UNL     1      -8.883   6.543  68.298  1.00  0.00    -0.119 A  
HETATM   13 CL   UNL     1     -10.706   5.278  66.700  1.00  0.00    -0.325 Cl 
ENDROOT
BRANCH  12  14
HETATM   14  C   UNL     1      -9.374   7.812  67.641  1.00  0.00    -0.160 A  
HETATM   15  C   UNL     1      -8.950   8.180  66.399  1.00  0.00    -0.207 A  
HETATM   16  C   UNL     1      -7.980   7.386  65.642  1.00  0.00    -0.118 C  
HETATM   17  C   UNL     1      -7.722   7.626  64.346  1.00  0.00    -0.127 C  
HETATM   18  C   UNL     1      -8.411   8.751  63.634  1.00  0.00    -0.143 C  
HETATM   19  I   UNL     1      -6.368   6.476  63.307  1.00  0.00    -0.039 I  
HETATM   20  C   UNL     1      -9.189   9.708  64.484  1.00  0.00    -0.218 C  
HETATM   21  O   UNL     1      -8.313   8.894  62.419  1.00  0.00    -0.169 OA 
HETATM   22  I   UNL     1      -9.868  11.450  63.572  1.00  0.00    -0.432 I  
HETATM   23  C   UNL     1      -9.421   9.431  65.781  1.00  0.00    -0.259 A  
HETATM   24  O   UNL     1     -10.094  10.356  66.561  1.00  0.00    -0.211 OA 
HETATM   25  C   UNL     1     -10.571  10.009  67.794  1.00  0.00    -0.261 A  
HETATM   26  C   UNL     1     -11.348  10.959  68.482  1.00  0.00    -0.299 A  
HETATM   27  C   UNL     1     -11.857  10.662  69.749  1.00  0.00    -0.304 A  
HETATM   28  I   UNL     1     -11.758  12.843  67.615  1.00  0.00    -0.308 I  
HETATM   29  C   UNL     1     -11.620   9.403  70.300  1.00  0.00    -0.138 A  
HETATM   30  O   UNL     1     -12.575  11.585  70.461  1.00  0.00    -0.270 OA 
HETATM   31  H   UNL     1     -12.921  11.383  71.323  1.00  0.00     0.000 HD 
HETATM   32  I   UNL     1     -12.354   8.869  72.187  1.00  0.00    -0.350 I  
HETATM   33  C   UNL     1     -10.854   8.457  69.604  1.00  0.00    -0.153 A  
HETATM   34  C   UNL     1     -10.292   8.759  68.352  1.00  0.00    -0.242 A  
ENDBRANCH  12  14
TORSDOF 1
ENDMDL
MODEL       39
REMARK 921   NORMALIZED FREE ENERGY PREDICTED BY IDOCK:   -5.50 KCAL/MOL
REMARK 922        TOTAL FREE ENERGY PREDICTED BY IDOCK:   -6.52 KCAL/MOL
REMARK 923 INTER-LIGAND FREE ENERGY PREDICTED BY IDOCK:   -6.37 KCAL/MOL
REMARK 924 INTRA-LIGAND FREE ENERGY PREDICTED BY IDOCK:   -0.15 KCAL/MOL
REMARK 927      BINDING AFFINITY PREDICTED BY RF-SCORE:    0.00 PKD
ROOT
HETATM    1  O   UNL     1     -10.461  14.438  67.727  1.00  0.00    -0.243 OA 
HETATM    2  C   UNL     1      -9.817  13.400  68.302  1.00  0.00    -0.235 C  
HETATM    3  O   UNL     1      -8.640  13.172  68.090  1.00  0.00    -0.169 OA 
HETATM    4  C   UNL     1     -10.675  12.493  69.111  1.00  0.00    -0.069 A  
HETATM    5  C   UNL     1     -11.596  13.008  70.049  1.00  0.00    -0.124 A  
HETATM    6 CL   UNL     1     -11.755  14.728  70.280  1.00  0.00    -0.328 Cl 
HETATM    7  C   UNL     1     -12.385  12.135  70.826  1.00  0.00    -0.297 A  
HETATM    8 CL   UNL     1     -13.515  12.782  71.986  1.00  0.00    -0.587 Cl 
HETATM    9  C   UNL     1     -12.266  10.745  70.664  1.00  0.00    -0.379 A  
HETATM   10  C   UNL     1     -11.353  10.223  69.726  1.00  0.00    -0.273 A  
HETATM   11 CL   UNL     1     -13.231   9.669  71.635  1.00  0.00    -0.463 Cl 
HETATM   12  C   UNL     1     -10.525  11.081  68.961  1.00  0.00    -0.242 A  
HETATM   13 CL   UNL     1     -11.257   8.499  69.481  1.00  0.00     0.038 Cl 
ENDROOT
BRANCH  12  14
HETATM   14  C   UNL     1      -9.483  10.472  68.052  1.00  0.00    -0.157 A  
HETATM   15  C   UNL     1      -9.591  10.548  66.695  1.00  0.00    -0.210 A  
HETATM   16  C   UNL     1     -10.728  11.196  66.041  1.00  0.00    -0.272 C  
HETATM   17  C   UNL     1     -10.736  11.458  64.724  1.00  0.00    -0.298 C  
HETATM   18  C   UNL     1      -9.571  11.062  63.867  1.00  0.00    -0.272 C  
HETATM   19  I   UNL     1     -12.344  12.392  63.840  1.00  0.00    -0.512 I  
HETATM   20  C   UNL     1      -8.545  10.171  64.498  1.00  0.00    -0.189 C  
HETATM   21  O   UNL     1      -9.483  11.427  62.699  1.00  0.00    -0.344 OA 
HETATM   22  I   UNL     1      -7.109   9.341  63.244  1.00  0.00    -0.096 I  
HETATM   23  C   UNL     1      -8.578   9.930  65.823  1.00  0.00    -0.139 A  
HETATM   24  O   UNL     1      -7.654   9.059  66.375  1.00  0.00    -0.091 OA 
HETATM   25  C   UNL     1      -7.489   8.988  67.730  1.00  0.00    -0.085 A  
HETATM   26  C   UNL     1      -6.452   8.172  68.217  1.00  0.00    -0.055 A  
HETATM   27  C   UNL     1      -6.240   8.056  69.594  1.00  0.00    -0.033 A  
HETATM   28  I   UNL     1      -5.203   7.111  66.883  1.00  0.00    -0.024 I  
HETATM   29  C   UNL     1      -7.040   8.790  70.469  1.00  0.00    -0.050 A  
HETATM   30  O   UNL     1      -5.271   7.231  70.097  1.00  0.00    -0.022 OA 
HETATM   31  H   UNL     1      -5.126   7.152  71.033  1.00  0.00     0.000 HD 
HETATM   32  I   UNL     1      -6.785   8.687  72.546  1.00  0.00     0.156 I  
HETATM   33  C   UNL     1      -8.064   9.611  69.976  1.00  0.00    -0.190 A  
HETATM   34  C   UNL     1      -8.323   9.698  68.598  1.00  0.00    -0.114 A  
ENDBRANCH  12  14
TORSDOF 1
ENDMDL
MODEL       40
REMARK 921   NORMALIZED FREE ENERGY PREDICTED BY IDOCK:   -5.49 KCAL/MOL
REMARK 922        TOTAL FREE ENERGY PREDICTED BY IDOCK:   -6.52 KCAL/MOL
REMARK 923 INTER-LIGAND FREE ENERGY PREDICTED BY IDOCK:   -5.84 KCAL/MOL
REMARK 924 INTRA-LIGAND FREE ENERGY PREDICTED BY IDOCK:   -0.68 KCAL/MOL
REMARK 927      BINDING AFFINITY PREDICTED BY RF-SCORE:    0.00 PKD
ROOT
HETATM    1  O   UNL     1     -12.088  11.075  68.543  1.00  0.00    -0.573 OA 
HETATM    2  C   UNL     1     -10.933  11.687  68.886  1.00  0.00    -0.233 C  
HETATM    3  O   UNL     1     -10.915  12.788  69.403  1.00  0.00    -0.125 OA 
HETATM    4  C   UNL     1      -9.694  10.973  68.478  1.00  0.00    -0.189 A  
HETATM    5  C   UNL     1      -9.540   9.589  68.712  1.00  0.00    -0.157 A  
HETATM    6 CL   UNL     1     -10.808   8.677  69.487  1.00  0.00    -0.187 Cl 
HETATM    7  C   UNL     1      -8.349   8.932  68.342  1.00  0.00    -0.125 A  
HETATM    8 CL   UNL     1      -8.168   7.224  68.643  1.00  0.00    -0.124 Cl 
HETATM    9  C   UNL     1      -7.311   9.649  67.726  1.00  0.00    -0.086 A  
HETATM   10  C   UNL     1      -7.458  11.029  67.483  1.00  0.00    -0.102 A  
HETATM   11 CL   UNL     1      -5.835   8.838  67.282  1.00  0.00    -0.042 Cl 
HETATM   12  C   UNL     1      -8.632  11.717  67.880  1.00  0.00    -0.150 A  
HETATM   13 CL   UNL     1      -6.193  11.902  66.658  1.00  0.00    -0.047 Cl 
ENDROOT
BRANCH  12  14
HETATM   14  C   UNL     1      -8.697  13.216  67.701  1.00  0.00    -0.192 A  
HETATM   15  C   UNL     1      -9.442  13.782  66.710  1.00  0.00    -0.281 A  
HETATM   16  C   UNL     1     -10.199  12.978  65.751  1.00  0.00    -0.297 C  
HETATM   17  C   UNL     1     -11.095  13.525  64.914  1.00  0.00    -0.346 C  
HETATM   18  C   UNL     1     -11.329  15.006  64.920  1.00  0.00    -0.417 C  
HETATM   19  I   UNL     1     -12.159  12.361  63.591  1.00  0.00    -0.583 I  
HETATM   20  C   UNL     1     -10.364  15.835  65.712  1.00  0.00    -0.369 C  
HETATM   21  O   UNL     1     -12.247  15.512  64.282  1.00  0.00    -0.504 OA 
HETATM   22  I   UNL     1     -10.462  17.898  65.468  1.00  0.00     0.896 I  
HETATM   23  C   UNL     1      -9.478  15.244  66.536  1.00  0.00    -0.283 A  
HETATM   24  O   UNL     1      -8.559  16.026  67.215  1.00  0.00    -0.171 OA 
HETATM   25  C   UNL     1      -7.825  15.503  68.242  1.00  0.00    -0.127 A  
HETATM   26  C   UNL     1      -6.999  16.382  68.966  1.00  0.00    -0.200 A  
HETATM   27  C   UNL     1      -6.220  15.901  70.022  1.00  0.00    -0.119 A  
HETATM   28  I   UNL     1      -6.920  18.435  68.470  1.00  0.00    -0.300 I  
HETATM   29  C   UNL     1      -6.307  14.554  70.373  1.00  0.00    -0.155 A  
HETATM   30  O   UNL     1      -5.371  16.724  70.712  1.00  0.00    -0.209 OA 
HETATM   31  H   UNL     1      -4.842  16.398  71.430  1.00  0.00     0.000 HD 
HETATM   32  I   UNL     1      -5.186  13.751  71.950  1.00  0.00    -0.140 I  
HETATM   33  C   UNL     1      -7.141  13.686  69.655  1.00  0.00     0.243 A  
HETATM   34  C   UNL     1      -7.890  14.143  68.558  1.00  0.00    -0.140 A  
ENDBRANCH  12  14
TORSDOF 1
ENDMDL
MODEL       41
REMARK 921   NORMALIZED FREE ENERGY PREDICTED BY IDOCK:   -5.42 KCAL/MOL
REMARK 922        TOTAL FREE ENERGY PREDICTED BY IDOCK:   -6.44 KCAL/MOL
REMARK 923 INTER-LIGAND FREE ENERGY PREDICTED BY IDOCK:   -6.34 KCAL/MOL
REMARK 924 INTRA-LIGAND FREE ENERGY PREDICTED BY IDOCK:   -0.10 KCAL/MOL
REMARK 927      BINDING AFFINITY PREDICTED BY RF-SCORE:    0.00 PKD
ROOT
HETATM    1  O   UNL     1     -11.123   8.193  71.060  1.00  0.00    -0.244 OA 
HETATM    2  C   UNL     1     -11.131   8.791  69.848  1.00  0.00    -0.123 C  
HETATM    3  O   UNL     1     -10.997   8.160  68.816  1.00  0.00    -0.006 OA 
HETATM    4  C   UNL     1     -11.193  10.277  69.877  1.00  0.00    -0.360 A  
HETATM    5  C   UNL     1     -12.120  10.951  70.701  1.00  0.00    -0.371 A  
HETATM    6 CL   UNL     1     -13.218  10.054  71.715  1.00  0.00    -0.521 Cl 
HETATM    7  C   UNL     1     -12.183  12.359  70.698  1.00  0.00    -0.278 A  
HETATM    8 CL   UNL     1     -13.337  13.181  71.715  1.00  0.00    -0.493 Cl 
HETATM    9  C   UNL     1     -11.316  13.102  69.881  1.00  0.00     0.015 A  
HETATM   10  C   UNL     1     -10.383  12.438  69.060  1.00  0.00     0.052 A  
HETATM   11 CL   UNL     1     -11.405  14.841  69.869  1.00  0.00    -0.295 Cl 
HETATM   12  C   UNL     1     -10.327  11.022  69.021  1.00  0.00    -0.229 A  
HETATM   13 CL   UNL     1      -9.263  13.365  68.098  1.00  0.00    -0.211 Cl 
ENDROOT
BRANCH  12  14
HETATM   14  C   UNL     1      -9.390  10.355  68.041  1.00  0.00    -0.145 A  
HETATM   15  C   UNL     1      -8.294   9.663  68.463  1.00  0.00    -0.117 A  
HETATM   16  C   UNL     1      -7.947   9.547  69.880  1.00  0.00    -0.154 C  
HETATM   17  C   UNL     1      -7.000   8.699  70.314  1.00  0.00    -0.041 C  
HETATM   18  C   UNL     1      -6.239   7.853  69.337  1.00  0.00    -0.034 C  
HETATM   19  I   UNL     1      -6.552   8.546  72.317  1.00  0.00     0.004 I  
HETATM   20  C   UNL     1      -6.419   8.176  67.885  1.00  0.00    -0.053 C  
HETATM   21  O   UNL     1      -5.484   6.962  69.715  1.00  0.00    -0.014 OA 
HETATM   22  I   UNL     1      -5.132   7.249  66.541  1.00  0.00    -0.024 I  
HETATM   23  C   UNL     1      -7.378   9.037  67.495  1.00  0.00    -0.081 A  
HETATM   24  O   UNL     1      -7.490   9.363  66.154  1.00  0.00    -0.094 OA 
HETATM   25  C   UNL     1      -8.595  10.018  65.688  1.00  0.00    -0.155 A  
HETATM   26  C   UNL     1      -8.699  10.212  64.298  1.00  0.00    -0.205 A  
HETATM   27  C   UNL     1      -9.803  10.882  63.765  1.00  0.00    -0.337 A  
HETATM   28  I   UNL     1      -7.192   9.498  62.999  1.00  0.00    -0.118 I  
HETATM   29  C   UNL     1     -10.815  11.315  64.622  1.00  0.00    -0.265 A  
HETATM   30  O   UNL     1      -9.906  11.127  62.422  1.00  0.00    -0.571 OA 
HETATM   31  H   UNL     1     -10.657  11.582  62.060  1.00  0.00     0.000 HD 
HETATM   32  I   UNL     1     -12.512  12.315  63.908  1.00  0.00    -0.384 I  
HETATM   33  C   UNL     1     -10.711  11.108  66.005  1.00  0.00    -0.272 A  
HETATM   34  C   UNL     1      -9.582  10.483  66.561  1.00  0.00    -0.216 A  
ENDBRANCH  12  14
TORSDOF 1
ENDMDL
MODEL       42
REMARK 921   NORMALIZED FREE ENERGY PREDICTED BY IDOCK:   -5.34 KCAL/MOL
REMARK 922        TOTAL FREE ENERGY PREDICTED BY IDOCK:   -6.36 KCAL/MOL
REMARK 923 INTER-LIGAND FREE ENERGY PREDICTED BY IDOCK:   -5.30 KCAL/MOL
REMARK 924 INTRA-LIGAND FREE ENERGY PREDICTED BY IDOCK:   -1.06 KCAL/MOL
REMARK 927      BINDING AFFINITY PREDICTED BY RF-SCORE:    0.00 PKD
ROOT
HETATM    1  O   UNL     1     -10.861   5.517  69.565  1.00  0.00    -0.311 OA 
HETATM    2  C   UNL     1     -10.497   6.705  69.034  1.00  0.00    -0.214 C  
HETATM    3  O   UNL     1     -11.017   7.148  68.027  1.00  0.00    -0.154 OA 
HETATM    4  C   UNL     1      -9.342   7.367  69.698  1.00  0.00    -0.149 A  
HETATM    5  C   UNL     1      -9.277   7.481  71.104  1.00  0.00    -0.147 A  
HETATM    6 CL   UNL     1     -10.554   6.839  72.103  1.00  0.00    -0.228 Cl 
HETATM    7  C   UNL     1      -8.188   8.133  71.716  1.00  0.00    -0.130 A  
HETATM    8 CL   UNL     1      -8.122   8.273  73.453  1.00  0.00    -0.244 Cl 
HETATM    9  C   UNL     1      -7.154   8.667  70.930  1.00  0.00    -0.067 A  
HETATM   10  C   UNL     1      -7.208   8.553  69.527  1.00  0.00    -0.060 A  
HETATM   11 CL   UNL     1      -5.816   9.485  71.688  1.00  0.00    -0.059 Cl 
HETATM   12  C   UNL     1      -8.311   7.933  68.889  1.00  0.00    -0.127 A  
HETATM   13 CL   UNL     1      -5.889   9.159  68.559  1.00  0.00    -0.041 Cl 
ENDROOT
BRANCH  12  14
HETATM   14  C   UNL     1      -8.379   7.936  67.379  1.00  0.00    -0.123 A  
HETATM   15  C   UNL     1      -7.953   6.869  66.646  1.00  0.00    -0.108 A  
HETATM   16  C   UNL     1      -7.385   5.674  67.271  1.00  0.00    -0.077 C  
HETATM   17  C   UNL     1      -7.162   4.546  66.577  1.00  0.00    -0.080 C  
HETATM   18  C   UNL     1      -7.470   4.488  65.110  1.00  0.00    -0.076 C  
HETATM   19  I   UNL     1      -6.382   2.876  67.492  1.00  0.00    -0.033 I  
HETATM   20  C   UNL     1      -7.796   5.788  64.440  1.00  0.00    -0.110 C  
HETATM   21  O   UNL     1      -7.426   3.431  64.489  1.00  0.00    -0.072 OA 
HETATM   22  I   UNL     1      -7.895   5.785  62.362  1.00  0.00    -0.095 I  
HETATM   23  C   UNL     1      -8.006   6.897  65.174  1.00  0.00    -0.125 A  
HETATM   24  O   UNL     1      -8.251   8.098  64.531  1.00  0.00    -0.156 OA 
HETATM   25  C   UNL     1      -8.719   9.177  65.228  1.00  0.00    -0.188 A  
HETATM   26  C   UNL     1      -9.059  10.328  64.494  1.00  0.00    -0.234 A  
HETATM   27  C   UNL     1      -9.536  11.463  65.154  1.00  0.00    -0.229 A  
HETATM   28  I   UNL     1      -8.853  10.360  62.391  1.00  0.00    -0.373 I  
HETATM   29  C   UNL     1      -9.710  11.423  66.537  1.00  0.00    -0.200 A  
HETATM   30  O   UNL     1      -9.829  12.612  64.470  1.00  0.00    -0.522 OA 
HETATM   31  H   UNL     1     -10.154  13.385  64.919  1.00  0.00     0.000 HD 
HETATM   32  I   UNL     1     -10.433  13.074  67.606  1.00  0.00    -0.255 I  
HETATM   33  C   UNL     1      -9.380  10.269  67.261  1.00  0.00    -0.169 A  
HETATM   34  C   UNL     1      -8.850   9.138  66.619  1.00  0.00    -0.147 A  
ENDBRANCH  12  14
TORSDOF 1
ENDMDL
MODEL       43
REMARK 921   NORMALIZED FREE ENERGY PREDICTED BY IDOCK:   -5.32 KCAL/MOL
REMARK 922        TOTAL FREE ENERGY PREDICTED BY IDOCK:   -6.33 KCAL/MOL
REMARK 923 INTER-LIGAND FREE ENERGY PREDICTED BY IDOCK:   -7.03 KCAL/MOL
REMARK 924 INTRA-LIGAND FREE ENERGY PREDICTED BY IDOCK:    0.70 KCAL/MOL
REMARK 927      BINDING AFFINITY PREDICTED BY RF-SCORE:    0.00 PKD
ROOT
HETATM    1  O   UNL     1      -6.683  10.675  70.878  1.00  0.00    -0.283 OA 
HETATM    2  C   UNL     1      -7.545  10.167  69.970  1.00  0.00    -0.152 C  
HETATM    3  O   UNL     1      -7.304  10.173  68.777  1.00  0.00    -0.077 OA 
HETATM    4  C   UNL     1      -8.850   9.714  70.521  1.00  0.00    -0.169 A  
HETATM    5  C   UNL     1      -8.912   8.908  71.678  1.00  0.00    -0.173 A  
HETATM    6 CL   UNL     1      -7.451   8.423  72.497  1.00  0.00    -0.142 Cl 
HETATM    7  C   UNL     1     -10.155   8.467  72.174  1.00  0.00    -0.323 A  
HETATM    8 CL   UNL     1     -10.218   7.466  73.600  1.00  0.00    -0.396 Cl 
HETATM    9  C   UNL     1     -11.344   8.836  71.524  1.00  0.00    -0.304 A  
HETATM   10  C   UNL     1     -11.292   9.646  70.373  1.00  0.00    -0.277 A  
HETATM   11 CL   UNL     1     -12.878   8.279  72.131  1.00  0.00    -0.355 Cl 
HETATM   12  C   UNL     1     -10.051  10.071  69.836  1.00  0.00    -0.289 A  
HETATM   13 CL   UNL     1     -12.774  10.157  69.607  1.00  0.00     0.276 Cl 
ENDROOT
BRANCH  12  14
HETATM   14  C   UNL     1     -10.042  10.841  68.536  1.00  0.00    -0.187 A  
HETATM   15  C   UNL     1     -10.449  12.140  68.477  1.00  0.00    -0.248 A  
HETATM   16  C   UNL     1     -10.942  12.855  69.655  1.00  0.00     0.151 C  
HETATM   17  C   UNL     1     -11.143  14.183  69.648  1.00  0.00    -0.141 C  
HETATM   18  C   UNL     1     -10.890  14.980  68.404  1.00  0.00    -0.256 C  
HETATM   19  I   UNL     1     -11.816  15.160  71.330  1.00  0.00    -0.516 I  
HETATM   20  C   UNL     1     -10.645  14.203  67.146  1.00  0.00    -0.278 C  
HETATM   21  O   UNL     1     -10.913  16.207  68.414  1.00  0.00    -0.309 OA 
HETATM   22  I   UNL     1     -10.626  15.269  65.361  1.00  0.00    -0.452 I  
HETATM   23  C   UNL     1     -10.455  12.871  67.198  1.00  0.00    -0.238 A  
HETATM   24  O   UNL     1     -10.286  12.165  66.018  1.00  0.00    -0.227 OA 
HETATM   25  C   UNL     1      -9.838  10.874  66.038  1.00  0.00    -0.233 A  
HETATM   26  C   UNL     1      -9.575  10.257  64.802  1.00  0.00    -0.307 A  
HETATM   27  C   UNL     1      -9.121   8.936  64.760  1.00  0.00     0.054 A  
HETATM   28  I   UNL     1      -9.863  11.312  62.992  1.00  0.00    -0.153 I  
HETATM   29  C   UNL     1      -8.893   8.258  65.958  1.00  0.00    -0.168 A  
HETATM   30  O   UNL     1      -8.905   8.296  63.570  1.00  0.00    -0.368 OA 
HETATM   31  H   UNL     1      -8.596   7.397  63.542  1.00  0.00     0.000 HD 
HETATM   32  I   UNL     1      -8.201   6.281  65.990  1.00  0.00    -0.139 I  
HETATM   33  C   UNL     1      -9.145   8.883  67.187  1.00  0.00    -0.160 A  
HETATM   34  C   UNL     1      -9.652  10.192  67.244  1.00  0.00    -0.189 A  
ENDBRANCH  12  14
TORSDOF 1
ENDMDL
MODEL       44
REMARK 921   NORMALIZED FREE ENERGY PREDICTED BY IDOCK:   -5.30 KCAL/MOL
REMARK 922        TOTAL FREE ENERGY PREDICTED BY IDOCK:   -6.31 KCAL/MOL
REMARK 923 INTER-LIGAND FREE ENERGY PREDICTED BY IDOCK:   -5.93 KCAL/MOL
REMARK 924 INTRA-LIGAND FREE ENERGY PREDICTED BY IDOCK:   -0.38 KCAL/MOL
REMARK 927      BINDING AFFINITY PREDICTED BY RF-SCORE:    0.00 PKD
ROOT
HETATM    1  O   UNL     1     -11.153   8.841  70.950  1.00  0.00    -0.247 OA 
HETATM    2  C   UNL     1     -11.099   9.319  69.688  1.00  0.00    -0.116 C  
HETATM    3  O   UNL     1     -11.027   8.582  68.721  1.00  0.00    -0.023 OA 
HETATM    4  C   UNL     1     -11.012  10.799  69.575  1.00  0.00    -0.317 A  
HETATM    5  C   UNL     1     -11.868  11.638  70.322  1.00  0.00    -0.326 A  
HETATM    6 CL   UNL     1     -13.052  10.955  71.403  1.00  0.00    -0.485 Cl 
HETATM    7  C   UNL     1     -11.790  13.038  70.185  1.00  0.00    -0.252 A  
HETATM    8 CL   UNL     1     -12.858  14.064  71.107  1.00  0.00    -0.415 Cl 
HETATM    9  C   UNL     1     -10.851  13.610  69.311  1.00  0.00    -0.082 A  
HETATM   10  C   UNL     1      -9.988  12.781  68.567  1.00  0.00    -0.164 A  
HETATM   11 CL   UNL     1     -10.766  15.341  69.134  1.00  0.00    -0.239 Cl 
HETATM   12  C   UNL     1     -10.074  11.370  68.662  1.00  0.00    -0.217 A  
HETATM   13 CL   UNL     1      -8.779  13.497  67.534  1.00  0.00    -0.195 Cl 
ENDROOT
BRANCH  12  14
HETATM   14  C   UNL     1      -9.207  10.523  67.760  1.00  0.00    -0.151 A  
HETATM   15  C   UNL     1      -9.446  10.434  66.422  1.00  0.00    -0.209 A  
HETATM   16  C   UNL     1     -10.565  11.129  65.785  1.00  0.00    -0.289 C  
HETATM   17  C   UNL     1     -10.681  11.217  64.449  1.00  0.00    -0.339 C  
HETATM   18  C   UNL     1      -9.662  10.571  63.559  1.00  0.00    -0.319 C  
HETATM   19  I   UNL     1     -12.257  12.221  63.587  1.00  0.00    -0.497 I  
HETATM   20  C   UNL     1      -8.682   9.648  64.217  1.00  0.00    -0.206 C  
HETATM   21  O   UNL     1      -9.656  10.768  62.347  1.00  0.00    -0.224 OA 
HETATM   22  I   UNL     1      -7.486   8.490  62.971  1.00  0.00    -0.124 I  
HETATM   23  C   UNL     1      -8.604   9.587  65.560  1.00  0.00    -0.146 A  
HETATM   24  O   UNL     1      -7.731   8.687  66.146  1.00  0.00    -0.094 OA 
HETATM   25  C   UNL     1      -7.435   8.772  67.478  1.00  0.00    -0.089 A  
HETATM   26  C   UNL     1      -6.451   7.903  67.983  1.00  0.00    -0.052 A  
HETATM   27  C   UNL     1      -6.111   7.941  69.338  1.00  0.00    -0.034 A  
HETATM   28  I   UNL     1      -5.473   6.530  66.707  1.00  0.00    -0.014 I  
HETATM   29  C   UNL     1      -6.729   8.877  70.168  1.00  0.00    -0.041 A  
HETATM   30  O   UNL     1      -5.193   7.074  69.866  1.00  0.00    -0.014 OA 
HETATM   31  H   UNL     1      -4.962   7.100  70.787  1.00  0.00     0.000 HD 
HETATM   32  I   UNL     1      -6.272   9.013  72.208  1.00  0.00     0.236 I  
HETATM   33  C   UNL     1      -7.700   9.748  69.655  1.00  0.00    -0.136 A  
HETATM   34  C   UNL     1      -8.090   9.687  68.307  1.00  0.00    -0.105 A  
ENDBRANCH  12  14
TORSDOF 1
ENDMDL
MODEL       45
REMARK 921   NORMALIZED FREE ENERGY PREDICTED BY IDOCK:   -5.20 KCAL/MOL
REMARK 922        TOTAL FREE ENERGY PREDICTED BY IDOCK:   -6.21 KCAL/MOL
REMARK 923 INTER-LIGAND FREE ENERGY PREDICTED BY IDOCK:   -5.26 KCAL/MOL
REMARK 924 INTRA-LIGAND FREE ENERGY PREDICTED BY IDOCK:   -0.95 KCAL/MOL
REMARK 927      BINDING AFFINITY PREDICTED BY RF-SCORE:    0.00 PKD
ROOT
HETATM    1  O   UNL     1     -12.252  10.976  68.853  1.00  0.00    -0.519 OA 
HETATM    2  C   UNL     1     -11.302  10.723  67.926  1.00  0.00    -0.299 C  
HETATM    3  O   UNL     1     -11.433   9.848  67.090  1.00  0.00     0.087 OA 
HETATM    4  C   UNL     1     -10.045  11.504  68.078  1.00  0.00    -0.197 A  
HETATM    5  C   UNL     1     -10.077  12.898  68.299  1.00  0.00    -0.242 A  
HETATM    6 CL   UNL     1     -11.599  13.742  68.403  1.00  0.00    -0.347 Cl 
HETATM    7  C   UNL     1      -8.877  13.628  68.416  1.00  0.00    -0.152 A  
HETATM    8 CL   UNL     1      -8.929  15.351  68.682  1.00  0.00    -0.181 Cl 
HETATM    9  C   UNL     1      -7.640  12.970  68.324  1.00  0.00    -0.135 A  
HETATM   10  C   UNL     1      -7.599  11.578  68.110  1.00  0.00    -0.113 A  
HETATM   11 CL   UNL     1      -6.159  13.877  68.456  1.00  0.00    -0.086 Cl 
HETATM   12  C   UNL     1      -8.792  10.831  67.954  1.00  0.00    -0.132 A  
HETATM   13 CL   UNL     1      -6.062  10.755  68.063  1.00  0.00    -0.050 Cl 
ENDROOT
BRANCH  12  14
HETATM   14  C   UNL     1      -8.695   9.362  67.613  1.00  0.00    -0.116 A  
HETATM   15  C   UNL     1      -8.600   8.936  66.321  1.00  0.00    -0.145 A  
HETATM   16  C   UNL     1      -8.611   9.868  65.193  1.00  0.00    -0.166 C  
HETATM   17  C   UNL     1      -8.307   9.477  63.945  1.00  0.00    -0.172 C  
HETATM   18  C   UNL     1      -7.968   8.044  63.663  1.00  0.00    -0.130 C  
HETATM   19  I   UNL     1      -8.311  10.820  62.385  1.00  0.00    -0.265 I  
HETATM   20  C   UNL     1      -8.219   7.064  64.768  1.00  0.00    -0.047 C  
HETATM   21  O   UNL     1      -7.536   7.693  62.569  1.00  0.00    -0.088 OA 
HETATM   22  I   UNL     1      -8.077   5.044  64.295  1.00  0.00    -0.130 I  
HETATM   23  C   UNL     1      -8.527   7.500  66.004  1.00  0.00    -0.148 A  
HETATM   24  O   UNL     1      -8.810   6.576  66.996  1.00  0.00    -0.114 OA 
HETATM   25  C   UNL     1      -8.872   6.960  68.307  1.00  0.00    -0.122 A  
HETATM   26  C   UNL     1      -9.044   5.952  69.273  1.00  0.00    -0.123 A  
HETATM   27  C   UNL     1      -9.121   6.285  70.627  1.00  0.00    -0.151 A  
HETATM   28  I   UNL     1      -9.192   3.924  68.694  1.00  0.00    -0.208 I  
HETATM   29  C   UNL     1      -8.981   7.620  71.008  1.00  0.00    -0.146 A  
HETATM   30  O   UNL     1      -9.337   5.330  71.584  1.00  0.00    -0.144 OA 
HETATM   31  H   UNL     1      -9.389   5.557  72.505  1.00  0.00     0.000 HD 
HETATM   32  I   UNL     1      -9.070   8.209  73.016  1.00  0.00    -0.204 I  
HETATM   33  C   UNL     1      -8.798   8.618  70.041  1.00  0.00    -0.142 A  
HETATM   34  C   UNL     1      -8.771   8.305  68.672  1.00  0.00    -0.133 A  
ENDBRANCH  12  14
TORSDOF 1
ENDMDL
MODEL       46
REMARK 921   NORMALIZED FREE ENERGY PREDICTED BY IDOCK:   -5.14 KCAL/MOL
REMARK 922        TOTAL FREE ENERGY PREDICTED BY IDOCK:   -6.15 KCAL/MOL
REMARK 923 INTER-LIGAND FREE ENERGY PREDICTED BY IDOCK:   -5.07 KCAL/MOL
REMARK 924 INTRA-LIGAND FREE ENERGY PREDICTED BY IDOCK:   -1.07 KCAL/MOL
REMARK 927      BINDING AFFINITY PREDICTED BY RF-SCORE:    0.00 PKD
ROOT
HETATM    1  O   UNL     1     -12.166  11.048  69.104  1.00  0.00    -0.434 OA 
HETATM    2  C   UNL     1     -11.275  10.729  68.140  1.00  0.00    -0.302 C  
HETATM    3  O   UNL     1     -11.497   9.860  67.317  1.00  0.00     0.030 OA 
HETATM    4  C   UNL     1      -9.965  11.429  68.233  1.00  0.00    -0.203 A  
HETATM    5  C   UNL     1      -9.898  12.823  68.444  1.00  0.00    -0.196 A  
HETATM    6 CL   UNL     1     -11.356  13.764  68.607  1.00  0.00    -0.298 Cl 
HETATM    7  C   UNL     1      -8.650  13.474  68.505  1.00  0.00    -0.088 A  
HETATM    8 CL   UNL     1      -8.579  15.198  68.759  1.00  0.00    -0.172 Cl 
HETATM    9  C   UNL     1      -7.462  12.738  68.366  1.00  0.00    -0.124 A  
HETATM   10  C   UNL     1      -7.520  11.345  68.161  1.00  0.00    -0.100 A  
HETATM   11 CL   UNL     1      -5.921  13.548  68.427  1.00  0.00    -0.086 Cl 
HETATM   12  C   UNL     1      -8.764  10.675  68.060  1.00  0.00    -0.126 A  
HETATM   13 CL   UNL     1      -6.042  10.425  68.055  1.00  0.00    -0.048 Cl 
ENDROOT
BRANCH  12  14
HETATM   14  C   UNL     1      -8.777   9.202  67.727  1.00  0.00    -0.121 A  
HETATM   15  C   UNL     1      -8.831   8.252  68.702  1.00  0.00    -0.133 A  
HETATM   16  C   UNL     1      -8.854   8.599  70.124  1.00  0.00    -0.144 C  
HETATM   17  C   UNL     1      -9.118   7.687  71.074  1.00  0.00    -0.147 C  
HETATM   18  C   UNL     1      -9.375   6.258  70.700  1.00  0.00    -0.162 C  
HETATM   19  I   UNL     1      -9.164   8.215  73.063  1.00  0.00    -0.191 I  
HETATM   20  C   UNL     1      -9.086   5.872  69.282  1.00  0.00    -0.123 C  
HETATM   21  O   UNL     1      -9.771   5.442  71.527  1.00  0.00    -0.152 OA 
HETATM   22  I   UNL     1      -9.111   3.843  68.826  1.00  0.00    -0.233 I  
HETATM   23  C   UNL     1      -8.820   6.819  68.361  1.00  0.00    -0.122 A  
HETATM   24  O   UNL     1      -8.501   6.436  67.069  1.00  0.00    -0.112 OA 
HETATM   25  C   UNL     1      -8.480   7.355  66.058  1.00  0.00    -0.148 A  
HETATM   26  C   UNL     1      -8.267   6.879  64.751  1.00  0.00    -0.050 A  
HETATM   27  C   UNL     1      -8.228   7.773  63.678  1.00  0.00     0.024 A  
HETATM   28  I   UNL     1      -8.001   4.813  64.390  1.00  0.00    -0.118 I  
HETATM   29  C   UNL     1      -8.445   9.131  63.915  1.00  0.00    -0.180 A  
HETATM   30  O   UNL     1      -7.974   7.343  62.403  1.00  0.00    -0.127 OA 
HETATM   31  H   UNL     1      -7.948   7.951  61.673  1.00  0.00     0.000 HD 
HETATM   32  I   UNL     1      -8.418  10.539  62.364  1.00  0.00    -0.353 I  
HETATM   33  C   UNL     1      -8.669   9.596  65.218  1.00  0.00    -0.186 A  
HETATM   34  C   UNL     1      -8.659   8.717  66.314  1.00  0.00    -0.151 A  
ENDBRANCH  12  14
TORSDOF 1
ENDMDL
MODEL       47
REMARK 921   NORMALIZED FREE ENERGY PREDICTED BY IDOCK:   -4.97 KCAL/MOL
REMARK 922        TOTAL FREE ENERGY PREDICTED BY IDOCK:   -5.96 KCAL/MOL
REMARK 923 INTER-LIGAND FREE ENERGY PREDICTED BY IDOCK:   -5.00 KCAL/MOL
REMARK 924 INTRA-LIGAND FREE ENERGY PREDICTED BY IDOCK:   -0.97 KCAL/MOL
REMARK 927      BINDING AFFINITY PREDICTED BY RF-SCORE:    0.00 PKD
ROOT
HETATM    1  O   UNL     1     -10.394   4.442  69.165  1.00  0.00     0.064 OA 
HETATM    2  C   UNL     1     -10.423   5.792  69.148  1.00  0.00    -0.276 C  
HETATM    3  O   UNL     1     -11.101   6.413  68.352  1.00  0.00    -0.315 OA 
HETATM    4  C   UNL     1      -9.480   6.456  70.088  1.00  0.00    -0.170 A  
HETATM    5  C   UNL     1      -9.378   6.040  71.433  1.00  0.00    -0.146 A  
HETATM    6 CL   UNL     1     -10.357   4.726  72.028  1.00  0.00    -0.259 Cl 
HETATM    7  C   UNL     1      -8.498   6.696  72.316  1.00  0.00    -0.111 A  
HETATM    8 CL   UNL     1      -8.385   6.177  73.977  1.00  0.00    -0.115 Cl 
HETATM    9  C   UNL     1      -7.708   7.764  71.861  1.00  0.00    -0.091 A  
HETATM   10  C   UNL     1      -7.799   8.182  70.519  1.00  0.00    -0.087 A  
HETATM   11 CL   UNL     1      -6.631   8.582  72.959  1.00  0.00    -0.108 Cl 
HETATM   12  C   UNL     1      -8.703   7.560  69.623  1.00  0.00    -0.137 A  
HETATM   13 CL   UNL     1      -6.768   9.465  69.941  1.00  0.00    -0.052 Cl 
ENDROOT
BRANCH  12  14
HETATM   14  C   UNL     1      -8.848   8.118  68.226  1.00  0.00    -0.133 A  
HETATM   15  C   UNL     1      -9.704   9.143  67.954  1.00  0.00    -0.182 A  
HETATM   16  C   UNL     1     -10.549   9.744  68.987  1.00  0.00    -0.238 C  
HETATM   17  C   UNL     1     -11.231  10.882  68.775  1.00  0.00    -0.270 C  
HETATM   18  C   UNL     1     -11.166  11.564  67.441  1.00  0.00    -0.304 C  
HETATM   19  I   UNL     1     -12.393  11.712  70.257  1.00  0.00    -0.168 I  
HETATM   20  C   UNL     1     -10.518  10.801  66.326  1.00  0.00    -0.226 C  
HETATM   21  O   UNL     1     -11.649  12.679  67.270  1.00  0.00    -0.323 OA 
HETATM   22  I   UNL     1     -10.714  11.577  64.407  1.00  0.00    -0.389 I  
HETATM   23  C   UNL     1      -9.849   9.661  66.583  1.00  0.00    -0.224 A  
HETATM   24  O   UNL     1      -9.306   8.943  65.531  1.00  0.00    -0.215 OA 
HETATM   25  C   UNL     1      -8.411   7.937  65.764  1.00  0.00    -0.140 A  
HETATM   26  C   UNL     1      -7.809   7.330  64.647  1.00  0.00    -0.123 A  
HETATM   27  C   UNL     1      -6.892   6.291  64.825  1.00  0.00    -0.047 A  
HETATM   28  I   UNL     1      -8.281   7.974  62.690  1.00  0.00     0.060 I  
HETATM   29  C   UNL     1      -6.552   5.897  66.119  1.00  0.00    -0.047 A  
HETATM   30  O   UNL     1      -6.327   5.650  63.755  1.00  0.00    -0.024 OA 
HETATM   31  H   UNL     1      -5.703   4.944  63.875  1.00  0.00     0.000 HD 
HETATM   32  I   UNL     1      -5.177   4.358  66.478  1.00  0.00    -0.010 I  
HETATM   33  C   UNL     1      -7.147   6.515  67.228  1.00  0.00    -0.077 A  
HETATM   34  C   UNL     1      -8.110   7.525  67.065  1.00  0.00    -0.117 A  
ENDBRANCH  12  14
TORSDOF 1
ENDMDL
MODEL       48
REMARK 921   NORMALIZED FREE ENERGY PREDICTED BY IDOCK:   -4.95 KCAL/MOL
REMARK 922        TOTAL FREE ENERGY PREDICTED BY IDOCK:   -5.94 KCAL/MOL
REMARK 923 INTER-LIGAND FREE ENERGY PREDICTED BY IDOCK:   -5.23 KCAL/MOL
REMARK 924 INTRA-LIGAND FREE ENERGY PREDICTED BY IDOCK:   -0.71 KCAL/MOL
REMARK 927      BINDING AFFINITY PREDICTED BY RF-SCORE:    0.00 PKD
ROOT
HETATM    1  O   UNL     1      -5.878  12.174  68.799  1.00  0.00    -0.053 OA 
HETATM    2  C   UNL     1      -7.073  11.548  68.862  1.00  0.00    -0.111 C  
HETATM    3  O   UNL     1      -7.233  10.523  69.498  1.00  0.00    -0.107 OA 
HETATM    4  C   UNL     1      -8.139  12.133  68.005  1.00  0.00    -0.155 A  
HETATM    5  C   UNL     1      -8.377  13.525  67.987  1.00  0.00    -0.168 A  
HETATM    6 CL   UNL     1      -7.418  14.598  68.971  1.00  0.00    -0.131 Cl 
HETATM    7  C   UNL     1      -9.407  14.061  67.189  1.00  0.00    -0.242 A  
HETATM    8 CL   UNL     1      -9.695  15.780  67.179  1.00  0.00    -0.222 Cl 
HETATM    9  C   UNL     1     -10.198  13.214  66.396  1.00  0.00    -0.286 A  
HETATM   10  C   UNL     1      -9.964  11.824  66.403  1.00  0.00    -0.211 A  
HETATM   11 CL   UNL     1     -11.479  13.877  65.421  1.00  0.00    -0.306 Cl 
HETATM   12  C   UNL     1      -8.958  11.260  67.226  1.00  0.00    -0.149 A  
HETATM   13 CL   UNL     1     -10.905  10.783  65.368  1.00  0.00    -0.142 Cl 
ENDROOT
BRANCH  12  14
HETATM   14  C   UNL     1      -8.820   9.757  67.286  1.00  0.00    -0.139 A  
HETATM   15  C   UNL     1      -9.459   9.021  68.239  1.00  0.00    -0.156 A  
HETATM   16  C   UNL     1     -10.290   9.642  69.272  1.00  0.00    -0.223 C  
HETATM   17  C   UNL     1     -11.084   8.917  70.076  1.00  0.00    -0.170 C  
HETATM   18  C   UNL     1     -11.121   7.423  69.955  1.00  0.00    -0.220 C  
HETATM   19  I   UNL     1     -12.257   9.824  71.504  1.00  0.00    -0.434 I  
HETATM   20  C   UNL     1     -10.077   6.793  69.085  1.00  0.00    -0.171 C  
HETATM   21  O   UNL     1     -11.948   6.752  70.565  1.00  0.00    -0.386 OA 
HETATM   22  I   UNL     1      -9.897   4.723  69.166  1.00  0.00    -0.114 I  
HETATM   23  C   UNL     1      -9.297   7.558  68.297  1.00  0.00    -0.141 A  
HETATM   24  O   UNL     1      -8.302   6.960  67.544  1.00  0.00    -0.121 OA 
HETATM   25  C   UNL     1      -7.670   7.654  66.550  1.00  0.00    -0.097 A  
HETATM   26  C   UNL     1      -6.754   6.952  65.746  1.00  0.00    -0.052 A  
HETATM   27  C   UNL     1      -6.073   7.611  64.720  1.00  0.00    -0.038 A  
HETATM   28  I   UNL     1      -6.393   4.895  66.076  1.00  0.00    -0.042 I  
HETATM   29  C   UNL     1      -6.345   8.958  64.479  1.00  0.00    -0.070 A  
HETATM   30  O   UNL     1      -5.142   6.964  63.954  1.00  0.00    -0.026 OA 
HETATM   31  H   UNL     1      -4.679   7.412  63.256  1.00  0.00     0.000 HD 
HETATM   32  I   UNL     1      -5.381  10.022  62.953  1.00  0.00    -0.131 I  
HETATM   33  C   UNL     1      -7.268   9.649  65.277  1.00  0.00    -0.113 A  
HETATM   34  C   UNL     1      -7.921   9.014  66.345  1.00  0.00    -0.103 A  
ENDBRANCH  12  14
TORSDOF 1
ENDMDL
MODEL       49
REMARK 921   NORMALIZED FREE ENERGY PREDICTED BY IDOCK:   -4.92 KCAL/MOL
REMARK 922        TOTAL FREE ENERGY PREDICTED BY IDOCK:   -5.91 KCAL/MOL
REMARK 923 INTER-LIGAND FREE ENERGY PREDICTED BY IDOCK:   -4.83 KCAL/MOL
REMARK 924 INTRA-LIGAND FREE ENERGY PREDICTED BY IDOCK:   -1.07 KCAL/MOL
REMARK 927      BINDING AFFINITY PREDICTED BY RF-SCORE:    0.00 PKD
ROOT
HETATM    1  O   UNL     1     -11.677   6.092  70.866  1.00  0.00    -0.282 OA 
HETATM    2  C   UNL     1     -10.867   6.917  70.167  1.00  0.00    -0.263 C  
HETATM    3  O   UNL     1     -11.157   7.315  69.054  1.00  0.00    -0.099 OA 
HETATM    4  C   UNL     1      -9.552   7.201  70.802  1.00  0.00    -0.168 A  
HETATM    5  C   UNL     1      -9.464   7.558  72.165  1.00  0.00    -0.147 A  
HETATM    6 CL   UNL     1     -10.902   7.671  73.144  1.00  0.00    -0.453 Cl 
HETATM    7  C   UNL     1      -8.213   7.848  72.745  1.00  0.00    -0.144 A  
HETATM    8 CL   UNL     1      -8.117   8.295  74.428  1.00  0.00    -0.305 Cl 
HETATM    9  C   UNL     1      -7.043   7.774  71.972  1.00  0.00    -0.069 A  
HETATM   10  C   UNL     1      -7.121   7.413  70.613  1.00  0.00    -0.060 A  
HETATM   11 CL   UNL     1      -5.500   8.147  72.689  1.00  0.00    -0.037 Cl 
HETATM   12  C   UNL     1      -8.372   7.152  70.000  1.00  0.00    -0.138 A  
HETATM   13 CL   UNL     1      -5.659   7.257  69.674  1.00  0.00    -0.022 Cl 
ENDROOT
BRANCH  12  14
HETATM   14  C   UNL     1      -8.415   6.880  68.514  1.00  0.00    -0.123 A  
HETATM   15  C   UNL     1      -8.403   5.609  68.023  1.00  0.00    -0.100 A  
HETATM   16  C   UNL     1      -8.321   4.438  68.898  1.00  0.00    -0.087 C  
HETATM   17  C   UNL     1      -8.520   3.192  68.439  1.00  0.00    -0.080 C  
HETATM   18  C   UNL     1      -8.810   2.959  66.986  1.00  0.00    -0.144 C  
HETATM   19  I   UNL     1      -8.420   1.570  69.702  1.00  0.00    -0.106 I  
HETATM   20  C   UNL     1      -8.627   4.129  66.068  1.00  0.00    -0.113 C  
HETATM   21  O   UNL     1      -9.150   1.855  66.571  1.00  0.00    -0.113 OA 
HETATM   22  I   UNL     1      -8.695   3.751  64.024  1.00  0.00    -0.114 I  
HETATM   23  C   UNL     1      -8.424   5.361  66.571  1.00  0.00    -0.113 A  
HETATM   24  O   UNL     1      -8.202   6.418  65.704  1.00  0.00    -0.127 OA 
HETATM   25  C   UNL     1      -8.249   7.708  66.154  1.00  0.00    -0.124 A  
HETATM   26  C   UNL     1      -8.133   8.735  65.199  1.00  0.00    -0.133 A  
HETATM   27  C   UNL     1      -8.168  10.072  65.601  1.00  0.00    -0.143 A  
HETATM   28  I   UNL     1      -7.904   8.274  63.149  1.00  0.00    -0.109 I  
HETATM   29  C   UNL     1      -8.361  10.372  66.950  1.00  0.00    -0.124 A  
HETATM   30  O   UNL     1      -8.009  11.090  64.700  1.00  0.00    -0.348 OA 
HETATM   31  H   UNL     1      -8.033  12.000  64.974  1.00  0.00     0.000 HD 
HETATM   32  I   UNL     1      -8.439  12.349  67.640  1.00  0.00    -0.206 I  
HETATM   33  C   UNL     1      -8.488   9.344  67.895  1.00  0.00    -0.116 A  
HETATM   34  C   UNL     1      -8.402   7.995  67.513  1.00  0.00    -0.123 A  
ENDBRANCH  12  14
TORSDOF 1
ENDMDL
MODEL       50
REMARK 921   NORMALIZED FREE ENERGY PREDICTED BY IDOCK:   -4.87 KCAL/MOL
REMARK 922        TOTAL FREE ENERGY PREDICTED BY IDOCK:   -5.86 KCAL/MOL
REMARK 923 INTER-LIGAND FREE ENERGY PREDICTED BY IDOCK:   -4.88 KCAL/MOL
REMARK 924 INTRA-LIGAND FREE ENERGY PREDICTED BY IDOCK:   -0.97 KCAL/MOL
REMARK 927      BINDING AFFINITY PREDICTED BY RF-SCORE:    0.00 PKD
ROOT
HETATM    1  O   UNL     1     -11.792   6.419  70.516  1.00  0.00    -0.374 OA 
HETATM    2  C   UNL     1     -10.854   7.152  69.877  1.00  0.00    -0.254 C  
HETATM    3  O   UNL     1     -11.022   7.573  68.748  1.00  0.00    -0.075 OA 
HETATM    4  C   UNL     1      -9.564   7.301  70.603  1.00  0.00    -0.172 A  
HETATM    5  C   UNL     1      -9.535   7.653  71.970  1.00  0.00    -0.153 A  
HETATM    6 CL   UNL     1     -11.019   7.919  72.846  1.00  0.00    -0.461 Cl 
HETATM    7  C   UNL     1      -8.305   7.814  72.638  1.00  0.00    -0.132 A  
HETATM    8 CL   UNL     1      -8.281   8.255  74.325  1.00  0.00    -0.300 Cl 
HETATM    9  C   UNL     1      -7.097   7.615  71.949  1.00  0.00    -0.064 A  
HETATM   10  C   UNL     1      -7.117   7.258  70.587  1.00  0.00    -0.065 A  
HETATM   11 CL   UNL     1      -5.578   7.829  72.773  1.00  0.00    -0.040 Cl 
HETATM   12  C   UNL     1      -8.342   7.126  69.886  1.00  0.00    -0.135 A  
HETATM   13 CL   UNL     1      -5.617   6.947  69.752  1.00  0.00    -0.018 Cl 
ENDROOT
BRANCH  12  14
HETATM   14  C   UNL     1      -8.309   6.853  68.401  1.00  0.00    -0.120 A  
HETATM   15  C   UNL     1      -8.149   7.860  67.496  1.00  0.00    -0.124 A  
HETATM   16  C   UNL     1      -8.026   9.260  67.905  1.00  0.00    -0.100 C  
HETATM   17  C   UNL     1      -7.659  10.223  67.045  1.00  0.00    -0.099 C  
HETATM   18  C   UNL     1      -7.387   9.889  65.608  1.00  0.00    -0.116 C  
HETATM   19  I   UNL     1      -7.474  12.179  67.659  1.00  0.00    -0.166 I  
HETATM   20  C   UNL     1      -7.773   8.515  65.153  1.00  0.00    -0.102 C  
HETATM   21  O   UNL     1      -6.901  10.715  64.841  1.00  0.00    -0.025 OA 
HETATM   22  I   UNL     1      -7.719   8.143  63.107  1.00  0.00    -0.129 I  
HETATM   23  C   UNL     1      -8.140   7.581  66.050  1.00  0.00    -0.123 A  
HETATM   24  O   UNL     1      -8.546   6.335  65.602  1.00  0.00    -0.149 OA 
HETATM   25  C   UNL     1      -8.676   5.291  66.475  1.00  0.00    -0.115 A  
HETATM   26  C   UNL     1      -8.976   4.026  65.937  1.00  0.00    -0.128 A  
HETATM   27  C   UNL     1      -9.127   2.923  66.781  1.00  0.00    -0.152 A  
HETATM   28  I   UNL     1      -9.203   3.774  63.850  1.00  0.00    -0.151 I  
HETATM   29  C   UNL     1      -8.935   3.086  68.153  1.00  0.00    -0.145 A  
HETATM   30  O   UNL     1      -9.466   1.692  66.289  1.00  0.00    -0.337 OA 
HETATM   31  H   UNL     1      -9.569   0.942  66.863  1.00  0.00     0.000 HD 
HETATM   32  I   UNL     1      -9.129   1.486  69.491  1.00  0.00    -0.151 I  
HETATM   33  C   UNL     1      -8.625   4.347  68.682  1.00  0.00    -0.108 A  
HETATM   34  C   UNL     1      -8.521   5.475  67.851  1.00  0.00    -0.098 A  
ENDBRANCH  12  14
TORSDOF 1
ENDMDL
MODEL       51
REMARK 921   NORMALIZED FREE ENERGY PREDICTED BY IDOCK:   -4.84 KCAL/MOL
REMARK 922        TOTAL FREE ENERGY PREDICTED BY IDOCK:   -5.82 KCAL/MOL
REMARK 923 INTER-LIGAND FREE ENERGY PREDICTED BY IDOCK:   -5.12 KCAL/MOL
REMARK 924 INTRA-LIGAND FREE ENERGY PREDICTED BY IDOCK:   -0.70 KCAL/MOL
REMARK 927      BINDING AFFINITY PREDICTED BY RF-SCORE:    0.00 PKD
ROOT
HETATM    1  O   UNL     1      -8.135   8.848  72.711  1.00  0.00    -0.380 OA 
HETATM    2  C   UNL     1      -7.905   8.403  71.457  1.00  0.00    -0.120 C  
HETATM    3  O   UNL     1      -7.412   9.113  70.600  1.00  0.00    -0.095 OA 
HETATM    4  C   UNL     1      -8.406   7.032  71.171  1.00  0.00    -0.118 A  
HETATM    5  C   UNL     1      -8.160   5.966  72.063  1.00  0.00    -0.108 A  
HETATM    6 CL   UNL     1      -7.261   6.233  73.533  1.00  0.00    -0.083 Cl 
HETATM    7  C   UNL     1      -8.620   4.668  71.765  1.00  0.00    -0.121 A  
HETATM    8 CL   UNL     1      -8.304   3.357  72.871  1.00  0.00    -0.080 Cl 
HETATM    9  C   UNL     1      -9.336   4.428  70.581  1.00  0.00    -0.152 A  
HETATM   10  C   UNL     1      -9.591   5.487  69.688  1.00  0.00    -0.158 A  
HETATM   11 CL   UNL     1      -9.892   2.820  70.208  1.00  0.00    -0.005 Cl 
HETATM   12  C   UNL     1      -9.107   6.793  69.950  1.00  0.00    -0.144 A  
HETATM   13 CL   UNL     1     -10.539   5.199  68.252  1.00  0.00    -0.082 Cl 
ENDROOT
BRANCH  12  14
HETATM   14  C   UNL     1      -9.308   7.870  68.909  1.00  0.00    -0.150 A  
HETATM   15  C   UNL     1     -10.243   8.848  69.069  1.00  0.00    -0.217 A  
HETATM   16  C   UNL     1     -11.121   8.900  70.238  1.00  0.00    -0.251 C  
HETATM   17  C   UNL     1     -11.891   9.968  70.503  1.00  0.00    -0.303 C  
HETATM   18  C   UNL     1     -11.892  11.147  69.576  1.00  0.00    -0.353 C  
HETATM   19  I   UNL     1     -13.099  10.017  72.168  1.00  0.00    -0.058 I  
HETATM   20  C   UNL     1     -11.198  10.968  68.260  1.00  0.00    -0.277 C  
HETATM   21  O   UNL     1     -12.461  12.193  69.873  1.00  0.00    -0.085 OA 
HETATM   22  I   UNL     1     -11.471  12.457  66.834  1.00  0.00    -0.390 I  
HETATM   23  C   UNL     1     -10.440   9.878  68.035  1.00  0.00    -0.222 A  
HETATM   24  O   UNL     1      -9.854   9.706  66.792  1.00  0.00    -0.186 OA 
HETATM   25  C   UNL     1      -8.882   8.764  66.606  1.00  0.00    -0.131 A  
HETATM   26  C   UNL     1      -8.246   8.723  65.352  1.00  0.00    -0.136 A  
HETATM   27  C   UNL     1      -7.250   7.776  65.102  1.00  0.00    -0.065 A  
HETATM   28  I   UNL     1      -8.785  10.088  63.830  1.00  0.00    -0.299 I  
HETATM   29  C   UNL     1      -6.868   6.905  66.123  1.00  0.00    -0.064 A  
HETATM   30  O   UNL     1      -6.648   7.683  63.876  1.00  0.00    -0.052 OA 
HETATM   31  H   UNL     1      -5.971   7.039  63.707  1.00  0.00     0.000 HD 
HETATM   32  I   UNL     1      -5.375   5.463  65.841  1.00  0.00    -0.014 I  
HETATM   33  C   UNL     1      -7.498   6.959  67.374  1.00  0.00    -0.097 A  
HETATM   34  C   UNL     1      -8.538   7.870  67.624  1.00  0.00    -0.127 A  
ENDBRANCH  12  14
TORSDOF 1
ENDMDL
MODEL       52
REMARK 921   NORMALIZED FREE ENERGY PREDICTED BY IDOCK:   -4.80 KCAL/MOL
REMARK 922        TOTAL FREE ENERGY PREDICTED BY IDOCK:   -5.78 KCAL/MOL
REMARK 923 INTER-LIGAND FREE ENERGY PREDICTED BY IDOCK:   -6.26 KCAL/MOL
REMARK 924 INTRA-LIGAND FREE ENERGY PREDICTED BY IDOCK:    0.48 KCAL/MOL
REMARK 927      BINDING AFFINITY PREDICTED BY RF-SCORE:    0.00 PKD
ROOT
HETATM    1  O   UNL     1     -13.070  10.348  71.494  1.00  0.00    -0.390 OA 
HETATM    2  C   UNL     1     -12.816  10.869  70.274  1.00  0.00    -0.142 C  
HETATM    3  O   UNL     1     -13.015  10.241  69.250  1.00  0.00     0.355 OA 
HETATM    4  C   UNL     1     -12.168  12.207  70.280  1.00  0.00    -0.344 A  
HETATM    5  C   UNL     1     -12.651  13.247  71.105  1.00  0.00    -0.325 A  
HETATM    6 CL   UNL     1     -14.024  12.983  72.146  1.00  0.00    -0.429 Cl 
HETATM    7  C   UNL     1     -12.041  14.517  71.080  1.00  0.00    -0.344 A  
HETATM    8 CL   UNL     1     -12.650  15.795  72.098  1.00  0.00    -0.490 Cl 
HETATM    9  C   UNL     1     -10.941  14.755  70.241  1.00  0.00    -0.097 A  
HETATM   10  C   UNL     1     -10.448  13.722  69.419  1.00  0.00     0.171 A  
HETATM   11 CL   UNL     1     -10.197  16.329  70.202  1.00  0.00     0.002 Cl 
HETATM   12  C   UNL     1     -11.069  12.448  69.401  1.00  0.00    -0.149 A  
HETATM   13 CL   UNL     1      -9.041  14.001  68.428  1.00  0.00    -0.194 Cl 
ENDROOT
BRANCH  12  14
HETATM   14  C   UNL     1     -10.577  11.409  68.420  1.00  0.00    -0.230 A  
HETATM   15  C   UNL     1     -10.011  10.243  68.843  1.00  0.00    -0.209 A  
HETATM   16  C   UNL     1      -9.823   9.941  70.263  1.00  0.00    -0.236 C  
HETATM   17  C   UNL     1      -9.465   8.718  70.688  1.00  0.00    -0.197 C  
HETATM   18  C   UNL     1      -9.216   7.617  69.701  1.00  0.00    -0.146 C  
HETATM   19  I   UNL     1      -9.230   8.322  72.694  1.00  0.00    -0.213 I  
HETATM   20  C   UNL     1      -9.153   8.011  68.257  1.00  0.00    -0.135 C  
HETATM   21  O   UNL     1      -9.043   6.459  70.066  1.00  0.00    -0.148 OA 
HETATM   22  I   UNL     1      -8.482   6.575  66.910  1.00  0.00    -0.121 I  
HETATM   23  C   UNL     1      -9.516   9.250  67.874  1.00  0.00    -0.137 A  
HETATM   24  O   UNL     1      -9.397   9.610  66.543  1.00  0.00    -0.151 OA 
HETATM   25  C   UNL     1      -9.988  10.750  66.075  1.00  0.00    -0.242 A  
HETATM   26  C   UNL     1      -9.928  10.993  64.690  1.00  0.00    -0.301 A  
HETATM   27  C   UNL     1     -10.509  12.146  64.156  1.00  0.00    -0.362 A  
HETATM   28  I   UNL     1      -8.962   9.625  63.400  1.00  0.00     0.024 I  
HETATM   29  C   UNL     1     -11.182  13.025  65.005  1.00  0.00    -0.297 A  
HETATM   30  O   UNL     1     -10.424  12.431  62.820  1.00  0.00    -0.351 OA 
HETATM   31  H   UNL     1     -10.819  13.215  62.456  1.00  0.00     0.000 HD 
HETATM   32  I   UNL     1     -12.093  14.770  64.288  1.00  0.00     0.181 I  
HETATM   33  C   UNL     1     -11.248  12.770  66.382  1.00  0.00    -0.339 A  
HETATM   34  C   UNL     1     -10.624  11.643  66.941  1.00  0.00    -0.276 A  
ENDBRANCH  12  14
TORSDOF 1
ENDMDL
MODEL       53
REMARK 921   NORMALIZED FREE ENERGY PREDICTED BY IDOCK:   -4.79 KCAL/MOL
REMARK 922        TOTAL FREE ENERGY PREDICTED BY IDOCK:   -5.78 KCAL/MOL
REMARK 923 INTER-LIGAND FREE ENERGY PREDICTED BY IDOCK:   -4.95 KCAL/MOL
REMARK 924 INTRA-LIGAND FREE ENERGY PREDICTED BY IDOCK:   -0.82 KCAL/MOL
REMARK 927      BINDING AFFINITY PREDICTED BY RF-SCORE:    0.00 PKD
ROOT
HETATM    1  O   UNL     1     -10.992  12.291  68.639  1.00  0.00    -0.218 OA 
HETATM    2  C   UNL     1     -10.625  11.059  68.222  1.00  0.00    -0.187 C  
HETATM    3  O   UNL     1     -10.620  10.100  68.970  1.00  0.00    -0.199 OA 
HETATM    4  C   UNL     1     -10.117  10.989  66.826  1.00  0.00    -0.260 A  
HETATM    5  C   UNL     1     -10.807  11.619  65.767  1.00  0.00    -0.281 A  
HETATM    6 CL   UNL     1     -12.278  12.504  66.073  1.00  0.00    -0.385 Cl 
HETATM    7  C   UNL     1     -10.326  11.522  64.446  1.00  0.00    -0.312 A  
HETATM    8 CL   UNL     1     -11.191  12.299  63.146  1.00  0.00    -0.360 Cl 
HETATM    9  C   UNL     1      -9.150  10.806  64.175  1.00  0.00    -0.196 A  
HETATM   10  C   UNL     1      -8.451  10.179  65.226  1.00  0.00    -0.158 A  
HETATM   11 CL   UNL     1      -8.565  10.676  62.540  1.00  0.00    -0.242 Cl 
HETATM   12  C   UNL     1      -8.936  10.233  66.556  1.00  0.00    -0.161 A  
HETATM   13 CL   UNL     1      -6.954   9.347  64.894  1.00  0.00    -0.094 Cl 
ENDROOT
BRANCH  12  14
HETATM   14  C   UNL     1      -8.215   9.451  67.629  1.00  0.00    -0.114 A  
HETATM   15  C   UNL     1      -8.375   8.104  67.756  1.00  0.00    -0.128 A  
HETATM   16  C   UNL     1      -9.269   7.342  66.883  1.00  0.00    -0.180 C  
HETATM   17  C   UNL     1      -9.270   5.999  66.864  1.00  0.00    -0.126 C  
HETATM   18  C   UNL     1      -8.359   5.229  67.772  1.00  0.00    -0.098 C  
HETATM   19  I   UNL     1     -10.525   4.959  65.607  1.00  0.00     0.187 I  
HETATM   20  C   UNL     1      -7.653   6.013  68.837  1.00  0.00    -0.091 C  
HETATM   21  O   UNL     1      -8.227   4.014  67.666  1.00  0.00    -0.093 OA 
HETATM   22  I   UNL     1      -6.656   4.931  70.307  1.00  0.00    -0.038 I  
HETATM   23  C   UNL     1      -7.682   7.359  68.821  1.00  0.00    -0.119 A  
HETATM   24  O   UNL     1      -7.070   8.061  69.845  1.00  0.00    -0.055 OA 
HETATM   25  C   UNL     1      -6.854   9.406  69.734  1.00  0.00    -0.055 A  
HETATM   26  C   UNL     1      -6.122  10.035  70.757  1.00  0.00    -0.092 A  
HETATM   27  C   UNL     1      -5.876  11.409  70.700  1.00  0.00    -0.092 A  
HETATM   28  I   UNL     1      -5.383   8.917  72.392  1.00  0.00    -0.060 I  
HETATM   29  C   UNL     1      -6.330  12.136  69.599  1.00  0.00    -0.115 A  
HETATM   30  O   UNL     1      -5.208  12.055  71.705  1.00  0.00    -0.343 OA 
HETATM   31  H   UNL     1      -5.042  12.989  71.667  1.00  0.00     0.000 HD 
HETATM   32  I   UNL     1      -5.996  14.197  69.425  1.00  0.00    -0.115 I  
HETATM   33  C   UNL     1      -7.049  11.501  68.577  1.00  0.00    -0.087 A  
HETATM   34  C   UNL     1      -7.349  10.130  68.646  1.00  0.00    -0.082 A  
ENDBRANCH  12  14
TORSDOF 1
ENDMDL
MODEL       54
REMARK 921   NORMALIZED FREE ENERGY PREDICTED BY IDOCK:   -4.74 KCAL/MOL
REMARK 922        TOTAL FREE ENERGY PREDICTED BY IDOCK:   -5.71 KCAL/MOL
REMARK 923 INTER-LIGAND FREE ENERGY PREDICTED BY IDOCK:   -4.73 KCAL/MOL
REMARK 924 INTRA-LIGAND FREE ENERGY PREDICTED BY IDOCK:   -0.98 KCAL/MOL
REMARK 927      BINDING AFFINITY PREDICTED BY RF-SCORE:    0.00 PKD
ROOT
HETATM    1  O   UNL     1      -5.708  12.008  68.167  1.00  0.00    -0.047 OA 
HETATM    2  C   UNL     1      -6.858  11.314  68.307  1.00  0.00    -0.064 C  
HETATM    3  O   UNL     1      -6.891  10.216  68.832  1.00  0.00    -0.052 OA 
HETATM    4  C   UNL     1      -8.051  11.932  67.669  1.00  0.00    -0.148 A  
HETATM    5  C   UNL     1      -8.345  13.301  67.847  1.00  0.00    -0.163 A  
HETATM    6 CL   UNL     1      -7.308  14.308  68.820  1.00  0.00    -0.126 Cl 
HETATM    7  C   UNL     1      -9.493  13.866  67.255  1.00  0.00    -0.239 A  
HETATM    8 CL   UNL     1      -9.849  15.557  67.487  1.00  0.00    -0.220 Cl 
HETATM    9  C   UNL     1     -10.348  13.071  66.475  1.00  0.00    -0.274 A  
HETATM   10  C   UNL     1     -10.059  11.705  66.288  1.00  0.00    -0.221 A  
HETATM   11 CL   UNL     1     -11.773  13.768  65.757  1.00  0.00    -0.345 Cl 
HETATM   12  C   UNL     1      -8.931  11.108  66.902  1.00  0.00    -0.164 A  
HETATM   13 CL   UNL     1     -11.088  10.736  65.264  1.00  0.00     0.052 Cl 
ENDROOT
BRANCH  12  14
HETATM   14  C   UNL     1      -8.726   9.617  66.765  1.00  0.00    -0.144 A  
HETATM   15  C   UNL     1      -8.013   9.089  65.732  1.00  0.00    -0.103 A  
HETATM   16  C   UNL     1      -7.427   9.926  64.684  1.00  0.00    -0.140 C  
HETATM   17  C   UNL     1      -6.553   9.438  63.789  1.00  0.00    -0.095 C  
HETATM   18  C   UNL     1      -6.168   7.990  63.821  1.00  0.00    -0.066 C  
HETATM   19  I   UNL     1      -5.732  10.650  62.342  1.00  0.00    -0.123 I  
HETATM   20  C   UNL     1      -6.971   7.100  64.721  1.00  0.00    -0.051 C  
HETATM   21  O   UNL     1      -5.259   7.554  63.121  1.00  0.00    -0.036 OA 
HETATM   22  I   UNL     1      -6.681   5.050  64.533  1.00  0.00    -0.050 I  
HETATM   23  C   UNL     1      -7.841   7.632  65.600  1.00  0.00    -0.109 A  
HETATM   24  O   UNL     1      -8.613   6.790  66.382  1.00  0.00    -0.119 OA 
HETATM   25  C   UNL     1      -9.308   7.278  67.453  1.00  0.00    -0.128 A  
HETATM   26  C   UNL     1      -9.975   6.350  68.274  1.00  0.00    -0.140 A  
HETATM   27  C   UNL     1     -10.706   6.792  69.379  1.00  0.00    -0.255 A  
HETATM   28  I   UNL     1      -9.882   4.281  67.851  1.00  0.00     0.135 I  
HETATM   29  C   UNL     1     -10.730   8.154  69.679  1.00  0.00    -0.195 A  
HETATM   30  O   UNL     1     -11.404   5.916  70.166  1.00  0.00    -0.338 OA 
HETATM   31  H   UNL     1     -11.902   6.217  70.918  1.00  0.00     0.000 HD 
HETATM   32  I   UNL     1     -11.791   8.903  71.323  1.00  0.00    -0.397 I  
HETATM   33  C   UNL     1     -10.054   9.072  68.863  1.00  0.00    -0.207 A  
HETATM   34  C   UNL     1      -9.357   8.649  67.719  1.00  0.00    -0.157 A  
ENDBRANCH  12  14
TORSDOF 1
ENDMDL
MODEL       55
REMARK 921   NORMALIZED FREE ENERGY PREDICTED BY IDOCK:   -4.66 KCAL/MOL
REMARK 922        TOTAL FREE ENERGY PREDICTED BY IDOCK:   -5.63 KCAL/MOL
REMARK 923 INTER-LIGAND FREE ENERGY PREDICTED BY IDOCK:   -4.85 KCAL/MOL
REMARK 924 INTRA-LIGAND FREE ENERGY PREDICTED BY IDOCK:   -0.78 KCAL/MOL
REMARK 927      BINDING AFFINITY PREDICTED BY RF-SCORE:    0.00 PKD
ROOT
HETATM    1  O   UNL     1      -8.043   8.954  72.983  1.00  0.00    -0.380 OA 
HETATM    2  C   UNL     1      -7.781   8.246  71.862  1.00  0.00    -0.114 C  
HETATM    3  O   UNL     1      -7.201   8.734  70.911  1.00  0.00    -0.064 OA 
HETATM    4  C   UNL     1      -8.358   6.875  71.832  1.00  0.00    -0.107 A  
HETATM    5  C   UNL     1      -8.228   6.006  72.936  1.00  0.00    -0.117 A  
HETATM    6 CL   UNL     1      -7.388   6.522  74.374  1.00  0.00    -0.099 Cl 
HETATM    7  C   UNL     1      -8.759   4.701  72.882  1.00  0.00    -0.116 A  
HETATM    8 CL   UNL     1      -8.587   3.634  74.250  1.00  0.00    -0.088 Cl 
HETATM    9  C   UNL     1      -9.430   4.261  71.730  1.00  0.00    -0.145 A  
HETATM   10  C   UNL     1      -9.570   5.124  70.625  1.00  0.00    -0.180 A  
HETATM   11 CL   UNL     1     -10.073   2.644  71.660  1.00  0.00    -0.151 Cl 
HETATM   12  C   UNL     1      -9.013   6.427  70.645  1.00  0.00    -0.144 A  
HETATM   13 CL   UNL     1     -10.462   4.596  69.222  1.00  0.00     0.091 Cl 
ENDROOT
BRANCH  12  14
HETATM   14  C   UNL     1      -9.089   7.273  69.395  1.00  0.00    -0.142 A  
HETATM   15  C   UNL     1      -8.263   7.052  68.334  1.00  0.00    -0.124 A  
HETATM   16  C   UNL     1      -7.241   6.004  68.351  1.00  0.00    -0.084 C  
HETATM   17  C   UNL     1      -6.573   5.645  67.243  1.00  0.00    -0.057 C  
HETATM   18  C   UNL     1      -6.842   6.337  65.941  1.00  0.00    -0.057 C  
HETATM   19  I   UNL     1      -5.157   4.152  67.298  1.00  0.00    -0.009 I  
HETATM   20  C   UNL     1      -7.688   7.573  65.998  1.00  0.00    -0.094 C  
HETATM   21  O   UNL     1      -6.364   5.926  64.887  1.00  0.00    -0.035 OA 
HETATM   22  I   UNL     1      -7.795   8.730  64.273  1.00  0.00    -0.151 I  
HETATM   23  C   UNL     1      -8.336   7.899  67.132  1.00  0.00    -0.117 A  
HETATM   24  O   UNL     1      -9.066   9.074  67.180  1.00  0.00    -0.134 OA 
HETATM   25  C   UNL     1      -9.937   9.311  68.207  1.00  0.00    -0.173 A  
HETATM   26  C   UNL     1     -10.734  10.467  68.131  1.00  0.00    -0.233 A  
HETATM   27  C   UNL     1     -11.637  10.764  69.155  1.00  0.00    -0.305 A  
HETATM   28  I   UNL     1     -10.580  11.772  66.475  1.00  0.00    -0.336 I  
HETATM   29  C   UNL     1     -11.766   9.879  70.226  1.00  0.00    -0.216 A  
HETATM   30  O   UNL     1     -12.390  11.907  69.131  1.00  0.00    -0.157 OA 
HETATM   31  H   UNL     1     -13.004  12.109  69.827  1.00  0.00     0.000 HD 
HETATM   32  I   UNL     1     -13.103  10.238  71.798  1.00  0.00    -0.366 I  
HETATM   33  C   UNL     1     -10.977   8.722  70.289  1.00  0.00    -0.255 A  
HETATM   34  C   UNL     1     -10.027   8.437  69.293  1.00  0.00    -0.195 A  
ENDBRANCH  12  14
TORSDOF 1
ENDMDL
MODEL       56
REMARK 921   NORMALIZED FREE ENERGY PREDICTED BY IDOCK:   -4.65 KCAL/MOL
REMARK 922        TOTAL FREE ENERGY PREDICTED BY IDOCK:   -5.63 KCAL/MOL
REMARK 923 INTER-LIGAND FREE ENERGY PREDICTED BY IDOCK:   -4.75 KCAL/MOL
REMARK 924 INTRA-LIGAND FREE ENERGY PREDICTED BY IDOCK:   -0.88 KCAL/MOL
REMARK 927      BINDING AFFINITY PREDICTED BY RF-SCORE:    0.00 PKD
ROOT
HETATM    1  O   UNL     1      -5.493   9.803  69.700  1.00  0.00    -0.034 OA 
HETATM    2  C   UNL     1      -6.810  10.024  69.498  1.00  0.00    -0.071 C  
HETATM    3  O   UNL     1      -7.564  10.312  70.408  1.00  0.00    -0.228 OA 
HETATM    4  C   UNL     1      -7.287   9.773  68.111  1.00  0.00    -0.080 A  
HETATM    5  C   UNL     1      -6.584  10.279  66.996  1.00  0.00    -0.074 A  
HETATM    6 CL   UNL     1      -5.128  11.212  67.218  1.00  0.00    -0.042 Cl 
HETATM    7  C   UNL     1      -7.063  10.053  65.690  1.00  0.00    -0.119 A  
HETATM    8 CL   UNL     1      -6.190  10.688  64.321  1.00  0.00     0.021 Cl 
HETATM    9  C   UNL     1      -8.239   9.313  65.489  1.00  0.00    -0.124 A  
HETATM   10  C   UNL     1      -8.944   8.799  66.595  1.00  0.00    -0.139 A  
HETATM   11 CL   UNL     1      -8.837   9.047  63.874  1.00  0.00    -0.116 Cl 
HETATM   12  C   UNL     1      -8.500   9.045  67.918  1.00  0.00    -0.121 A  
HETATM   13 CL   UNL     1     -10.368   7.825  66.338  1.00  0.00    -0.114 Cl 
ENDROOT
BRANCH  12  14
HETATM   14  C   UNL     1      -9.350   8.571  69.074  1.00  0.00    -0.146 A  
HETATM   15  C   UNL     1      -9.220   7.315  69.585  1.00  0.00    -0.143 A  
HETATM   16  C   UNL     1      -8.273   6.345  69.032  1.00  0.00    -0.115 C  
HETATM   17  C   UNL     1      -7.991   5.190  69.656  1.00  0.00    -0.079 C  
HETATM   18  C   UNL     1      -8.671   4.844  70.947  1.00  0.00    -0.120 C  
HETATM   19  I   UNL     1      -6.638   3.859  68.860  1.00  0.00    -0.043 I  
HETATM   20  C   UNL     1      -9.820   5.713  71.356  1.00  0.00    -0.173 C  
HETATM   21  O   UNL     1      -8.319   3.876  71.615  1.00  0.00    -0.076 OA 
HETATM   22  I   UNL     1     -10.983   5.060  72.953  1.00  0.00    -0.313 I  
HETATM   23  C   UNL     1     -10.071   6.861  70.698  1.00  0.00    -0.194 A  
HETATM   24  O   UNL     1     -11.172   7.620  71.058  1.00  0.00    -0.257 OA 
HETATM   25  C   UNL     1     -11.313   8.900  70.599  1.00  0.00    -0.259 A  
HETATM   26  C   UNL     1     -12.390   9.655  71.097  1.00  0.00    -0.339 A  
HETATM   27  C   UNL     1     -12.588  10.967  70.659  1.00  0.00    -0.346 A  
HETATM   28  I   UNL     1     -13.723   8.822  72.511  1.00  0.00    -0.104 I  
HETATM   29  C   UNL     1     -11.683  11.527  69.758  1.00  0.00    -0.353 A  
HETATM   30  O   UNL     1     -13.656  11.707  71.090  1.00  0.00     0.346 OA 
HETATM   31  H   UNL     1     -13.790  12.600  70.792  1.00  0.00     0.000 HD 
HETATM   32  I   UNL     1     -11.895  13.490  69.057  1.00  0.00    -0.297 I  
HETATM   33  C   UNL     1     -10.604  10.773  69.274  1.00  0.00    -0.261 A  
HETATM   34  C   UNL     1     -10.422   9.436  69.665  1.00  0.00    -0.236 A  
ENDBRANCH  12  14
TORSDOF 1
ENDMDL
MODEL       57
REMARK 921   NORMALIZED FREE ENERGY PREDICTED BY IDOCK:   -4.64 KCAL/MOL
REMARK 922        TOTAL FREE ENERGY PREDICTED BY IDOCK:   -5.62 KCAL/MOL
REMARK 923 INTER-LIGAND FREE ENERGY PREDICTED BY IDOCK:   -5.16 KCAL/MOL
REMARK 924 INTRA-LIGAND FREE ENERGY PREDICTED BY IDOCK:   -0.45 KCAL/MOL
REMARK 927      BINDING AFFINITY PREDICTED BY RF-SCORE:    0.00 PKD
ROOT
HETATM    1  O   UNL     1      -5.363  11.354  69.187  1.00  0.00    -0.044 OA 
HETATM    2  C   UNL     1      -6.670  11.389  69.528  1.00  0.00    -0.119 C  
HETATM    3  O   UNL     1      -7.102  10.788  70.493  1.00  0.00    -0.158 OA 
HETATM    4  C   UNL     1      -7.552  12.112  68.573  1.00  0.00    -0.124 A  
HETATM    5  C   UNL     1      -7.198  13.384  68.073  1.00  0.00    -0.123 A  
HETATM    6 CL   UNL     1      -5.706  14.141  68.562  1.00  0.00    -0.088 Cl 
HETATM    7  C   UNL     1      -8.057  14.066  67.188  1.00  0.00    -0.099 A  
HETATM    8 CL   UNL     1      -7.612  15.639  66.583  1.00  0.00    -0.120 Cl 
HETATM    9  C   UNL     1      -9.269  13.479  66.789  1.00  0.00    -0.240 A  
HETATM   10  C   UNL     1      -9.627  12.207  67.278  1.00  0.00    -0.185 A  
HETATM   11 CL   UNL     1     -10.335  14.330  65.707  1.00  0.00    -0.322 Cl 
HETATM   12  C   UNL     1      -8.796  11.519  68.196  1.00  0.00    -0.165 A  
HETATM   13 CL   UNL     1     -11.101  11.453  66.728  1.00  0.00    -0.348 Cl 
ENDROOT
BRANCH  12  14
HETATM   14  C   UNL     1      -9.277  10.211  68.780  1.00  0.00    -0.164 A  
HETATM   15  C   UNL     1      -8.723   9.022  68.411  1.00  0.00    -0.130 A  
HETATM   16  C   UNL     1      -7.655   8.938  67.415  1.00  0.00    -0.089 C  
HETATM   17  C   UNL     1      -6.966   7.804  67.204  1.00  0.00    -0.077 C  
HETATM   18  C   UNL     1      -7.298   6.564  67.979  1.00  0.00    -0.090 C  
HETATM   19  I   UNL     1      -5.454   7.727  65.810  1.00  0.00    -0.029 I  
HETATM   20  C   UNL     1      -8.556   6.595  68.792  1.00  0.00    -0.122 C  
HETATM   21  O   UNL     1      -6.587   5.565  67.921  1.00  0.00    -0.049 OA 
HETATM   22  I   UNL     1      -9.209   4.793  69.599  1.00  0.00    -0.239 I  
HETATM   23  C   UNL     1      -9.218   7.753  68.973  1.00  0.00    -0.143 A  
HETATM   24  O   UNL     1     -10.408   7.749  69.681  1.00  0.00    -0.202 OA 
HETATM   25  C   UNL     1     -10.969   8.921  70.105  1.00  0.00    -0.227 A  
HETATM   26  C   UNL     1     -12.112   8.838  70.920  1.00  0.00    -0.162 A  
HETATM   27  C   UNL     1     -12.733  10.003  71.377  1.00  0.00    -0.415 A  
HETATM   28  I   UNL     1     -12.908   6.957  71.465  1.00  0.00    -0.029 I  
HETATM   29  C   UNL     1     -12.180  11.242  71.050  1.00  0.00    -0.311 A  
HETATM   30  O   UNL     1     -13.874   9.953  72.132  1.00  0.00    -0.382 OA 
HETATM   31  H   UNL     1     -14.296  10.745  72.443  1.00  0.00     0.000 HD 
HETATM   32  I   UNL     1     -13.037  13.039  71.702  1.00  0.00    -0.136 I  
HETATM   33  C   UNL     1     -11.034  11.317  70.246  1.00  0.00     0.273 A  
HETATM   34  C   UNL     1     -10.429  10.156  69.736  1.00  0.00    -0.301 A  
ENDBRANCH  12  14
TORSDOF 1
ENDMDL
MODEL       58
REMARK 921   NORMALIZED FREE ENERGY PREDICTED BY IDOCK:   -4.54 KCAL/MOL
REMARK 922        TOTAL FREE ENERGY PREDICTED BY IDOCK:   -5.51 KCAL/MOL
REMARK 923 INTER-LIGAND FREE ENERGY PREDICTED BY IDOCK:   -4.56 KCAL/MOL
REMARK 924 INTRA-LIGAND FREE ENERGY PREDICTED BY IDOCK:   -0.95 KCAL/MOL
REMARK 927      BINDING AFFINITY PREDICTED BY RF-SCORE:    0.00 PKD
ROOT
HETATM    1  O   UNL     1     -11.584  10.238  69.082  1.00  0.00    -0.196 OA 
HETATM    2  C   UNL     1     -10.756   9.805  68.106  1.00  0.00    -0.233 C  
HETATM    3  O   UNL     1     -11.011   8.825  67.431  1.00  0.00    -0.119 OA 
HETATM    4  C   UNL     1      -9.465  10.535  68.003  1.00  0.00    -0.157 A  
HETATM    5  C   UNL     1      -9.424  11.947  68.013  1.00  0.00    -0.197 A  
HETATM    6 CL   UNL     1     -10.894  12.873  68.154  1.00  0.00    -0.245 Cl 
HETATM    7  C   UNL     1      -8.194  12.624  67.889  1.00  0.00    -0.170 A  
HETATM    8 CL   UNL     1      -8.156  14.367  67.897  1.00  0.00    -0.138 Cl 
HETATM    9  C   UNL     1      -6.999  11.898  67.764  1.00  0.00    -0.102 A  
HETATM   10  C   UNL     1      -7.030  10.490  67.758  1.00  0.00    -0.078 A  
HETATM   11 CL   UNL     1      -5.482  12.738  67.596  1.00  0.00    -0.124 Cl 
HETATM   12  C   UNL     1      -8.258   9.788  67.845  1.00  0.00    -0.113 A  
HETATM   13 CL   UNL     1      -5.537   9.592  67.669  1.00  0.00    -0.037 Cl 
ENDROOT
BRANCH  12  14
HETATM   14  C   UNL     1      -8.251   8.283  67.720  1.00  0.00    -0.127 A  
HETATM   15  C   UNL     1      -8.207   7.670  66.504  1.00  0.00    -0.125 A  
HETATM   16  C   UNL     1      -8.191   8.428  65.252  1.00  0.00    -0.151 C  
HETATM   17  C   UNL     1      -7.937   7.844  64.070  1.00  0.00    -0.124 C  
HETATM   18  C   UNL     1      -7.684   6.368  63.995  1.00  0.00    -0.104 C  
HETATM   19  I   UNL     1      -7.900   8.945  62.331  1.00  0.00    -0.160 I  
HETATM   20  C   UNL     1      -7.966   5.574  65.234  1.00  0.00    -0.112 C  
HETATM   21  O   UNL     1      -7.297   5.838  62.958  1.00  0.00    -0.052 OA 
HETATM   22  I   UNL     1      -7.947   3.502  65.058  1.00  0.00    -0.090 I  
HETATM   23  C   UNL     1      -8.222   6.201  66.398  1.00  0.00    -0.113 A  
HETATM   24  O   UNL     1      -8.534   5.448  67.517  1.00  0.00    -0.107 OA 
HETATM   25  C   UNL     1      -8.545   6.020  68.759  1.00  0.00    -0.112 A  
HETATM   26  C   UNL     1      -8.753   5.174  69.863  1.00  0.00    -0.103 A  
HETATM   27  C   UNL     1      -8.781   5.704  71.156  1.00  0.00    -0.135 A  
HETATM   28  I   UNL     1      -9.026   3.096  69.588  1.00  0.00    -0.210 I  
HETATM   29  C   UNL     1      -8.559   7.069  71.336  1.00  0.00    -0.121 A  
HETATM   30  O   UNL     1      -9.029   4.911  72.244  1.00  0.00    -0.128 OA 
HETATM   31  H   UNL     1      -9.048   5.272  73.123  1.00  0.00     0.000 HD 
HETATM   32  I   UNL     1      -8.571   7.946  73.239  1.00  0.00    -0.321 I  
HETATM   33  C   UNL     1      -8.341   7.905  70.232  1.00  0.00    -0.126 A  
HETATM   34  C   UNL     1      -8.362   7.396  68.923  1.00  0.00    -0.129 A  
ENDBRANCH  12  14
TORSDOF 1
ENDMDL
MODEL       59
REMARK 921   NORMALIZED FREE ENERGY PREDICTED BY IDOCK:   -4.49 KCAL/MOL
REMARK 922        TOTAL FREE ENERGY PREDICTED BY IDOCK:   -5.46 KCAL/MOL
REMARK 923 INTER-LIGAND FREE ENERGY PREDICTED BY IDOCK:   -4.41 KCAL/MOL
REMARK 924 INTRA-LIGAND FREE ENERGY PREDICTED BY IDOCK:   -1.05 KCAL/MOL
REMARK 927      BINDING AFFINITY PREDICTED BY RF-SCORE:    0.00 PKD
ROOT
HETATM    1  O   UNL     1     -11.580  10.307  69.220  1.00  0.00    -0.206 OA 
HETATM    2  C   UNL     1     -10.711   9.859  68.288  1.00  0.00    -0.234 C  
HETATM    3  O   UNL     1     -10.987   8.945  67.534  1.00  0.00    -0.134 OA 
HETATM    4  C   UNL     1      -9.359  10.479  68.334  1.00  0.00    -0.158 A  
HETATM    5  C   UNL     1      -9.204  11.879  68.437  1.00  0.00    -0.173 A  
HETATM    6 CL   UNL     1     -10.600  12.920  68.519  1.00  0.00    -0.262 Cl 
HETATM    7  C   UNL     1      -7.917  12.453  68.454  1.00  0.00    -0.149 A  
HETATM    8 CL   UNL     1      -7.737  14.183  68.575  1.00  0.00    -0.133 Cl 
HETATM    9  C   UNL     1      -6.779  11.634  68.378  1.00  0.00    -0.064 A  
HETATM   10  C   UNL     1      -6.924  10.236  68.281  1.00  0.00    -0.073 A  
HETATM   11 CL   UNL     1      -5.190  12.347  68.385  1.00  0.00    -0.052 Cl 
HETATM   12  C   UNL     1      -8.209   9.640  68.226  1.00  0.00    -0.106 A  
HETATM   13 CL   UNL     1      -5.508   9.218  68.254  1.00  0.00    -0.037 Cl 
ENDROOT
BRANCH  12  14
HETATM   14  C   UNL     1      -8.314   8.149  68.007  1.00  0.00    -0.129 A  
HETATM   15  C   UNL     1      -8.480   7.287  69.050  1.00  0.00    -0.129 A  
HETATM   16  C   UNL     1      -8.539   7.748  70.437  1.00  0.00    -0.137 C  
HETATM   17  C   UNL     1      -8.911   6.937  71.441  1.00  0.00    -0.133 C  
HETATM   18  C   UNL     1      -9.255   5.503  71.167  1.00  0.00    -0.149 C  
HETATM   19  I   UNL     1      -9.004   7.624  73.379  1.00  0.00    -0.346 I  
HETATM   20  C   UNL     1      -8.934   4.985  69.798  1.00  0.00    -0.106 C  
HETATM   21  O   UNL     1      -9.745   4.786  72.033  1.00  0.00    -0.150 OA 
HETATM   22  I   UNL     1      -9.088   2.933  69.500  1.00  0.00    -0.178 I  
HETATM   23  C   UNL     1      -8.559   5.834  68.821  1.00  0.00    -0.109 A  
HETATM   24  O   UNL     1      -8.214   5.327  67.580  1.00  0.00    -0.100 OA 
HETATM   25  C   UNL     1      -8.082   6.158  66.502  1.00  0.00    -0.110 A  
HETATM   26  C   UNL     1      -7.847   5.565  65.249  1.00  0.00    -0.095 A  
HETATM   27  C   UNL     1      -7.697   6.364  64.113  1.00  0.00    -0.105 A  
HETATM   28  I   UNL     1      -7.718   3.463  65.062  1.00  0.00    -0.082 I  
HETATM   29  C   UNL     1      -7.824   7.748  64.233  1.00  0.00    -0.138 A  
HETATM   30  O   UNL     1      -7.420   5.817  62.889  1.00  0.00    -0.054 OA 
HETATM   31  H   UNL     1      -7.317   6.361  62.117  1.00  0.00     0.000 HD 
HETATM   32  I   UNL     1      -7.626   9.022  62.582  1.00  0.00    -0.125 I  
HETATM   33  C   UNL     1      -8.070   8.332  65.484  1.00  0.00    -0.128 A  
HETATM   34  C   UNL     1      -8.171   7.545  66.644  1.00  0.00    -0.125 A  
ENDBRANCH  12  14
TORSDOF 1
ENDMDL
MODEL       60
REMARK 921   NORMALIZED FREE ENERGY PREDICTED BY IDOCK:   -4.48 KCAL/MOL
REMARK 922        TOTAL FREE ENERGY PREDICTED BY IDOCK:   -5.45 KCAL/MOL
REMARK 923 INTER-LIGAND FREE ENERGY PREDICTED BY IDOCK:   -4.50 KCAL/MOL
REMARK 924 INTRA-LIGAND FREE ENERGY PREDICTED BY IDOCK:   -0.95 KCAL/MOL
REMARK 927      BINDING AFFINITY PREDICTED BY RF-SCORE:    0.00 PKD
ROOT
HETATM    1  O   UNL     1     -11.378  12.569  68.458  1.00  0.00    -0.251 OA 
HETATM    2  C   UNL     1     -10.941  11.348  68.080  1.00  0.00    -0.237 C  
HETATM    3  O   UNL     1     -10.879  10.415  68.858  1.00  0.00    -0.209 OA 
HETATM    4  C   UNL     1     -10.430  11.264  66.685  1.00  0.00    -0.292 A  
HETATM    5  C   UNL     1     -11.156  11.819  65.609  1.00  0.00    -0.285 A  
HETATM    6 CL   UNL     1     -12.676  12.625  65.890  1.00  0.00     0.156 Cl 
HETATM    7  C   UNL     1     -10.671  11.708  64.291  1.00  0.00    -0.341 A  
HETATM    8 CL   UNL     1     -11.580  12.391  62.968  1.00  0.00    -0.239 Cl 
HETATM    9  C   UNL     1      -9.454  11.053  64.040  1.00  0.00    -0.246 A  
HETATM   10  C   UNL     1      -8.720  10.502  65.108  1.00  0.00    -0.185 A  
HETATM   11 CL   UNL     1      -8.864  10.906  62.408  1.00  0.00    -0.330 Cl 
HETATM   12  C   UNL     1      -9.207  10.570  66.437  1.00  0.00    -0.190 A  
HETATM   13 CL   UNL     1      -7.178   9.748  64.800  1.00  0.00    -0.124 Cl 
ENDROOT
BRANCH  12  14
HETATM   14  C   UNL     1      -8.441   9.866  67.533  1.00  0.00    -0.115 A  
HETATM   15  C   UNL     1      -7.609  10.547  68.370  1.00  0.00    -0.097 A  
HETATM   16  C   UNL     1      -7.388  11.988  68.243  1.00  0.00    -0.095 C  
HETATM   17  C   UNL     1      -6.742  12.694  69.185  1.00  0.00    -0.086 C  
HETATM   18  C   UNL     1      -6.196  12.009  70.402  1.00  0.00     0.091 C  
HETATM   19  I   UNL     1      -6.467  14.724  68.984  1.00  0.00    -0.124 I  
HETATM   20  C   UNL     1      -6.197  10.511  70.387  1.00  0.00    -0.128 C  
HETATM   21  O   UNL     1      -5.744  12.649  71.346  1.00  0.00    -0.388 OA 
HETATM   22  I   UNL     1      -5.148   9.546  71.902  1.00  0.00    -0.058 I  
HETATM   23  C   UNL     1      -6.853   9.842  69.420  1.00  0.00    -0.060 A  
HETATM   24  O   UNL     1      -6.794   8.459  69.394  1.00  0.00    -0.045 OA 
HETATM   25  C   UNL     1      -7.643   7.742  68.599  1.00  0.00    -0.105 A  
HETATM   26  C   UNL     1      -7.611   6.340  68.710  1.00  0.00    -0.092 A  
HETATM   27  C   UNL     1      -8.452   5.554  67.917  1.00  0.00    -0.098 A  
HETATM   28  I   UNL     1      -6.295   5.401  70.072  1.00  0.00    -0.033 I  
HETATM   29  C   UNL     1      -9.348   6.180  67.050  1.00  0.00    -0.124 A  
HETATM   30  O   UNL     1      -8.407   4.187  67.970  1.00  0.00    -0.092 OA 
HETATM   31  H   UNL     1      -8.979   3.653  67.431  1.00  0.00     0.000 HD 
HETATM   32  I   UNL     1     -10.653   5.081  65.834  1.00  0.00     0.249 I  
HETATM   33  C   UNL     1      -9.383   7.578  66.952  1.00  0.00    -0.197 A  
HETATM   34  C   UNL     1      -8.508   8.379  67.704  1.00  0.00    -0.130 A  
ENDBRANCH  12  14
TORSDOF 1
ENDMDL
MODEL       61
REMARK 921   NORMALIZED FREE ENERGY PREDICTED BY IDOCK:   -4.47 KCAL/MOL
REMARK 922        TOTAL FREE ENERGY PREDICTED BY IDOCK:   -5.44 KCAL/MOL
REMARK 923 INTER-LIGAND FREE ENERGY PREDICTED BY IDOCK:   -4.92 KCAL/MOL
REMARK 924 INTRA-LIGAND FREE ENERGY PREDICTED BY IDOCK:   -0.52 KCAL/MOL
REMARK 927      BINDING AFFINITY PREDICTED BY RF-SCORE:    0.00 PKD
ROOT
HETATM    1  O   UNL     1      -6.533   8.663  65.082  1.00  0.00    -0.062 OA 
HETATM    2  C   UNL     1      -7.681   9.344  65.294  1.00  0.00    -0.108 C  
HETATM    3  O   UNL     1      -7.849  10.473  64.871  1.00  0.00    -0.128 OA 
HETATM    4  C   UNL     1      -8.666   8.664  66.177  1.00  0.00    -0.180 A  
HETATM    5  C   UNL     1      -8.995   7.304  65.988  1.00  0.00    -0.116 A  
HETATM    6 CL   UNL     1      -8.248   6.382  64.712  1.00  0.00    -0.124 Cl 
HETATM    7  C   UNL     1      -9.949   6.681  66.818  1.00  0.00    -0.176 A  
HETATM    8 CL   UNL     1     -10.352   5.002  66.572  1.00  0.00    -0.305 Cl 
HETATM    9  C   UNL     1     -10.571   7.407  67.846  1.00  0.00    -0.190 A  
HETATM   10  C   UNL     1     -10.244   8.763  68.045  1.00  0.00    -0.213 A  
HETATM   11 CL   UNL     1     -11.760   6.639  68.861  1.00  0.00     0.058 Cl 
HETATM   12  C   UNL     1      -9.315   9.419  67.200  1.00  0.00    -0.172 A  
HETATM   13 CL   UNL     1     -10.970   9.644  69.364  1.00  0.00    -0.236 Cl 
ENDROOT
BRANCH  12  14
HETATM   14  C   UNL     1      -9.083  10.902  67.380  1.00  0.00    -0.144 A  
HETATM   15  C   UNL     1      -8.229  11.377  68.330  1.00  0.00    -0.150 A  
HETATM   16  C   UNL     1      -7.510  10.489  69.244  1.00  0.00    -0.122 C  
HETATM   17  C   UNL     1      -6.517  10.931  70.033  1.00  0.00    -0.151 C  
HETATM   18  C   UNL     1      -6.129  12.379  70.018  1.00  0.00    -0.123 C  
HETATM   19  I   UNL     1      -5.513   9.649  71.291  1.00  0.00    -0.049 I  
HETATM   20  C   UNL     1      -7.043  13.313  69.283  1.00  0.00     0.074 C  
HETATM   21  O   UNL     1      -5.130  12.779  70.607  1.00  0.00    -0.096 OA 
HETATM   22  I   UNL     1      -6.714  15.351  69.529  1.00  0.00    -0.152 I  
HETATM   23  C   UNL     1      -8.030  12.826  68.507  1.00  0.00    -0.095 A  
HETATM   24  O   UNL     1      -8.896  13.706  67.882  1.00  0.00    -0.168 OA 
HETATM   25  C   UNL     1      -9.736  13.273  66.895  1.00  0.00    -0.248 A  
HETATM   26  C   UNL     1     -10.503  14.240  66.221  1.00  0.00    -0.291 A  
HETATM   27  C   UNL     1     -11.384  13.854  65.207  1.00  0.00    -0.314 A  
HETATM   28  I   UNL     1     -10.338  16.286  66.728  1.00  0.00    -0.235 I  
HETATM   29  C   UNL     1     -11.459  12.508  64.847  1.00  0.00    -0.325 A  
HETATM   30  O   UNL     1     -12.177  14.769  64.568  1.00  0.00    -0.473 OA 
HETATM   31  H   UNL     1     -12.776  14.506  63.879  1.00  0.00     0.000 HD 
HETATM   32  I   UNL     1     -12.742  11.843  63.331  1.00  0.00     0.652 I  
HETATM   33  C   UNL     1     -10.683  11.551  65.516  1.00  0.00    -0.328 A  
HETATM   34  C   UNL     1      -9.832  11.917  66.572  1.00  0.00    -0.225 A  
ENDBRANCH  12  14
TORSDOF 1
ENDMDL
MODEL       62
REMARK 921   NORMALIZED FREE ENERGY PREDICTED BY IDOCK:   -4.46 KCAL/MOL
REMARK 922        TOTAL FREE ENERGY PREDICTED BY IDOCK:   -5.42 KCAL/MOL
REMARK 923 INTER-LIGAND FREE ENERGY PREDICTED BY IDOCK:   -5.15 KCAL/MOL
REMARK 924 INTRA-LIGAND FREE ENERGY PREDICTED BY IDOCK:   -0.27 KCAL/MOL
REMARK 927      BINDING AFFINITY PREDICTED BY RF-SCORE:    0.00 PKD
ROOT
HETATM    1  O   UNL     1     -11.570   4.829  65.319  1.00  0.00     0.078 OA 
HETATM    2  C   UNL     1     -10.572   4.977  66.217  1.00  0.00    -0.276 C  
HETATM    3  O   UNL     1     -10.769   4.927  67.416  1.00  0.00    -0.007 OA 
HETATM    4  C   UNL     1      -9.246   5.322  65.637  1.00  0.00    -0.145 A  
HETATM    5  C   UNL     1      -8.732   4.620  64.525  1.00  0.00    -0.151 A  
HETATM    6 CL   UNL     1      -9.645   3.326  63.798  1.00  0.00    -0.124 Cl 
HETATM    7  C   UNL     1      -7.463   4.943  64.004  1.00  0.00    -0.060 A  
HETATM    8 CL   UNL     1      -6.836   4.064  62.634  1.00  0.00    -0.034 Cl 
HETATM    9  C   UNL     1      -6.705   5.975  64.581  1.00  0.00    -0.046 A  
HETATM   10  C   UNL     1      -7.213   6.685  65.686  1.00  0.00    -0.070 A  
HETATM   11 CL   UNL     1      -5.132   6.363  63.942  1.00  0.00    -0.020 Cl 
HETATM   12  C   UNL     1      -8.470   6.353  66.249  1.00  0.00    -0.131 A  
HETATM   13 CL   UNL     1      -6.298   8.010  66.358  1.00  0.00    -0.046 Cl 
ENDROOT
BRANCH  12  14
HETATM   14  C   UNL     1      -8.921   7.066  67.503  1.00  0.00    -0.117 A  
HETATM   15  C   UNL     1      -8.768   6.504  68.735  1.00  0.00    -0.123 A  
HETATM   16  C   UNL     1      -8.185   5.173  68.915  1.00  0.00    -0.088 C  
HETATM   17  C   UNL     1      -7.840   4.706  70.126  1.00  0.00    -0.060 C  
HETATM   18  C   UNL     1      -8.071   5.539  71.352  1.00  0.00    -0.117 C  
HETATM   19  I   UNL     1      -7.003   2.838  70.341  1.00  0.00    -0.033 I  
HETATM   20  C   UNL     1      -8.903   6.773  71.179  1.00  0.00    -0.137 C  
HETATM   21  O   UNL     1      -7.624   5.205  72.445  1.00  0.00    -0.092 OA 
HETATM   22  I   UNL     1      -9.515   7.754  72.907  1.00  0.00    -0.364 I  
HETATM   23  C   UNL     1      -9.232   7.203  69.946  1.00  0.00    -0.141 A  
HETATM   24  O   UNL     1     -10.048   8.313  69.812  1.00  0.00    -0.189 OA 
HETATM   25  C   UNL     1     -10.191   8.928  68.599  1.00  0.00    -0.200 A  
HETATM   26  C   UNL     1     -10.939  10.119  68.558  1.00  0.00    -0.232 A  
HETATM   27  C   UNL     1     -11.125  10.788  67.346  1.00  0.00    -0.296 A  
HETATM   28  I   UNL     1     -11.793  10.913  70.322  1.00  0.00    -0.472 I  
HETATM   29  C   UNL     1     -10.525  10.283  66.192  1.00  0.00    -0.130 A  
HETATM   30  O   UNL     1     -11.887  11.922  67.268  1.00  0.00    -0.576 OA 
HETATM   31  H   UNL     1     -12.013  12.377  66.444  1.00  0.00     0.000 HD 
HETATM   32  I   UNL     1     -10.739  11.228  64.334  1.00  0.00    -0.207 I  
HETATM   33  C   UNL     1      -9.771   9.102  66.242  1.00  0.00    -0.344 A  
HETATM   34  C   UNL     1      -9.619   8.390  67.444  1.00  0.00    -0.202 A  
ENDBRANCH  12  14
TORSDOF 1
ENDMDL
MODEL       63
REMARK 921   NORMALIZED FREE ENERGY PREDICTED BY IDOCK:   -4.45 KCAL/MOL
REMARK 922        TOTAL FREE ENERGY PREDICTED BY IDOCK:   -5.41 KCAL/MOL
REMARK 923 INTER-LIGAND FREE ENERGY PREDICTED BY IDOCK:   -4.69 KCAL/MOL
REMARK 924 INTRA-LIGAND FREE ENERGY PREDICTED BY IDOCK:   -0.72 KCAL/MOL
REMARK 927      BINDING AFFINITY PREDICTED BY RF-SCORE:    0.00 PKD
ROOT
HETATM    1  O   UNL     1     -12.423  10.701  68.594  1.00  0.00    -0.252 OA 
HETATM    2  C   UNL     1     -11.189  11.201  68.825  1.00  0.00    -0.253 C  
HETATM    3  O   UNL     1     -11.020  12.298  69.325  1.00  0.00    -0.195 OA 
HETATM    4  C   UNL     1     -10.065  10.370  68.317  1.00  0.00    -0.174 A  
HETATM    5  C   UNL     1     -10.022   8.979  68.554  1.00  0.00    -0.176 A  
HETATM    6 CL   UNL     1     -11.296   8.195  69.449  1.00  0.00     0.227 Cl 
HETATM    7  C   UNL     1      -8.937   8.210  68.087  1.00  0.00    -0.135 A  
HETATM    8 CL   UNL     1      -8.893   6.493  68.391  1.00  0.00    -0.124 Cl 
HETATM    9  C   UNL     1      -7.895   8.822  67.373  1.00  0.00    -0.098 A  
HETATM   10  C   UNL     1      -7.932  10.209  67.127  1.00  0.00    -0.109 A  
HETATM   11 CL   UNL     1      -6.548   7.872  66.810  1.00  0.00    -0.058 Cl 
HETATM   12  C   UNL     1      -8.995  11.007  67.618  1.00  0.00    -0.142 A  
HETATM   13 CL   UNL     1      -6.668  10.954  66.183  1.00  0.00    -0.125 Cl 
ENDROOT
BRANCH  12  14
HETATM   14  C   UNL     1      -8.933  12.505  67.428  1.00  0.00    -0.188 A  
HETATM   15  C   UNL     1      -8.115  13.285  68.189  1.00  0.00    -0.159 A  
HETATM   16  C   UNL     1      -7.273  12.727  69.248  1.00  0.00     0.171 C  
HETATM   17  C   UNL     1      -6.318  13.452  69.853  1.00  0.00    -0.060 C  
HETATM   18  C   UNL     1      -6.103  14.886  69.473  1.00  0.00    -0.113 C  
HETATM   19  I   UNL     1      -5.136  12.629  71.323  1.00  0.00    -0.048 I  
HETATM   20  C   UNL     1      -7.138  15.510  68.588  1.00  0.00    -0.118 C  
HETATM   21  O   UNL     1      -5.141  15.522  69.894  1.00  0.00    -0.097 OA 
HETATM   22  I   UNL     1      -7.044  17.571  68.323  1.00  0.00    -0.237 I  
HETATM   23  C   UNL     1      -8.082  14.746  68.005  1.00  0.00    -0.139 A  
HETATM   24  O   UNL     1      -9.063  15.351  67.237  1.00  0.00    -0.194 OA 
HETATM   25  C   UNL     1      -9.872  14.603  66.428  1.00  0.00    -0.285 A  
HETATM   26  C   UNL     1     -10.765  15.290  65.586  1.00  0.00    -0.365 A  
HETATM   27  C   UNL     1     -11.622  14.577  64.743  1.00  0.00    -0.413 A  
HETATM   28  I   UNL     1     -10.827  17.403  65.582  1.00  0.00     0.746 I  
HETATM   29  C   UNL     1     -11.549  13.184  64.719  1.00  0.00    -0.333 A  
HETATM   30  O   UNL     1     -12.534  15.219  63.949  1.00  0.00    -0.964 OA 
HETATM   31  H   UNL     1     -13.116  14.734  63.376  1.00  0.00     0.000 HD 
HETATM   32  I   UNL     1     -12.786  12.037  63.477  1.00  0.00     0.300 I  
HETATM   33  C   UNL     1     -10.648  12.506  65.552  1.00  0.00    -0.304 A  
HETATM   34  C   UNL     1      -9.817  13.207  66.443  1.00  0.00    -0.279 A  
ENDBRANCH  12  14
TORSDOF 1
ENDMDL
MODEL       64
REMARK 921   NORMALIZED FREE ENERGY PREDICTED BY IDOCK:   -4.45 KCAL/MOL
REMARK 922        TOTAL FREE ENERGY PREDICTED BY IDOCK:   -5.41 KCAL/MOL
REMARK 923 INTER-LIGAND FREE ENERGY PREDICTED BY IDOCK:   -4.38 KCAL/MOL
REMARK 924 INTRA-LIGAND FREE ENERGY PREDICTED BY IDOCK:   -1.03 KCAL/MOL
REMARK 927      BINDING AFFINITY PREDICTED BY RF-SCORE:    0.00 PKD
ROOT
HETATM    1  O   UNL     1     -11.151  14.203  64.244  1.00  0.00    -0.296 OA 
HETATM    2  C   UNL     1     -11.165  13.799  65.534  1.00  0.00    -0.299 C  
HETATM    3  O   UNL     1     -12.025  14.164  66.315  1.00  0.00    -0.394 OA 
HETATM    4  C   UNL     1      -9.996  12.982  65.953  1.00  0.00    -0.270 A  
HETATM    5  C   UNL     1      -9.541  11.903  65.164  1.00  0.00    -0.114 A  
HETATM    6 CL   UNL     1     -10.340  11.503  63.668  1.00  0.00    -0.418 Cl 
HETATM    7  C   UNL     1      -8.446  11.123  65.589  1.00  0.00    -0.043 A  
HETATM    8 CL   UNL     1      -7.897   9.789  64.609  1.00  0.00    -0.129 Cl 
HETATM    9  C   UNL     1      -7.794  11.421  66.796  1.00  0.00    -0.157 A  
HETATM   10  C   UNL     1      -8.237  12.499  67.586  1.00  0.00    -0.172 A  
HETATM   11 CL   UNL     1      -6.450  10.446  67.324  1.00  0.00    -0.066 Cl 
HETATM   12  C   UNL     1      -9.358  13.274  67.197  1.00  0.00    -0.240 A  
HETATM   13 CL   UNL     1      -7.383  12.907  69.051  1.00  0.00    -0.008 Cl 
ENDROOT
BRANCH  12  14
HETATM   14  C   UNL     1      -9.865  14.347  68.133  1.00  0.00    -0.223 A  
HETATM   15  C   UNL     1      -9.417  15.631  68.052  1.00  0.00    -0.194 A  
HETATM   16  C   UNL     1      -8.404  16.041  67.079  1.00  0.00    -0.251 C  
HETATM   17  C   UNL     1      -8.116  17.333  66.854  1.00  0.00    -0.228 C  
HETATM   18  C   UNL     1      -8.816  18.410  67.628  1.00  0.00    -0.263 C  
HETATM   19  I   UNL     1      -6.701  17.875  65.461  1.00  0.00     0.741 I  
HETATM   20  C   UNL     1      -9.646  17.968  68.795  1.00  0.00    -0.301 C  
HETATM   21  O   UNL     1      -8.688  19.595  67.335  1.00  0.00    -0.292 OA 
HETATM   22  I   UNL     1     -10.348  19.448  70.075  1.00  0.00     2.187 I  
HETATM   23  C   UNL     1      -9.906  16.660  68.986  1.00  0.00    -0.267 A  
HETATM   24  O   UNL     1     -10.627  16.270  70.101  1.00  0.00    -0.278 OA 
HETATM   25  C   UNL     1     -11.129  15.002  70.196  1.00  0.00    -0.242 A  
HETATM   26  C   UNL     1     -11.952  14.708  71.298  1.00  0.00    -0.343 A  
HETATM   27  C   UNL     1     -12.488  13.427  71.451  1.00  0.00    -0.223 A  
HETATM   28  I   UNL     1     -12.390  16.194  72.737  1.00  0.00    -0.394 I  
HETATM   29  C   UNL     1     -12.230  12.462  70.477  1.00  0.00    -0.295 A  
HETATM   30  O   UNL     1     -13.252  13.101  72.539  1.00  0.00    -0.472 OA 
HETATM   31  H   UNL     1     -13.616  12.229  72.643  1.00  0.00     0.000 HD 
HETATM   32  I   UNL     1     -13.003  10.520  70.619  1.00  0.00     0.079 I  
HETATM   33  C   UNL     1     -11.419  12.765  69.375  1.00  0.00    -0.321 A  
HETATM   34  C   UNL     1     -10.830  14.033  69.235  1.00  0.00    -0.192 A  
ENDBRANCH  12  14
TORSDOF 1
ENDMDL
MODEL       65
REMARK 921   NORMALIZED FREE ENERGY PREDICTED BY IDOCK:   -4.39 KCAL/MOL
REMARK 922        TOTAL FREE ENERGY PREDICTED BY IDOCK:   -5.35 KCAL/MOL
REMARK 923 INTER-LIGAND FREE ENERGY PREDICTED BY IDOCK:   -4.44 KCAL/MOL
REMARK 924 INTRA-LIGAND FREE ENERGY PREDICTED BY IDOCK:   -0.92 KCAL/MOL
REMARK 927      BINDING AFFINITY PREDICTED BY RF-SCORE:    0.00 PKD
ROOT
HETATM    1  O   UNL     1     -10.757  10.902  67.728  1.00  0.00    -0.201 OA 
HETATM    2  C   UNL     1     -10.479   9.636  67.345  1.00  0.00    -0.257 C  
HETATM    3  O   UNL     1     -10.895   8.671  67.958  1.00  0.00    -0.122 OA 
HETATM    4  C   UNL     1      -9.536   9.514  66.201  1.00  0.00    -0.302 A  
HETATM    5  C   UNL     1      -9.700  10.295  65.036  1.00  0.00    -0.305 A  
HETATM    6 CL   UNL     1     -11.015  11.432  64.912  1.00  0.00    -0.321 Cl 
HETATM    7  C   UNL     1      -8.812  10.149  63.951  1.00  0.00    -0.230 A  
HETATM    8 CL   UNL     1      -9.028  11.115  62.515  1.00  0.00    -0.365 Cl 
HETATM    9  C   UNL     1      -7.752   9.232  64.026  1.00  0.00    -0.117 A  
HETATM   10  C   UNL     1      -7.578   8.453  65.187  1.00  0.00    -0.088 A  
HETATM   11 CL   UNL     1      -6.665   9.044  62.678  1.00  0.00    -0.094 Cl 
HETATM   12  C   UNL     1      -8.479   8.557  66.275  1.00  0.00    -0.130 A  
HETATM   13 CL   UNL     1      -6.221   7.363  65.301  1.00  0.00    -0.038 Cl 
ENDROOT
BRANCH  12  14
HETATM   14  C   UNL     1      -8.318   7.621  67.450  1.00  0.00    -0.116 A  
HETATM   15  C   UNL     1      -8.781   6.340  67.407  1.00  0.00    -0.105 A  
HETATM   16  C   UNL     1      -9.481   5.805  66.238  1.00  0.00    -0.166 C  
HETATM   17  C   UNL     1      -9.750   4.496  66.107  1.00  0.00    -0.207 C  
HETATM   18  C   UNL     1      -9.357   3.532  67.186  1.00  0.00    -0.200 C  
HETATM   19  I   UNL     1     -10.717   3.775  64.439  1.00  0.00     0.363 I  
HETATM   20  C   UNL     1      -8.888   4.126  68.479  1.00  0.00    -0.105 C  
HETATM   21  O   UNL     1      -9.448   2.319  67.024  1.00  0.00    -0.043 OA 
HETATM   22  I   UNL     1      -8.661   2.831  70.091  1.00  0.00    -0.149 I  
HETATM   23  C   UNL     1      -8.636   5.446  68.568  1.00  0.00    -0.098 A  
HETATM   24  O   UNL     1      -8.257   5.982  69.787  1.00  0.00    -0.114 OA 
HETATM   25  C   UNL     1      -7.747   7.248  69.862  1.00  0.00    -0.103 A  
HETATM   26  C   UNL     1      -7.272   7.686  71.111  1.00  0.00    -0.062 A  
HETATM   27  C   UNL     1      -6.746   8.973  71.249  1.00  0.00    -0.085 A  
HETATM   28  I   UNL     1      -7.344   6.409  72.795  1.00  0.00    -0.090 I  
HETATM   29  C   UNL     1      -6.662   9.797  70.127  1.00  0.00    -0.100 A  
HETATM   30  O   UNL     1      -6.321   9.442  72.463  1.00  0.00    -0.299 OA 
HETATM   31  H   UNL     1      -5.964  10.317  72.557  1.00  0.00     0.000 HD 
HETATM   32  I   UNL     1      -5.878  11.736  70.239  1.00  0.00    -0.011 I  
HETATM   33  C   UNL     1      -7.128   9.350  68.882  1.00  0.00    -0.068 A  
HETATM   34  C   UNL     1      -7.706   8.078  68.739  1.00  0.00    -0.108 A  
ENDBRANCH  12  14
TORSDOF 1
ENDMDL
MODEL       66
REMARK 921   NORMALIZED FREE ENERGY PREDICTED BY IDOCK:   -4.37 KCAL/MOL
REMARK 922        TOTAL FREE ENERGY PREDICTED BY IDOCK:   -5.33 KCAL/MOL
REMARK 923 INTER-LIGAND FREE ENERGY PREDICTED BY IDOCK:   -4.42 KCAL/MOL
REMARK 924 INTRA-LIGAND FREE ENERGY PREDICTED BY IDOCK:   -0.90 KCAL/MOL
REMARK 927      BINDING AFFINITY PREDICTED BY RF-SCORE:    0.00 PKD
ROOT
HETATM    1  O   UNL     1      -6.007   9.290  65.419  1.00  0.00    -0.060 OA 
HETATM    2  C   UNL     1      -7.208   9.906  65.478  1.00  0.00    -0.122 C  
HETATM    3  O   UNL     1      -7.369  11.046  65.085  1.00  0.00     0.184 OA 
HETATM    4  C   UNL     1      -8.280   9.136  66.165  1.00  0.00    -0.111 A  
HETATM    5  C   UNL     1      -8.503   7.774  65.867  1.00  0.00    -0.142 A  
HETATM    6 CL   UNL     1      -7.519   6.955  64.684  1.00  0.00    -0.090 Cl 
HETATM    7  C   UNL     1      -9.539   7.066  66.508  1.00  0.00    -0.144 A  
HETATM    8 CL   UNL     1      -9.809   5.386  66.128  1.00  0.00    -0.175 Cl 
HETATM    9  C   UNL     1     -10.351   7.708  67.457  1.00  0.00    -0.257 A  
HETATM   10  C   UNL     1     -10.131   9.066  67.764  1.00  0.00    -0.208 A  
HETATM   11 CL   UNL     1     -11.639   6.834  68.237  1.00  0.00     0.180 Cl 
HETATM   12  C   UNL     1      -9.119   9.807  67.105  1.00  0.00    -0.152 A  
HETATM   13 CL   UNL     1     -11.098   9.842  68.991  1.00  0.00    -0.217 Cl 
ENDROOT
BRANCH  12  14
HETATM   14  C   UNL     1      -8.997  11.287  67.386  1.00  0.00    -0.144 A  
HETATM   15  C   UNL     1      -9.694  12.208  66.662  1.00  0.00    -0.228 A  
HETATM   16  C   UNL     1     -10.578  11.823  65.561  1.00  0.00    -0.323 C  
HETATM   17  C   UNL     1     -11.422  12.697  64.988  1.00  0.00    -0.329 C  
HETATM   18  C   UNL     1     -11.463  14.122  65.452  1.00  0.00    -0.325 C  
HETATM   19  I   UNL     1     -12.667  12.117  63.455  1.00  0.00     0.197 I  
HETATM   20  C   UNL     1     -10.376  14.557  66.386  1.00  0.00    -0.293 C  
HETATM   21  O   UNL     1     -12.329  14.898  65.057  1.00  0.00    -0.253 OA 
HETATM   22  I   UNL     1     -10.216  16.594  66.774  1.00  0.00    -0.266 I  
HETATM   23  C   UNL     1      -9.547  13.648  66.934  1.00  0.00    -0.262 A  
HETATM   24  O   UNL     1      -8.515  14.078  67.750  1.00  0.00    -0.160 OA 
HETATM   25  C   UNL     1      -7.822  13.187  68.522  1.00  0.00    -0.105 A  
HETATM   26  C   UNL     1      -6.868  13.706  69.416  1.00  0.00    -0.022 A  
HETATM   27  C   UNL     1      -6.125  12.843  70.226  1.00  0.00    -0.068 A  
HETATM   28  I   UNL     1      -6.542  15.790  69.550  1.00  0.00    -0.124 I  
HETATM   29  C   UNL     1      -6.373  11.471  70.165  1.00  0.00    -0.078 A  
HETATM   30  O   UNL     1      -5.157  13.316  71.069  1.00  0.00    -0.115 OA 
HETATM   31  H   UNL     1      -4.651  12.729  71.620  1.00  0.00     0.000 HD 
HETATM   32  I   UNL     1      -5.315  10.106  71.351  1.00  0.00     0.062 I  
HETATM   33  C   UNL     1      -7.334  10.962  69.280  1.00  0.00    -0.125 A  
HETATM   34  C   UNL     1      -8.052  11.812  68.423  1.00  0.00    -0.150 A  
ENDBRANCH  12  14
TORSDOF 1
ENDMDL
MODEL       67
REMARK 921   NORMALIZED FREE ENERGY PREDICTED BY IDOCK:   -4.36 KCAL/MOL
REMARK 922        TOTAL FREE ENERGY PREDICTED BY IDOCK:   -5.32 KCAL/MOL
REMARK 923 INTER-LIGAND FREE ENERGY PREDICTED BY IDOCK:   -4.46 KCAL/MOL
REMARK 924 INTRA-LIGAND FREE ENERGY PREDICTED BY IDOCK:   -0.86 KCAL/MOL
REMARK 927      BINDING AFFINITY PREDICTED BY RF-SCORE:    0.00 PKD
ROOT
HETATM    1  O   UNL     1      -5.147   7.974  67.822  1.00  0.00    -0.030 OA 
HETATM    2  C   UNL     1      -6.450   8.304  67.690  1.00  0.00    -0.057 C  
HETATM    3  O   UNL     1      -6.980   9.141  68.396  1.00  0.00    -0.067 OA 
HETATM    4  C   UNL     1      -7.212   7.487  66.707  1.00  0.00    -0.084 A  
HETATM    5  C   UNL     1      -6.695   7.229  65.419  1.00  0.00    -0.048 A  
HETATM    6 CL   UNL     1      -5.141   7.861  64.947  1.00  0.00    -0.028 Cl 
HETATM    7  C   UNL     1      -7.441   6.474  64.491  1.00  0.00    -0.090 A  
HETATM    8 CL   UNL     1      -6.795   6.168  62.900  1.00  0.00    -0.040 Cl 
HETATM    9  C   UNL     1      -8.700   5.965  64.846  1.00  0.00     0.038 A  
HETATM   10  C   UNL     1      -9.221   6.212  66.131  1.00  0.00    -0.131 A  
HETATM   11 CL   UNL     1      -9.625   5.044  63.692  1.00  0.00     0.350 Cl 
HETATM   12  C   UNL     1      -8.504   6.999  67.067  1.00  0.00    -0.121 A  
HETATM   13 CL   UNL     1     -10.755   5.522  66.591  1.00  0.00    -0.364 Cl 
ENDROOT
BRANCH  12  14
HETATM   14  C   UNL     1      -9.154   7.332  68.391  1.00  0.00    -0.135 A  
HETATM   15  C   UNL     1      -9.054   6.495  69.462  1.00  0.00    -0.140 A  
HETATM   16  C   UNL     1      -8.339   5.221  69.389  1.00  0.00    -0.095 C  
HETATM   17  C   UNL     1      -8.058   4.499  70.486  1.00  0.00    -0.067 C  
HETATM   18  C   UNL     1      -8.501   4.974  71.838  1.00  0.00    -0.124 C  
HETATM   19  I   UNL     1      -7.031   2.720  70.349  1.00  0.00    -0.033 I  
HETATM   20  C   UNL     1      -9.453   6.131  71.864  1.00  0.00    -0.150 C  
HETATM   21  O   UNL     1      -8.125   4.419  72.866  1.00  0.00    -0.092 OA 
HETATM   22  I   UNL     1     -10.338   6.590  73.690  1.00  0.00    -0.310 I  
HETATM   23  C   UNL     1      -9.711   6.824  70.739  1.00  0.00    -0.179 A  
HETATM   24  O   UNL     1     -10.635   7.854  70.775  1.00  0.00    -0.209 OA 
HETATM   25  C   UNL     1     -10.733   8.737  69.737  1.00  0.00    -0.218 A  
HETATM   26  C   UNL     1     -11.609   9.828  69.890  1.00  0.00    -0.079 A  
HETATM   27  C   UNL     1     -11.755  10.759  68.859  1.00  0.00    -0.267 A  
HETATM   28  I   UNL     1     -12.714  10.075  71.675  1.00  0.00    -0.511 I  
HETATM   29  C   UNL     1     -10.992  10.615  67.700  1.00  0.00    -0.310 A  
HETATM   30  O   UNL     1     -12.635  11.802  68.962  1.00  0.00    -0.042 OA 
HETATM   31  H   UNL     1     -12.735  12.436  68.261  1.00  0.00     0.000 HD 
HETATM   32  I   UNL     1     -11.138  11.971  66.109  1.00  0.00    -0.366 I  
HETATM   33  C   UNL     1     -10.113   9.533  67.558  1.00  0.00    -0.257 A  
HETATM   34  C   UNL     1      -9.994   8.560  68.564  1.00  0.00    -0.201 A  
ENDBRANCH  12  14
TORSDOF 1
ENDMDL
MODEL       68
REMARK 921   NORMALIZED FREE ENERGY PREDICTED BY IDOCK:   -4.29 KCAL/MOL
REMARK 922        TOTAL FREE ENERGY PREDICTED BY IDOCK:   -5.25 KCAL/MOL
REMARK 923 INTER-LIGAND FREE ENERGY PREDICTED BY IDOCK:   -4.34 KCAL/MOL
REMARK 924 INTRA-LIGAND FREE ENERGY PREDICTED BY IDOCK:   -0.91 KCAL/MOL
REMARK 927      BINDING AFFINITY PREDICTED BY RF-SCORE:    0.00 PKD
ROOT
HETATM    1  O   UNL     1     -11.330  14.460  64.267  1.00  0.00    -0.286 OA 
HETATM    2  C   UNL     1     -11.336  13.961  65.523  1.00  0.00    -0.308 C  
HETATM    3  O   UNL     1     -12.135  14.335  66.361  1.00  0.00    -0.422 OA 
HETATM    4  C   UNL     1     -10.228  13.020  65.835  1.00  0.00    -0.298 A  
HETATM    5  C   UNL     1      -9.893  11.971  64.951  1.00  0.00    -0.175 A  
HETATM    6 CL   UNL     1     -10.773  11.755  63.462  1.00  0.00    -0.473 Cl 
HETATM    7  C   UNL     1      -8.857  11.072  65.273  1.00  0.00    -0.129 A  
HETATM    8 CL   UNL     1      -8.457   9.776  64.177  1.00  0.00    -0.163 Cl 
HETATM    9  C   UNL     1      -8.142  11.220  66.473  1.00  0.00    -0.160 A  
HETATM   10  C   UNL     1      -8.465  12.268  67.357  1.00  0.00    -0.176 A  
HETATM   11 CL   UNL     1      -6.870  10.100  66.875  1.00  0.00    -0.082 Cl 
HETATM   12  C   UNL     1      -9.527  13.161  67.071  1.00  0.00    -0.242 A  
HETATM   13 CL   UNL     1      -7.531  12.489  68.814  1.00  0.00    -0.087 Cl 
ENDROOT
BRANCH  12  14
HETATM   14  C   UNL     1      -9.910  14.197  68.102  1.00  0.00    -0.229 A  
HETATM   15  C   UNL     1     -10.822  13.926  69.078  1.00  0.00    -0.253 A  
HETATM   16  C   UNL     1     -11.501  12.633  69.169  1.00  0.00    -0.359 C  
HETATM   17  C   UNL     1     -12.234  12.289  70.240  1.00  0.00    -0.262 C  
HETATM   18  C   UNL     1     -12.403  13.248  71.380  1.00  0.00    -0.074 C  
HETATM   19  I   UNL     1     -13.158  10.453  70.345  1.00  0.00     0.576 I  
HETATM   20  C   UNL     1     -11.929  14.651  71.154  1.00  0.00    -0.346 C  
HETATM   21  O   UNL     1     -12.933  12.904  72.432  1.00  0.00    -0.294 OA 
HETATM   22  I   UNL     1     -12.452  16.071  72.580  1.00  0.00    -0.473 I  
HETATM   23  C   UNL     1     -11.200  14.954  70.063  1.00  0.00    -0.259 A  
HETATM   24  O   UNL     1     -10.820  16.267  69.846  1.00  0.00    -0.331 OA 
HETATM   25  C   UNL     1      -9.876  16.571  68.905  1.00  0.00    -0.260 A  
HETATM   26  C   UNL     1      -9.450  17.909  68.819  1.00  0.00    -0.259 A  
HETATM   27  C   UNL     1      -8.492  18.280  67.872  1.00  0.00    -0.254 A  
HETATM   28  I   UNL     1     -10.248  19.376  70.116  1.00  0.00     2.202 I  
HETATM   29  C   UNL     1      -7.937  17.302  67.047  1.00  0.00    -0.214 A  
HETATM   30  O   UNL     1      -8.095  19.583  67.735  1.00  0.00    -0.281 OA 
HETATM   31  H   UNL     1      -7.443  19.835  67.090  1.00  0.00     0.000 HD 
HETATM   32  I   UNL     1      -6.487  17.766  65.608  1.00  0.00     0.455 I  
HETATM   33  C   UNL     1      -8.358  15.968  67.146  1.00  0.00    -0.228 A  
HETATM   34  C   UNL     1      -9.357  15.589  68.057  1.00  0.00    -0.193 A  
ENDBRANCH  12  14
TORSDOF 1
ENDMDL
MODEL       69
REMARK 921   NORMALIZED FREE ENERGY PREDICTED BY IDOCK:   -4.25 KCAL/MOL
REMARK 922        TOTAL FREE ENERGY PREDICTED BY IDOCK:   -5.20 KCAL/MOL
REMARK 923 INTER-LIGAND FREE ENERGY PREDICTED BY IDOCK:   -4.13 KCAL/MOL
REMARK 924 INTRA-LIGAND FREE ENERGY PREDICTED BY IDOCK:   -1.07 KCAL/MOL
REMARK 927      BINDING AFFINITY PREDICTED BY RF-SCORE:    0.00 PKD
ROOT
HETATM    1  O   UNL     1      -5.194  11.103  67.660  1.00  0.00    -0.040 OA 
HETATM    2  C   UNL     1      -6.197  10.365  68.185  1.00  0.00    -0.051 C  
HETATM    3  O   UNL     1      -6.003   9.268  68.675  1.00  0.00    -0.044 OA 
HETATM    4  C   UNL     1      -7.560  10.935  68.011  1.00  0.00    -0.092 A  
HETATM    5  C   UNL     1      -7.823  12.293  68.296  1.00  0.00    -0.153 A  
HETATM    6 CL   UNL     1      -6.548  13.341  68.858  1.00  0.00    -0.102 Cl 
HETATM    7  C   UNL     1      -9.125  12.812  68.150  1.00  0.00    -0.203 A  
HETATM    8 CL   UNL     1      -9.439  14.489  68.512  1.00  0.00    -0.208 Cl 
HETATM    9  C   UNL     1     -10.169  11.983  67.709  1.00  0.00    -0.202 A  
HETATM   10  C   UNL     1      -9.914  10.629  67.417  1.00  0.00    -0.181 A  
HETATM   11 CL   UNL     1     -11.780  12.624  67.543  1.00  0.00    -0.421 Cl 
HETATM   12  C   UNL     1      -8.621  10.077  67.591  1.00  0.00    -0.118 A  
HETATM   13 CL   UNL     1     -11.199   9.619  66.806  1.00  0.00     0.310 Cl 
ENDROOT
BRANCH  12  14
HETATM   14  C   UNL     1      -8.423   8.595  67.374  1.00  0.00    -0.123 A  
HETATM   15  C   UNL     1      -7.983   8.103  66.181  1.00  0.00    -0.102 A  
HETATM   16  C   UNL     1      -7.704   8.973  65.038  1.00  0.00    -0.109 C  
HETATM   17  C   UNL     1      -7.075   8.524  63.939  1.00  0.00    -0.091 C  
HETATM   18  C   UNL     1      -6.660   7.086  63.841  1.00  0.00    -0.043 C  
HETATM   19  I   UNL     1      -6.678   9.780  62.358  1.00  0.00    -0.132 I  
HETATM   20  C   UNL     1      -7.186   6.161  64.895  1.00  0.00    -0.063 C  
HETATM   21  O   UNL     1      -5.950   6.687  62.923  1.00  0.00    -0.036 OA 
HETATM   22  I   UNL     1      -6.905   4.122  64.595  1.00  0.00    -0.047 I  
HETATM   23  C   UNL     1      -7.816   6.654  65.978  1.00  0.00    -0.104 A  
HETATM   24  O   UNL     1      -8.343   5.778  66.912  1.00  0.00    -0.108 OA 
HETATM   25  C   UNL     1      -8.754   6.230  68.135  1.00  0.00    -0.115 A  
HETATM   26  C   UNL     1      -9.168   5.271  69.077  1.00  0.00    -0.118 A  
HETATM   27  C   UNL     1      -9.604   5.674  70.342  1.00  0.00    -0.170 A  
HETATM   28  I   UNL     1      -9.137   3.212  68.599  1.00  0.00    -0.222 I  
HETATM   29  C   UNL     1      -9.584   7.031  70.667  1.00  0.00    -0.165 A  
HETATM   30  O   UNL     1     -10.058   4.767  71.261  1.00  0.00    -0.191 OA 
HETATM   31  H   UNL     1     -10.355   5.042  72.121  1.00  0.00     0.000 HD 
HETATM   32  I   UNL     1     -10.208   7.724  72.543  1.00  0.00    -0.413 I  
HETATM   33  C   UNL     1      -9.159   7.980  69.727  1.00  0.00    -0.149 A  
HETATM   34  C   UNL     1      -8.767   7.594  68.435  1.00  0.00    -0.127 A  
ENDBRANCH  12  14
TORSDOF 1
ENDMDL
MODEL       70
REMARK 921   NORMALIZED FREE ENERGY PREDICTED BY IDOCK:   -4.23 KCAL/MOL
REMARK 922        TOTAL FREE ENERGY PREDICTED BY IDOCK:   -5.18 KCAL/MOL
REMARK 923 INTER-LIGAND FREE ENERGY PREDICTED BY IDOCK:   -5.00 KCAL/MOL
REMARK 924 INTRA-LIGAND FREE ENERGY PREDICTED BY IDOCK:   -0.18 KCAL/MOL
REMARK 927      BINDING AFFINITY PREDICTED BY RF-SCORE:    0.00 PKD
ROOT
HETATM    1  O   UNL     1     -11.705  11.746  70.386  1.00  0.00    -0.300 OA 
HETATM    2  C   UNL     1     -11.233  11.982  69.142  1.00  0.00    -0.246 C  
HETATM    3  O   UNL     1     -11.359  11.176  68.240  1.00  0.00    -0.247 OA 
HETATM    4  C   UNL     1     -10.450  13.237  68.992  1.00  0.00    -0.044 A  
HETATM    5  C   UNL     1     -10.924  14.459  69.517  1.00  0.00    -0.197 A  
HETATM    6 CL   UNL     1     -12.445  14.526  70.364  1.00  0.00    -0.391 Cl 
HETATM    7  C   UNL     1     -10.181  15.644  69.344  1.00  0.00    -0.261 A  
HETATM    8 CL   UNL     1     -10.779  17.149  69.992  1.00  0.00     0.106 Cl 
HETATM    9  C   UNL     1      -8.957  15.616  68.656  1.00  0.00    -0.202 A  
HETATM   10  C   UNL     1      -8.474  14.400  68.133  1.00  0.00    -0.160 A  
HETATM   11 CL   UNL     1      -8.048  17.084  68.431  1.00  0.00    -0.235 Cl 
HETATM   12  C   UNL     1      -9.221  13.203  68.264  1.00  0.00    -0.194 A  
HETATM   13 CL   UNL     1      -6.923  14.356  67.337  1.00  0.00    -0.177 Cl 
ENDROOT
BRANCH  12  14
HETATM   14  C   UNL     1      -8.717  11.949  67.589  1.00  0.00    -0.162 A  
HETATM   15  C   UNL     1      -7.720  11.198  68.137  1.00  0.00    -0.107 A  
HETATM   16  C   UNL     1      -7.063  11.574  69.389  1.00  0.00    -0.037 C  
HETATM   17  C   UNL     1      -6.236  10.737  70.037  1.00  0.00    -0.119 C  
HETATM   18  C   UNL     1      -5.935   9.382  69.470  1.00  0.00    -0.033 C  
HETATM   19  I   UNL     1      -5.346  11.290  71.809  1.00  0.00     0.648 I  
HETATM   20  C   UNL     1      -6.400   9.121  68.070  1.00  0.00    -0.055 C  
HETATM   21  O   UNL     1      -5.313   8.543  70.114  1.00  0.00    -0.022 OA 
HETATM   22  I   UNL     1      -5.708   7.390  67.148  1.00  0.00    -0.033 I  
HETATM   23  C   UNL     1      -7.225   9.990  67.455  1.00  0.00    -0.089 A  
HETATM   24  O   UNL     1      -7.596   9.757  66.142  1.00  0.00    -0.097 OA 
HETATM   25  C   UNL     1      -8.621  10.461  65.574  1.00  0.00    -0.169 A  
HETATM   26  C   UNL     1      -9.024  10.092  64.278  1.00  0.00    -0.237 A  
HETATM   27  C   UNL     1     -10.062  10.781  63.644  1.00  0.00    -0.312 A  
HETATM   28  I   UNL     1      -8.071   8.498  63.269  1.00  0.00    -0.049 I  
HETATM   29  C   UNL     1     -10.716  11.805  64.329  1.00  0.00    -0.342 A  
HETATM   30  O   UNL     1     -10.442  10.475  62.366  1.00  0.00    -0.638 OA 
HETATM   31  H   UNL     1     -11.148  10.943  61.935  1.00  0.00     0.000 HD 
HETATM   32  I   UNL     1     -12.290  12.882  63.462  1.00  0.00    -0.093 I  
HETATM   33  C   UNL     1     -10.317  12.160  65.625  1.00  0.00    -0.289 A  
HETATM   34  C   UNL     1      -9.241  11.512  66.255  1.00  0.00    -0.222 A  
ENDBRANCH  12  14
TORSDOF 1
ENDMDL
MODEL       71
REMARK 921   NORMALIZED FREE ENERGY PREDICTED BY IDOCK:   -4.16 KCAL/MOL
REMARK 922        TOTAL FREE ENERGY PREDICTED BY IDOCK:   -5.10 KCAL/MOL
REMARK 923 INTER-LIGAND FREE ENERGY PREDICTED BY IDOCK:   -4.30 KCAL/MOL
REMARK 924 INTRA-LIGAND FREE ENERGY PREDICTED BY IDOCK:   -0.80 KCAL/MOL
REMARK 927      BINDING AFFINITY PREDICTED BY RF-SCORE:    0.00 PKD
ROOT
HETATM    1  O   UNL     1     -10.869   6.651  68.579  1.00  0.00    -0.239 OA 
HETATM    2  C   UNL     1     -10.729   7.987  68.724  1.00  0.00    -0.045 C  
HETATM    3  O   UNL     1     -11.396   8.779  68.085  1.00  0.00     0.377 OA 
HETATM    4  C   UNL     1      -9.626   8.413  69.625  1.00  0.00    -0.163 A  
HETATM    5  C   UNL     1      -9.449   7.817  70.893  1.00  0.00    -0.160 A  
HETATM    6 CL   UNL     1     -10.524   6.556  71.434  1.00  0.00    -0.237 Cl 
HETATM    7  C   UNL     1      -8.414   8.250  71.745  1.00  0.00    -0.158 A  
HETATM    8 CL   UNL     1      -8.210   7.510  73.312  1.00  0.00    -0.146 Cl 
HETATM    9  C   UNL     1      -7.543   9.271  71.335  1.00  0.00     0.140 A  
HETATM   10  C   UNL     1      -7.708   9.868  70.069  1.00  0.00    -0.178 A  
HETATM   11 CL   UNL     1      -6.272   9.814  72.395  1.00  0.00     0.474 Cl 
HETATM   12  C   UNL     1      -8.764   9.473  69.210  1.00  0.00    -0.151 A  
HETATM   13 CL   UNL     1      -6.583  11.090  69.535  1.00  0.00    -0.103 Cl 
ENDROOT
BRANCH  12  14
HETATM   14  C   UNL     1      -8.969  10.220  67.913  1.00  0.00    -0.131 A  
HETATM   15  C   UNL     1      -9.797  11.299  67.836  1.00  0.00    -0.187 A  
HETATM   16  C   UNL     1     -10.553  11.782  68.993  1.00  0.00    -0.172 C  
HETATM   17  C   UNL     1     -11.200  12.959  68.979  1.00  0.00    -0.267 C  
HETATM   18  C   UNL     1     -11.187  13.814  67.747  1.00  0.00    -0.288 C  
HETATM   19  I   UNL     1     -12.236  13.617  70.631  1.00  0.00    -0.204 I  
HETATM   20  C   UNL     1     -10.640  13.188  66.501  1.00  0.00    -0.284 C  
HETATM   21  O   UNL     1     -11.634  14.957  67.758  1.00  0.00    -0.330 OA 
HETATM   22  I   UNL     1     -10.918  14.224  64.719  1.00  0.00    -0.288 I  
HETATM   23  C   UNL     1     -10.003  12.003  66.559  1.00  0.00    -0.204 A  
HETATM   24  O   UNL     1      -9.554  11.418  65.388  1.00  0.00    -0.220 OA 
HETATM   25  C   UNL     1      -8.689  10.360  65.426  1.00  0.00    -0.180 A  
HETATM   26  C   UNL     1      -8.180   9.891  64.201  1.00  0.00    -0.159 A  
HETATM   27  C   UNL     1      -7.296   8.809  64.178  1.00  0.00    -0.101 A  
HETATM   28  I   UNL     1      -8.741  10.810  62.382  1.00  0.00    -0.308 I  
HETATM   29  C   UNL     1      -6.896   8.232  65.384  1.00  0.00    -0.062 A  
HETATM   30  O   UNL     1      -6.824   8.301  62.998  1.00  0.00    -0.085 OA 
HETATM   31  H   UNL     1      -6.223   7.565  62.983  1.00  0.00     0.000 HD 
HETATM   32  I   UNL     1      -5.566   6.615  65.444  1.00  0.00    -0.032 I  
HETATM   33  C   UNL     1      -7.398   8.712  66.602  1.00  0.00    -0.081 A  
HETATM   34  C   UNL     1      -8.327   9.766  66.637  1.00  0.00    -0.124 A  
ENDBRANCH  12  14
TORSDOF 1
ENDMDL
MODEL       72
REMARK 921   NORMALIZED FREE ENERGY PREDICTED BY IDOCK:   -4.05 KCAL/MOL
REMARK 922        TOTAL FREE ENERGY PREDICTED BY IDOCK:   -4.99 KCAL/MOL
REMARK 923 INTER-LIGAND FREE ENERGY PREDICTED BY IDOCK:   -4.92 KCAL/MOL
REMARK 924 INTRA-LIGAND FREE ENERGY PREDICTED BY IDOCK:   -0.07 KCAL/MOL
REMARK 927      BINDING AFFINITY PREDICTED BY RF-SCORE:    0.00 PKD
ROOT
HETATM    1  O   UNL     1     -11.628   4.830  65.135  1.00  0.00     0.065 OA 
HETATM    2  C   UNL     1     -10.706   4.962  66.114  1.00  0.00    -0.184 C  
HETATM    3  O   UNL     1     -10.996   4.858  67.291  1.00  0.00     0.239 OA 
HETATM    4  C   UNL     1      -9.349   5.360  65.654  1.00  0.00    -0.098 A  
HETATM    5  C   UNL     1      -8.732   4.715  64.560  1.00  0.00    -0.151 A  
HETATM    6 CL   UNL     1      -9.554   3.432  63.712  1.00  0.00    -0.125 Cl 
HETATM    7  C   UNL     1      -7.435   5.087  64.153  1.00  0.00    -0.064 A  
HETATM    8 CL   UNL     1      -6.681   4.279  62.804  1.00  0.00    -0.030 Cl 
HETATM    9  C   UNL     1      -6.750   6.110  64.828  1.00  0.00    -0.043 A  
HETATM   10  C   UNL     1      -7.360   6.763  65.918  1.00  0.00    -0.075 A  
HETATM   11 CL   UNL     1      -5.142   6.558  64.332  1.00  0.00    -0.021 Cl 
HETATM   12  C   UNL     1      -8.649   6.381  66.366  1.00  0.00    -0.134 A  
HETATM   13 CL   UNL     1      -6.533   8.078  66.711  1.00  0.00    -0.055 Cl 
ENDROOT
BRANCH  12  14
HETATM   14  C   UNL     1      -9.214   7.031  67.608  1.00  0.00    -0.120 A  
HETATM   15  C   UNL     1      -9.754   8.282  67.572  1.00  0.00    -0.212 A  
HETATM   16  C   UNL     1      -9.797   9.075  66.343  1.00  0.00    -0.356 C  
HETATM   17  C   UNL     1     -10.511  10.209  66.253  1.00  0.00    -0.122 C  
HETATM   18  C   UNL     1     -11.275  10.717  67.438  1.00  0.00    -0.241 C  
HETATM   19  I   UNL     1     -10.566  11.289  64.501  1.00  0.00    -0.299 I  
HETATM   20  C   UNL     1     -11.007  10.044  68.750  1.00  0.00    -0.202 C  
HETATM   21  O   UNL     1     -12.056  11.659  67.340  1.00  0.00    -0.605 OA 
HETATM   22  I   UNL     1     -11.793  10.940  70.454  1.00  0.00    -0.406 I  
HETATM   23  C   UNL     1     -10.281   8.911  68.795  1.00  0.00    -0.206 A  
HETATM   24  O   UNL     1      -9.999   8.337  70.023  1.00  0.00    -0.184 OA 
HETATM   25  C   UNL     1      -9.496   7.068  70.098  1.00  0.00    -0.162 A  
HETATM   26  C   UNL     1      -9.345   6.502  71.377  1.00  0.00    -0.151 A  
HETATM   27  C   UNL     1      -8.830   5.211  71.516  1.00  0.00    -0.133 A  
HETATM   28  I   UNL     1      -9.891   7.592  73.105  1.00  0.00    -0.368 I  
HETATM   29  C   UNL     1      -8.509   4.480  70.371  1.00  0.00    -0.078 A  
HETATM   30  O   UNL     1      -8.627   4.655  72.750  1.00  0.00    -0.112 OA 
HETATM   31  H   UNL     1      -8.276   3.776  72.844  1.00  0.00     0.000 HD 
HETATM   32  I   UNL     1      -7.743   2.534  70.485  1.00  0.00    -0.052 I  
HETATM   33  C   UNL     1      -8.673   5.046  69.099  1.00  0.00    -0.106 A  
HETATM   34  C   UNL     1      -9.141   6.362  68.946  1.00  0.00    -0.129 A  
ENDBRANCH  12  14
TORSDOF 1
ENDMDL
MODEL       73
REMARK 921   NORMALIZED FREE ENERGY PREDICTED BY IDOCK:   -3.97 KCAL/MOL
REMARK 922        TOTAL FREE ENERGY PREDICTED BY IDOCK:   -4.91 KCAL/MOL
REMARK 923 INTER-LIGAND FREE ENERGY PREDICTED BY IDOCK:   -3.84 KCAL/MOL
REMARK 924 INTRA-LIGAND FREE ENERGY PREDICTED BY IDOCK:   -1.07 KCAL/MOL
REMARK 927      BINDING AFFINITY PREDICTED BY RF-SCORE:    0.00 PKD
ROOT
HETATM    1  O   UNL     1     -11.086   4.478  64.392  1.00  0.00     0.045 OA 
HETATM    2  C   UNL     1     -10.820   4.733  65.692  1.00  0.00    -0.065 C  
HETATM    3  O   UNL     1     -11.647   5.227  66.435  1.00  0.00     0.763 OA 
HETATM    4  C   UNL     1      -9.416   4.479  66.112  1.00  0.00    -0.173 A  
HETATM    5  C   UNL     1      -8.755   3.282  65.759  1.00  0.00    -0.125 A  
HETATM    6 CL   UNL     1      -9.572   2.068  64.813  1.00  0.00    -0.056 Cl 
HETATM    7  C   UNL     1      -7.433   3.046  66.186  1.00  0.00    -0.072 A  
HETATM    8 CL   UNL     1      -6.630   1.561  65.749  1.00  0.00    -0.023 Cl 
HETATM    9  C   UNL     1      -6.759   4.006  66.958  1.00  0.00    -0.047 A  
HETATM   10  C   UNL     1      -7.409   5.206  67.309  1.00  0.00    -0.082 A  
HETATM   11 CL   UNL     1      -5.130   3.706  67.495  1.00  0.00    -0.007 Cl 
HETATM   12  C   UNL     1      -8.750   5.449  66.922  1.00  0.00    -0.112 A  
HETATM   13 CL   UNL     1      -6.546   6.425  68.212  1.00  0.00    -0.063 Cl 
ENDROOT
BRANCH  12  14
HETATM   14  C   UNL     1      -9.440   6.697  67.419  1.00  0.00    -0.143 A  
HETATM   15  C   UNL     1      -9.475   7.836  66.671  1.00  0.00    -0.263 A  
HETATM   16  C   UNL     1      -8.827   7.927  65.362  1.00  0.00    -0.020 C  
HETATM   17  C   UNL     1      -9.035   8.965  64.536  1.00  0.00     0.053 C  
HETATM   18  C   UNL     1      -9.931  10.093  64.950  1.00  0.00    -0.288 C  
HETATM   19  I   UNL     1      -8.125   9.049  62.691  1.00  0.00    -0.189 I  
HETATM   20  C   UNL     1     -10.367  10.113  66.384  1.00  0.00    -0.188 C  
HETATM   21  O   UNL     1     -10.261  10.971  64.159  1.00  0.00    -0.305 OA 
HETATM   22  I   UNL     1     -11.324  11.831  67.061  1.00  0.00    -0.237 I  
HETATM   23  C   UNL     1     -10.133   9.052  67.179  1.00  0.00    -0.243 A  
HETATM   24  O   UNL     1     -10.495   9.114  68.514  1.00  0.00    -0.210 OA 
HETATM   25  C   UNL     1     -10.514   7.984  69.283  1.00  0.00    -0.215 A  
HETATM   26  C   UNL     1     -11.005   8.098  70.596  1.00  0.00    -0.244 A  
HETATM   27  C   UNL     1     -11.041   6.978  71.430  1.00  0.00    -0.245 A  
HETATM   28  I   UNL     1     -11.693   9.959  71.328  1.00  0.00    -0.326 I  
HETATM   29  C   UNL     1     -10.625   5.744  70.930  1.00  0.00    -0.262 A  
HETATM   30  O   UNL     1     -11.469   7.071  72.727  1.00  0.00    -0.430 OA 
HETATM   31  H   UNL     1     -11.493   6.309  73.295  1.00  0.00     0.000 HD 
HETATM   32  I   UNL     1     -10.657   4.010  72.106  1.00  0.00     0.390 I  
HETATM   33  C   UNL     1     -10.147   5.635  69.617  1.00  0.00    -0.289 A  
HETATM   34  C   UNL     1     -10.056   6.762  68.783  1.00  0.00    -0.165 A  
ENDBRANCH  12  14
TORSDOF 1
ENDMDL
MODEL       74
REMARK 921   NORMALIZED FREE ENERGY PREDICTED BY IDOCK:   -3.90 KCAL/MOL
REMARK 922        TOTAL FREE ENERGY PREDICTED BY IDOCK:   -4.83 KCAL/MOL
REMARK 923 INTER-LIGAND FREE ENERGY PREDICTED BY IDOCK:   -3.89 KCAL/MOL
REMARK 924 INTRA-LIGAND FREE ENERGY PREDICTED BY IDOCK:   -0.94 KCAL/MOL
REMARK 927      BINDING AFFINITY PREDICTED BY RF-SCORE:    0.00 PKD
ROOT
HETATM    1  O   UNL     1      -5.135  10.009  68.492  1.00  0.00    -0.036 OA 
HETATM    2  C   UNL     1      -6.221   9.344  68.942  1.00  0.00    -0.043 C  
HETATM    3  O   UNL     1      -6.128   8.308  69.573  1.00  0.00    -0.035 OA 
HETATM    4  C   UNL     1      -7.529   9.902  68.507  1.00  0.00    -0.082 A  
HETATM    5  C   UNL     1      -7.797  11.285  68.598  1.00  0.00    -0.139 A  
HETATM    6 CL   UNL     1      -6.593  12.380  69.223  1.00  0.00    -0.105 Cl 
HETATM    7  C   UNL     1      -9.051  11.795  68.205  1.00  0.00    -0.187 A  
HETATM    8 CL   UNL     1      -9.373  13.504  68.329  1.00  0.00    -0.208 Cl 
HETATM    9  C   UNL     1     -10.040  10.930  67.709  1.00  0.00    -0.177 A  
HETATM   10  C   UNL     1      -9.779   9.549  67.609  1.00  0.00    -0.154 A  
HETATM   11 CL   UNL     1     -11.593  11.561  67.237  1.00  0.00    -0.334 Cl 
HETATM   12  C   UNL     1      -8.538   9.010  68.032  1.00  0.00    -0.129 A  
HETATM   13 CL   UNL     1     -10.986   8.488  66.931  1.00  0.00     0.032 Cl 
ENDROOT
BRANCH  12  14
HETATM   14  C   UNL     1      -8.347   7.512  68.012  1.00  0.00    -0.124 A  
HETATM   15  C   UNL     1      -8.712   6.734  69.069  1.00  0.00    -0.130 A  
HETATM   16  C   UNL     1      -9.283   7.301  70.292  1.00  0.00    -0.155 C  
HETATM   17  C   UNL     1      -9.835   6.531  71.243  1.00  0.00    -0.181 C  
HETATM   18  C   UNL     1      -9.858   5.040  71.090  1.00  0.00    -0.187 C  
HETATM   19  I   UNL     1     -10.649   7.365  72.940  1.00  0.00    -0.454 I  
HETATM   20  C   UNL     1      -9.040   4.467  69.973  1.00  0.00    -0.106 C  
HETATM   21  O   UNL     1     -10.491   4.327  71.863  1.00  0.00    -0.117 OA 
HETATM   22  I   UNL     1      -8.787   2.403  69.945  1.00  0.00    -0.181 I  
HETATM   23  C   UNL     1      -8.499   5.276  69.042  1.00  0.00    -0.095 A  
HETATM   24  O   UNL     1      -7.702   4.730  68.051  1.00  0.00    -0.081 OA 
HETATM   25  C   UNL     1      -7.352   5.468  66.955  1.00  0.00    -0.080 A  
HETATM   26  C   UNL     1      -6.641   4.816  65.931  1.00  0.00    -0.045 A  
HETATM   27  C   UNL     1      -6.251   5.521  64.790  1.00  0.00    -0.029 A  
HETATM   28  I   UNL     1      -6.151   2.766  66.101  1.00  0.00    -0.025 I  
HETATM   29  C   UNL     1      -6.612   6.863  64.663  1.00  0.00    -0.042 A  
HETATM   30  O   UNL     1      -5.517   4.924  63.801  1.00  0.00    -0.012 OA 
HETATM   31  H   UNL     1      -5.252   5.404  63.025  1.00  0.00     0.000 HD 
HETATM   32  I   UNL     1      -6.081   7.993  62.981  1.00  0.00    -0.078 I  
HETATM   33  C   UNL     1      -7.331   7.503  65.682  1.00  0.00    -0.067 A  
HETATM   34  C   UNL     1      -7.685   6.822  66.858  1.00  0.00    -0.103 A  
ENDBRANCH  12  14
TORSDOF 1
ENDMDL
MODEL       75
REMARK 921   NORMALIZED FREE ENERGY PREDICTED BY IDOCK:   -3.89 KCAL/MOL
REMARK 922        TOTAL FREE ENERGY PREDICTED BY IDOCK:   -4.82 KCAL/MOL
REMARK 923 INTER-LIGAND FREE ENERGY PREDICTED BY IDOCK:   -4.73 KCAL/MOL
REMARK 924 INTRA-LIGAND FREE ENERGY PREDICTED BY IDOCK:   -0.09 KCAL/MOL
REMARK 927      BINDING AFFINITY PREDICTED BY RF-SCORE:    0.00 PKD
ROOT
HETATM    1  O   UNL     1     -12.137   9.240  69.225  1.00  0.00     0.861 OA 
HETATM    2  C   UNL     1     -10.847   9.608  69.067  1.00  0.00    -0.183 C  
HETATM    3  O   UNL     1     -10.340  10.490  69.736  1.00  0.00    -0.232 OA 
HETATM    4  C   UNL     1     -10.134   8.944  67.944  1.00  0.00    -0.255 A  
HETATM    5  C   UNL     1     -10.215   7.547  67.754  1.00  0.00    -0.201 A  
HETATM    6 CL   UNL     1     -11.163   6.561  68.834  1.00  0.00    -0.359 Cl 
HETATM    7  C   UNL     1      -9.513   6.930  66.699  1.00  0.00    -0.166 A  
HETATM    8 CL   UNL     1      -9.616   5.203  66.478  1.00  0.00    -0.150 Cl 
HETATM    9  C   UNL     1      -8.734   7.703  65.822  1.00  0.00    -0.125 A  
HETATM   10  C   UNL     1      -8.652   9.098  66.001  1.00  0.00    -0.146 A  
HETATM   11 CL   UNL     1      -7.857   6.937  64.528  1.00  0.00    -0.113 Cl 
HETATM   12  C   UNL     1      -9.321   9.735  67.076  1.00  0.00    -0.178 A  
HETATM   13 CL   UNL     1      -7.738  10.063  64.871  1.00  0.00    -0.135 Cl 
ENDROOT
BRANCH  12  14
HETATM   14  C   UNL     1      -9.111  11.215  67.294  1.00  0.00    -0.152 A  
HETATM   15  C   UNL     1      -9.757  12.145  66.535  1.00  0.00    -0.234 A  
HETATM   16  C   UNL     1     -10.668  11.767  65.453  1.00  0.00    -0.333 C  
HETATM   17  C   UNL     1     -11.463  12.664  64.848  1.00  0.00    -0.322 C  
HETATM   18  C   UNL     1     -11.419  14.108  65.251  1.00  0.00    -0.330 C  
HETATM   19  I   UNL     1     -12.749  12.095  63.345  1.00  0.00     0.400 I  
HETATM   20  C   UNL     1     -10.302  14.517  66.163  1.00  0.00    -0.297 C  
HETATM   21  O   UNL     1     -12.240  14.916  64.828  1.00  0.00    -0.373 OA 
HETATM   22  I   UNL     1     -10.022  16.555  66.465  1.00  0.00    -0.348 I  
HETATM   23  C   UNL     1      -9.525  13.584  66.745  1.00  0.00    -0.269 A  
HETATM   24  O   UNL     1      -8.465  13.986  67.540  1.00  0.00    -0.170 OA 
HETATM   25  C   UNL     1      -7.821  13.090  68.346  1.00  0.00    -0.134 A  
HETATM   26  C   UNL     1      -6.833  13.588  69.214  1.00  0.00    -0.051 A  
HETATM   27  C   UNL     1      -6.137  12.717  70.057  1.00  0.00    -0.112 A  
HETATM   28  I   UNL     1      -6.385  15.653  69.259  1.00  0.00    -0.166 I  
HETATM   29  C   UNL     1      -6.464  11.361  70.054  1.00  0.00    -0.094 A  
HETATM   30  O   UNL     1      -5.137  13.168  70.876  1.00  0.00    -0.110 OA 
HETATM   31  H   UNL     1      -4.664  12.576  71.449  1.00  0.00     0.000 HD 
HETATM   32  I   UNL     1      -5.481   9.987  71.292  1.00  0.00     0.032 I  
HETATM   33  C   UNL     1      -7.458  10.873  69.194  1.00  0.00    -0.130 A  
HETATM   34  C   UNL     1      -8.131  11.728  68.305  1.00  0.00    -0.154 A  
ENDBRANCH  12  14
TORSDOF 1
ENDMDL
MODEL       76
REMARK 921   NORMALIZED FREE ENERGY PREDICTED BY IDOCK:   -3.82 KCAL/MOL
REMARK 922        TOTAL FREE ENERGY PREDICTED BY IDOCK:   -4.75 KCAL/MOL
REMARK 923 INTER-LIGAND FREE ENERGY PREDICTED BY IDOCK:   -3.87 KCAL/MOL
REMARK 924 INTRA-LIGAND FREE ENERGY PREDICTED BY IDOCK:   -0.88 KCAL/MOL
REMARK 927      BINDING AFFINITY PREDICTED BY RF-SCORE:    0.00 PKD
ROOT
HETATM    1  O   UNL     1     -11.515   8.612  70.238  1.00  0.00    -0.205 OA 
HETATM    2  C   UNL     1     -10.641   8.405  69.229  1.00  0.00    -0.182 C  
HETATM    3  O   UNL     1     -10.554   7.333  68.659  1.00  0.00    -0.197 OA 
HETATM    4  C   UNL     1      -9.717   9.537  68.950  1.00  0.00    -0.166 A  
HETATM    5  C   UNL     1     -10.198  10.860  68.845  1.00  0.00    -0.198 A  
HETATM    6 CL   UNL     1     -11.895  11.203  69.045  1.00  0.00    -0.397 Cl 
HETATM    7  C   UNL     1      -9.313  11.918  68.557  1.00  0.00    -0.140 A  
HETATM    8 CL   UNL     1      -9.919  13.548  68.423  1.00  0.00    -0.236 Cl 
HETATM    9  C   UNL     1      -7.943  11.665  68.381  1.00  0.00    -0.140 A  
HETATM   10  C   UNL     1      -7.454  10.348  68.490  1.00  0.00    -0.089 A  
HETATM   11 CL   UNL     1      -6.854  12.972  68.011  1.00  0.00    -0.097 Cl 
HETATM   12  C   UNL     1      -8.331   9.264  68.744  1.00  0.00    -0.117 A  
HETATM   13 CL   UNL     1      -5.742  10.046  68.338  1.00  0.00    -0.042 Cl 
ENDROOT
BRANCH  12  14
HETATM   14  C   UNL     1      -7.776   7.858  68.739  1.00  0.00    -0.112 A  
HETATM   15  C   UNL     1      -7.531   7.195  67.574  1.00  0.00    -0.101 A  
HETATM   16  C   UNL     1      -7.812   7.790  66.267  1.00  0.00    -0.091 C  
HETATM   17  C   UNL     1      -7.380   7.233  65.124  1.00  0.00    -0.081 C  
HETATM   18  C   UNL     1      -6.608   5.948  65.154  1.00  0.00    -0.043 C  
HETATM   19  I   UNL     1      -7.775   8.108  63.303  1.00  0.00    -0.129 I  
HETATM   20  C   UNL     1      -6.561   5.222  66.465  1.00  0.00    -0.052 C  
HETATM   21  O   UNL     1      -6.069   5.501  64.146  1.00  0.00    -0.021 OA 
HETATM   22  I   UNL     1      -5.791   3.291  66.453  1.00  0.00    -0.025 I  
HETATM   23  C   UNL     1      -7.011   5.817  67.586  1.00  0.00    -0.066 A  
HETATM   24  O   UNL     1      -7.010   5.108  68.775  1.00  0.00    -0.050 OA 
HETATM   25  C   UNL     1      -7.209   5.748  69.966  1.00  0.00    -0.069 A  
HETATM   26  C   UNL     1      -7.077   4.988  71.143  1.00  0.00    -0.052 A  
HETATM   27  C   UNL     1      -7.276   5.588  72.390  1.00  0.00    -0.093 A  
HETATM   28  I   UNL     1      -6.577   2.937  71.047  1.00  0.00    -0.033 I  
HETATM   29  C   UNL     1      -7.565   6.951  72.450  1.00  0.00    -0.091 A  
HETATM   30  O   UNL     1      -7.202   4.862  73.548  1.00  0.00    -0.078 OA 
HETATM   31  H   UNL     1      -7.337   5.270  74.395  1.00  0.00     0.000 HD 
HETATM   32  I   UNL     1      -7.867   7.934  74.276  1.00  0.00    -0.299 I  
HETATM   33  C   UNL     1      -7.684   7.705  71.274  1.00  0.00    -0.085 A  
HETATM   34  C   UNL     1      -7.538   7.105  70.012  1.00  0.00    -0.091 A  
ENDBRANCH  12  14
TORSDOF 1
ENDMDL
MODEL       77
REMARK 921   NORMALIZED FREE ENERGY PREDICTED BY IDOCK:   -3.71 KCAL/MOL
REMARK 922        TOTAL FREE ENERGY PREDICTED BY IDOCK:   -4.63 KCAL/MOL
REMARK 923 INTER-LIGAND FREE ENERGY PREDICTED BY IDOCK:   -3.65 KCAL/MOL
REMARK 924 INTRA-LIGAND FREE ENERGY PREDICTED BY IDOCK:   -0.98 KCAL/MOL
REMARK 927      BINDING AFFINITY PREDICTED BY RF-SCORE:    0.00 PKD
ROOT
HETATM    1  O   UNL     1     -11.395   9.041  69.704  1.00  0.00    -0.063 OA 
HETATM    2  C   UNL     1     -10.530   8.508  68.813  1.00  0.00    -0.184 C  
HETATM    3  O   UNL     1     -10.779   7.484  68.205  1.00  0.00    -0.174 OA 
HETATM    4  C   UNL     1      -9.214   9.195  68.721  1.00  0.00    -0.136 A  
HETATM    5  C   UNL     1      -9.131  10.601  68.621  1.00  0.00    -0.170 A  
HETATM    6 CL   UNL     1     -10.578  11.573  68.607  1.00  0.00    -0.219 Cl 
HETATM    7  C   UNL     1      -7.877  11.234  68.510  1.00  0.00    -0.138 A  
HETATM    8 CL   UNL     1      -7.788  12.971  68.380  1.00  0.00    -0.137 Cl 
HETATM    9  C   UNL     1      -6.699  10.470  68.508  1.00  0.00    -0.056 A  
HETATM   10  C   UNL     1      -6.772   9.067  68.613  1.00  0.00    -0.058 A  
HETATM   11 CL   UNL     1      -5.151  11.254  68.356  1.00  0.00    -0.040 Cl 
HETATM   12  C   UNL     1      -8.023   8.407  68.690  1.00  0.00    -0.121 A  
HETATM   13 CL   UNL     1      -5.304   8.127  68.677  1.00  0.00    -0.031 Cl 
ENDROOT
BRANCH  12  14
HETATM   14  C   UNL     1      -8.055   6.896  68.686  1.00  0.00    -0.121 A  
HETATM   15  C   UNL     1      -8.009   6.186  67.523  1.00  0.00    -0.106 A  
HETATM   16  C   UNL     1      -7.954   6.841  66.215  1.00  0.00    -0.108 C  
HETATM   17  C   UNL     1      -7.698   6.157  65.088  1.00  0.00    -0.097 C  
HETATM   18  C   UNL     1      -7.484   4.674  65.136  1.00  0.00    -0.076 C  
HETATM   19  I   UNL     1      -7.607   7.112  63.268  1.00  0.00    -0.084 I  
HETATM   20  C   UNL     1      -7.805   3.990  66.430  1.00  0.00    -0.094 C  
HETATM   21  O   UNL     1      -7.096   4.051  64.153  1.00  0.00    -0.048 OA 
HETATM   22  I   UNL     1      -7.840   1.910  66.422  1.00  0.00    -0.078 I  
HETATM   23  C   UNL     1      -8.062   4.715  67.536  1.00  0.00    -0.101 A  
HETATM   24  O   UNL     1      -8.411   4.063  68.707  1.00  0.00    -0.080 OA 
HETATM   25  C   UNL     1      -8.425   4.733  69.898  1.00  0.00    -0.074 A  
HETATM   26  C   UNL     1      -8.672   3.985  71.063  1.00  0.00    -0.085 A  
HETATM   27  C   UNL     1      -8.705   4.618  72.308  1.00  0.00    -0.119 A  
HETATM   28  I   UNL     1      -8.997   1.899  70.951  1.00  0.00    -0.172 I  
HETATM   29  C   UNL     1      -8.449   5.987  72.382  1.00  0.00    -0.116 A  
HETATM   30  O   UNL     1      -8.991   3.922  73.452  1.00  0.00    -0.098 OA 
HETATM   31  H   UNL     1      -9.013   4.353  74.299  1.00  0.00     0.000 HD 
HETATM   32  I   UNL     1      -8.466   7.015  74.208  1.00  0.00    -0.232 I  
HETATM   33  C   UNL     1      -8.192   6.725  71.218  1.00  0.00    -0.119 A  
HETATM   34  C   UNL     1      -8.207   6.112  69.954  1.00  0.00    -0.120 A  
ENDBRANCH  12  14
TORSDOF 1
ENDMDL
MODEL       78
REMARK 921   NORMALIZED FREE ENERGY PREDICTED BY IDOCK:   -3.71 KCAL/MOL
REMARK 922        TOTAL FREE ENERGY PREDICTED BY IDOCK:   -4.63 KCAL/MOL
REMARK 923 INTER-LIGAND FREE ENERGY PREDICTED BY IDOCK:   -5.17 KCAL/MOL
REMARK 924 INTRA-LIGAND FREE ENERGY PREDICTED BY IDOCK:    0.54 KCAL/MOL
REMARK 927      BINDING AFFINITY PREDICTED BY RF-SCORE:    0.00 PKD
ROOT
HETATM    1  O   UNL     1      -8.300   8.240  63.853  1.00  0.00    -0.130 OA 
HETATM    2  C   UNL     1      -7.905   9.137  64.782  1.00  0.00    -0.119 C  
HETATM    3  O   UNL     1      -6.823   9.063  65.333  1.00  0.00    -0.071 OA 
HETATM    4  C   UNL     1      -8.932  10.143  65.166  1.00  0.00    -0.225 A  
HETATM    5  C   UNL     1      -9.679  10.832  64.185  1.00  0.00    -0.309 A  
HETATM    6 CL   UNL     1      -9.418  10.515  62.491  1.00  0.00    -0.298 Cl 
HETATM    7  C   UNL     1     -10.630  11.800  64.565  1.00  0.00    -0.313 A  
HETATM    8 CL   UNL     1     -11.542  12.648  63.344  1.00  0.00    -0.563 Cl 
HETATM    9  C   UNL     1     -10.849  12.079  65.923  1.00  0.00    -0.288 A  
HETATM   10  C   UNL     1     -10.113  11.392  66.909  1.00  0.00    -0.214 A  
HETATM   11 CL   UNL     1     -12.016  13.285  66.389  1.00  0.00    -0.452 Cl 
HETATM   12  C   UNL     1      -9.126  10.441  66.549  1.00  0.00    -0.175 A  
HETATM   13 CL   UNL     1     -10.435  11.694  68.596  1.00  0.00    -0.220 Cl 
ENDROOT
BRANCH  12  14
HETATM   14  C   UNL     1      -8.283   9.815  67.636  1.00  0.00    -0.114 A  
HETATM   15  C   UNL     1      -8.329   8.477  67.889  1.00  0.00    -0.126 A  
HETATM   16  C   UNL     1      -9.211   7.575  67.147  1.00  0.00    -0.161 C  
HETATM   17  C   UNL     1      -9.108   6.239  67.245  1.00  0.00    -0.116 C  
HETATM   18  C   UNL     1      -8.087   5.625  68.154  1.00  0.00    -0.097 C  
HETATM   19  I   UNL     1     -10.350   5.000  66.169  1.00  0.00    -0.114 I  
HETATM   20  C   UNL     1      -7.382   6.552  69.097  1.00  0.00    -0.093 C  
HETATM   21  O   UNL     1      -7.867   4.418  68.145  1.00  0.00    -0.079 OA 
HETATM   22  I   UNL     1      -6.218   5.685  70.587  1.00  0.00    -0.033 I  
HETATM   23  C   UNL     1      -7.518   7.885  68.967  1.00  0.00    -0.097 A  
HETATM   24  O   UNL     1      -6.903   8.721  69.883  1.00  0.00    -0.041 OA 
HETATM   25  C   UNL     1      -6.800  10.062  69.641  1.00  0.00    -0.078 A  
HETATM   26  C   UNL     1      -6.059  10.833  70.555  1.00  0.00    -0.109 A  
HETATM   27  C   UNL     1      -5.926  12.211  70.363  1.00  0.00    -0.103 A  
HETATM   28  I   UNL     1      -5.140   9.926  72.229  1.00  0.00     0.123 I  
HETATM   29  C   UNL     1      -6.500  12.799  69.235  1.00  0.00    -0.105 A  
HETATM   30  O   UNL     1      -5.252  12.993  71.262  1.00  0.00    -0.161 OA 
HETATM   31  H   UNL     1      -5.162  13.930  71.131  1.00  0.00     0.000 HD 
HETATM   32  I   UNL     1      -6.339  14.854  68.861  1.00  0.00    -0.108 I  
HETATM   33  C   UNL     1      -7.227  12.022  68.322  1.00  0.00    -0.090 A  
HETATM   34  C   UNL     1      -7.413  10.645  68.529  1.00  0.00    -0.093 A  
ENDBRANCH  12  14
TORSDOF 1
ENDMDL
MODEL       79
REMARK 921   NORMALIZED FREE ENERGY PREDICTED BY IDOCK:   -3.69 KCAL/MOL
REMARK 922        TOTAL FREE ENERGY PREDICTED BY IDOCK:   -4.61 KCAL/MOL
REMARK 923 INTER-LIGAND FREE ENERGY PREDICTED BY IDOCK:   -3.59 KCAL/MOL
REMARK 924 INTRA-LIGAND FREE ENERGY PREDICTED BY IDOCK:   -1.02 KCAL/MOL
REMARK 927      BINDING AFFINITY PREDICTED BY RF-SCORE:    0.00 PKD
ROOT
HETATM    1  O   UNL     1      -7.380  11.152  69.227  1.00  0.00    -0.121 OA 
HETATM    2  C   UNL     1      -7.654  12.342  68.648  1.00  0.00    -0.089 C  
HETATM    3  O   UNL     1      -7.390  13.399  69.190  1.00  0.00    -0.033 OA 
HETATM    4  C   UNL     1      -8.405  12.263  67.367  1.00  0.00    -0.177 A  
HETATM    5  C   UNL     1      -8.018  11.363  66.350  1.00  0.00    -0.088 A  
HETATM    6 CL   UNL     1      -6.645  10.312  66.575  1.00  0.00    -0.080 Cl 
HETATM    7  C   UNL     1      -8.724  11.319  65.132  1.00  0.00     0.093 A  
HETATM    8 CL   UNL     1      -8.233  10.208  63.880  1.00  0.00    -0.160 Cl 
HETATM    9  C   UNL     1      -9.826  12.164  64.924  1.00  0.00    -0.150 A  
HETATM   10  C   UNL     1     -10.223  13.061  65.936  1.00  0.00    -0.292 A  
HETATM   11 CL   UNL     1     -10.689  12.117  63.412  1.00  0.00    -0.480 Cl 
HETATM   12  C   UNL     1      -9.505  13.148  67.154  1.00  0.00    -0.239 A  
HETATM   13 CL   UNL     1     -11.633  14.061  65.700  1.00  0.00    -0.323 Cl 
ENDROOT
BRANCH  12  14
HETATM   14  C   UNL     1      -9.899  14.203  68.161  1.00  0.00    -0.229 A  
HETATM   15  C   UNL     1     -10.814  13.948  69.138  1.00  0.00    -0.220 A  
HETATM   16  C   UNL     1     -11.486  12.653  69.255  1.00  0.00    -0.354 C  
HETATM   17  C   UNL     1     -12.222  12.328  70.330  1.00  0.00    -0.262 C  
HETATM   18  C   UNL     1     -12.403  13.310  71.448  1.00  0.00    -0.074 C  
HETATM   19  I   UNL     1     -13.135  10.488  70.470  1.00  0.00     0.428 I  
HETATM   20  C   UNL     1     -11.935  14.711  71.193  1.00  0.00    -0.346 C  
HETATM   21  O   UNL     1     -12.935  12.986  72.505  1.00  0.00    -0.270 OA 
HETATM   22  I   UNL     1     -12.474  16.159  72.586  1.00  0.00    -0.254 I  
HETATM   23  C   UNL     1     -11.204  14.994  70.099  1.00  0.00    -0.260 A  
HETATM   24  O   UNL     1     -10.830  16.305  69.855  1.00  0.00    -0.331 OA 
HETATM   25  C   UNL     1      -9.884  16.595  68.912  1.00  0.00    -0.261 A  
HETATM   26  C   UNL     1      -9.466  17.933  68.800  1.00  0.00    -0.259 A  
HETATM   27  C   UNL     1      -8.506  18.289  67.849  1.00  0.00    -0.254 A  
HETATM   28  I   UNL     1     -10.279  19.423  70.060  1.00  0.00     1.947 I  
HETATM   29  C   UNL     1      -7.941  17.296  67.048  1.00  0.00    -0.214 A  
HETATM   30  O   UNL     1      -8.116  19.591  67.685  1.00  0.00    -0.274 OA 
HETATM   31  H   UNL     1      -7.463  19.833  67.038  1.00  0.00     0.000 HD 
HETATM   32  I   UNL     1      -6.487  17.738  65.606  1.00  0.00     0.455 I  
HETATM   33  C   UNL     1      -8.354  15.963  67.174  1.00  0.00    -0.231 A  
HETATM   34  C   UNL     1      -9.355  15.597  68.089  1.00  0.00    -0.194 A  
ENDBRANCH  12  14
TORSDOF 1
ENDMDL
MODEL       80
REMARK 921   NORMALIZED FREE ENERGY PREDICTED BY IDOCK:   -3.51 KCAL/MOL
REMARK 922        TOTAL FREE ENERGY PREDICTED BY IDOCK:   -4.42 KCAL/MOL
REMARK 923 INTER-LIGAND FREE ENERGY PREDICTED BY IDOCK:   -3.66 KCAL/MOL
REMARK 924 INTRA-LIGAND FREE ENERGY PREDICTED BY IDOCK:   -0.76 KCAL/MOL
REMARK 927      BINDING AFFINITY PREDICTED BY RF-SCORE:    0.00 PKD
ROOT
HETATM    1  O   UNL     1     -11.647   4.798  64.690  1.00  0.00     0.287 OA 
HETATM    2  C   UNL     1     -10.690   4.757  65.643  1.00  0.00    -0.141 C  
HETATM    3  O   UNL     1     -10.909   5.093  66.792  1.00  0.00    -0.196 OA 
HETATM    4  C   UNL     1      -9.333   4.387  65.161  1.00  0.00    -0.165 A  
HETATM    5  C   UNL     1      -9.140   3.283  64.303  1.00  0.00    -0.122 A  
HETATM    6 CL   UNL     1     -10.498   2.322  63.780  1.00  0.00    -0.110 Cl 
HETATM    7  C   UNL     1      -7.844   2.931  63.874  1.00  0.00    -0.080 A  
HETATM    8 CL   UNL     1      -7.618   1.561  62.819  1.00  0.00    -0.044 Cl 
HETATM    9  C   UNL     1      -6.735   3.685  64.291  1.00  0.00    -0.044 A  
HETATM   10  C   UNL     1      -6.919   4.792  65.143  1.00  0.00    -0.062 A  
HETATM   11 CL   UNL     1      -5.134   3.240  63.772  1.00  0.00    -0.008 Cl 
HETATM   12  C   UNL     1      -8.208   5.142  65.614  1.00  0.00    -0.119 A  
HETATM   13 CL   UNL     1      -5.546   5.765  65.604  1.00  0.00    -0.013 Cl 
ENDROOT
BRANCH  12  14
HETATM   14  C   UNL     1      -8.341   6.266  66.615  1.00  0.00    -0.112 A  
HETATM   15  C   UNL     1      -8.331   6.028  67.957  1.00  0.00    -0.116 A  
HETATM   16  C   UNL     1      -8.219   4.676  68.506  1.00  0.00    -0.083 C  
HETATM   17  C   UNL     1      -7.997   4.455  69.812  1.00  0.00    -0.056 C  
HETATM   18  C   UNL     1      -7.884   5.607  70.765  1.00  0.00    -0.093 C  
HETATM   19  I   UNL     1      -7.822   2.540  70.547  1.00  0.00    -0.058 I  
HETATM   20  C   UNL     1      -8.264   6.957  70.237  1.00  0.00    -0.129 C  
HETATM   21  O   UNL     1      -7.527   5.442  71.928  1.00  0.00    -0.088 OA 
HETATM   22  I   UNL     1      -8.437   8.502  71.618  1.00  0.00    -0.179 I  
HETATM   23  C   UNL     1      -8.483   7.133  68.920  1.00  0.00    -0.126 A  
HETATM   24  O   UNL     1      -8.887   8.375  68.461  1.00  0.00    -0.136 OA 
HETATM   25  C   UNL     1      -8.869   8.663  67.125  1.00  0.00    -0.129 A  
HETATM   26  C   UNL     1      -9.177   9.980  66.739  1.00  0.00    -0.148 A  
HETATM   27  C   UNL     1      -9.181  10.330  65.386  1.00  0.00    -0.193 A  
HETATM   28  I   UNL     1      -9.640  11.445  68.191  1.00  0.00    -0.210 I  
HETATM   29  C   UNL     1      -8.834   9.371  64.434  1.00  0.00    -0.188 A  
HETATM   30  O   UNL     1      -9.524  11.591  64.979  1.00  0.00    -0.301 OA 
HETATM   31  H   UNL     1      -9.527  11.829  64.059  1.00  0.00     0.000 HD 
HETATM   32  I   UNL     1      -8.801   9.812  62.386  1.00  0.00    -0.303 I  
HETATM   33  C   UNL     1      -8.516   8.063  64.827  1.00  0.00    -0.037 A  
HETATM   34  C   UNL     1      -8.559   7.682  66.179  1.00  0.00    -0.160 A  
ENDBRANCH  12  14
TORSDOF 1
ENDMDL
MODEL       81
REMARK 921   NORMALIZED FREE ENERGY PREDICTED BY IDOCK:   -3.50 KCAL/MOL
REMARK 922        TOTAL FREE ENERGY PREDICTED BY IDOCK:   -4.41 KCAL/MOL
REMARK 923 INTER-LIGAND FREE ENERGY PREDICTED BY IDOCK:   -4.00 KCAL/MOL
REMARK 924 INTRA-LIGAND FREE ENERGY PREDICTED BY IDOCK:   -0.41 KCAL/MOL
REMARK 927      BINDING AFFINITY PREDICTED BY RF-SCORE:    0.00 PKD
ROOT
HETATM    1  O   UNL     1     -11.524   8.405  70.494  1.00  0.00    -0.259 OA 
HETATM    2  C   UNL     1     -10.966   8.656  69.290  1.00  0.00     0.027 C  
HETATM    3  O   UNL     1     -10.682   7.765  68.511  1.00  0.00    -0.150 OA 
HETATM    4  C   UNL     1     -10.616  10.080  69.040  1.00  0.00    -0.235 A  
HETATM    5  C   UNL     1     -11.534  11.115  69.319  1.00  0.00    -0.294 A  
HETATM    6 CL   UNL     1     -13.109  10.748  69.970  1.00  0.00    -0.004 Cl 
HETATM    7  C   UNL     1     -11.197  12.457  69.053  1.00  0.00    -0.266 A  
HETATM    8 CL   UNL     1     -12.342  13.727  69.395  1.00  0.00    -0.304 Cl 
HETATM    9  C   UNL     1      -9.938  12.776  68.519  1.00  0.00    -0.164 A  
HETATM   10  C   UNL     1      -9.012  11.749  68.243  1.00  0.00    -0.180 A  
HETATM   11 CL   UNL     1      -9.528  14.434  68.178  1.00  0.00    -0.198 Cl 
HETATM   12  C   UNL     1      -9.344  10.390  68.469  1.00  0.00    -0.160 A  
HETATM   13 CL   UNL     1      -7.426  12.154  67.642  1.00  0.00    -0.118 Cl 
ENDROOT
BRANCH  12  14
HETATM   14  C   UNL     1      -8.363   9.319  68.052  1.00  0.00    -0.120 A  
HETATM   15  C   UNL     1      -8.143   9.028  66.738  1.00  0.00    -0.111 A  
HETATM   16  C   UNL     1      -8.858   9.713  65.661  1.00  0.00    -0.189 C  
HETATM   17  C   UNL     1      -8.498   9.584  64.374  1.00  0.00    -0.181 C  
HETATM   18  C   UNL     1      -7.350   8.697  63.996  1.00  0.00    -0.106 C  
HETATM   19  I   UNL     1      -9.512  10.579  62.885  1.00  0.00    -0.233 I  
HETATM   20  C   UNL     1      -6.806   7.806  65.071  1.00  0.00    -0.051 C  
HETATM   21  O   UNL     1      -6.902   8.682  62.853  1.00  0.00    -0.091 OA 
HETATM   22  I   UNL     1      -5.451   6.338  64.493  1.00  0.00    -0.019 I  
HETATM   23  C   UNL     1      -7.200   7.967  66.349  1.00  0.00    -0.082 A  
HETATM   24  O   UNL     1      -6.728   7.097  67.317  1.00  0.00    -0.059 OA 
HETATM   25  C   UNL     1      -6.893   7.378  68.645  1.00  0.00    -0.073 A  
HETATM   26  C   UNL     1      -6.285   6.513  69.573  1.00  0.00    -0.034 A  
HETATM   27  C   UNL     1      -6.425   6.747  70.944  1.00  0.00    -0.052 A  
HETATM   28  I   UNL     1      -5.156   4.852  68.915  1.00  0.00     0.000 I  
HETATM   29  C   UNL     1      -7.137   7.868  71.373  1.00  0.00    -0.060 A  
HETATM   30  O   UNL     1      -5.886   5.896  71.869  1.00  0.00    -0.029 OA 
HETATM   31  H   UNL     1      -5.981   6.055  72.801  1.00  0.00     0.000 HD 
HETATM   32  I   UNL     1      -7.386   8.303  73.407  1.00  0.00    -0.019 I  
HETATM   33  C   UNL     1      -7.729   8.732  70.442  1.00  0.00    -0.091 A  
HETATM   34  C   UNL     1      -7.641   8.481  69.062  1.00  0.00    -0.094 A  
ENDBRANCH  12  14
TORSDOF 1
ENDMDL
MODEL       82
REMARK 921   NORMALIZED FREE ENERGY PREDICTED BY IDOCK:   -3.35 KCAL/MOL
REMARK 922        TOTAL FREE ENERGY PREDICTED BY IDOCK:   -4.25 KCAL/MOL
REMARK 923 INTER-LIGAND FREE ENERGY PREDICTED BY IDOCK:   -3.42 KCAL/MOL
REMARK 924 INTRA-LIGAND FREE ENERGY PREDICTED BY IDOCK:   -0.83 KCAL/MOL
REMARK 927      BINDING AFFINITY PREDICTED BY RF-SCORE:    0.00 PKD
ROOT
HETATM    1  O   UNL     1      -6.945  11.502  69.497  1.00  0.00    -0.107 OA 
HETATM    2  C   UNL     1      -7.296  12.613  68.814  1.00  0.00    -0.066 C  
HETATM    3  O   UNL     1      -7.168  13.728  69.285  1.00  0.00    -0.069 OA 
HETATM    4  C   UNL     1      -7.956  12.368  67.503  1.00  0.00    -0.173 A  
HETATM    5  C   UNL     1      -7.423  11.441  66.582  1.00  0.00    -0.110 A  
HETATM    6 CL   UNL     1      -5.973  10.551  66.961  1.00  0.00    -0.051 Cl 
HETATM    7  C   UNL     1      -8.047  11.239  65.334  1.00  0.00     0.324 A  
HETATM    8 CL   UNL     1      -7.376  10.095  64.201  1.00  0.00    -0.130 Cl 
HETATM    9  C   UNL     1      -9.210  11.952  65.003  1.00  0.00     0.195 A  
HETATM   10  C   UNL     1      -9.752  12.875  65.919  1.00  0.00    -0.184 A  
HETATM   11 CL   UNL     1      -9.971  11.711  63.455  1.00  0.00    -0.390 Cl 
HETATM   12  C   UNL     1      -9.121  13.121  67.164  1.00  0.00    -0.230 A  
HETATM   13 CL   UNL     1     -11.233  13.711  65.532  1.00  0.00    -0.296 Cl 
ENDROOT
BRANCH  12  14
HETATM   14  C   UNL     1      -9.675  14.201  68.064  1.00  0.00    -0.226 A  
HETATM   15  C   UNL     1      -9.231  15.487  67.987  1.00  0.00    -0.187 A  
HETATM   16  C   UNL     1      -8.179  15.892  67.053  1.00  0.00    -0.255 C  
HETATM   17  C   UNL     1      -7.888  17.183  66.825  1.00  0.00    -0.242 C  
HETATM   18  C   UNL     1      -8.627  18.264  67.555  1.00  0.00    -0.250 C  
HETATM   19  I   UNL     1      -6.417  17.717  65.488  1.00  0.00     0.779 I  
HETATM   20  C   UNL     1      -9.504  17.831  68.690  1.00  0.00    -0.283 C  
HETATM   21  O   UNL     1      -8.493  19.446  67.253  1.00  0.00    -0.283 OA 
HETATM   22  I   UNL     1     -10.270  19.323  69.921  1.00  0.00     1.756 I  
HETATM   23  C   UNL     1      -9.765  16.525  68.886  1.00  0.00    -0.257 A  
HETATM   24  O   UNL     1     -10.532  16.143  69.974  1.00  0.00    -0.280 OA 
HETATM   25  C   UNL     1     -11.030  14.874  70.062  1.00  0.00    -0.206 A  
HETATM   26  C   UNL     1     -11.899  14.588  71.132  1.00  0.00    -0.292 A  
HETATM   27  C   UNL     1     -12.433  13.306  71.277  1.00  0.00    -0.258 A  
HETATM   28  I   UNL     1     -12.407  16.088  72.532  1.00  0.00    -0.495 I  
HETATM   29  C   UNL     1     -12.128  12.330  70.327  1.00  0.00    -0.295 A  
HETATM   30  O   UNL     1     -13.242  12.988  72.334  1.00  0.00    -0.480 OA 
HETATM   31  H   UNL     1     -13.606  12.115  72.433  1.00  0.00     0.000 HD 
HETATM   32  I   UNL     1     -12.895  10.385  70.459  1.00  0.00     0.048 I  
HETATM   33  C   UNL     1     -11.271  12.625  69.257  1.00  0.00    -0.255 A  
HETATM   34  C   UNL     1     -10.685  13.895  69.127  1.00  0.00    -0.175 A  
ENDBRANCH  12  14
TORSDOF 1
ENDMDL
MODEL       83
REMARK 921   NORMALIZED FREE ENERGY PREDICTED BY IDOCK:   -3.35 KCAL/MOL
REMARK 922        TOTAL FREE ENERGY PREDICTED BY IDOCK:   -4.25 KCAL/MOL
REMARK 923 INTER-LIGAND FREE ENERGY PREDICTED BY IDOCK:   -3.19 KCAL/MOL
REMARK 924 INTRA-LIGAND FREE ENERGY PREDICTED BY IDOCK:   -1.06 KCAL/MOL
REMARK 927      BINDING AFFINITY PREDICTED BY RF-SCORE:    0.00 PKD
ROOT
HETATM    1  O   UNL     1     -10.556   7.514  66.608  1.00  0.00    -0.268 OA 
HETATM    2  C   UNL     1      -9.937   6.939  67.662  1.00  0.00    -0.144 C  
HETATM    3  O   UNL     1     -10.041   7.381  68.791  1.00  0.00    -0.169 OA 
HETATM    4  C   UNL     1      -9.031   5.809  67.324  1.00  0.00    -0.112 A  
HETATM    5  C   UNL     1      -9.444   4.781  66.449  1.00  0.00    -0.158 A  
HETATM    6 CL   UNL     1     -11.033   4.814  65.734  1.00  0.00    -0.183 Cl 
HETATM    7  C   UNL     1      -8.583   3.704  66.158  1.00  0.00    -0.115 A  
HETATM    8 CL   UNL     1      -9.106   2.437  65.080  1.00  0.00    -0.130 Cl 
HETATM    9  C   UNL     1      -7.302   3.651  66.731  1.00  0.00    -0.068 A  
HETATM   10  C   UNL     1      -6.879   4.675  67.602  1.00  0.00    -0.059 A  
HETATM   11 CL   UNL     1      -6.244   2.312  66.382  1.00  0.00    -0.023 Cl 
HETATM   12  C   UNL     1      -7.742   5.749  67.936  1.00  0.00    -0.097 A  
HETATM   13 CL   UNL     1      -5.263   4.641  68.259  1.00  0.00    -0.007 Cl 
ENDROOT
BRANCH  12  14
HETATM   14  C   UNL     1      -7.286   6.761  68.961  1.00  0.00    -0.094 A  
HETATM   15  C   UNL     1      -6.657   7.913  68.592  1.00  0.00    -0.057 A  
HETATM   16  C   UNL     1      -6.363   8.224  67.193  1.00  0.00    -0.057 C  
HETATM   17  C   UNL     1      -5.939   9.439  66.809  1.00  0.00    -0.060 C  
HETATM   18  C   UNL     1      -5.725  10.521  67.824  1.00  0.00    -0.044 C  
HETATM   19  I   UNL     1      -5.555   9.849  64.828  1.00  0.00    -0.120 I  
HETATM   20  C   UNL     1      -5.773  10.110  69.264  1.00  0.00    -0.037 C  
HETATM   21  O   UNL     1      -5.491  11.677  67.487  1.00  0.00    -0.052 OA 
HETATM   22  I   UNL     1      -5.152  11.510  70.672  1.00  0.00    -0.134 I  
HETATM   23  C   UNL     1      -6.200   8.879  69.605  1.00  0.00    -0.039 A  
HETATM   24  O   UNL     1      -6.183   8.502  70.937  1.00  0.00    -0.033 OA 
HETATM   25  C   UNL     1      -6.840   7.376  71.349  1.00  0.00    -0.050 A  
HETATM   26  C   UNL     1      -6.883   7.117  72.731  1.00  0.00    -0.068 A  
HETATM   27  C   UNL     1      -7.534   5.978  73.210  1.00  0.00    -0.097 A  
HETATM   28  I   UNL     1      -5.965   8.440  74.101  1.00  0.00    -0.143 I  
HETATM   29  C   UNL     1      -8.174   5.129  72.306  1.00  0.00    -0.121 A  
HETATM   30  O   UNL     1      -7.550   5.675  74.545  1.00  0.00    -0.094 OA 
HETATM   31  H   UNL     1      -7.993   4.900  74.871  1.00  0.00     0.000 HD 
HETATM   32  I   UNL     1      -9.186   3.407  72.937  1.00  0.00    -0.149 I  
HETATM   33  C   UNL     1      -8.138   5.400  70.931  1.00  0.00    -0.112 A  
HETATM   34  C   UNL     1      -7.442   6.513  70.430  1.00  0.00    -0.094 A  
ENDBRANCH  12  14
TORSDOF 1
ENDMDL
MODEL       84
REMARK 921   NORMALIZED FREE ENERGY PREDICTED BY IDOCK:   -3.34 KCAL/MOL
REMARK 922        TOTAL FREE ENERGY PREDICTED BY IDOCK:   -4.23 KCAL/MOL
REMARK 923 INTER-LIGAND FREE ENERGY PREDICTED BY IDOCK:   -3.43 KCAL/MOL
REMARK 924 INTRA-LIGAND FREE ENERGY PREDICTED BY IDOCK:   -0.80 KCAL/MOL
REMARK 927      BINDING AFFINITY PREDICTED BY RF-SCORE:    0.00 PKD
ROOT
HETATM    1  O   UNL     1     -11.327   5.167  65.622  1.00  0.00     0.145 OA 
HETATM    2  C   UNL     1     -10.209   4.909  66.337  1.00  0.00    -0.278 C  
HETATM    3  O   UNL     1     -10.236   4.255  67.363  1.00  0.00    -0.051 OA 
HETATM    4  C   UNL     1      -8.976   5.580  65.846  1.00  0.00    -0.158 A  
HETATM    5  C   UNL     1      -8.632   5.559  64.477  1.00  0.00    -0.042 A  
HETATM    6 CL   UNL     1      -9.652   4.746  63.321  1.00  0.00     0.116 Cl 
HETATM    7  C   UNL     1      -7.447   6.178  64.031  1.00  0.00    -0.081 A  
HETATM    8 CL   UNL     1      -7.028   6.141  62.339  1.00  0.00    -0.040 Cl 
HETATM    9  C   UNL     1      -6.604   6.830  64.946  1.00  0.00    -0.043 A  
HETATM   10  C   UNL     1      -6.943   6.860  66.314  1.00  0.00    -0.069 A  
HETATM   11 CL   UNL     1      -5.133   7.582  64.395  1.00  0.00    -0.029 Cl 
HETATM   12  C   UNL     1      -8.111   6.213  66.789  1.00  0.00    -0.109 A  
HETATM   13 CL   UNL     1      -5.928   7.727  67.437  1.00  0.00    -0.047 Cl 
ENDROOT
BRANCH  12  14
HETATM   14  C   UNL     1      -8.372   6.176  68.276  1.00  0.00    -0.114 A  
HETATM   15  C   UNL     1      -7.928   5.146  69.051  1.00  0.00    -0.085 A  
HETATM   16  C   UNL     1      -7.199   4.009  68.488  1.00  0.00    -0.055 C  
HETATM   17  C   UNL     1      -6.581   3.105  69.266  1.00  0.00    -0.033 C  
HETATM   18  C   UNL     1      -6.645   3.224  70.759  1.00  0.00    -0.032 C  
HETATM   19  I   UNL     1      -5.546   1.529  68.440  1.00  0.00    -0.019 I  
HETATM   20  C   UNL     1      -7.607   4.229  71.313  1.00  0.00    -0.060 C  
HETATM   21  O   UNL     1      -5.963   2.508  71.487  1.00  0.00    -0.013 OA 
HETATM   22  I   UNL     1      -7.957   4.179  73.363  1.00  0.00    -0.091 I  
HETATM   23  C   UNL     1      -8.210   5.114  70.496  1.00  0.00    -0.102 A  
HETATM   24  O   UNL     1      -9.137   5.997  71.022  1.00  0.00    -0.142 OA 
HETATM   25  C   UNL     1      -9.573   7.066  70.289  1.00  0.00    -0.168 A  
HETATM   26  C   UNL     1     -10.422   7.989  70.925  1.00  0.00    -0.202 A  
HETATM   27  C   UNL     1     -10.904   9.097  70.224  1.00  0.00    -0.246 A  
HETATM   28  I   UNL     1     -10.984   7.716  72.945  1.00  0.00    -0.266 I  
HETATM   29  C   UNL     1     -10.497   9.296  68.904  1.00  0.00    -0.215 A  
HETATM   30  O   UNL     1     -11.770   9.984  70.803  1.00  0.00    -0.297 OA 
HETATM   31  H   UNL     1     -12.098  10.738  70.326  1.00  0.00     0.000 HD 
HETATM   32  I   UNL     1     -11.159  10.936  67.782  1.00  0.00    -0.313 I  
HETATM   33  C   UNL     1      -9.641   8.378  68.280  1.00  0.00    -0.156 A  
HETATM   34  C   UNL     1      -9.190   7.232  68.955  1.00  0.00    -0.139 A  
ENDBRANCH  12  14
TORSDOF 1
ENDMDL
MODEL       85
REMARK 921   NORMALIZED FREE ENERGY PREDICTED BY IDOCK:   -3.23 KCAL/MOL
REMARK 922        TOTAL FREE ENERGY PREDICTED BY IDOCK:   -4.13 KCAL/MOL
REMARK 923 INTER-LIGAND FREE ENERGY PREDICTED BY IDOCK:   -3.95 KCAL/MOL
REMARK 924 INTRA-LIGAND FREE ENERGY PREDICTED BY IDOCK:   -0.17 KCAL/MOL
REMARK 927      BINDING AFFINITY PREDICTED BY RF-SCORE:    0.00 PKD
ROOT
HETATM    1  O   UNL     1     -10.742   4.788  65.445  1.00  0.00    -0.179 OA 
HETATM    2  C   UNL     1      -9.634   4.695  66.212  1.00  0.00    -0.184 C  
HETATM    3  O   UNL     1      -9.574   3.951  67.173  1.00  0.00    -0.196 OA 
HETATM    4  C   UNL     1      -8.546   5.650  65.870  1.00  0.00    -0.144 A  
HETATM    5  C   UNL     1      -8.135   5.837  64.532  1.00  0.00    -0.132 A  
HETATM    6 CL   UNL     1      -8.899   4.951  63.240  1.00  0.00    -0.116 Cl 
HETATM    7  C   UNL     1      -7.086   6.727  64.227  1.00  0.00    -0.061 A  
HETATM    8 CL   UNL     1      -6.582   6.945  62.572  1.00  0.00    -0.046 Cl 
HETATM    9  C   UNL     1      -6.448   7.444  65.253  1.00  0.00    -0.041 A  
HETATM   10  C   UNL     1      -6.856   7.268  66.590  1.00  0.00    -0.065 A  
HETATM   11 CL   UNL     1      -5.143   8.533  64.875  1.00  0.00    -0.035 Cl 
HETATM   12  C   UNL     1      -7.884   6.351  66.923  1.00  0.00    -0.104 A  
HETATM   13 CL   UNL     1      -6.107   8.209  67.854  1.00  0.00    -0.046 Cl 
ENDROOT
BRANCH  12  14
HETATM   14  C   UNL     1      -8.208   6.114  68.380  1.00  0.00    -0.115 A  
HETATM   15  C   UNL     1      -8.976   6.988  69.090  1.00  0.00    -0.134 A  
HETATM   16  C   UNL     1      -9.507   8.215  68.495  1.00  0.00    -0.144 C  
HETATM   17  C   UNL     1     -10.429   8.966  69.119  1.00  0.00    -0.223 C  
HETATM   18  C   UNL     1     -10.928   8.576  70.478  1.00  0.00    -0.241 C  
HETATM   19  I   UNL     1     -11.171  10.675  68.244  1.00  0.00    -0.242 I  
HETATM   20  C   UNL     1     -10.186   7.478  71.177  1.00  0.00    -0.193 C  
HETATM   21  O   UNL     1     -11.878   9.152  71.000  1.00  0.00    -0.280 OA 
HETATM   22  I   UNL     1     -10.641   7.150  73.180  1.00  0.00    -0.391 I  
HETATM   23  C   UNL     1      -9.265   6.753  70.515  1.00  0.00    -0.156 A  
HETATM   24  O   UNL     1      -8.552   5.781  71.195  1.00  0.00    -0.126 OA 
HETATM   25  C   UNL     1      -7.806   4.861  70.513  1.00  0.00    -0.066 A  
HETATM   26  C   UNL     1      -7.204   3.830  71.258  1.00  0.00    -0.033 A  
HETATM   27  C   UNL     1      -6.424   2.865  70.615  1.00  0.00    -0.027 A  
HETATM   28  I   UNL     1      -7.466   3.724  73.353  1.00  0.00    -0.073 I  
HETATM   29  C   UNL     1      -6.288   2.914  69.227  1.00  0.00    -0.029 A  
HETATM   30  O   UNL     1      -5.788   1.880  71.320  1.00  0.00    -0.012 OA 
HETATM   31  H   UNL     1      -5.257   1.223  70.883  1.00  0.00     0.000 HD 
HETATM   32  I   UNL     1      -5.149   1.502  68.180  1.00  0.00    -0.009 I  
HETATM   33  C   UNL     1      -6.900   3.938  68.490  1.00  0.00    -0.047 A  
HETATM   34  C   UNL     1      -7.644   4.945  69.128  1.00  0.00    -0.064 A  
ENDBRANCH  12  14
TORSDOF 1
ENDMDL
MODEL       86
REMARK 921   NORMALIZED FREE ENERGY PREDICTED BY IDOCK:   -3.16 KCAL/MOL
REMARK 922        TOTAL FREE ENERGY PREDICTED BY IDOCK:   -4.05 KCAL/MOL
REMARK 923 INTER-LIGAND FREE ENERGY PREDICTED BY IDOCK:   -4.33 KCAL/MOL
REMARK 924 INTRA-LIGAND FREE ENERGY PREDICTED BY IDOCK:    0.28 KCAL/MOL
REMARK 927      BINDING AFFINITY PREDICTED BY RF-SCORE:    0.00 PKD
ROOT
HETATM    1  O   UNL     1      -5.415   8.681  68.513  1.00  0.00    -0.036 OA 
HETATM    2  C   UNL     1      -6.740   8.798  68.278  1.00  0.00    -0.065 C  
HETATM    3  O   UNL     1      -7.474   9.426  69.018  1.00  0.00    -0.071 OA 
HETATM    4  C   UNL     1      -7.249   8.009  67.124  1.00  0.00    -0.087 A  
HETATM    5  C   UNL     1      -6.583   8.026  65.880  1.00  0.00    -0.046 A  
HETATM    6 CL   UNL     1      -5.136   8.973  65.664  1.00  0.00    -0.033 Cl 
HETATM    7  C   UNL     1      -7.093   7.293  64.790  1.00  0.00    -0.064 A  
HETATM    8 CL   UNL     1      -6.265   7.326  63.255  1.00  0.00    -0.052 Cl 
HETATM    9  C   UNL     1      -8.263   6.531  64.938  1.00  0.00    -0.097 A  
HETATM   10  C   UNL     1      -8.931   6.504  66.178  1.00  0.00    -0.146 A  
HETATM   11 CL   UNL     1      -8.898   5.636  63.585  1.00  0.00     0.197 Cl 
HETATM   12  C   UNL     1      -8.456   7.262  67.277  1.00  0.00    -0.118 A  
HETATM   13 CL   UNL     1     -10.347   5.504  66.376  1.00  0.00    -0.270 Cl 
ENDROOT
BRANCH  12  14
HETATM   14  C   UNL     1      -9.269   7.291  68.550  1.00  0.00    -0.138 A  
HETATM   15  C   UNL     1     -10.049   8.361  68.873  1.00  0.00    -0.209 A  
HETATM   16  C   UNL     1     -10.125   9.550  68.023  1.00  0.00    -0.226 C  
HETATM   17  C   UNL     1     -11.044  10.509  68.223  1.00  0.00    -0.284 C  
HETATM   18  C   UNL     1     -12.016  10.400  69.360  1.00  0.00    -0.079 C  
HETATM   19  I   UNL     1     -11.137  12.159  66.996  1.00  0.00    -0.411 I  
HETATM   20  C   UNL     1     -11.753   9.322  70.367  1.00  0.00    -0.114 C  
HETATM   21  O   UNL     1     -12.959  11.176  69.472  1.00  0.00    -0.031 OA 
HETATM   22  I   UNL     1     -12.879   9.362  72.115  1.00  0.00    -0.380 I  
HETATM   23  C   UNL     1     -10.818   8.383  70.128  1.00  0.00    -0.236 A  
HETATM   24  O   UNL     1     -10.553   7.430  71.097  1.00  0.00    -0.220 OA 
HETATM   25  C   UNL     1      -9.811   6.322  70.798  1.00  0.00    -0.185 A  
HETATM   26  C   UNL     1      -9.681   5.337  71.794  1.00  0.00    -0.158 A  
HETATM   27  C   UNL     1      -8.928   4.186  71.547  1.00  0.00    -0.119 A  
HETATM   28  I   UNL     1     -10.616   5.580  73.674  1.00  0.00    -0.238 I  
HETATM   29  C   UNL     1      -8.347   4.010  70.291  1.00  0.00    -0.060 A  
HETATM   30  O   UNL     1      -8.745   3.235  72.514  1.00  0.00    -0.083 OA 
HETATM   31  H   UNL     1      -8.233   2.452  72.346  1.00  0.00     0.000 HD 
HETATM   32  I   UNL     1      -7.213   2.310  69.829  1.00  0.00    -0.035 I  
HETATM   33  C   UNL     1      -8.490   4.990  69.299  1.00  0.00    -0.091 A  
HETATM   34  C   UNL     1      -9.200   6.176  69.549  1.00  0.00    -0.143 A  
ENDBRANCH  12  14
TORSDOF 1
ENDMDL
MODEL       87
REMARK 921   NORMALIZED FREE ENERGY PREDICTED BY IDOCK:   -3.11 KCAL/MOL
REMARK 922        TOTAL FREE ENERGY PREDICTED BY IDOCK:   -4.00 KCAL/MOL
REMARK 923 INTER-LIGAND FREE ENERGY PREDICTED BY IDOCK:   -3.04 KCAL/MOL
REMARK 924 INTRA-LIGAND FREE ENERGY PREDICTED BY IDOCK:   -0.96 KCAL/MOL
REMARK 927      BINDING AFFINITY PREDICTED BY RF-SCORE:    0.00 PKD
ROOT
HETATM    1  O   UNL     1     -10.585   7.577  66.630  1.00  0.00    -0.268 OA 
HETATM    2  C   UNL     1      -9.934   6.961  67.641  1.00  0.00    -0.144 C  
HETATM    3  O   UNL     1      -9.980   7.374  68.785  1.00  0.00    -0.161 OA 
HETATM    4  C   UNL     1      -9.066   5.824  67.234  1.00  0.00    -0.110 A  
HETATM    5  C   UNL     1      -9.537   4.829  66.350  1.00  0.00    -0.177 A  
HETATM    6 CL   UNL     1     -11.155   4.913  65.706  1.00  0.00    -0.082 Cl 
HETATM    7  C   UNL     1      -8.711   3.744  65.994  1.00  0.00    -0.117 A  
HETATM    8 CL   UNL     1      -9.306   2.518  64.906  1.00  0.00    -0.135 Cl 
HETATM    9  C   UNL     1      -7.409   3.651  66.509  1.00  0.00    -0.072 A  
HETATM   10  C   UNL     1      -6.928   4.642  67.388  1.00  0.00    -0.061 A  
HETATM   11 CL   UNL     1      -6.395   2.301  66.079  1.00  0.00    -0.024 Cl 
HETATM   12  C   UNL     1      -7.754   5.722  67.787  1.00  0.00    -0.097 A  
HETATM   13 CL   UNL     1      -5.287   4.558  67.973  1.00  0.00    -0.011 Cl 
ENDROOT
BRANCH  12  14
HETATM   14  C   UNL     1      -7.234   6.697  68.819  1.00  0.00    -0.085 A  
HETATM   15  C   UNL     1      -7.370   6.459  70.154  1.00  0.00    -0.086 A  
HETATM   16  C   UNL     1      -8.045   5.266  70.666  1.00  0.00    -0.108 C  
HETATM   17  C   UNL     1      -7.996   4.923  71.963  1.00  0.00    -0.110 C  
HETATM   18  C   UNL     1      -7.258   5.783  72.945  1.00  0.00    -0.090 C  
HETATM   19  I   UNL     1      -8.939   3.225  72.646  1.00  0.00    -0.136 I  
HETATM   20  C   UNL     1      -6.805   7.124  72.456  1.00  0.00    -0.064 C  
HETATM   21  O   UNL     1      -7.065   5.414  74.100  1.00  0.00    -0.077 OA 
HETATM   22  I   UNL     1      -6.084   8.459  73.878  1.00  0.00    -0.117 I  
HETATM   23  C   UNL     1      -6.877   7.429  71.146  1.00  0.00    -0.050 A  
HETATM   24  O   UNL     1      -6.505   8.694  70.724  1.00  0.00    -0.037 OA 
HETATM   25  C   UNL     1      -6.318   8.957  69.396  1.00  0.00    -0.044 A  
HETATM   26  C   UNL     1      -5.826  10.228  69.047  1.00  0.00    -0.037 A  
HETATM   27  C   UNL     1      -5.622  10.556  67.704  1.00  0.00    -0.044 A  
HETATM   28  I   UNL     1      -5.389  11.658  70.541  1.00  0.00    -0.130 I  
HETATM   29  C   UNL     1      -5.872   9.595  66.724  1.00  0.00    -0.055 A  
HETATM   30  O   UNL     1      -5.190  11.800  67.334  1.00  0.00    -0.060 OA 
HETATM   31  H   UNL     1      -5.051  12.023  66.420  1.00  0.00     0.000 HD 
HETATM   32  I   UNL     1      -5.581   9.995  64.688  1.00  0.00    -0.135 I  
HETATM   33  C   UNL     1      -6.351   8.326  67.080  1.00  0.00    -0.056 A  
HETATM   34  C   UNL     1      -6.611   8.000  68.421  1.00  0.00    -0.059 A  
ENDBRANCH  12  14
TORSDOF 1
ENDMDL
MODEL       88
REMARK 921   NORMALIZED FREE ENERGY PREDICTED BY IDOCK:   -2.75 KCAL/MOL
REMARK 922        TOTAL FREE ENERGY PREDICTED BY IDOCK:   -3.62 KCAL/MOL
REMARK 923 INTER-LIGAND FREE ENERGY PREDICTED BY IDOCK:   -3.84 KCAL/MOL
REMARK 924 INTRA-LIGAND FREE ENERGY PREDICTED BY IDOCK:    0.22 KCAL/MOL
REMARK 927      BINDING AFFINITY PREDICTED BY RF-SCORE:    0.00 PKD
ROOT
HETATM    1  O   UNL     1     -10.965   5.256  65.769  1.00  0.00    -0.040 OA 
HETATM    2  C   UNL     1     -10.066   5.462  66.756  1.00  0.00    -0.214 C  
HETATM    3  O   UNL     1     -10.274   5.110  67.903  1.00  0.00    -0.165 OA 
HETATM    4  C   UNL     1      -8.867   6.251  66.365  1.00  0.00    -0.147 A  
HETATM    5  C   UNL     1      -8.155   5.955  65.182  1.00  0.00    -0.131 A  
HETATM    6 CL   UNL     1      -8.669   4.654  64.143  1.00  0.00    -0.142 Cl 
HETATM    7  C   UNL     1      -7.007   6.697  64.839  1.00  0.00    -0.058 A  
HETATM    8 CL   UNL     1      -6.131   6.318  63.379  1.00  0.00    -0.022 Cl 
HETATM    9  C   UNL     1      -6.569   7.743  65.667  1.00  0.00    -0.045 A  
HETATM   10  C   UNL     1      -7.277   8.048  66.846  1.00  0.00    -0.082 A  
HETATM   11 CL   UNL     1      -5.141   8.648  65.247  1.00  0.00    -0.034 Cl 
HETATM   12  C   UNL     1      -8.413   7.293  67.229  1.00  0.00    -0.118 A  
HETATM   13 CL   UNL     1      -6.768   9.391  67.837  1.00  0.00    -0.066 Cl 
ENDROOT
BRANCH  12  14
HETATM   14  C   UNL     1      -9.071   7.585  68.558  1.00  0.00    -0.134 A  
HETATM   15  C   UNL     1      -8.866   6.787  69.643  1.00  0.00    -0.144 A  
HETATM   16  C   UNL     1      -8.023   5.592  69.582  1.00  0.00    -0.093 C  
HETATM   17  C   UNL     1      -7.649   4.927  70.687  1.00  0.00    -0.066 C  
HETATM   18  C   UNL     1      -8.117   5.382  72.037  1.00  0.00    -0.114 C  
HETATM   19  I   UNL     1      -6.445   3.262  70.565  1.00  0.00    -0.033 I  
HETATM   20  C   UNL     1      -9.184   6.434  72.059  1.00  0.00    -0.148 C  
HETATM   21  O   UNL     1      -7.667   4.892  73.068  1.00  0.00    -0.090 OA 
HETATM   22  I   UNL     1     -10.080   6.837  73.892  1.00  0.00    -0.301 I  
HETATM   23  C   UNL     1      -9.531   7.072  70.926  1.00  0.00    -0.160 A  
HETATM   24  O   UNL     1     -10.558   8.001  70.960  1.00  0.00    -0.210 OA 
HETATM   25  C   UNL     1     -10.765   8.847  69.906  1.00  0.00    -0.227 A  
HETATM   26  C   UNL     1     -11.747   9.843  70.055  1.00  0.00    -0.124 A  
HETATM   27  C   UNL     1     -12.007  10.732  69.009  1.00  0.00    -0.186 A  
HETATM   28  I   UNL     1     -12.841  10.012  71.856  1.00  0.00    -0.353 I  
HETATM   29  C   UNL     1     -11.254  10.644  67.838  1.00  0.00    -0.308 A  
HETATM   30  O   UNL     1     -12.989  11.680  69.109  1.00  0.00     0.480 OA 
HETATM   31  H   UNL     1     -13.166  12.285  68.398  1.00  0.00     0.000 HD 
HETATM   32  I   UNL     1     -11.567  11.943  66.225  1.00  0.00     0.104 I  
HETATM   33  C   UNL     1     -10.269   9.656  67.701  1.00  0.00    -0.267 A  
HETATM   34  C   UNL     1     -10.032   8.722  68.724  1.00  0.00    -0.197 A  
ENDBRANCH  12  14
TORSDOF 1
ENDMDL
MODEL       89
REMARK 921   NORMALIZED FREE ENERGY PREDICTED BY IDOCK:   -2.74 KCAL/MOL
REMARK 922        TOTAL FREE ENERGY PREDICTED BY IDOCK:   -3.60 KCAL/MOL
REMARK 923 INTER-LIGAND FREE ENERGY PREDICTED BY IDOCK:   -3.13 KCAL/MOL
REMARK 924 INTRA-LIGAND FREE ENERGY PREDICTED BY IDOCK:   -0.46 KCAL/MOL
REMARK 927      BINDING AFFINITY PREDICTED BY RF-SCORE:    0.00 PKD
ROOT
HETATM    1  O   UNL     1     -11.612  13.898  70.711  1.00  0.00    -0.150 OA 
HETATM    2  C   UNL     1     -11.172  13.711  69.447  1.00  0.00    -0.196 C  
HETATM    3  O   UNL     1     -11.312  12.651  68.866  1.00  0.00    -0.260 OA 
HETATM    4  C   UNL     1     -10.405  14.847  68.870  1.00  0.00    -0.244 A  
HETATM    5  C   UNL     1     -10.879  16.173  68.974  1.00  0.00    -0.299 A  
HETATM    6 CL   UNL     1     -12.380  16.514  69.791  1.00  0.00     0.851 Cl 
HETATM    7  C   UNL     1     -10.153  17.235  68.400  1.00  0.00    -0.333 A  
HETATM    8 CL   UNL     1     -10.750  18.868  68.529  1.00  0.00    -0.007 Cl 
HETATM    9  C   UNL     1      -8.946  16.982  67.728  1.00  0.00    -0.224 A  
HETATM   10  C   UNL     1      -8.463  15.663  67.624  1.00  0.00    -0.157 A  
HETATM   11 CL   UNL     1      -8.057  18.296  67.007  1.00  0.00    -0.232 Cl 
HETATM   12  C   UNL     1      -9.195  14.576  68.163  1.00  0.00    -0.195 A  
HETATM   13 CL   UNL     1      -6.931  15.361  66.847  1.00  0.00     0.082 Cl 
ENDROOT
BRANCH  12  14
HETATM   14  C   UNL     1      -8.695  13.169  67.927  1.00  0.00    -0.192 A  
HETATM   15  C   UNL     1      -9.179  12.403  66.909  1.00  0.00    -0.209 A  
HETATM   16  C   UNL     1     -10.224  12.884  66.005  1.00  0.00    -0.293 C  
HETATM   17  C   UNL     1     -10.552  12.223  64.882  1.00  0.00    -0.293 C  
HETATM   18  C   UNL     1      -9.862  10.938  64.533  1.00  0.00    -0.300 C  
HETATM   19  I   UNL     1     -12.012  12.939  63.621  1.00  0.00    -0.465 I  
HETATM   20  C   UNL     1      -8.995  10.331  65.593  1.00  0.00    -0.172 C  
HETATM   21  O   UNL     1     -10.029  10.399  63.443  1.00  0.00    -0.267 OA 
HETATM   22  I   UNL     1      -8.303   8.398  65.261  1.00  0.00    -0.126 I  
HETATM   23  C   UNL     1      -8.696  11.027  66.706  1.00  0.00    -0.152 A  
HETATM   24  O   UNL     1      -7.939  10.425  67.698  1.00  0.00    -0.105 OA 
HETATM   25  C   UNL     1      -7.402  11.170  68.710  1.00  0.00    -0.114 A  
HETATM   26  C   UNL     1      -6.546  10.516  69.615  1.00  0.00    -0.098 A  
HETATM   27  C   UNL     1      -5.973  11.225  70.675  1.00  0.00    -0.059 A  
HETATM   28  I   UNL     1      -6.115   8.458  69.391  1.00  0.00    -0.038 I  
HETATM   29  C   UNL     1      -6.228  12.591  70.795  1.00  0.00     0.554 A  
HETATM   30  O   UNL     1      -5.176  10.603  71.597  1.00  0.00    -0.202 OA 
HETATM   31  H   UNL     1      -4.787  11.085  72.318  1.00  0.00     0.000 HD 
HETATM   32  I   UNL     1      -5.401  13.734  72.343  1.00  0.00     0.087 I  
HETATM   33  C   UNL     1      -7.072  13.239  69.882  1.00  0.00     0.589 A  
HETATM   34  C   UNL     1      -7.697  12.529  68.843  1.00  0.00     0.085 A  
ENDBRANCH  12  14
TORSDOF 1
ENDMDL
MODEL       90
REMARK 921   NORMALIZED FREE ENERGY PREDICTED BY IDOCK:   -2.63 KCAL/MOL
REMARK 922        TOTAL FREE ENERGY PREDICTED BY IDOCK:   -3.49 KCAL/MOL
REMARK 923 INTER-LIGAND FREE ENERGY PREDICTED BY IDOCK:   -2.51 KCAL/MOL
REMARK 924 INTRA-LIGAND FREE ENERGY PREDICTED BY IDOCK:   -0.98 KCAL/MOL
REMARK 927      BINDING AFFINITY PREDICTED BY RF-SCORE:    0.00 PKD
ROOT
HETATM    1  O   UNL     1      -6.015  10.898  68.780  1.00  0.00    -0.040 OA 
HETATM    2  C   UNL     1      -7.267  10.511  69.112  1.00  0.00    -0.099 C  
HETATM    3  O   UNL     1      -7.517   9.977  70.176  1.00  0.00    -0.157 OA 
HETATM    4  C   UNL     1      -8.285  10.676  68.040  1.00  0.00    -0.113 A  
HETATM    5  C   UNL     1      -8.380  11.879  67.305  1.00  0.00    -0.169 A  
HETATM    6 CL   UNL     1      -7.299  13.205  67.636  1.00  0.00    -0.140 Cl 
HETATM    7  C   UNL     1      -9.366  12.028  66.310  1.00  0.00    -0.223 A  
HETATM    8 CL   UNL     1      -9.480  13.520  65.414  1.00  0.00     0.109 Cl 
HETATM    9  C   UNL     1     -10.255  10.977  66.034  1.00  0.00    -0.252 A  
HETATM   10  C   UNL     1     -10.163   9.771  66.758  1.00  0.00    -0.233 A  
HETATM   11 CL   UNL     1     -11.482  11.169  64.813  1.00  0.00     0.042 Cl 
HETATM   12  C   UNL     1      -9.203   9.612  67.788  1.00  0.00    -0.135 A  
HETATM   13 CL   UNL     1     -11.226   8.444  66.367  1.00  0.00     1.526 Cl 
ENDROOT
BRANCH  12  14
HETATM   14  C   UNL     1      -9.217   8.346  68.612  1.00  0.00    -0.143 A  
HETATM   15  C   UNL     1     -10.050   8.202  69.681  1.00  0.00    -0.199 A  
HETATM   16  C   UNL     1     -10.956   9.269  70.109  1.00  0.00    -0.278 C  
HETATM   17  C   UNL     1     -11.920   9.061  71.020  1.00  0.00    -0.269 C  
HETATM   18  C   UNL     1     -12.080   7.712  71.656  1.00  0.00    -0.306 C  
HETATM   19  I   UNL     1     -13.191  10.579  71.583  1.00  0.00    -0.235 I  
HETATM   20  C   UNL     1     -10.988   6.718  71.407  1.00  0.00    -0.242 C  
HETATM   21  O   UNL     1     -13.044   7.452  72.370  1.00  0.00     0.034 OA 
HETATM   22  I   UNL     1     -11.016   4.973  72.538  1.00  0.00    -0.097 I  
HETATM   23  C   UNL     1     -10.037   6.970  70.487  1.00  0.00    -0.191 A  
HETATM   24  O   UNL     1      -9.006   6.062  70.313  1.00  0.00    -0.144 OA 
HETATM   25  C   UNL     1      -8.178   6.150  69.229  1.00  0.00    -0.116 A  
HETATM   26  C   UNL     1      -7.229   5.127  69.051  1.00  0.00    -0.057 A  
HETATM   27  C   UNL     1      -6.351   5.168  67.964  1.00  0.00    -0.040 A  
HETATM   28  I   UNL     1      -7.113   3.519  70.418  1.00  0.00    -0.037 I  
HETATM   29  C   UNL     1      -6.459   6.209  67.041  1.00  0.00    -0.053 A  
HETATM   30  O   UNL     1      -5.386   4.212  67.793  1.00  0.00    -0.014 OA 
HETATM   31  H   UNL     1      -4.789   4.240  67.054  1.00  0.00     0.000 HD 
HETATM   32  I   UNL     1      -5.194   6.342  65.377  1.00  0.00    -0.014 I  
HETATM   33  C   UNL     1      -7.415   7.219  67.219  1.00  0.00    -0.099 A  
HETATM   34  C   UNL     1      -8.269   7.220  68.334  1.00  0.00    -0.125 A  
ENDBRANCH  12  14
TORSDOF 1
ENDMDL
MODEL       91
REMARK 921   NORMALIZED FREE ENERGY PREDICTED BY IDOCK:   -2.52 KCAL/MOL
REMARK 922        TOTAL FREE ENERGY PREDICTED BY IDOCK:   -3.37 KCAL/MOL
REMARK 923 INTER-LIGAND FREE ENERGY PREDICTED BY IDOCK:   -2.39 KCAL/MOL
REMARK 924 INTRA-LIGAND FREE ENERGY PREDICTED BY IDOCK:   -0.98 KCAL/MOL
REMARK 927      BINDING AFFINITY PREDICTED BY RF-SCORE:    0.00 PKD
ROOT
HETATM    1  O   UNL     1     -10.985  14.849  71.268  1.00  0.00    -0.146 OA 
HETATM    2  C   UNL     1     -10.740  14.578  69.968  1.00  0.00     0.075 C  
HETATM    3  O   UNL     1     -11.039  13.513  69.462  1.00  0.00    -0.175 OA 
HETATM    4  C   UNL     1      -9.975  15.625  69.237  1.00  0.00    -0.265 A  
HETATM    5  C   UNL     1     -10.327  16.988  69.340  1.00  0.00    -0.230 A  
HETATM    6 CL   UNL     1     -11.671  17.483  70.334  1.00  0.00     2.707 Cl 
HETATM    7  C   UNL     1      -9.608  17.965  68.622  1.00  0.00    -0.328 A  
HETATM    8 CL   UNL     1     -10.056  19.645  68.751  1.00  0.00    -0.547 Cl 
HETATM    9  C   UNL     1      -8.529  17.588  67.806  1.00  0.00    -0.225 A  
HETATM   10  C   UNL     1      -8.167  16.231  67.703  1.00  0.00    -0.153 A  
HETATM   11 CL   UNL     1      -7.650  18.796  66.909  1.00  0.00    -0.228 Cl 
HETATM   12  C   UNL     1      -8.899  15.229  68.388  1.00  0.00    -0.179 A  
HETATM   13 CL   UNL     1      -6.785  15.774  66.742  1.00  0.00     0.144 Cl 
ENDROOT
BRANCH  12  14
HETATM   14  C   UNL     1      -8.544  13.778  68.156  1.00  0.00    -0.175 A  
HETATM   15  C   UNL     1      -7.614  13.142  68.922  1.00  0.00     0.040 A  
HETATM   16  C   UNL     1      -6.887  13.828  69.991  1.00  0.00     0.225 C  
HETATM   17  C   UNL     1      -6.131  13.161  70.878  1.00  0.00     0.234 C  
HETATM   18  C   UNL     1      -5.987  11.672  70.780  1.00  0.00     0.092 C  
HETATM   19  I   UNL     1      -5.139  14.155  72.383  1.00  0.00    -0.220 I  
HETATM   20  C   UNL     1      -6.515  11.026  69.535  1.00  0.00    -0.109 C  
HETATM   21  O   UNL     1      -5.435  11.023  71.664  1.00  0.00    -0.329 OA 
HETATM   22  I   UNL     1      -6.031   9.027  69.225  1.00  0.00    -0.042 I  
HETATM   23  C   UNL     1      -7.264  11.734  68.669  1.00  0.00    -0.112 A  
HETATM   24  O   UNL     1      -7.695  11.132  67.498  1.00  0.00    -0.109 OA 
HETATM   25  C   UNL     1      -8.658  11.721  66.728  1.00  0.00    -0.185 A  
HETATM   26  C   UNL     1      -9.133  11.000  65.617  1.00  0.00    -0.206 A  
HETATM   27  C   UNL     1     -10.113  11.555  64.790  1.00  0.00    -0.269 A  
HETATM   28  I   UNL     1      -8.377   9.075  65.182  1.00  0.00    -0.203 I  
HETATM   29  C   UNL     1     -10.640  12.808  65.104  1.00  0.00    -0.302 A  
HETATM   30  O   UNL     1     -10.559  10.897  63.676  1.00  0.00    -0.526 OA 
HETATM   31  H   UNL     1     -11.225  11.274  63.113  1.00  0.00     0.000 HD 
HETATM   32  I   UNL     1     -12.120  13.709  63.927  1.00  0.00    -0.116 I  
HETATM   33  C   UNL     1     -10.169  13.516  66.219  1.00  0.00    -0.299 A  
HETATM   34  C   UNL     1      -9.148  12.994  67.031  1.00  0.00    -0.230 A  
ENDBRANCH  12  14
TORSDOF 1
ENDMDL
MODEL       92
REMARK 921   NORMALIZED FREE ENERGY PREDICTED BY IDOCK:   -1.87 KCAL/MOL
REMARK 922        TOTAL FREE ENERGY PREDICTED BY IDOCK:   -2.68 KCAL/MOL
REMARK 923 INTER-LIGAND FREE ENERGY PREDICTED BY IDOCK:   -2.07 KCAL/MOL
REMARK 924 INTRA-LIGAND FREE ENERGY PREDICTED BY IDOCK:   -0.61 KCAL/MOL
REMARK 927      BINDING AFFINITY PREDICTED BY RF-SCORE:    0.00 PKD
ROOT
HETATM    1  O   UNL     1     -11.881   7.963  68.418  1.00  0.00     1.575 OA 
HETATM    2  C   UNL     1     -10.635   8.484  68.394  1.00  0.00    -0.111 C  
HETATM    3  O   UNL     1     -10.258   9.215  67.497  1.00  0.00    -0.212 OA 
HETATM    4  C   UNL     1      -9.728   8.006  69.472  1.00  0.00    -0.170 A  
HETATM    5  C   UNL     1     -10.156   7.962  70.817  1.00  0.00    -0.192 A  
HETATM    6 CL   UNL     1     -11.767   8.466  71.249  1.00  0.00    -0.313 Cl 
HETATM    7  C   UNL     1      -9.276   7.529  71.829  1.00  0.00    -0.140 A  
HETATM    8 CL   UNL     1      -9.813   7.485  73.488  1.00  0.00    -0.360 Cl 
HETATM    9  C   UNL     1      -7.970   7.129  71.505  1.00  0.00    -0.102 A  
HETATM   10  C   UNL     1      -7.537   7.164  70.165  1.00  0.00    -0.091 A  
HETATM   11 CL   UNL     1      -6.881   6.608  72.760  1.00  0.00    -0.068 Cl 
HETATM   12  C   UNL     1      -8.393   7.629  69.136  1.00  0.00    -0.131 A  
HETATM   13 CL   UNL     1      -5.936   6.603  69.758  1.00  0.00    -0.022 Cl 
ENDROOT
BRANCH  12  14
HETATM   14  C   UNL     1      -7.846   7.756  67.733  1.00  0.00    -0.123 A  
HETATM   15  C   UNL     1      -7.341   8.934  67.270  1.00  0.00    -0.080 A  
HETATM   16  C   UNL     1      -7.321  10.146  68.089  1.00  0.00    -0.082 C  
HETATM   17  C   UNL     1      -6.640  11.243  67.720  1.00  0.00    -0.068 C  
HETATM   18  C   UNL     1      -5.890  11.266  66.422  1.00  0.00    -0.136 C  
HETATM   19  I   UNL     1      -6.615  12.924  68.908  1.00  0.00    -0.070 I  
HETATM   20  C   UNL     1      -6.138  10.126  65.482  1.00  0.00    -0.099 C  
HETATM   21  O   UNL     1      -5.135  12.190  66.135  1.00  0.00    -0.160 OA 
HETATM   22  I   UNL     1      -5.378  10.302  63.554  1.00  0.00    -0.150 I  
HETATM   23  C   UNL     1      -6.832   9.047  65.892  1.00  0.00    -0.080 A  
HETATM   24  O   UNL     1      -7.098   8.030  64.991  1.00  0.00    -0.065 OA 
HETATM   25  C   UNL     1      -7.565   6.821  65.424  1.00  0.00    -0.090 A  
HETATM   26  C   UNL     1      -7.699   5.795  64.470  1.00  0.00    -0.095 A  
HETATM   27  C   UNL     1      -8.178   4.540  64.854  1.00  0.00    -0.107 A  
HETATM   28  I   UNL     1      -7.184   6.134  62.449  1.00  0.00    -0.060 I  
HETATM   29  C   UNL     1      -8.478   4.308  66.197  1.00  0.00    -0.112 A  
HETATM   30  O   UNL     1      -8.365   3.540  63.939  1.00  0.00    -0.089 OA 
HETATM   31  H   UNL     1      -8.690   2.686  64.201  1.00  0.00     0.000 HD 
HETATM   32  I   UNL     1      -9.188   2.454  66.864  1.00  0.00     0.150 I  
HETATM   33  C   UNL     1      -8.330   5.331  67.144  1.00  0.00    -0.107 A  
HETATM   34  C   UNL     1      -7.900   6.614  66.765  1.00  0.00    -0.107 A  
ENDBRANCH  12  14
TORSDOF 1
ENDMDL
MODEL       93
REMARK 921   NORMALIZED FREE ENERGY PREDICTED BY IDOCK:   -0.74 KCAL/MOL
REMARK 922        TOTAL FREE ENERGY PREDICTED BY IDOCK:   -1.48 KCAL/MOL
REMARK 923 INTER-LIGAND FREE ENERGY PREDICTED BY IDOCK:   -0.88 KCAL/MOL
REMARK 924 INTRA-LIGAND FREE ENERGY PREDICTED BY IDOCK:   -0.61 KCAL/MOL
REMARK 927      BINDING AFFINITY PREDICTED BY RF-SCORE:    0.00 PKD
ROOT
HETATM    1  O   UNL     1      -8.173   8.695  64.125  1.00  0.00    -0.160 OA 
HETATM    2  C   UNL     1      -7.899   8.505  65.435  1.00  0.00    -0.107 C  
HETATM    3  O   UNL     1      -6.842   8.034  65.811  1.00  0.00    -0.055 OA 
HETATM    4  C   UNL     1      -9.022   8.798  66.365  1.00  0.00    -0.194 A  
HETATM    5  C   UNL     1      -9.775   9.986  66.246  1.00  0.00    -0.214 A  
HETATM    6 CL   UNL     1      -9.408  11.144  64.995  1.00  0.00    -0.242 Cl 
HETATM    7  C   UNL     1     -10.820  10.260  67.150  1.00  0.00    -0.212 A  
HETATM    8 CL   UNL     1     -11.739  11.734  66.998  1.00  0.00    -0.322 Cl 
HETATM    9  C   UNL     1     -11.127   9.347  68.172  1.00  0.00     0.059 A  
HETATM   10  C   UNL     1     -10.385   8.156  68.294  1.00  0.00    -0.197 A  
HETATM   11 CL   UNL     1     -12.410   9.695  69.297  1.00  0.00     0.975 Cl 
HETATM   12  C   UNL     1      -9.306   7.876  67.418  1.00  0.00    -0.169 A  
HETATM   13 CL   UNL     1     -10.811   6.993  69.523  1.00  0.00    -0.262 Cl 
ENDROOT
BRANCH  12  14
HETATM   14  C   UNL     1      -8.469   6.642  67.660  1.00  0.00    -0.121 A  
HETATM   15  C   UNL     1      -8.572   5.544  66.859  1.00  0.00    -0.110 A  
HETATM   16  C   UNL     1      -9.514   5.484  65.741  1.00  0.00    -0.071 C  
HETATM   17  C   UNL     1      -9.472   4.500  64.828  1.00  0.00    -0.121 C  
HETATM   18  C   UNL     1      -8.460   3.400  64.948  1.00  0.00    -0.101 C  
HETATM   19  I   UNL     1     -10.798   4.458  63.255  1.00  0.00     1.195 I  
HETATM   20  C   UNL     1      -7.689   3.334  66.231  1.00  0.00    -0.078 C  
HETATM   21  O   UNL     1      -8.298   2.580  64.050  1.00  0.00    -0.082 OA 
HETATM   22  I   UNL     1      -6.532   1.636  66.556  1.00  0.00    -0.023 I  
HETATM   23  C   UNL     1      -7.764   4.341  67.122  1.00  0.00    -0.092 A  
HETATM   24  O   UNL     1      -7.087   4.233  68.325  1.00  0.00    -0.057 OA 
HETATM   25  C   UNL     1      -6.927   5.324  69.132  1.00  0.00    -0.056 A  
HETATM   26  C   UNL     1      -6.128   5.172  70.280  1.00  0.00    -0.018 A  
HETATM   27  C   UNL     1      -5.934   6.251  71.146  1.00  0.00    -0.031 A  
HETATM   28  I   UNL     1      -5.212   3.317  70.713  1.00  0.00    -0.004 I  
HETATM   29  C   UNL     1      -6.506   7.485  70.835  1.00  0.00    -0.039 A  
HETATM   30  O   UNL     1      -5.201   6.118  72.295  1.00  0.00    -0.021 OA 
HETATM   31  H   UNL     1      -5.070   6.852  72.884  1.00  0.00     0.000 HD 
HETATM   32  I   UNL     1      -6.257   9.159  72.070  1.00  0.00     0.243 I  
HETATM   33  C   UNL     1      -7.291   7.632  69.683  1.00  0.00    -0.089 A  
HETATM   34  C   UNL     1      -7.538   6.544  68.830  1.00  0.00    -0.100 A  
ENDBRANCH  12  14
TORSDOF 1
ENDMDL
MODEL       94
REMARK 921   NORMALIZED FREE ENERGY PREDICTED BY IDOCK:   -0.38 KCAL/MOL
REMARK 922        TOTAL FREE ENERGY PREDICTED BY IDOCK:   -1.10 KCAL/MOL
REMARK 923 INTER-LIGAND FREE ENERGY PREDICTED BY IDOCK:   -0.16 KCAL/MOL
REMARK 924 INTRA-LIGAND FREE ENERGY PREDICTED BY IDOCK:   -0.94 KCAL/MOL
REMARK 927      BINDING AFFINITY PREDICTED BY RF-SCORE:    0.00 PKD
ROOT
HETATM    1  O   UNL     1      -5.980   8.978  69.188  1.00  0.00    -0.041 OA 
HETATM    2  C   UNL     1      -7.104   9.724  69.120  1.00  0.00    -0.067 C  
HETATM    3  O   UNL     1      -7.658  10.148  70.117  1.00  0.00    -0.167 OA 
HETATM    4  C   UNL     1      -7.676   9.883  67.756  1.00  0.00    -0.091 A  
HETATM    5  C   UNL     1      -6.857  10.229  66.659  1.00  0.00    -0.091 A  
HETATM    6 CL   UNL     1      -5.145  10.475  66.877  1.00  0.00    -0.040 Cl 
HETATM    7  C   UNL     1      -7.419  10.401  65.378  1.00  0.00    -0.127 A  
HETATM    8 CL   UNL     1      -6.399  10.835  64.032  1.00  0.00     0.163 Cl 
HETATM    9  C   UNL     1      -8.797  10.219  65.182  1.00  0.00    -0.184 A  
HETATM   10  C   UNL     1      -9.620   9.867  66.270  1.00  0.00    -0.209 A  
HETATM   11 CL   UNL     1      -9.490  10.445  63.600  1.00  0.00    -0.326 Cl 
HETATM   12  C   UNL     1      -9.083   9.725  67.573  1.00  0.00    -0.142 A  
HETATM   13 CL   UNL     1     -11.321   9.576  66.009  1.00  0.00     1.759 Cl 
ENDROOT
BRANCH  12  14
HETATM   14  C   UNL     1     -10.023   9.459  68.726  1.00  0.00    -0.191 A  
HETATM   15  C   UNL     1     -10.720  10.467  69.322  1.00  0.00    -0.269 A  
HETATM   16  C   UNL     1     -10.582  11.862  68.901  1.00  0.00    -0.205 C  
HETATM   17  C   UNL     1     -11.414  12.822  69.337  1.00  0.00    -0.257 C  
HETATM   18  C   UNL     1     -12.510  12.491  70.304  1.00  0.00    -0.084 C  
HETATM   19  I   UNL     1     -11.204  14.771  68.707  1.00  0.00    -0.352 I  
HETATM   20  C   UNL     1     -12.470  11.127  70.923  1.00  0.00    -0.409 C  
HETATM   21  O   UNL     1     -13.376  13.310  70.595  1.00  0.00     0.170 OA 
HETATM   22  I   UNL     1     -13.771  10.765  72.505  1.00  0.00     2.023 I  
HETATM   23  C   UNL     1     -11.615  10.195  70.460  1.00  0.00    -0.329 A  
HETATM   24  O   UNL     1     -11.556   8.960  71.083  1.00  0.00    -0.274 OA 
HETATM   25  C   UNL     1     -10.903   7.915  70.494  1.00  0.00    -0.241 A  
HETATM   26  C   UNL     1     -10.983   6.659  71.123  1.00  0.00    -0.257 A  
HETATM   27  C   UNL     1     -10.329   5.555  70.570  1.00  0.00    -0.272 A  
HETATM   28  I   UNL     1     -12.089   6.422  72.909  1.00  0.00     1.070 I  
HETATM   29  C   UNL     1      -9.635   5.707  69.369  1.00  0.00    -0.143 A  
HETATM   30  O   UNL     1     -10.351   4.333  71.186  1.00  0.00    -0.082 OA 
HETATM   31  H   UNL     1      -9.906   3.583  70.810  1.00  0.00     0.000 HD 
HETATM   32  I   UNL     1      -8.637   4.104  68.462  1.00  0.00    -0.149 I  
HETATM   33  C   UNL     1      -9.569   6.959  68.741  1.00  0.00    -0.134 A  
HETATM   34  C   UNL     1     -10.177   8.089  69.312  1.00  0.00    -0.214 A  
ENDBRANCH  12  14
TORSDOF 1
ENDMDL
MODEL       95
REMARK 921   NORMALIZED FREE ENERGY PREDICTED BY IDOCK:    1.49 KCAL/MOL
REMARK 922        TOTAL FREE ENERGY PREDICTED BY IDOCK:    0.88 KCAL/MOL
REMARK 923 INTER-LIGAND FREE ENERGY PREDICTED BY IDOCK:    1.53 KCAL/MOL
REMARK 924 INTRA-LIGAND FREE ENERGY PREDICTED BY IDOCK:   -0.66 KCAL/MOL
REMARK 927      BINDING AFFINITY PREDICTED BY RF-SCORE:    0.00 PKD
ROOT
HETATM    1  O   UNL     1      -5.196   8.812  68.875  1.00  0.00    -0.032 OA 
HETATM    2  C   UNL     1      -6.376   8.383  69.374  1.00  0.00    -0.038 C  
HETATM    3  O   UNL     1      -6.487   7.311  69.937  1.00  0.00    -0.034 OA 
HETATM    4  C   UNL     1      -7.542   9.258  69.079  1.00  0.00    -0.074 A  
HETATM    5  C   UNL     1      -7.471  10.655  69.269  1.00  0.00    -0.130 A  
HETATM    6 CL   UNL     1      -6.004  11.395  69.853  1.00  0.00    -0.106 Cl 
HETATM    7  C   UNL     1      -8.593  11.467  69.008  1.00  0.00     0.131 A  
HETATM    8 CL   UNL     1      -8.496  13.191  69.253  1.00  0.00     0.641 Cl 
HETATM    9  C   UNL     1      -9.788  10.892  68.548  1.00  0.00    -0.184 A  
HETATM   10  C   UNL     1      -9.866   9.499  68.350  1.00  0.00    -0.158 A  
HETATM   11 CL   UNL     1     -11.178  11.896  68.240  1.00  0.00    -0.288 Cl 
HETATM   12  C   UNL     1      -8.762   8.660  68.639  1.00  0.00    -0.138 A  
HETATM   13 CL   UNL     1     -11.331   8.796  67.714  1.00  0.00     0.575 Cl 
ENDROOT
BRANCH  12  14
HETATM   14  C   UNL     1      -8.930   7.163  68.520  1.00  0.00    -0.127 A  
HETATM   15  C   UNL     1      -8.792   6.525  67.324  1.00  0.00    -0.112 A  
HETATM   16  C   UNL     1      -8.500   7.249  66.086  1.00  0.00    -0.144 C  
HETATM   17  C   UNL     1      -8.156   6.613  64.954  1.00  0.00    -0.115 C  
HETATM   18  C   UNL     1      -8.087   5.116  64.919  1.00  0.00    -0.119 C  
HETATM   19  I   UNL     1      -7.731   7.665  63.236  1.00  0.00    -0.071 I  
HETATM   20  C   UNL     1      -8.643   4.390  66.106  1.00  0.00    -0.113 C  
HETATM   21  O   UNL     1      -7.627   4.519  63.951  1.00  0.00    -0.067 OA 
HETATM   22  I   UNL     1      -8.865   2.329  65.939  1.00  0.00    -0.039 I  
HETATM   23  C   UNL     1      -8.980   5.068  67.220  1.00  0.00    -0.113 A  
HETATM   24  O   UNL     1      -9.543   4.384  68.284  1.00  0.00    -0.147 OA 
HETATM   25  C   UNL     1      -9.658   4.978  69.510  1.00  0.00    -0.167 A  
HETATM   26  C   UNL     1     -10.129   4.188  70.574  1.00  0.00     0.004 A  
HETATM   27  C   UNL     1     -10.273   4.744  71.848  1.00  0.00    -0.193 A  
HETATM   28  I   UNL     1     -10.624   2.156  70.267  1.00  0.00     3.668 I  
HETATM   29  C   UNL     1      -9.905   6.074  72.056  1.00  0.00    -0.156 A  
HETATM   30  O   UNL     1     -10.774   4.012  72.891  1.00  0.00    -0.173 OA 
HETATM   31  H   UNL     1     -10.872   4.390  73.757  1.00  0.00     0.000 HD 
HETATM   32  I   UNL     1     -10.076   6.984  73.935  1.00  0.00    -0.136 I  
HETATM   33  C   UNL     1      -9.426   6.852  70.993  1.00  0.00    -0.163 A  
HETATM   34  C   UNL     1      -9.325   6.322  69.696  1.00  0.00    -0.150 A  
ENDBRANCH  12  14
TORSDOF 1
ENDMDL
MODEL       96
REMARK 921   NORMALIZED FREE ENERGY PREDICTED BY IDOCK:    1.95 KCAL/MOL
REMARK 922        TOTAL FREE ENERGY PREDICTED BY IDOCK:    1.36 KCAL/MOL
REMARK 923 INTER-LIGAND FREE ENERGY PREDICTED BY IDOCK:    0.49 KCAL/MOL
REMARK 924 INTRA-LIGAND FREE ENERGY PREDICTED BY IDOCK:    0.88 KCAL/MOL
REMARK 927      BINDING AFFINITY PREDICTED BY RF-SCORE:    0.00 PKD
ROOT
HETATM    1  O   UNL     1     -12.092   7.812  68.826  1.00  0.00     1.934 OA 
HETATM    2  C   UNL     1     -10.763   8.051  68.796  1.00  0.00    -0.045 C  
HETATM    3  O   UNL     1     -10.221   8.789  69.597  1.00  0.00    -0.198 OA 
HETATM    4  C   UNL     1     -10.038   7.445  67.647  1.00  0.00    -0.240 A  
HETATM    5  C   UNL     1     -10.247   6.097  67.283  1.00  0.00    -0.191 A  
HETATM    6 CL   UNL     1     -11.369   5.105  68.173  1.00  0.00     1.424 Cl 
HETATM    7  C   UNL     1      -9.533   5.532  66.207  1.00  0.00    -0.157 A  
HETATM    8 CL   UNL     1      -9.794   3.864  65.771  1.00  0.00    -0.171 Cl 
HETATM    9  C   UNL     1      -8.616   6.310  65.482  1.00  0.00    -0.119 A  
HETATM   10  C   UNL     1      -8.406   7.657  65.835  1.00  0.00    -0.139 A  
HETATM   11 CL   UNL     1      -7.726   5.604  64.162  1.00  0.00    -0.091 Cl 
HETATM   12  C   UNL     1      -9.086   8.236  66.935  1.00  0.00    -0.181 A  
HETATM   13 CL   UNL     1      -7.316   8.639  64.891  1.00  0.00    -0.088 Cl 
ENDROOT
BRANCH  12  14
HETATM   14  C   UNL     1      -8.743   9.650  67.345  1.00  0.00    -0.130 A  
HETATM   15  C   UNL     1      -8.012   9.908  68.466  1.00  0.00    -0.086 A  
HETATM   16  C   UNL     1      -7.541   8.841  69.350  1.00  0.00    -0.088 C  
HETATM   17  C   UNL     1      -6.651   9.069  70.329  1.00  0.00    -0.045 C  
HETATM   18  C   UNL     1      -6.127  10.454  70.566  1.00  0.00    -0.116 C  
HETATM   19  I   UNL     1      -5.993   7.540  71.540  1.00  0.00    -0.035 I  
HETATM   20  C   UNL     1      -6.814  11.567  69.835  1.00  0.00     0.091 C  
HETATM   21  O   UNL     1      -5.202  10.663  71.345  1.00  0.00    -0.107 OA 
HETATM   22  I   UNL     1      -6.333  13.510  70.398  1.00  0.00     0.524 I  
HETATM   23  C   UNL     1      -7.705  11.293  68.864  1.00  0.00    -0.125 A  
HETATM   24  O   UNL     1      -8.369  12.336  68.240  1.00  0.00    -0.167 OA 
HETATM   25  C   UNL     1      -9.076  12.121  67.090  1.00  0.00    -0.189 A  
HETATM   26  C   UNL     1      -9.625  13.244  66.445  1.00  0.00    -0.254 A  
HETATM   27  C   UNL     1     -10.363  13.085  65.269  1.00  0.00    -0.304 A  
HETATM   28  I   UNL     1      -9.347  15.183  67.240  1.00  0.00    -0.245 I  
HETATM   29  C   UNL     1     -10.509  11.808  64.725  1.00  0.00    -0.293 A  
HETATM   30  O   UNL     1     -10.950  14.154  64.648  1.00  0.00    -0.411 OA 
HETATM   31  H   UNL     1     -11.452  14.046  63.848  1.00  0.00     0.000 HD 
HETATM   32  I   UNL     1     -11.588  11.479  62.960  1.00  0.00     1.258 I  
HETATM   33  C   UNL     1      -9.949  10.695  65.367  1.00  0.00    -0.343 A  
HETATM   34  C   UNL     1      -9.249  10.833  66.577  1.00  0.00    -0.187 A  
ENDBRANCH  12  14
TORSDOF 1
ENDMDL
MODEL       97
REMARK 921   NORMALIZED FREE ENERGY PREDICTED BY IDOCK:    1.97 KCAL/MOL
REMARK 922        TOTAL FREE ENERGY PREDICTED BY IDOCK:    1.38 KCAL/MOL
REMARK 923 INTER-LIGAND FREE ENERGY PREDICTED BY IDOCK:   -2.94 KCAL/MOL
REMARK 924 INTRA-LIGAND FREE ENERGY PREDICTED BY IDOCK:    4.32 KCAL/MOL
REMARK 927      BINDING AFFINITY PREDICTED BY RF-SCORE:    0.00 PKD
ROOT
HETATM    1  O   UNL     1      -6.744   5.237  68.463  1.00  0.00    -0.050 OA 
HETATM    2  C   UNL     1      -7.151   6.525  68.491  1.00  0.00    -0.083 C  
HETATM    3  O   UNL     1      -7.326   7.125  69.535  1.00  0.00    -0.084 OA 
HETATM    4  C   UNL     1      -7.483   7.112  67.165  1.00  0.00    -0.098 A  
HETATM    5  C   UNL     1      -6.617   6.952  66.061  1.00  0.00    -0.052 A  
HETATM    6 CL   UNL     1      -5.132   6.055  66.224  1.00  0.00    -0.008 Cl 
HETATM    7  C   UNL     1      -6.934   7.536  64.818  1.00  0.00    -0.055 A  
HETATM    8 CL   UNL     1      -5.855   7.337  63.463  1.00  0.00    -0.040 Cl 
HETATM    9  C   UNL     1      -8.120   8.272  64.666  1.00  0.00    -0.150 A  
HETATM   10  C   UNL     1      -8.993   8.431  65.761  1.00  0.00    -0.159 A  
HETATM   11 CL   UNL     1      -8.503   9.003  63.133  1.00  0.00    -0.198 Cl 
HETATM   12  C   UNL     1      -8.676   7.884  67.029  1.00  0.00    -0.132 A  
HETATM   13 CL   UNL     1     -10.497   9.290  65.551  1.00  0.00     0.589 Cl 
ENDROOT
BRANCH  12  14
HETATM   14  C   UNL     1      -9.586   8.177  68.200  1.00  0.00    -0.162 A  
HETATM   15  C   UNL     1     -10.018   9.442  68.465  1.00  0.00    -0.190 A  
HETATM   16  C   UNL     1      -9.609  10.589  67.653  1.00  0.00    -0.175 C  
HETATM   17  C   UNL     1     -10.193  11.793  67.777  1.00  0.00    -0.191 C  
HETATM   18  C   UNL     1     -11.279  12.005  68.788  1.00  0.00    -0.263 C  
HETATM   19  I   UNL     1      -9.608  13.379  66.603  1.00  0.00    -0.221 I  
HETATM   20  C   UNL     1     -11.497  10.905  69.782  1.00  0.00    -0.313 C  
HETATM   21  O   UNL     1     -11.934  13.043  68.815  1.00  0.00    -0.314 OA 
HETATM   22  I   UNL     1     -12.755  11.312  71.387  1.00  0.00    -0.206 I  
HETATM   23  C   UNL     1     -10.887   9.715  69.622  1.00  0.00    -0.244 A  
HETATM   24  O   UNL     1     -11.058   8.733  70.583  1.00  0.00    -0.237 OA 
HETATM   25  C   UNL     1     -10.676   7.444  70.335  1.00  0.00    -0.237 A  
HETATM   26  C   UNL     1     -10.987   6.475  71.305  1.00  0.00    -0.262 A  
HETATM   27  C   UNL     1     -10.615   5.142  71.109  1.00  0.00    -0.125 A  
HETATM   28  I   UNL     1     -12.018   7.014  73.070  1.00  0.00     1.190 I  
HETATM   29  C   UNL     1      -9.972   4.783  69.924  1.00  0.00    -0.236 A  
HETATM   30  O   UNL     1     -10.862   4.188  72.058  1.00  0.00     0.102 OA 
HETATM   31  H   UNL     1     -10.609   3.281  71.925  1.00  0.00     0.000 HD 
HETATM   32  I   UNL     1      -9.389   2.808  69.541  1.00  0.00     0.018 I  
HETATM   33  C   UNL     1      -9.675   5.753  68.956  1.00  0.00    -0.180 A  
HETATM   34  C   UNL     1      -9.996   7.105  69.162  1.00  0.00    -0.168 A  
ENDBRANCH  12  14
TORSDOF 1
ENDMDL
MODEL       98
REMARK 921   NORMALIZED FREE ENERGY PREDICTED BY IDOCK:    3.54 KCAL/MOL
REMARK 922        TOTAL FREE ENERGY PREDICTED BY IDOCK:    3.04 KCAL/MOL
REMARK 923 INTER-LIGAND FREE ENERGY PREDICTED BY IDOCK:    3.29 KCAL/MOL
REMARK 924 INTRA-LIGAND FREE ENERGY PREDICTED BY IDOCK:   -0.25 KCAL/MOL
REMARK 927      BINDING AFFINITY PREDICTED BY RF-SCORE:    0.00 PKD
ROOT
HETATM    1  O   UNL     1     -11.198  18.123  67.784  1.00  0.00    -0.068 OA 
HETATM    2  C   UNL     1     -10.951  16.818  67.539  1.00  0.00    -0.134 C  
HETATM    3  O   UNL     1     -11.847  16.014  67.360  1.00  0.00     0.235 OA 
HETATM    4  C   UNL     1      -9.521  16.418  67.625  1.00  0.00    -0.225 A  
HETATM    5  C   UNL     1      -8.513  17.177  66.992  1.00  0.00    -0.211 A  
HETATM    6 CL   UNL     1      -8.922  18.614  66.093  1.00  0.00    -0.216 Cl 
HETATM    7  C   UNL     1      -7.166  16.770  67.062  1.00  0.00    -0.201 A  
HETATM    8 CL   UNL     1      -5.930  17.713  66.271  1.00  0.00    -0.238 Cl 
HETATM    9  C   UNL     1      -6.815  15.611  67.771  1.00  0.00    -0.159 A  
HETATM   10  C   UNL     1      -7.813  14.850  68.411  1.00  0.00    -0.121 A  
HETATM   11 CL   UNL     1      -5.150  15.103  67.844  1.00  0.00    -0.120 Cl 
HETATM   12  C   UNL     1      -9.178  15.220  68.323  1.00  0.00    -0.189 A  
HETATM   13 CL   UNL     1      -7.366  13.447  69.346  1.00  0.00     0.185 Cl 
ENDROOT
BRANCH  12  14
HETATM   14  C   UNL     1     -10.223  14.311  68.929  1.00  0.00    -0.203 A  
HETATM   15  C   UNL     1     -10.923  14.674  70.041  1.00  0.00    -0.149 A  
HETATM   16  C   UNL     1     -10.688  15.945  70.726  1.00  0.00    -0.048 C  
HETATM   17  C   UNL     1     -11.511  16.398  71.686  1.00  0.00    -0.157 C  
HETATM   18  C   UNL     1     -12.699  15.586  72.108  1.00  0.00    -0.403 C  
HETATM   19  I   UNL     1     -11.164  18.202  72.614  1.00  0.00     5.607 I  
HETATM   20  C   UNL     1     -12.771  14.182  71.591  1.00  0.00    -0.349 C  
HETATM   21  O   UNL     1     -13.550  16.043  72.865  1.00  0.00    -0.550 OA 
HETATM   22  I   UNL     1     -14.215  12.937  72.422  1.00  0.00     1.284 I  
HETATM   23  C   UNL     1     -11.922  13.767  70.631  1.00  0.00    -0.266 A  
HETATM   24  O   UNL     1     -11.970  12.450  70.208  1.00  0.00    -0.349 OA 
HETATM   25  C   UNL     1     -11.315  12.060  69.073  1.00  0.00    -0.275 A  
HETATM   26  C   UNL     1     -11.504  10.736  68.635  1.00  0.00    -0.295 A  
HETATM   27  C   UNL     1     -10.854  10.280  67.485  1.00  0.00    -0.298 A  
HETATM   28  I   UNL     1     -12.765   9.420  69.705  1.00  0.00     2.457 I  
HETATM   29  C   UNL     1     -10.055  11.164  66.759  1.00  0.00    -0.218 A  
HETATM   30  O   UNL     1     -10.981   8.984  67.064  1.00  0.00    -0.282 OA 
HETATM   31  H   UNL     1     -10.540   8.674  66.282  1.00  0.00     0.000 HD 
HETATM   32  I   UNL     1      -9.056  10.569  65.017  1.00  0.00    -0.285 I  
HETATM   33  C   UNL     1      -9.882  12.485  67.195  1.00  0.00    -0.210 A  
HETATM   34  C   UNL     1     -10.486  12.943  68.377  1.00  0.00    -0.260 A  
ENDBRANCH  12  14
TORSDOF 1
ENDMDL
MODEL       99
REMARK 921   NORMALIZED FREE ENERGY PREDICTED BY IDOCK:    3.72 KCAL/MOL
REMARK 922        TOTAL FREE ENERGY PREDICTED BY IDOCK:    3.24 KCAL/MOL
REMARK 923 INTER-LIGAND FREE ENERGY PREDICTED BY IDOCK:    4.00 KCAL/MOL
REMARK 924 INTRA-LIGAND FREE ENERGY PREDICTED BY IDOCK:   -0.76 KCAL/MOL
REMARK 927      BINDING AFFINITY PREDICTED BY RF-SCORE:    0.00 PKD
ROOT
HETATM    1  O   UNL     1     -13.264  14.358  70.530  1.00  0.00    -0.266 OA 
HETATM    2  C   UNL     1     -11.915  14.295  70.489  1.00  0.00    -0.331 C  
HETATM    3  O   UNL     1     -11.217  15.273  70.680  1.00  0.00    -0.288 OA 
HETATM    4  C   UNL     1     -11.356  12.980  70.077  1.00  0.00     0.039 A  
HETATM    5  C   UNL     1     -11.831  11.777  70.643  1.00  0.00    -0.085 A  
HETATM    6 CL   UNL     1     -13.095  11.803  71.843  1.00  0.00    -0.550 Cl 
HETATM    7  C   UNL     1     -11.273  10.541  70.260  1.00  0.00    -0.313 A  
HETATM    8 CL   UNL     1     -11.863   9.062  70.971  1.00  0.00    -0.334 Cl 
HETATM    9  C   UNL     1     -10.247  10.497  69.303  1.00  0.00    -0.225 A  
HETATM   10  C   UNL     1      -9.771  11.692  68.728  1.00  0.00    -0.095 A  
HETATM   11 CL   UNL     1      -9.550   8.969  68.841  1.00  0.00    -0.155 Cl 
HETATM   12  C   UNL     1     -10.292  12.948  69.125  1.00  0.00     0.158 A  
HETATM   13 CL   UNL     1      -8.542  11.628  67.492  1.00  0.00    -0.144 Cl 
ENDROOT
BRANCH  12  14
HETATM   14  C   UNL     1      -9.671  14.207  68.565  1.00  0.00    -0.219 A  
HETATM   15  C   UNL     1      -8.659  14.849  69.212  1.00  0.00    -0.106 A  
HETATM   16  C   UNL     1      -8.132  14.377  70.494  1.00  0.00     1.932 C  
HETATM   17  C   UNL     1      -7.005  14.877  71.027  1.00  0.00     0.967 C  
HETATM   18  C   UNL     1      -6.257  15.970  70.326  1.00  0.00     0.023 C  
HETATM   19  I   UNL     1      -6.281  14.173  72.821  1.00  0.00     2.332 I  
HETATM   20  C   UNL     1      -6.947  16.619  69.164  1.00  0.00    -0.227 C  
HETATM   21  O   UNL     1      -5.149  16.334  70.707  1.00  0.00    -0.182 OA 
HETATM   22  I   UNL     1      -6.085  18.347  68.393  1.00  0.00    -0.211 I  
HETATM   23  C   UNL     1      -8.079  16.088  68.664  1.00  0.00    -0.187 A  
HETATM   24  O   UNL     1      -8.730  16.734  67.627  1.00  0.00    -0.200 OA 
HETATM   25  C   UNL     1      -9.721  16.104  66.928  1.00  0.00    -0.236 A  
HETATM   26  C   UNL     1     -10.256  16.773  65.812  1.00  0.00    -0.291 A  
HETATM   27  C   UNL     1     -11.276  16.181  65.063  1.00  0.00    -0.220 A  
HETATM   28  I   UNL     1      -9.531  18.678  65.252  1.00  0.00     3.196 I  
HETATM   29  C   UNL     1     -11.723  14.906  65.411  1.00  0.00    -0.238 A  
HETATM   30  O   UNL     1     -11.849  16.829  64.003  1.00  0.00    -1.116 OA 
HETATM   31  H   UNL     1     -12.542  16.426  63.493  1.00  0.00     0.000 HD 
HETATM   32  I   UNL     1     -13.238  13.937  64.337  1.00  0.00     2.146 I  
HETATM   33  C   UNL     1     -11.176  14.240  66.517  1.00  0.00    -0.333 A  
HETATM   34  C   UNL     1     -10.187  14.844  67.311  1.00  0.00    -0.241 A  
ENDBRANCH  12  14
TORSDOF 1
ENDMDL
MODEL      100
REMARK 921   NORMALIZED FREE ENERGY PREDICTED BY IDOCK:    3.94 KCAL/MOL
REMARK 922        TOTAL FREE ENERGY PREDICTED BY IDOCK:    3.47 KCAL/MOL
REMARK 923 INTER-LIGAND FREE ENERGY PREDICTED BY IDOCK:    3.53 KCAL/MOL
REMARK 924 INTRA-LIGAND FREE ENERGY PREDICTED BY IDOCK:   -0.06 KCAL/MOL
REMARK 927      BINDING AFFINITY PREDICTED BY RF-SCORE:    0.00 PKD
ROOT
HETATM    1  O   UNL     1      -9.792   8.718  65.229  1.00  0.00     0.224 OA 
HETATM    2  C   UNL     1      -9.229   8.468  66.432  1.00  0.00    -0.199 C  
HETATM    3  O   UNL     1      -8.104   8.015  66.537  1.00  0.00    -0.099 OA 
HETATM    4  C   UNL     1     -10.124   8.671  67.603  1.00  0.00    -0.271 A  
HETATM    5  C   UNL     1     -10.911   9.837  67.724  1.00  0.00    -0.246 A  
HETATM    6 CL   UNL     1     -10.857  11.072  66.495  1.00  0.00    -0.300 Cl 
HETATM    7  C   UNL     1     -11.734  10.026  68.852  1.00  0.00     0.204 A  
HETATM    8 CL   UNL     1     -12.697  11.473  68.994  1.00  0.00     0.524 Cl 
HETATM    9  C   UNL     1     -11.785   9.049  69.860  1.00  0.00     0.299 A  
HETATM   10  C   UNL     1     -11.008   7.880  69.744  1.00  0.00    -0.148 A  
HETATM   11 CL   UNL     1     -12.793   9.292  71.259  1.00  0.00    -0.368 Cl 
HETATM   12  C   UNL     1     -10.146   7.686  68.636  1.00  0.00    -0.201 A  
HETATM   13 CL   UNL     1     -11.124   6.639  70.964  1.00  0.00    -0.311 Cl 
ENDROOT
BRANCH  12  14
HETATM   14  C   UNL     1      -9.248   6.471  68.613  1.00  0.00    -0.127 A  
HETATM   15  C   UNL     1      -8.216   6.332  69.493  1.00  0.00    -0.117 A  
HETATM   16  C   UNL     1      -7.902   7.356  70.490  1.00  0.00    -0.097 C  
HETATM   17  C   UNL     1      -7.031   7.133  71.487  1.00  0.00    -0.064 C  
HETATM   18  C   UNL     1      -6.323   5.816  71.593  1.00  0.00    -0.048 C  
HETATM   19  I   UNL     1      -6.629   8.589  72.886  1.00  0.00     0.078 I  
HETATM   20  C   UNL     1      -6.454   4.887  70.425  1.00  0.00    -0.031 C  
HETATM   21  O   UNL     1      -5.646   5.531  72.576  1.00  0.00    -0.020 OA 
HETATM   22  I   UNL     1      -5.221   3.212  70.401  1.00  0.00    -0.005 I  
HETATM   23  C   UNL     1      -7.337   5.151  69.443  1.00  0.00    -0.057 A  
HETATM   24  O   UNL     1      -7.401   4.309  68.346  1.00  0.00    -0.059 OA 
HETATM   25  C   UNL     1      -8.444   4.392  67.466  1.00  0.00    -0.103 A  
HETATM   26  C   UNL     1      -8.510   3.429  66.443  1.00  0.00    -0.109 A  
HETATM   27  C   UNL     1      -9.550   3.468  65.510  1.00  0.00    -0.125 A  
HETATM   28  I   UNL     1      -7.043   1.914  66.297  1.00  0.00    -0.053 I  
HETATM   29  C   UNL     1     -10.539   4.444  65.635  1.00  0.00    -0.144 A  
HETATM   30  O   UNL     1      -9.612   2.574  64.476  1.00  0.00    -0.151 OA 
HETATM   31  H   UNL     1     -10.319   2.600  63.842  1.00  0.00     0.000 HD 
HETATM   32  I   UNL     1     -12.140   4.569  64.290  1.00  0.00     6.128 I  
HETATM   33  C   UNL     1     -10.473   5.394  66.664  1.00  0.00    -0.356 A  
HETATM   34  C   UNL     1      -9.406   5.399  67.578  1.00  0.00    -0.119 A  
ENDBRANCH  12  14
TORSDOF 1
ENDMDL
MODEL      101
REMARK 921   NORMALIZED FREE ENERGY PREDICTED BY IDOCK:    4.71 KCAL/MOL
REMARK 922        TOTAL FREE ENERGY PREDICTED BY IDOCK:    4.28 KCAL/MOL
REMARK 923 INTER-LIGAND FREE ENERGY PREDICTED BY IDOCK:    5.25 KCAL/MOL
REMARK 924 INTRA-LIGAND FREE ENERGY PREDICTED BY IDOCK:   -0.97 KCAL/MOL
REMARK 927      BINDING AFFINITY PREDICTED BY RF-SCORE:    0.00 PKD
ROOT
HETATM    1  O   UNL     1     -12.428   6.662  68.721  1.00  0.00     2.097 OA 
HETATM    2  C   UNL     1     -11.230   7.203  69.031  1.00  0.00     0.070 C  
HETATM    3  O   UNL     1     -10.883   8.290  68.607  1.00  0.00    -0.083 OA 
HETATM    4  C   UNL     1     -10.326   6.327  69.824  1.00  0.00    -0.260 A  
HETATM    5  C   UNL     1     -10.797   5.632  70.959  1.00  0.00    -0.219 A  
HETATM    6 CL   UNL     1     -12.460   5.782  71.460  1.00  0.00     0.713 Cl 
HETATM    7  C   UNL     1      -9.922   4.826  71.714  1.00  0.00    -0.190 A  
HETATM    8 CL   UNL     1     -10.514   3.977  73.118  1.00  0.00    -0.235 Cl 
HETATM    9  C   UNL     1      -8.576   4.699  71.335  1.00  0.00    -0.111 A  
HETATM   10  C   UNL     1      -8.099   5.384  70.200  1.00  0.00    -0.089 A  
HETATM   11 CL   UNL     1      -7.494   3.712  72.278  1.00  0.00    -0.056 Cl 
HETATM   12  C   UNL     1      -8.952   6.229  69.448  1.00  0.00    -0.126 A  
HETATM   13 CL   UNL     1      -6.443   5.172  69.695  1.00  0.00    -0.037 Cl 
ENDROOT
BRANCH  12  14
HETATM   14  C   UNL     1      -8.368   7.030  68.308  1.00  0.00    -0.123 A  
HETATM   15  C   UNL     1      -7.726   8.213  68.526  1.00  0.00    -0.112 A  
HETATM   16  C   UNL     1      -7.588   8.787  69.865  1.00  0.00    -0.065 C  
HETATM   17  C   UNL     1      -6.782   9.833  70.111  1.00  0.00    -0.100 C  
HETATM   18  C   UNL     1      -6.009  10.470  68.996  1.00  0.00    -0.040 C  
HETATM   19  I   UNL     1      -6.595  10.601  72.012  1.00  0.00     4.028 I  
HETATM   20  C   UNL     1      -6.364  10.044  67.604  1.00  0.00    -0.059 C  
HETATM   21  O   UNL     1      -5.151  11.319  69.216  1.00  0.00    -0.045 OA 
HETATM   22  I   UNL     1      -5.550  11.147  66.039  1.00  0.00     0.218 I  
HETATM   23  C   UNL     1      -7.181   8.993  67.402  1.00  0.00    -0.083 A  
HETATM   24  O   UNL     1      -7.539   8.653  66.109  1.00  0.00    -0.091 OA 
HETATM   25  C   UNL     1      -8.145   7.456  65.848  1.00  0.00    -0.128 A  
HETATM   26  C   UNL     1      -8.374   7.122  64.501  1.00  0.00     0.091 A  
HETATM   27  C   UNL     1      -8.996   5.915  64.174  1.00  0.00     0.543 A  
HETATM   28  I   UNL     1      -7.784   8.436  62.954  1.00  0.00    -0.141 I  
HETATM   29  C   UNL     1      -9.346   5.031  65.196  1.00  0.00    -0.051 A  
HETATM   30  O   UNL     1      -9.274   5.587  62.874  1.00  0.00    -0.332 OA 
HETATM   31  H   UNL     1      -9.698   4.765  62.652  1.00  0.00     0.000 HD 
HETATM   32  I   UNL     1     -10.271   3.195  64.796  1.00  0.00     0.508 I  
HETATM   33  C   UNL     1      -9.105   5.365  66.536  1.00  0.00    -0.135 A  
HETATM   34  C   UNL     1      -8.528   6.598  66.883  1.00  0.00    -0.115 A  
ENDBRANCH  12  14
TORSDOF 1
ENDMDL
MODEL      102
REMARK 921   NORMALIZED FREE ENERGY PREDICTED BY IDOCK:    5.75 KCAL/MOL
REMARK 922        TOTAL FREE ENERGY PREDICTED BY IDOCK:    5.39 KCAL/MOL
REMARK 923 INTER-LIGAND FREE ENERGY PREDICTED BY IDOCK:   -2.63 KCAL/MOL
REMARK 924 INTRA-LIGAND FREE ENERGY PREDICTED BY IDOCK:    8.01 KCAL/MOL
REMARK 927      BINDING AFFINITY PREDICTED BY RF-SCORE:    0.00 PKD
ROOT
HETATM    1  O   UNL     1      -7.187   4.201  68.035  1.00  0.00    -0.058 OA 
HETATM    2  C   UNL     1      -7.325   5.531  68.230  1.00  0.00    -0.073 C  
HETATM    3  O   UNL     1      -7.433   6.012  69.343  1.00  0.00    -0.084 OA 
HETATM    4  C   UNL     1      -7.454   6.342  66.990  1.00  0.00    -0.084 A  
HETATM    5  C   UNL     1      -6.578   6.150  65.900  1.00  0.00    -0.047 A  
HETATM    6 CL   UNL     1      -5.318   4.949  65.979  1.00  0.00    -0.012 Cl 
HETATM    7  C   UNL     1      -6.698   6.944  64.742  1.00  0.00    -0.043 A  
HETATM    8 CL   UNL     1      -5.606   6.703  63.404  1.00  0.00    -0.030 Cl 
HETATM    9  C   UNL     1      -7.699   7.926  64.660  1.00  0.00    -0.120 A  
HETATM   10  C   UNL     1      -8.582   8.119  65.741  1.00  0.00    -0.154 A  
HETATM   11 CL   UNL     1      -7.837   8.915  63.233  1.00  0.00    -0.135 Cl 
HETATM   12  C   UNL     1      -8.456   7.357  66.929  1.00  0.00    -0.123 A  
HETATM   13 CL   UNL     1      -9.865   9.294  65.610  1.00  0.00    -0.325 Cl 
ENDROOT
BRANCH  12  14
HETATM   14  C   UNL     1      -9.352   7.680  68.102  1.00  0.00    -0.146 A  
HETATM   15  C   UNL     1      -9.892   6.696  68.876  1.00  0.00    -0.143 A  
HETATM   16  C   UNL     1      -9.660   5.277  68.603  1.00  0.00    -0.183 C  
HETATM   17  C   UNL     1     -10.010   4.318  69.476  1.00  0.00    -0.057 C  
HETATM   18  C   UNL     1     -10.686   4.680  70.765  1.00  0.00     0.406 C  
HETATM   19  I   UNL     1      -9.649   2.333  69.070  1.00  0.00     0.407 I  
HETATM   20  C   UNL     1     -11.152   6.097  70.905  1.00  0.00    -0.307 C  
HETATM   21  O   UNL     1     -10.874   3.845  71.644  1.00  0.00     0.416 OA 
HETATM   22  I   UNL     1     -12.379   6.537  72.525  1.00  0.00     0.612 I  
HETATM   23  C   UNL     1     -10.781   7.026  70.003  1.00  0.00    -0.242 A  
HETATM   24  O   UNL     1     -11.269   8.316  70.121  1.00  0.00    -0.231 OA 
HETATM   25  C   UNL     1     -10.722   9.336  69.393  1.00  0.00    -0.208 A  
HETATM   26  C   UNL     1     -11.184  10.639  69.649  1.00  0.00    -0.289 A  
HETATM   27  C   UNL     1     -10.666  11.720  68.930  1.00  0.00    -0.205 A  
HETATM   28  I   UNL     1     -12.663  10.985  71.119  1.00  0.00    -0.343 I  
HETATM   29  C   UNL     1      -9.660  11.492  67.990  1.00  0.00    -0.180 A  
HETATM   30  O   UNL     1     -11.131  12.992  69.125  1.00  0.00    -0.315 OA 
HETATM   31  H   UNL     1     -10.779  13.727  68.636  1.00  0.00     0.000 HD 
HETATM   32  I   UNL     1      -8.818  13.054  66.876  1.00  0.00    -0.012 I  
HETATM   33  C   UNL     1      -9.196  10.191  67.748  1.00  0.00    -0.146 A  
HETATM   34  C   UNL     1      -9.744   9.089  68.426  1.00  0.00    -0.170 A  
ENDBRANCH  12  14
TORSDOF 1
ENDMDL
MODEL      103
REMARK 921   NORMALIZED FREE ENERGY PREDICTED BY IDOCK:    5.97 KCAL/MOL
REMARK 922        TOTAL FREE ENERGY PREDICTED BY IDOCK:    5.62 KCAL/MOL
REMARK 923 INTER-LIGAND FREE ENERGY PREDICTED BY IDOCK:    3.21 KCAL/MOL
REMARK 924 INTRA-LIGAND FREE ENERGY PREDICTED BY IDOCK:    2.41 KCAL/MOL
REMARK 927      BINDING AFFINITY PREDICTED BY RF-SCORE:    0.00 PKD
ROOT
HETATM    1  O   UNL     1      -7.063  12.972  70.863  1.00  0.00     1.652 OA 
HETATM    2  C   UNL     1      -7.843  13.748  70.079  1.00  0.00     1.459 C  
HETATM    3  O   UNL     1      -8.938  13.384  69.694  1.00  0.00     1.180 OA 
HETATM    4  C   UNL     1      -7.217  15.019  69.626  1.00  0.00    -0.192 A  
HETATM    5  C   UNL     1      -6.537  15.861  70.534  1.00  0.00     0.559 A  
HETATM    6 CL   UNL     1      -6.411  15.426  72.217  1.00  0.00     1.636 Cl 
HETATM    7  C   UNL     1      -5.971  17.074  70.093  1.00  0.00    -0.117 A  
HETATM    8 CL   UNL     1      -5.140  18.108  71.225  1.00  0.00    -0.244 Cl 
HETATM    9  C   UNL     1      -6.071  17.450  68.744  1.00  0.00    -0.174 A  
HETATM   10  C   UNL     1      -6.742  16.613  67.830  1.00  0.00    -0.139 A  
HETATM   11 CL   UNL     1      -5.382  18.956  68.205  1.00  0.00    -0.179 Cl 
HETATM   12  C   UNL     1      -7.349  15.407  68.258  1.00  0.00    -0.113 A  
HETATM   13 CL   UNL     1      -6.805  17.051  66.142  1.00  0.00    -0.168 Cl 
ENDROOT
BRANCH  12  14
HETATM   14  C   UNL     1      -8.154  14.601  67.265  1.00  0.00    -0.230 A  
HETATM   15  C   UNL     1      -9.169  15.163  66.549  1.00  0.00    -0.318 A  
HETATM   16  C   UNL     1      -9.555  16.565  66.717  1.00  0.00    -0.268 C  
HETATM   17  C   UNL     1     -10.403  17.175  65.873  1.00  0.00    -0.284 C  
HETATM   18  C   UNL     1     -11.010  16.416  64.732  1.00  0.00    -0.231 C  
HETATM   19  I   UNL     1     -10.907  19.155  66.126  1.00  0.00     0.192 I  
HETATM   20  C   UNL     1     -10.815  14.931  64.733  1.00  0.00    -0.363 C  
HETATM   21  O   UNL     1     -11.660  16.985  63.860  1.00  0.00    -0.706 OA 
HETATM   22  I   UNL     1     -11.920  13.828  63.359  1.00  0.00     1.002 I  
HETATM   23  C   UNL     1      -9.958  14.359  65.601  1.00  0.00    -0.337 A  
HETATM   24  O   UNL     1      -9.836  12.980  65.621  1.00  0.00    -0.251 OA 
HETATM   25  C   UNL     1      -8.805  12.384  66.293  1.00  0.00     0.027 A  
HETATM   26  C   UNL     1      -8.672  10.989  66.175  1.00  0.00    -0.184 A  
HETATM   27  C   UNL     1      -7.641  10.324  66.844  1.00  0.00    -0.105 A  
HETATM   28  I   UNL     1     -10.022   9.878  64.987  1.00  0.00     0.424 I  
HETATM   29  C   UNL     1      -6.728  11.066  67.594  1.00  0.00    -0.073 A  
HETATM   30  O   UNL     1      -7.517   8.962  66.785  1.00  0.00    -0.082 OA 
HETATM   31  H   UNL     1      -6.816   8.510  67.241  1.00  0.00     0.000 HD 
HETATM   32  I   UNL     1      -5.145  10.154  68.620  1.00  0.00    -0.033 I  
HETATM   33  C   UNL     1      -6.860  12.458  67.698  1.00  0.00    -0.132 A  
HETATM   34  C   UNL     1      -7.921  13.134  67.073  1.00  0.00     0.001 A  
ENDBRANCH  12  14
TORSDOF 1
ENDMDL
MODEL      104
REMARK 921   NORMALIZED FREE ENERGY PREDICTED BY IDOCK:    6.24 KCAL/MOL
REMARK 922        TOTAL FREE ENERGY PREDICTED BY IDOCK:    5.90 KCAL/MOL
REMARK 923 INTER-LIGAND FREE ENERGY PREDICTED BY IDOCK:    5.33 KCAL/MOL
REMARK 924 INTRA-LIGAND FREE ENERGY PREDICTED BY IDOCK:    0.57 KCAL/MOL
REMARK 927      BINDING AFFINITY PREDICTED BY RF-SCORE:    0.00 PKD
ROOT
HETATM    1  O   UNL     1      -7.622  13.215  70.835  1.00  0.00     3.141 OA 
HETATM    2  C   UNL     1      -7.392  12.452  69.744  1.00  0.00     0.837 C  
HETATM    3  O   UNL     1      -7.374  12.919  68.621  1.00  0.00    -0.107 OA 
HETATM    4  C   UNL     1      -7.285  10.991  70.006  1.00  0.00     0.228 A  
HETATM    5  C   UNL     1      -6.485  10.497  71.059  1.00  0.00     0.365 A  
HETATM    6 CL   UNL     1      -5.603  11.593  72.088  1.00  0.00     0.701 Cl 
HETATM    7  C   UNL     1      -6.375   9.109  71.279  1.00  0.00    -0.078 A  
HETATM    8 CL   UNL     1      -5.379   8.510  72.579  1.00  0.00    -0.042 Cl 
HETATM    9  C   UNL     1      -7.068   8.208  70.455  1.00  0.00    -0.041 A  
HETATM   10  C   UNL     1      -7.873   8.692  69.405  1.00  0.00    -0.096 A  
HETATM   11 CL   UNL     1      -6.919   6.493  70.720  1.00  0.00    -0.066 Cl 
HETATM   12  C   UNL     1      -7.970  10.082  69.144  1.00  0.00    -0.116 A  
HETATM   13 CL   UNL     1      -8.785   7.573  68.427  1.00  0.00    -0.124 Cl 
ENDROOT
BRANCH  12  14
HETATM   14  C   UNL     1      -8.753  10.546  67.938  1.00  0.00    -0.126 A  
HETATM   15  C   UNL     1      -9.873  11.313  68.069  1.00  0.00    -0.186 A  
HETATM   16  C   UNL     1     -10.395  11.708  69.378  1.00  0.00     0.138 C  
HETATM   17  C   UNL     1     -11.364  12.629  69.508  1.00  0.00    -0.158 C  
HETATM   18  C   UNL     1     -11.967  13.269  68.293  1.00  0.00    -0.302 C  
HETATM   19  I   UNL     1     -12.060  13.178  71.366  1.00  0.00     1.221 I  
HETATM   20  C   UNL     1     -11.612  12.665  66.969  1.00  0.00    -0.365 C  
HETATM   21  O   UNL     1     -12.736  14.220  68.387  1.00  0.00     0.288 OA 
HETATM   22  I   UNL     1     -12.688  13.312  65.312  1.00  0.00     0.049 I  
HETATM   23  C   UNL     1     -10.637  11.739  66.885  1.00  0.00    -0.235 A  
HETATM   24  O   UNL     1     -10.364  11.154  65.660  1.00  0.00    -0.242 OA 
HETATM   25  C   UNL     1      -9.229  10.414  65.481  1.00  0.00    -0.184 A  
HETATM   26  C   UNL     1      -8.954   9.948  64.182  1.00  0.00    -0.240 A  
HETATM   27  C   UNL     1      -7.811   9.181  63.940  1.00  0.00    -0.129 A  
HETATM   28  I   UNL     1     -10.259  10.398  62.581  1.00  0.00     1.627 I  
HETATM   29  C   UNL     1      -6.931   8.922  64.992  1.00  0.00    -0.073 A  
HETATM   30  O   UNL     1      -7.544   8.675  62.697  1.00  0.00    -0.107 OA 
HETATM   31  H   UNL     1      -6.767   8.153  62.533  1.00  0.00     0.000 HD 
HETATM   32  I   UNL     1      -5.188   7.792  64.717  1.00  0.00    -0.029 I  
HETATM   33  C   UNL     1      -7.205   9.399  66.281  1.00  0.00    -0.092 A  
HETATM   34  C   UNL     1      -8.376  10.127  66.550  1.00  0.00    -0.124 A  
ENDBRANCH  12  14
TORSDOF 1
ENDMDL
MODEL      105
REMARK 921   NORMALIZED FREE ENERGY PREDICTED BY IDOCK:    6.35 KCAL/MOL
REMARK 922        TOTAL FREE ENERGY PREDICTED BY IDOCK:    6.02 KCAL/MOL
REMARK 923 INTER-LIGAND FREE ENERGY PREDICTED BY IDOCK:    6.86 KCAL/MOL
REMARK 924 INTRA-LIGAND FREE ENERGY PREDICTED BY IDOCK:   -0.83 KCAL/MOL
REMARK 927      BINDING AFFINITY PREDICTED BY RF-SCORE:    0.00 PKD
ROOT
HETATM    1  O   UNL     1     -11.799   8.116  67.460  1.00  0.00     2.087 OA 
HETATM    2  C   UNL     1     -11.315   9.211  68.085  1.00  0.00     0.594 C  
HETATM    3  O   UNL     1     -11.264  10.297  67.538  1.00  0.00    -0.295 OA 
HETATM    4  C   UNL     1     -10.741   8.967  69.436  1.00  0.00    -0.192 A  
HETATM    5  C   UNL     1     -11.433   8.190  70.391  1.00  0.00    -0.125 A  
HETATM    6 CL   UNL     1     -12.983   7.492  70.007  1.00  0.00     1.252 Cl 
HETATM    7  C   UNL     1     -10.888   7.989  71.674  1.00  0.00    -0.237 A  
HETATM    8 CL   UNL     1     -11.755   7.034  72.848  1.00  0.00    -0.071 Cl 
HETATM    9  C   UNL     1      -9.645   8.551  72.009  1.00  0.00    -0.301 A  
HETATM   10  C   UNL     1      -8.945   9.322  71.060  1.00  0.00    -0.156 A  
HETATM   11 CL   UNL     1      -8.980   8.312  73.601  1.00  0.00    -0.270 Cl 
HETATM   12  C   UNL     1      -9.492   9.567  69.776  1.00  0.00    -0.228 A  
HETATM   13 CL   UNL     1      -7.372   9.963  71.457  1.00  0.00     0.838 Cl 
ENDROOT
BRANCH  12  14
HETATM   14  C   UNL     1      -8.757  10.493  68.834  1.00  0.00    -0.154 A  
HETATM   15  C   UNL     1      -7.772  10.036  68.012  1.00  0.00    -0.089 A  
HETATM   16  C   UNL     1      -7.349   8.635  68.010  1.00  0.00    -0.092 C  
HETATM   17  C   UNL     1      -6.536   8.138  67.064  1.00  0.00    -0.057 C  
HETATM   18  C   UNL     1      -6.006   9.029  65.980  1.00  0.00    -0.051 C  
HETATM   19  I   UNL     1      -5.979   6.157  67.079  1.00  0.00    -0.019 I  
HETATM   20  C   UNL     1      -6.231  10.500  66.149  1.00  0.00    -0.111 C  
HETATM   21  O   UNL     1      -5.393   8.572  65.020  1.00  0.00    -0.035 OA 
HETATM   22  I   UNL     1      -5.224  11.770  64.845  1.00  0.00     3.732 I  
HETATM   23  C   UNL     1      -7.051  10.955  67.115  1.00  0.00    -0.103 A  
HETATM   24  O   UNL     1      -7.200  12.321  67.289  1.00  0.00    -0.140 OA 
HETATM   25  C   UNL     1      -8.204  12.816  68.072  1.00  0.00    -0.168 A  
HETATM   26  C   UNL     1      -8.372  14.213  68.109  1.00  0.00    -0.161 A  
HETATM   27  C   UNL     1      -9.378  14.776  68.898  1.00  0.00    -0.184 A  
HETATM   28  I   UNL     1      -7.110  15.477  66.979  1.00  0.00     0.539 I  
HETATM   29  C   UNL     1     -10.235  13.937  69.610  1.00  0.00     0.538 A  
HETATM   30  O   UNL     1      -9.533  16.133  68.991  1.00  0.00    -0.224 OA 
HETATM   31  H   UNL     1     -10.217  16.517  69.527  1.00  0.00     0.000 HD 
HETATM   32  I   UNL     1     -11.778  14.695  70.807  1.00  0.00    -0.219 I  
HETATM   33  C   UNL     1     -10.070  12.546  69.559  1.00  0.00     0.915 A  
HETATM   34  C   UNL     1      -9.031  11.966  68.812  1.00  0.00     0.045 A  
ENDBRANCH  12  14
TORSDOF 1
ENDMDL
MODEL      106
REMARK 921   NORMALIZED FREE ENERGY PREDICTED BY IDOCK:    7.03 KCAL/MOL
REMARK 922        TOTAL FREE ENERGY PREDICTED BY IDOCK:    6.73 KCAL/MOL
REMARK 923 INTER-LIGAND FREE ENERGY PREDICTED BY IDOCK:   -1.60 KCAL/MOL
REMARK 924 INTRA-LIGAND FREE ENERGY PREDICTED BY IDOCK:    8.33 KCAL/MOL
REMARK 927      BINDING AFFINITY PREDICTED BY RF-SCORE:    0.00 PKD
ROOT
HETATM    1  O   UNL     1     -12.408   6.615  68.731  1.00  0.00     1.603 OA 
HETATM    2  C   UNL     1     -11.208   7.208  68.916  1.00  0.00     0.110 C  
HETATM    3  O   UNL     1     -10.816   8.109  68.198  1.00  0.00    -0.079 OA 
HETATM    4  C   UNL     1     -10.359   6.601  69.975  1.00  0.00    -0.232 A  
HETATM    5  C   UNL     1     -10.891   6.290  71.246  1.00  0.00    -0.265 A  
HETATM    6 CL   UNL     1     -12.567   6.609  71.604  1.00  0.00    -0.371 Cl 
HETATM    7  C   UNL     1     -10.067   5.738  72.247  1.00  0.00    -0.184 A  
HETATM    8 CL   UNL     1     -10.734   5.365  73.815  1.00  0.00    -0.324 Cl 
HETATM    9  C   UNL     1      -8.712   5.483  71.984  1.00  0.00    -0.131 A  
HETATM   10  C   UNL     1      -8.174   5.784  70.717  1.00  0.00    -0.123 A  
HETATM   11 CL   UNL     1      -7.693   4.814  73.227  1.00  0.00    -0.091 Cl 
HETATM   12  C   UNL     1      -8.975   6.373  69.707  1.00  0.00    -0.141 A  
HETATM   13 CL   UNL     1      -6.507   5.404  70.372  1.00  0.00    -0.033 Cl 
ENDROOT
BRANCH  12  14
HETATM   14  C   UNL     1      -8.327   6.782  68.405  1.00  0.00    -0.123 A  
HETATM   15  C   UNL     1      -8.522   8.021  67.871  1.00  0.00    -0.125 A  
HETATM   16  C   UNL     1      -9.387   9.014  68.510  1.00  0.00    -0.141 C  
HETATM   17  C   UNL     1      -9.417  10.295  68.107  1.00  0.00    -0.147 C  
HETATM   18  C   UNL     1      -8.570  10.745  66.955  1.00  0.00    -0.132 C  
HETATM   19  I   UNL     1     -10.629  11.671  69.042  1.00  0.00    -0.015 I  
HETATM   20  C   UNL     1      -7.901   9.670  66.152  1.00  0.00    -0.101 C  
HETATM   21  O   UNL     1      -8.459  11.933  66.668  1.00  0.00    -0.185 OA 
HETATM   22  I   UNL     1      -7.004  10.240  64.365  1.00  0.00     0.159 I  
HETATM   23  C   UNL     1      -7.901   8.397  66.590  1.00  0.00    -0.093 A  
HETATM   24  O   UNL     1      -7.326   7.412  65.806  1.00  0.00    -0.071 OA 
HETATM   25  C   UNL     1      -7.076   6.170  66.321  1.00  0.00    -0.068 A  
HETATM   26  C   UNL     1      -6.382   5.256  65.508  1.00  0.00    -0.035 A  
HETATM   27  C   UNL     1      -6.104   3.970  65.979  1.00  0.00    -0.031 A  
HETATM   28  I   UNL     1      -5.752   5.808  63.567  1.00  0.00    -0.018 I  
HETATM   29  C   UNL     1      -6.485   3.624  67.276  1.00  0.00    -0.037 A  
HETATM   30  O   UNL     1      -5.474   3.045  65.191  1.00  0.00    -0.009 OA 
HETATM   31  H   UNL     1      -5.285   2.170  65.512  1.00  0.00     0.000 HD 
HETATM   32  I   UNL     1      -6.098   1.724  68.068  1.00  0.00    -0.025 I  
HETATM   33  C   UNL     1      -7.166   4.544  68.085  1.00  0.00    -0.065 A  
HETATM   34  C   UNL     1      -7.498   5.823  67.607  1.00  0.00    -0.078 A  
ENDBRANCH  12  14
TORSDOF 1
ENDMDL
MODEL      107
REMARK 921   NORMALIZED FREE ENERGY PREDICTED BY IDOCK:    8.33 KCAL/MOL
REMARK 922        TOTAL FREE ENERGY PREDICTED BY IDOCK:    8.11 KCAL/MOL
REMARK 923 INTER-LIGAND FREE ENERGY PREDICTED BY IDOCK:    7.66 KCAL/MOL
REMARK 924 INTRA-LIGAND FREE ENERGY PREDICTED BY IDOCK:    0.45 KCAL/MOL
REMARK 927      BINDING AFFINITY PREDICTED BY RF-SCORE:    0.00 PKD
ROOT
HETATM    1  O   UNL     1      -6.446  13.221  66.973  1.00  0.00    -0.124 OA 
HETATM    2  C   UNL     1      -7.158  13.904  67.895  1.00  0.00    -0.163 C  
HETATM    3  O   UNL     1      -7.384  13.451  69.002  1.00  0.00    -0.076 OA 
HETATM    4  C   UNL     1      -7.742  15.187  67.421  1.00  0.00    -0.225 A  
HETATM    5  C   UNL     1      -6.965  16.117  66.695  1.00  0.00     0.070 A  
HETATM    6 CL   UNL     1      -5.294  15.779  66.331  1.00  0.00     1.597 Cl 
HETATM    7  C   UNL     1      -7.526  17.339  66.274  1.00  0.00    -0.319 A  
HETATM    8 CL   UNL     1      -6.555  18.482  65.384  1.00  0.00    -0.300 Cl 
HETATM    9  C   UNL     1      -8.867  17.636  66.565  1.00  0.00    -0.263 A  
HETATM   10  C   UNL     1      -9.652  16.712  67.283  1.00  0.00    -0.243 A  
HETATM   11 CL   UNL     1      -9.555  19.153  66.055  1.00  0.00    -0.290 Cl 
HETATM   12  C   UNL     1      -9.098  15.493  67.748  1.00  0.00    -0.178 A  
HETATM   13 CL   UNL     1     -11.335  17.056  67.585  1.00  0.00     0.094 Cl 
ENDROOT
BRANCH  12  14
HETATM   14  C   UNL     1      -9.944  14.587  68.611  1.00  0.00    -0.237 A  
HETATM   15  C   UNL     1     -10.307  13.342  68.193  1.00  0.00    -0.246 A  
HETATM   16  C   UNL     1      -9.923  12.820  66.880  1.00  0.00    -0.232 C  
HETATM   17  C   UNL     1     -10.095  11.530  66.550  1.00  0.00    -0.213 C  
HETATM   18  C   UNL     1     -10.720  10.577  67.524  1.00  0.00    -0.276 C  
HETATM   19  I   UNL     1      -9.523  10.825  64.703  1.00  0.00    -0.352 I  
HETATM   20  C   UNL     1     -11.344  11.179  68.746  1.00  0.00    -0.277 C  
HETATM   21  O   UNL     1     -10.745   9.369  67.310  1.00  0.00    -0.267 OA 
HETATM   22  I   UNL     1     -12.503   9.925  69.935  1.00  0.00     0.886 I  
HETATM   23  C   UNL     1     -11.151  12.479  69.037  1.00  0.00    -0.234 A  
HETATM   24  O   UNL     1     -11.783  13.027  70.141  1.00  0.00    -0.271 OA 
HETATM   25  C   UNL     1     -11.415  14.255  70.614  1.00  0.00    -0.068 A  
HETATM   26  C   UNL     1     -12.013  14.699  71.807  1.00  0.00    -0.285 A  
HETATM   27  C   UNL     1     -11.680  15.950  72.334  1.00  0.00    -0.477 A  
HETATM   28  I   UNL     1     -13.420  13.488  72.818  1.00  0.00     0.683 I  
HETATM   29  C   UNL     1     -10.720  16.728  71.686  1.00  0.00     1.873 A  
HETATM   30  O   UNL     1     -12.283  16.427  73.467  1.00  0.00    -0.497 OA 
HETATM   31  H   UNL     1     -12.056  17.277  73.826  1.00  0.00     0.000 HD 
HETATM   32  I   UNL     1     -10.152  18.608  72.413  1.00  0.00     7.893 I  
HETATM   33  C   UNL     1     -10.120  16.274  70.504  1.00  0.00     0.848 A  
HETATM   34  C   UNL     1     -10.482  15.042  69.933  1.00  0.00    -0.175 A  
ENDBRANCH  12  14
TORSDOF 1
ENDMDL
MODEL      108
REMARK 921   NORMALIZED FREE ENERGY PREDICTED BY IDOCK:    9.61 KCAL/MOL
REMARK 922        TOTAL FREE ENERGY PREDICTED BY IDOCK:    9.46 KCAL/MOL
REMARK 923 INTER-LIGAND FREE ENERGY PREDICTED BY IDOCK:   10.42 KCAL/MOL
REMARK 924 INTRA-LIGAND FREE ENERGY PREDICTED BY IDOCK:   -0.95 KCAL/MOL
REMARK 927      BINDING AFFINITY PREDICTED BY RF-SCORE:    0.00 PKD
ROOT
HETATM    1  O   UNL     1     -11.356   8.562  68.858  1.00  0.00     0.328 OA 
HETATM    2  C   UNL     1     -10.257   9.255  69.227  1.00  0.00    -0.206 C  
HETATM    3  O   UNL     1     -10.045  10.386  68.832  1.00  0.00    -0.181 OA 
HETATM    4  C   UNL     1      -9.276   8.495  70.046  1.00  0.00    -0.155 A  
HETATM    5  C   UNL     1      -9.693   7.721  71.151  1.00  0.00    -0.158 A  
HETATM    6 CL   UNL     1     -11.380   7.634  71.582  1.00  0.00    -0.271 Cl 
HETATM    7  C   UNL     1      -8.748   7.027  71.932  1.00  0.00    -0.124 A  
HETATM    8 CL   UNL     1      -9.275   6.080  73.299  1.00  0.00    -0.133 Cl 
HETATM    9  C   UNL     1      -7.383   7.092  71.611  1.00  0.00    -0.085 A  
HETATM   10  C   UNL     1      -6.958   7.857  70.506  1.00  0.00    -0.045 A  
HETATM   11 CL   UNL     1      -6.215   6.245  72.586  1.00  0.00    -0.052 Cl 
HETATM   12  C   UNL     1      -7.887   8.592  69.729  1.00  0.00    -0.094 A  
HETATM   13 CL   UNL     1      -5.269   7.882  70.070  1.00  0.00    -0.023 Cl 
ENDROOT
BRANCH  12  14
HETATM   14  C   UNL     1      -7.371   9.487  68.626  1.00  0.00    -0.075 A  
HETATM   15  C   UNL     1      -6.991  10.772  68.872  1.00  0.00    -0.077 A  
HETATM   16  C   UNL     1      -7.084  11.368  70.206  1.00  0.00     0.884 C  
HETATM   17  C   UNL     1      -6.520  12.552  70.497  1.00  0.00     0.675 C  
HETATM   18  C   UNL     1      -5.790  13.322  69.438  1.00  0.00    -0.094 C  
HETATM   19  I   UNL     1      -6.652  13.350  72.390  1.00  0.00     5.555 I  
HETATM   20  C   UNL     1      -5.933  12.830  68.030  1.00  0.00    -0.101 C  
HETATM   21  O   UNL     1      -5.135  14.323  69.712  1.00  0.00    -0.092 OA 
HETATM   22  I   UNL     1      -5.215  14.062  66.516  1.00  0.00     5.000 I  
HETATM   23  C   UNL     1      -6.511  11.639  67.782  1.00  0.00    -0.067 A  
HETATM   24  O   UNL     1      -6.683  11.230  66.471  1.00  0.00    -0.137 OA 
HETATM   25  C   UNL     1      -7.022   9.937  66.185  1.00  0.00    -0.102 A  
HETATM   26  C   UNL     1      -7.063   9.559  64.830  1.00  0.00    -0.107 A  
HETATM   27  C   UNL     1      -7.410   8.252  64.478  1.00  0.00    -0.091 A  
HETATM   28  I   UNL     1      -6.606  10.956  63.311  1.00  0.00     0.988 I  
HETATM   29  C   UNL     1      -7.670   7.322  65.485  1.00  0.00    -0.108 A  
HETATM   30  O   UNL     1      -7.505   7.871  63.167  1.00  0.00    -0.104 OA 
HETATM   31  H   UNL     1      -7.741   6.982  62.927  1.00  0.00     0.000 HD 
HETATM   32  I   UNL     1      -8.184   5.339  65.048  1.00  0.00    -0.141 I  
HETATM   33  C   UNL     1      -7.616   7.702  66.833  1.00  0.00    -0.102 A  
HETATM   34  C   UNL     1      -7.320   9.026  67.201  1.00  0.00    -0.087 A  
ENDBRANCH  12  14
TORSDOF 1
ENDMDL
MODEL      109
REMARK 921   NORMALIZED FREE ENERGY PREDICTED BY IDOCK:   10.12 KCAL/MOL
REMARK 922        TOTAL FREE ENERGY PREDICTED BY IDOCK:   10.01 KCAL/MOL
REMARK 923 INTER-LIGAND FREE ENERGY PREDICTED BY IDOCK:   10.80 KCAL/MOL
REMARK 924 INTRA-LIGAND FREE ENERGY PREDICTED BY IDOCK:   -0.79 KCAL/MOL
REMARK 927      BINDING AFFINITY PREDICTED BY RF-SCORE:    0.00 PKD
ROOT
HETATM    1  O   UNL     1     -11.804   8.122  67.465  1.00  0.00     2.087 OA 
HETATM    2  C   UNL     1     -11.344   9.185  68.161  1.00  0.00     0.594 C  
HETATM    3  O   UNL     1     -11.312  10.304  67.683  1.00  0.00    -0.335 OA 
HETATM    4  C   UNL     1     -10.773   8.867  69.497  1.00  0.00    -0.206 A  
HETATM    5  C   UNL     1     -11.455   8.020  70.398  1.00  0.00    -0.135 A  
HETATM    6 CL   UNL     1     -12.990   7.318  69.961  1.00  0.00     1.067 Cl 
HETATM    7  C   UNL     1     -10.913   7.749  71.669  1.00  0.00    -0.235 A  
HETATM    8 CL   UNL     1     -11.767   6.706  72.776  1.00  0.00    -0.102 Cl 
HETATM    9  C   UNL     1      -9.683   8.313  72.047  1.00  0.00    -0.252 A  
HETATM   10  C   UNL     1      -8.993   9.154  71.152  1.00  0.00    -0.179 A  
HETATM   11 CL   UNL     1      -9.022   7.987  73.625  1.00  0.00    -0.329 Cl 
HETATM   12  C   UNL     1      -9.537   9.469  69.882  1.00  0.00    -0.250 A  
HETATM   13 CL   UNL     1      -7.435   9.799  71.599  1.00  0.00     0.850 Cl 
ENDROOT
BRANCH  12  14
HETATM   14  C   UNL     1      -8.816  10.466  69.005  1.00  0.00    -0.176 A  
HETATM   15  C   UNL     1      -9.111  11.796  69.048  1.00  0.00     0.240 A  
HETATM   16  C   UNL     1     -10.154  12.332  69.923  1.00  0.00     1.787 C  
HETATM   17  C   UNL     1     -10.304  13.652  70.125  1.00  0.00     1.545 C  
HETATM   18  C   UNL     1      -9.407  14.630  69.427  1.00  0.00     0.108 C  
HETATM   19  I   UNL     1     -11.769  14.371  71.379  1.00  0.00     0.487 I  
HETATM   20  C   UNL     1      -8.530  14.082  68.342  1.00  0.00    -0.166 C  
HETATM   21  O   UNL     1      -9.418  15.823  69.712  1.00  0.00    -0.254 OA 
HETATM   22  I   UNL     1      -7.534  15.458  67.142  1.00  0.00     0.086 I  
HETATM   23  C   UNL     1      -8.414  12.752  68.171  1.00  0.00    -0.177 A  
HETATM   24  O   UNL     1      -7.642  12.269  67.127  1.00  0.00    -0.150 OA 
HETATM   25  C   UNL     1      -7.291  10.949  67.075  1.00  0.00    -0.118 A  
HETATM   26  C   UNL     1      -6.409  10.550  66.054  1.00  0.00    -0.124 A  
HETATM   27  C   UNL     1      -6.020   9.212  65.947  1.00  0.00    -0.051 A  
HETATM   28  I   UNL     1      -5.658  11.961  64.671  1.00  0.00     5.486 I  
HETATM   29  C   UNL     1      -6.485   8.292  66.887  1.00  0.00    -0.057 A  
HETATM   30  O   UNL     1      -5.201   8.788  64.936  1.00  0.00    -0.038 OA 
HETATM   31  H   UNL     1      -4.938   7.878  64.863  1.00  0.00     0.000 HD 
HETATM   32  I   UNL     1      -5.945   6.269  66.811  1.00  0.00    -0.027 I  
HETATM   33  C   UNL     1      -7.355   8.698  67.909  1.00  0.00    -0.092 A  
HETATM   34  C   UNL     1      -7.796  10.029  67.998  1.00  0.00    -0.089 A  
ENDBRANCH  12  14
TORSDOF 1
ENDMDL
MODEL      110
REMARK 921   NORMALIZED FREE ENERGY PREDICTED BY IDOCK:   10.22 KCAL/MOL
REMARK 922        TOTAL FREE ENERGY PREDICTED BY IDOCK:   10.12 KCAL/MOL
REMARK 923 INTER-LIGAND FREE ENERGY PREDICTED BY IDOCK:   10.73 KCAL/MOL
REMARK 924 INTRA-LIGAND FREE ENERGY PREDICTED BY IDOCK:   -0.62 KCAL/MOL
REMARK 927      BINDING AFFINITY PREDICTED BY RF-SCORE:    0.00 PKD
ROOT
HETATM    1  O   UNL     1      -5.276  11.062  66.323  1.00  0.00    -0.091 OA 
HETATM    2  C   UNL     1      -5.811  10.829  67.541  1.00  0.00    -0.044 C  
HETATM    3  O   UNL     1      -5.132  10.479  68.488  1.00  0.00    -0.035 OA 
HETATM    4  C   UNL     1      -7.295  10.914  67.606  1.00  0.00    -0.094 A  
HETATM    5  C   UNL     1      -7.988  11.999  67.026  1.00  0.00    -0.150 A  
HETATM    6 CL   UNL     1      -7.118  13.270  66.211  1.00  0.00     2.340 Cl 
HETATM    7  C   UNL     1      -9.392  12.077  67.119  1.00  0.00    -0.187 A  
HETATM    8 CL   UNL     1     -10.238  13.425  66.404  1.00  0.00    -0.287 Cl 
HETATM    9  C   UNL     1     -10.113  11.070  67.780  1.00  0.00    -0.177 A  
HETATM   10  C   UNL     1      -9.430   9.981  68.357  1.00  0.00    -0.141 A  
HETATM   11 CL   UNL     1     -11.847  11.177  67.905  1.00  0.00    -0.256 Cl 
HETATM   12  C   UNL     1      -8.016   9.901  68.307  1.00  0.00    -0.100 A  
HETATM   13 CL   UNL     1     -10.333   8.699  69.120  1.00  0.00    -0.222 Cl 
ENDROOT
BRANCH  12  14
HETATM   14  C   UNL     1      -7.322   8.774  69.037  1.00  0.00    -0.073 A  
HETATM   15  C   UNL     1      -7.179   7.542  68.473  1.00  0.00    -0.090 A  
HETATM   16  C   UNL     1      -7.708   7.230  67.145  1.00  0.00    -0.112 C  
HETATM   17  C   UNL     1      -7.390   6.095  66.501  1.00  0.00    -0.081 C  
HETATM   18  C   UNL     1      -6.489   5.086  67.149  1.00  0.00    -0.049 C  
HETATM   19  I   UNL     1      -8.135   5.697  64.624  1.00  0.00    -0.083 I  
HETATM   20  C   UNL     1      -6.176   5.297  68.599  1.00  0.00    -0.030 C  
HETATM   21  O   UNL     1      -6.058   4.121  66.526  1.00  0.00    -0.029 OA 
HETATM   22  I   UNL     1      -5.214   3.747  69.597  1.00  0.00    -0.009 I  
HETATM   23  C   UNL     1      -6.519   6.449  69.207  1.00  0.00    -0.043 A  
HETATM   24  O   UNL     1      -6.270   6.600  70.560  1.00  0.00    -0.033 OA 
HETATM   25  C   UNL     1      -6.362   7.829  71.151  1.00  0.00    -0.034 A  
HETATM   26  C   UNL     1      -5.980   7.932  72.501  1.00  0.00    -0.043 A  
HETATM   27  C   UNL     1      -6.060   9.162  73.159  1.00  0.00     0.148 A  
HETATM   28  I   UNL     1      -5.284   6.236  73.553  1.00  0.00    -0.038 I  
HETATM   29  C   UNL     1      -6.480  10.287  72.450  1.00  0.00     1.882 A  
HETATM   30  O   UNL     1      -5.741   9.281  74.485  1.00  0.00    -0.145 OA 
HETATM   31  H   UNL     1      -5.795  10.117  74.933  1.00  0.00     0.000 HD 
HETATM   32  I   UNL     1      -6.616  12.173  73.353  1.00  0.00     8.594 I  
HETATM   33  C   UNL     1      -6.847  10.180  71.101  1.00  0.00     0.495 A  
HETATM   34  C   UNL     1      -6.823   8.940  70.440  1.00  0.00    -0.049 A  
ENDBRANCH  12  14
TORSDOF 1
ENDMDL
MODEL      111
REMARK 921   NORMALIZED FREE ENERGY PREDICTED BY IDOCK:   10.35 KCAL/MOL
REMARK 922        TOTAL FREE ENERGY PREDICTED BY IDOCK:   10.25 KCAL/MOL
REMARK 923 INTER-LIGAND FREE ENERGY PREDICTED BY IDOCK:   -0.51 KCAL/MOL
REMARK 924 INTRA-LIGAND FREE ENERGY PREDICTED BY IDOCK:   10.76 KCAL/MOL
REMARK 927      BINDING AFFINITY PREDICTED BY RF-SCORE:    0.00 PKD
ROOT
HETATM    1  O   UNL     1      -8.971   5.471  69.593  1.00  0.00    -0.115 OA 
HETATM    2  C   UNL     1      -8.646   6.591  68.911  1.00  0.00    -0.125 C  
HETATM    3  O   UNL     1      -8.544   7.673  69.458  1.00  0.00    -0.131 OA 
HETATM    4  C   UNL     1      -8.542   6.426  67.436  1.00  0.00    -0.107 A  
HETATM    5  C   UNL     1      -7.823   5.349  66.873  1.00  0.00    -0.101 A  
HETATM    6 CL   UNL     1      -7.039   4.177  67.898  1.00  0.00    -0.059 Cl 
HETATM    7  C   UNL     1      -7.714   5.220  65.474  1.00  0.00    -0.087 A  
HETATM    8 CL   UNL     1      -6.818   3.889  64.790  1.00  0.00    -0.048 Cl 
HETATM    9  C   UNL     1      -8.329   6.158  64.629  1.00  0.00    -0.044 A  
HETATM   10  C   UNL     1      -9.053   7.232  65.183  1.00  0.00     0.551 A  
HETATM   11 CL   UNL     1      -8.180   6.005  62.901  1.00  0.00    -0.093 Cl 
HETATM   12  C   UNL     1      -9.146   7.401  66.587  1.00  0.00    -0.184 A  
HETATM   13 CL   UNL     1      -9.871   8.358  64.130  1.00  0.00     2.710 Cl 
ENDROOT
BRANCH  12  14
HETATM   14  C   UNL     1      -9.836   8.630  67.131  1.00  0.00    -0.269 A  
HETATM   15  C   UNL     1      -9.771   9.828  66.484  1.00  0.00    -0.267 A  
HETATM   16  C   UNL     1      -9.012  10.002  65.245  1.00  0.00    -0.220 C  
HETATM   17  C   UNL     1      -9.115  11.112  64.497  1.00  0.00    -0.054 C  
HETATM   18  C   UNL     1     -10.007  12.236  64.932  1.00  0.00    -0.195 C  
HETATM   19  I   UNL     1      -8.050  11.314  62.747  1.00  0.00     0.714 I  
HETATM   20  C   UNL     1     -10.563  12.154  66.321  1.00  0.00    -0.250 C  
HETATM   21  O   UNL     1     -10.241  13.189  64.195  1.00  0.00    -0.391 OA 
HETATM   22  I   UNL     1     -11.518  13.846  67.063  1.00  0.00    -0.443 I  
HETATM   23  C   UNL     1     -10.431  11.022  67.039  1.00  0.00    -0.240 A  
HETATM   24  O   UNL     1     -10.903  10.987  68.340  1.00  0.00    -0.190 OA 
HETATM   25  C   UNL     1     -11.022   9.799  69.005  1.00  0.00    -0.163 A  
HETATM   26  C   UNL     1     -11.620   9.822  70.278  1.00  0.00    -0.220 A  
HETATM   27  C   UNL     1     -11.762   8.639  71.007  1.00  0.00    -0.278 A  
HETATM   28  I   UNL     1     -12.308  11.640  71.108  1.00  0.00     0.158 I  
HETATM   29  C   UNL     1     -11.345   7.435  70.438  1.00  0.00    -0.249 A  
HETATM   30  O   UNL     1     -12.296   8.640  72.268  1.00  0.00    -0.360 OA 
HETATM   31  H   UNL     1     -12.393   7.835  72.763  1.00  0.00     0.000 HD 
HETATM   32  I   UNL     1     -11.532   5.612  71.454  1.00  0.00     0.587 I  
HETATM   33  C   UNL     1     -10.761   7.417  69.164  1.00  0.00    -0.180 A  
HETATM   34  C   UNL     1     -10.563   8.606  68.441  1.00  0.00    -0.169 A  
ENDBRANCH  12  14
TORSDOF 1
ENDMDL
MODEL      112
REMARK 921   NORMALIZED FREE ENERGY PREDICTED BY IDOCK:   11.04 KCAL/MOL
REMARK 922        TOTAL FREE ENERGY PREDICTED BY IDOCK:   10.99 KCAL/MOL
REMARK 923 INTER-LIGAND FREE ENERGY PREDICTED BY IDOCK:   11.93 KCAL/MOL
REMARK 924 INTRA-LIGAND FREE ENERGY PREDICTED BY IDOCK:   -0.94 KCAL/MOL
REMARK 927      BINDING AFFINITY PREDICTED BY RF-SCORE:    0.00 PKD
ROOT
HETATM    1  O   UNL     1      -7.008  12.657  70.372  1.00  0.00     0.646 OA 
HETATM    2  C   UNL     1      -6.998  13.651  69.458  1.00  0.00     0.090 C  
HETATM    3  O   UNL     1      -6.653  14.783  69.740  1.00  0.00    -0.147 OA 
HETATM    4  C   UNL     1      -7.552  13.290  68.125  1.00  0.00    -0.141 A  
HETATM    5  C   UNL     1      -7.166  12.098  67.475  1.00  0.00    -0.133 A  
HETATM    6 CL   UNL     1      -6.029  11.010  68.225  1.00  0.00    -0.046 Cl 
HETATM    7  C   UNL     1      -7.681  11.783  66.202  1.00  0.00     0.345 A  
HETATM    8 CL   UNL     1      -7.192  10.310  65.406  1.00  0.00    -0.143 Cl 
HETATM    9  C   UNL     1      -8.590  12.649  65.574  1.00  0.00     1.326 A  
HETATM   10  C   UNL     1      -8.985  13.838  66.218  1.00  0.00     0.130 A  
HETATM   11 CL   UNL     1      -9.214  12.264  63.995  1.00  0.00     0.407 Cl 
HETATM   12  C   UNL     1      -8.453  14.193  67.483  1.00  0.00    -0.194 A  
HETATM   13 CL   UNL     1     -10.165  14.879  65.465  1.00  0.00    -0.370 Cl 
ENDROOT
BRANCH  12  14
HETATM   14  C   UNL     1      -8.819  15.531  68.081  1.00  0.00    -0.169 A  
HETATM   15  C   UNL     1      -9.770  15.641  69.051  1.00  0.00    -0.241 A  
HETATM   16  C   UNL     1     -10.509  14.480  69.549  1.00  0.00    -0.080 C  
HETATM   17  C   UNL     1     -11.288  14.547  70.641  1.00  0.00    -0.091 C  
HETATM   18  C   UNL     1     -11.447  15.844  71.377  1.00  0.00    -0.417 C  
HETATM   19  I   UNL     1     -12.295  12.889  71.328  1.00  0.00     0.510 I  
HETATM   20  C   UNL     1     -10.904  17.069  70.705  1.00  0.00     0.829 C  
HETATM   21  O   UNL     1     -12.022  15.899  72.459  1.00  0.00    -0.429 OA 
HETATM   22  I   UNL     1     -11.404  18.908  71.537  1.00  0.00     9.770 I  
HETATM   23  C   UNL     1     -10.131  16.955  69.608  1.00  0.00     0.018 A  
HETATM   24  O   UNL     1      -9.686  18.102  68.972  1.00  0.00    -0.287 OA 
HETATM   25  C   UNL     1      -8.702  18.034  68.026  1.00  0.00    -0.261 A  
HETATM   26  C   UNL     1      -8.215  19.248  67.506  1.00  0.00    -0.288 A  
HETATM   27  C   UNL     1      -7.214  19.240  66.531  1.00  0.00    -0.229 A  
HETATM   28  I   UNL     1      -8.985  21.094  68.188  1.00  0.00     1.407 I  
HETATM   29  C   UNL     1      -6.680  18.021  66.114  1.00  0.00    -0.268 A  
HETATM   30  O   UNL     1      -6.756  20.403  65.974  1.00  0.00    -0.231 OA 
HETATM   31  H   UNL     1      -6.075  20.398  65.311  1.00  0.00     0.000 HD 
HETATM   32  I   UNL     1      -5.169  17.916  64.667  1.00  0.00     1.099 I  
HETATM   33  C   UNL     1      -7.162  16.816  66.645  1.00  0.00    -0.289 A  
HETATM   34  C   UNL     1      -8.204  16.805  67.587  1.00  0.00    -0.191 A  
ENDBRANCH  12  14
TORSDOF 1
ENDMDL
MODEL      113
REMARK 921   NORMALIZED FREE ENERGY PREDICTED BY IDOCK:   11.75 KCAL/MOL
REMARK 922        TOTAL FREE ENERGY PREDICTED BY IDOCK:   11.73 KCAL/MOL
REMARK 923 INTER-LIGAND FREE ENERGY PREDICTED BY IDOCK:   10.80 KCAL/MOL
REMARK 924 INTRA-LIGAND FREE ENERGY PREDICTED BY IDOCK:    0.94 KCAL/MOL
REMARK 927      BINDING AFFINITY PREDICTED BY RF-SCORE:    0.00 PKD
ROOT
HETATM    1  O   UNL     1     -11.356  14.314  70.158  1.00  0.00    -0.225 OA 
HETATM    2  C   UNL     1     -10.754  13.707  69.112  1.00  0.00    -0.104 C  
HETATM    3  O   UNL     1     -11.272  12.780  68.518  1.00  0.00    -0.243 OA 
HETATM    4  C   UNL     1      -9.372  14.174  68.820  1.00  0.00    -0.092 A  
HETATM    5  C   UNL     1      -9.065  15.551  68.760  1.00  0.00    -0.207 A  
HETATM    6 CL   UNL     1     -10.306  16.745  69.033  1.00  0.00    -0.307 Cl 
HETATM    7  C   UNL     1      -7.756  15.976  68.458  1.00  0.00    -0.158 A  
HETATM    8 CL   UNL     1      -7.391  17.680  68.381  1.00  0.00    -0.233 Cl 
HETATM    9  C   UNL     1      -6.744  15.032  68.225  1.00  0.00    -0.114 A  
HETATM   10  C   UNL     1      -7.039  13.656  68.289  1.00  0.00    -0.110 A  
HETATM   11 CL   UNL     1      -5.130  15.560  67.838  1.00  0.00    -0.128 Cl 
HETATM   12  C   UNL     1      -8.356  13.206  68.555  1.00  0.00    -0.063 A  
HETATM   13 CL   UNL     1      -5.765  12.486  68.063  1.00  0.00    -0.072 Cl 
ENDROOT
BRANCH  12  14
HETATM   14  C   UNL     1      -8.648  11.724  68.500  1.00  0.00    -0.123 A  
HETATM   15  C   UNL     1      -9.348  11.174  67.468  1.00  0.00    -0.174 A  
HETATM   16  C   UNL     1      -9.880  11.984  66.372  1.00  0.00    -0.238 C  
HETATM   17  C   UNL     1     -10.382  11.430  65.256  1.00  0.00    -0.282 C  
HETATM   18  C   UNL     1     -10.438   9.938  65.113  1.00  0.00     0.455 C  
HETATM   19  I   UNL     1     -11.102  12.600  63.724  1.00  0.00    -0.378 I  
HETATM   20  C   UNL     1     -10.140   9.133  66.341  1.00  0.00    -0.274 C  
HETATM   21  O   UNL     1     -10.744   9.409  64.049  1.00  0.00     3.302 OA 
HETATM   22  I   UNL     1     -10.536   7.093  66.258  1.00  0.00     1.462 I  
HETATM   23  C   UNL     1      -9.642   9.731  67.441  1.00  0.00    -0.155 A  
HETATM   24  O   UNL     1      -9.427   8.978  68.582  1.00  0.00    -0.145 OA 
HETATM   25  C   UNL     1      -8.692   9.481  69.619  1.00  0.00    -0.182 A  
HETATM   26  C   UNL     1      -8.412   8.621  70.696  1.00  0.00    -0.157 A  
HETATM   27  C   UNL     1      -7.671   9.082  71.787  1.00  0.00     0.142 A  
HETATM   28  I   UNL     1      -9.105   6.623  70.683  1.00  0.00    -0.158 I  
HETATM   29  C   UNL     1      -7.180  10.388  71.772  1.00  0.00     2.992 A  
HETATM   30  O   UNL     1      -7.424   8.281  72.869  1.00  0.00    -0.121 OA 
HETATM   31  H   UNL     1      -6.920   8.595  73.611  1.00  0.00     0.000 HD 
HETATM   32  I   UNL     1      -6.049  11.159  73.358  1.00  0.00     4.207 I  
HETATM   33  C   UNL     1      -7.453  11.237  70.690  1.00  0.00     2.535 A  
HETATM   34  C   UNL     1      -8.241  10.804  69.610  1.00  0.00     0.142 A  
ENDBRANCH  12  14
TORSDOF 1
ENDMDL
MODEL      114
REMARK 921   NORMALIZED FREE ENERGY PREDICTED BY IDOCK:   12.45 KCAL/MOL
REMARK 922        TOTAL FREE ENERGY PREDICTED BY IDOCK:   12.48 KCAL/MOL
REMARK 923 INTER-LIGAND FREE ENERGY PREDICTED BY IDOCK:   13.40 KCAL/MOL
REMARK 924 INTRA-LIGAND FREE ENERGY PREDICTED BY IDOCK:   -0.92 KCAL/MOL
REMARK 927      BINDING AFFINITY PREDICTED BY RF-SCORE:    0.00 PKD
ROOT
HETATM    1  O   UNL     1     -13.230  15.192  68.666  1.00  0.00     1.557 OA 
HETATM    2  C   UNL     1     -12.010  14.610  68.658  1.00  0.00    -0.270 C  
HETATM    3  O   UNL     1     -11.305  14.575  69.649  1.00  0.00    -0.256 OA 
HETATM    4  C   UNL     1     -11.548  14.128  67.329  1.00  0.00    -0.399 A  
HETATM    5  C   UNL     1     -12.398  13.370  66.494  1.00  0.00    -0.295 A  
HETATM    6 CL   UNL     1     -14.020  12.982  67.001  1.00  0.00     8.694 Cl 
HETATM    7  C   UNL     1     -11.936  12.900  65.248  1.00  0.00    -0.419 A  
HETATM    8 CL   UNL     1     -12.992  11.958  64.228  1.00  0.00    -0.195 Cl 
HETATM    9  C   UNL     1     -10.630  13.191  64.824  1.00  0.00    -0.372 A  
HETATM   10  C   UNL     1      -9.778  13.952  65.648  1.00  0.00    -0.128 A  
HETATM   11 CL   UNL     1     -10.058  12.597  63.290  1.00  0.00     0.135 Cl 
HETATM   12  C   UNL     1     -10.208  14.404  66.920  1.00  0.00    -0.265 A  
HETATM   13 CL   UNL     1      -8.178  14.368  65.089  1.00  0.00     4.791 Cl 
ENDROOT
BRANCH  12  14
HETATM   14  C   UNL     1      -9.222  15.118  67.815  1.00  0.00    -0.180 A  
HETATM   15  C   UNL     1      -8.418  14.433  68.676  1.00  0.00    -0.156 A  
HETATM   16  C   UNL     1      -8.480  12.977  68.805  1.00  0.00     0.149 C  
HETATM   17  C   UNL     1      -7.555  12.283  69.489  1.00  0.00     0.653 C  
HETATM   18  C   UNL     1      -6.429  12.997  70.174  1.00  0.00     0.160 C  
HETATM   19  I   UNL     1      -7.661  10.233  69.631  1.00  0.00    -0.076 I  
HETATM   20  C   UNL     1      -6.530  14.490  70.256  1.00  0.00    -0.144 C  
HETATM   21  O   UNL     1      -5.490  12.383  70.670  1.00  0.00    -0.142 OA 
HETATM   22  I   UNL     1      -5.166  15.468  71.483  1.00  0.00     0.246 I  
HETATM   23  C   UNL     1      -7.477  15.145  69.558  1.00  0.00    -0.213 A  
HETATM   24  O   UNL     1      -7.588  16.519  69.691  1.00  0.00    -0.035 OA 
HETATM   25  C   UNL     1      -8.351  17.243  68.819  1.00  0.00    -0.228 A  
HETATM   26  C   UNL     1      -8.323  18.645  68.939  1.00  0.00    -0.184 A  
HETATM   27  C   UNL     1      -9.088  19.436  68.078  1.00  0.00    -0.328 A  
HETATM   28  I   UNL     1      -7.131  19.573  70.417  1.00  0.00     1.166 I  
HETATM   29  C   UNL     1      -9.842  18.822  67.078  1.00  0.00    -0.325 A  
HETATM   30  O   UNL     1      -9.118  20.799  68.204  1.00  0.00     0.146 OA 
HETATM   31  H   UNL     1      -9.639  21.337  67.619  1.00  0.00     0.000 HD 
HETATM   32  I   UNL     1     -11.007  19.931  65.737  1.00  0.00     0.818 I  
HETATM   33  C   UNL     1      -9.855  17.425  66.956  1.00  0.00    -0.286 A  
HETATM   34  C   UNL     1      -9.132  16.613  67.847  1.00  0.00    -0.218 A  
ENDBRANCH  12  14
TORSDOF 1
ENDMDL
MODEL      115
REMARK 921   NORMALIZED FREE ENERGY PREDICTED BY IDOCK:   12.95 KCAL/MOL
REMARK 922        TOTAL FREE ENERGY PREDICTED BY IDOCK:   13.01 KCAL/MOL
REMARK 923 INTER-LIGAND FREE ENERGY PREDICTED BY IDOCK:    0.87 KCAL/MOL
REMARK 924 INTRA-LIGAND FREE ENERGY PREDICTED BY IDOCK:   12.13 KCAL/MOL
REMARK 927      BINDING AFFINITY PREDICTED BY RF-SCORE:    0.00 PKD
ROOT
HETATM    1  O   UNL     1      -9.967   4.077  64.784  1.00  0.00    -0.186 OA 
HETATM    2  C   UNL     1      -9.132   4.646  65.680  1.00  0.00    -0.142 C  
HETATM    3  O   UNL     1      -8.419   3.982  66.410  1.00  0.00    -0.107 OA 
HETATM    4  C   UNL     1      -9.236   6.125  65.792  1.00  0.00    -0.014 A  
HETATM    5  C   UNL     1      -9.261   6.943  64.641  1.00  0.00     1.301 A  
HETATM    6 CL   UNL     1      -9.173   6.233  63.051  1.00  0.00     1.016 Cl 
HETATM    7  C   UNL     1      -9.335   8.344  64.765  1.00  0.00     0.838 A  
HETATM    8 CL   UNL     1      -9.358   9.344  63.336  1.00  0.00     0.076 Cl 
HETATM    9  C   UNL     1      -9.396   8.938  66.036  1.00  0.00    -0.242 A  
HETATM   10  C   UNL     1      -9.378   8.130  67.190  1.00  0.00    -0.145 A  
HETATM   11 CL   UNL     1      -9.473  10.672  66.186  1.00  0.00    -0.205 Cl 
HETATM   12  C   UNL     1      -9.267   6.721  67.090  1.00  0.00    -0.145 A  
HETATM   13 CL   UNL     1      -9.520   8.867  68.764  1.00  0.00    -0.144 Cl 
ENDROOT
BRANCH  12  14
HETATM   14  C   UNL     1      -9.137   5.906  68.355  1.00  0.00    -0.115 A  
HETATM   15  C   UNL     1      -9.870   6.197  69.467  1.00  0.00    -0.193 A  
HETATM   16  C   UNL     1     -10.802   7.324  69.510  1.00  0.00    -0.224 C  
HETATM   17  C   UNL     1     -11.674   7.488  70.518  1.00  0.00    -0.158 C  
HETATM   18  C   UNL     1     -11.699   6.517  71.661  1.00  0.00    -0.324 C  
HETATM   19  I   UNL     1     -12.986   9.073  70.536  1.00  0.00     1.143 I  
HETATM   20  C   UNL     1     -10.571   5.533  71.732  1.00  0.00    -0.235 C  
HETATM   21  O   UNL     1     -12.584   6.552  72.510  1.00  0.00     0.030 OA 
HETATM   22  I   UNL     1     -10.401   4.409  73.473  1.00  0.00    -0.345 I  
HETATM   23  C   UNL     1      -9.716   5.406  70.700  1.00  0.00    -0.181 A  
HETATM   24  O   UNL     1      -8.648   4.531  70.810  1.00  0.00    -0.089 OA 
HETATM   25  C   UNL     1      -7.918   4.183  69.708  1.00  0.00    -0.055 A  
HETATM   26  C   UNL     1      -6.925   3.200  69.869  1.00  0.00    -0.034 A  
HETATM   27  C   UNL     1      -6.143   2.809  68.779  1.00  0.00    -0.025 A  
HETATM   28  I   UNL     1      -6.600   2.300  71.754  1.00  0.00    -0.019 I  
HETATM   29  C   UNL     1      -6.389   3.375  67.528  1.00  0.00    -0.036 A  
HETATM   30  O   UNL     1      -5.138   1.890  68.918  1.00  0.00    -0.007 OA 
HETATM   31  H   UNL     1      -4.606   1.624  68.177  1.00  0.00     0.000 HD 
HETATM   32  I   UNL     1      -5.273   2.839  65.838  1.00  0.00    -0.009 I  
HETATM   33  C   UNL     1      -7.388   4.346  67.372  1.00  0.00    -0.069 A  
HETATM   34  C   UNL     1      -8.147   4.787  68.469  1.00  0.00    -0.084 A  
ENDBRANCH  12  14
TORSDOF 1
ENDMDL
MODEL      116
REMARK 921   NORMALIZED FREE ENERGY PREDICTED BY IDOCK:   13.69 KCAL/MOL
REMARK 922        TOTAL FREE ENERGY PREDICTED BY IDOCK:   13.79 KCAL/MOL
REMARK 923 INTER-LIGAND FREE ENERGY PREDICTED BY IDOCK:    9.36 KCAL/MOL
REMARK 924 INTRA-LIGAND FREE ENERGY PREDICTED BY IDOCK:    4.43 KCAL/MOL
REMARK 927      BINDING AFFINITY PREDICTED BY RF-SCORE:    0.00 PKD
ROOT
HETATM    1  O   UNL     1     -12.687  14.282  71.325  1.00  0.00    -0.316 OA 
HETATM    2  C   UNL     1     -11.615  13.467  71.214  1.00  0.00     1.092 C  
HETATM    3  O   UNL     1     -10.477  13.897  71.189  1.00  0.00     2.461 OA 
HETATM    4  C   UNL     1     -11.933  12.029  71.007  1.00  0.00     0.129 A  
HETATM    5  C   UNL     1     -12.898  11.374  71.803  1.00  0.00    -0.344 A  
HETATM    6 CL   UNL     1     -13.749  12.241  73.053  1.00  0.00     1.293 Cl 
HETATM    7  C   UNL     1     -13.169  10.005  71.610  1.00  0.00    -0.419 A  
HETATM    8 CL   UNL     1     -14.359   9.205  72.604  1.00  0.00    -0.264 Cl 
HETATM    9  C   UNL     1     -12.488   9.284  70.616  1.00  0.00     0.056 A  
HETATM   10  C   UNL     1     -11.528   9.931  69.813  1.00  0.00    -0.143 A  
HETATM   11 CL   UNL     1     -12.816   7.588  70.389  1.00  0.00     0.365 Cl 
HETATM   12  C   UNL     1     -11.214  11.298  70.014  1.00  0.00    -0.213 A  
HETATM   13 CL   UNL     1     -10.733   9.049  68.536  1.00  0.00    -0.187 Cl 
ENDROOT
BRANCH  12  14
HETATM   14  C   UNL     1     -10.097  11.917  69.205  1.00  0.00     0.272 A  
HETATM   15  C   UNL     1      -8.893  11.296  69.063  1.00  0.00     0.026 A  
HETATM   16  C   UNL     1      -8.600  10.012  69.702  1.00  0.00    -0.198 C  
HETATM   17  C   UNL     1      -7.503   9.300  69.398  1.00  0.00    -0.078 C  
HETATM   18  C   UNL     1      -6.517   9.822  68.397  1.00  0.00    -0.055 C  
HETATM   19  I   UNL     1      -7.134   7.487  70.300  1.00  0.00    -0.061 I  
HETATM   20  C   UNL     1      -6.694  11.243  67.957  1.00  0.00    -0.062 C  
HETATM   21  O   UNL     1      -5.594   9.126  67.985  1.00  0.00    -0.038 OA 
HETATM   22  I   UNL     1      -5.158  12.089  66.838  1.00  0.00     0.258 I  
HETATM   23  C   UNL     1      -7.807  11.923  68.290  1.00  0.00    -0.141 A  
HETATM   24  O   UNL     1      -7.925  13.252  67.920  1.00  0.00    -0.130 OA 
HETATM   25  C   UNL     1      -9.128  13.895  68.009  1.00  0.00    -0.192 A  
HETATM   26  C   UNL     1      -9.204  15.206  67.505  1.00  0.00    -0.186 A  
HETATM   27  C   UNL     1     -10.406  15.915  67.575  1.00  0.00    -0.283 A  
HETATM   28  I   UNL     1      -7.508  16.125  66.640  1.00  0.00     0.286 I  
HETATM   29  C   UNL     1     -11.534  15.290  68.109  1.00  0.00    -0.346 A  
HETATM   30  O   UNL     1     -10.496  17.209  67.137  1.00  0.00    -0.319 OA 
HETATM   31  H   UNL     1     -11.314  17.690  67.184  1.00  0.00     0.000 HD 
HETATM   32  I   UNL     1     -13.379  16.272  68.240  1.00  0.00     7.611 I  
HETATM   33  C   UNL     1     -11.454  13.979  68.598  1.00  0.00    -0.337 A  
HETATM   34  C   UNL     1     -10.240  13.273  68.583  1.00  0.00    -0.178 A  
ENDBRANCH  12  14
TORSDOF 1
ENDMDL
MODEL      117
REMARK 921   NORMALIZED FREE ENERGY PREDICTED BY IDOCK:   13.94 KCAL/MOL
REMARK 922        TOTAL FREE ENERGY PREDICTED BY IDOCK:   14.05 KCAL/MOL
REMARK 923 INTER-LIGAND FREE ENERGY PREDICTED BY IDOCK:   10.14 KCAL/MOL
REMARK 924 INTRA-LIGAND FREE ENERGY PREDICTED BY IDOCK:    3.91 KCAL/MOL
REMARK 927      BINDING AFFINITY PREDICTED BY RF-SCORE:    0.00 PKD
ROOT
HETATM    1  O   UNL     1     -12.691  14.283  71.308  1.00  0.00    -0.316 OA 
HETATM    2  C   UNL     1     -11.618  13.469  71.201  1.00  0.00     0.894 C  
HETATM    3  O   UNL     1     -10.479  13.897  71.217  1.00  0.00     2.759 OA 
HETATM    4  C   UNL     1     -11.933  12.038  70.942  1.00  0.00    -0.025 A  
HETATM    5  C   UNL     1     -12.918  11.362  71.694  1.00  0.00    -0.418 A  
HETATM    6 CL   UNL     1     -13.800  12.194  72.947  1.00  0.00     0.908 Cl 
HETATM    7  C   UNL     1     -13.187  10.000  71.453  1.00  0.00    -0.395 A  
HETATM    8 CL   UNL     1     -14.402   9.173  72.392  1.00  0.00    -0.357 Cl 
HETATM    9  C   UNL     1     -12.482   9.307  70.456  1.00  0.00     0.182 A  
HETATM   10  C   UNL     1     -11.501   9.976  69.697  1.00  0.00    -0.155 A  
HETATM   11 CL   UNL     1     -12.806   7.620  70.170  1.00  0.00     0.916 Cl 
HETATM   12  C   UNL     1     -11.189  11.335  69.946  1.00  0.00    -0.264 A  
HETATM   13 CL   UNL     1     -10.674   9.130  68.415  1.00  0.00    -0.206 Cl 
ENDROOT
BRANCH  12  14
HETATM   14  C   UNL     1     -10.052  11.976  69.186  1.00  0.00     0.182 A  
HETATM   15  C   UNL     1     -10.200  13.181  68.566  1.00  0.00    -0.218 A  
HETATM   16  C   UNL     1     -11.469  13.910  68.577  1.00  0.00    -0.346 C  
HETATM   17  C   UNL     1     -11.563  15.181  68.155  1.00  0.00    -0.341 C  
HETATM   18  C   UNL     1     -10.354  15.893  67.625  1.00  0.00    -0.281 C  
HETATM   19  I   UNL     1     -13.359  16.184  68.206  1.00  0.00     7.319 I  
HETATM   20  C   UNL     1      -9.137  15.055  67.374  1.00  0.00    -0.186 C  
HETATM   21  O   UNL     1     -10.375  17.095  67.381  1.00  0.00    -0.316 OA 
HETATM   22  I   UNL     1      -7.572  15.944  66.333  1.00  0.00     1.269 I  
HETATM   23  C   UNL     1      -9.088  13.782  67.810  1.00  0.00    -0.193 A  
HETATM   24  O   UNL     1      -7.977  13.009  67.518  1.00  0.00    -0.155 OA 
HETATM   25  C   UNL     1      -7.774  11.815  68.152  1.00  0.00    -0.124 A  
HETATM   26  C   UNL     1      -6.566  11.140  67.897  1.00  0.00    -0.062 A  
HETATM   27  C   UNL     1      -6.307   9.912  68.512  1.00  0.00    -0.050 A  
HETATM   28  I   UNL     1      -5.131  11.965  66.583  1.00  0.00     0.439 I  
HETATM   29  C   UNL     1      -7.239   9.391  69.410  1.00  0.00    -0.066 A  
HETATM   30  O   UNL     1      -5.163   9.210  68.244  1.00  0.00    -0.037 OA 
HETATM   31  H   UNL     1      -4.987   8.375  68.662  1.00  0.00     0.000 HD 
HETATM   32  I   UNL     1      -6.927   7.564  70.386  1.00  0.00    -0.053 I  
HETATM   33  C   UNL     1      -8.435  10.076  69.669  1.00  0.00    -0.193 A  
HETATM   34  C   UNL     1      -8.733  11.285  69.019  1.00  0.00     0.026 A  
ENDBRANCH  12  14
TORSDOF 1
ENDMDL
MODEL      118
REMARK 921   NORMALIZED FREE ENERGY PREDICTED BY IDOCK:   15.03 KCAL/MOL
REMARK 922        TOTAL FREE ENERGY PREDICTED BY IDOCK:   15.21 KCAL/MOL
REMARK 923 INTER-LIGAND FREE ENERGY PREDICTED BY IDOCK:    2.61 KCAL/MOL
REMARK 924 INTRA-LIGAND FREE ENERGY PREDICTED BY IDOCK:   12.60 KCAL/MOL
REMARK 927      BINDING AFFINITY PREDICTED BY RF-SCORE:    0.00 PKD
ROOT
HETATM    1  O   UNL     1      -9.936  17.894  67.183  1.00  0.00    -0.302 OA 
HETATM    2  C   UNL     1     -10.119  16.611  67.564  1.00  0.00    -0.273 C  
HETATM    3  O   UNL     1      -9.868  16.231  68.693  1.00  0.00    -0.214 OA 
HETATM    4  C   UNL     1     -10.530  15.681  66.478  1.00  0.00    -0.303 A  
HETATM    5  C   UNL     1     -11.567  16.021  65.583  1.00  0.00     0.514 A  
HETATM    6 CL   UNL     1     -12.393  17.549  65.725  1.00  0.00     5.097 Cl 
HETATM    7  C   UNL     1     -11.962  15.118  64.575  1.00  0.00    -0.319 A  
HETATM    8 CL   UNL     1     -13.249  15.546  63.479  1.00  0.00     2.033 Cl 
HETATM    9  C   UNL     1     -11.318  13.877  64.448  1.00  0.00    -0.341 A  
HETATM   10  C   UNL     1     -10.278  13.532  65.334  1.00  0.00    -0.302 A  
HETATM   11 CL   UNL     1     -11.817  12.757  63.211  1.00  0.00    -0.572 Cl 
HETATM   12  C   UNL     1      -9.889  14.409  66.377  1.00  0.00    -0.309 A  
HETATM   13 CL   UNL     1      -9.436  12.017  65.132  1.00  0.00    -0.081 Cl 
ENDROOT
BRANCH  12  14
HETATM   14  C   UNL     1      -8.848  13.948  67.370  1.00  0.00    -0.209 A  
HETATM   15  C   UNL     1      -8.718  12.633  67.706  1.00  0.00    -0.179 A  
HETATM   16  C   UNL     1      -9.591  11.599  67.148  1.00  0.00    -0.185 C  
HETATM   17  C   UNL     1      -9.335  10.290  67.309  1.00  0.00    -0.149 C  
HETATM   18  C   UNL     1      -8.143   9.845  68.101  1.00  0.00    -0.104 C  
HETATM   19  I   UNL     1     -10.572   8.862  66.491  1.00  0.00     0.835 I  
HETATM   20  C   UNL     1      -7.421  10.901  68.880  1.00  0.00    -0.116 C  
HETATM   21  O   UNL     1      -7.800   8.667  68.132  1.00  0.00    -0.100 OA 
HETATM   22  I   UNL     1      -5.984  10.261  70.241  1.00  0.00    -0.119 I  
HETATM   23  C   UNL     1      -7.713  12.202  68.692  1.00  0.00    -0.089 A  
HETATM   24  O   UNL     1      -7.073  13.158  69.463  1.00  0.00     0.078 OA 
HETATM   25  C   UNL     1      -7.146  14.482  69.131  1.00  0.00    -0.130 A  
HETATM   26  C   UNL     1      -6.375  15.385  69.885  1.00  0.00    -0.158 A  
HETATM   27  C   UNL     1      -6.415  16.752  69.596  1.00  0.00    -0.189 A  
HETATM   28  I   UNL     1      -5.150  14.695  71.464  1.00  0.00    -0.134 I  
HETATM   29  C   UNL     1      -7.193  17.198  68.527  1.00  0.00    -0.220 A  
HETATM   30  O   UNL     1      -5.714  17.658  70.344  1.00  0.00    -0.243 OA 
HETATM   31  H   UNL     1      -5.741  18.587  70.147  1.00  0.00     0.000 HD 
HETATM   32  I   UNL     1      -7.301  19.226  68.014  1.00  0.00    -0.325 I  
HETATM   33  C   UNL     1      -7.949  16.290  67.772  1.00  0.00    -0.154 A  
HETATM   34  C   UNL     1      -7.960  14.921  68.083  1.00  0.00    -0.130 A  
ENDBRANCH  12  14
TORSDOF 1
ENDMDL
MODEL      119
REMARK 921   NORMALIZED FREE ENERGY PREDICTED BY IDOCK:   15.33 KCAL/MOL
REMARK 922        TOTAL FREE ENERGY PREDICTED BY IDOCK:   15.52 KCAL/MOL
REMARK 923 INTER-LIGAND FREE ENERGY PREDICTED BY IDOCK:   15.38 KCAL/MOL
REMARK 924 INTRA-LIGAND FREE ENERGY PREDICTED BY IDOCK:    0.14 KCAL/MOL
REMARK 927      BINDING AFFINITY PREDICTED BY RF-SCORE:    0.00 PKD
ROOT
HETATM    1  O   UNL     1     -12.721   8.419  67.232  1.00  0.00     7.932 OA 
HETATM    2  C   UNL     1     -11.512   7.821  67.151  1.00  0.00     1.416 C  
HETATM    3  O   UNL     1     -11.396   6.617  67.021  1.00  0.00    -0.348 OA 
HETATM    4  C   UNL     1     -10.346   8.722  67.353  1.00  0.00    -0.349 A  
HETATM    5  C   UNL     1     -10.262   9.965  66.688  1.00  0.00    -0.226 A  
HETATM    6 CL   UNL     1     -11.533  10.479  65.611  1.00  0.00     0.839 Cl 
HETATM    7  C   UNL     1      -9.139  10.795  66.870  1.00  0.00    -0.149 A  
HETATM    8 CL   UNL     1      -9.043  12.325  66.039  1.00  0.00    -0.087 Cl 
HETATM    9  C   UNL     1      -8.098  10.397  67.725  1.00  0.00    -0.103 A  
HETATM   10  C   UNL     1      -8.176   9.161  68.397  1.00  0.00    -0.115 A  
HETATM   11 CL   UNL     1      -6.704  11.419  67.938  1.00  0.00    -0.062 Cl 
HETATM   12  C   UNL     1      -9.280   8.294  68.200  1.00  0.00    -0.137 A  
HETATM   13 CL   UNL     1      -6.913   8.699  69.508  1.00  0.00    -0.048 Cl 
ENDROOT
BRANCH  12  14
HETATM   14  C   UNL     1      -9.264   6.931  68.853  1.00  0.00    -0.132 A  
HETATM   15  C   UNL     1      -8.955   5.807  68.147  1.00  0.00    -0.114 A  
HETATM   16  C   UNL     1      -8.646   5.849  66.717  1.00  0.00    -0.113 C  
HETATM   17  C   UNL     1      -8.139   4.788  66.068  1.00  0.00    -0.107 C  
HETATM   18  C   UNL     1      -7.896   3.501  66.798  1.00  0.00    -0.080 C  
HETATM   19  I   UNL     1      -7.696   4.887  64.061  1.00  0.00    -0.093 I  
HETATM   20  C   UNL     1      -8.461   3.396  68.182  1.00  0.00    -0.086 C  
HETATM   21  O   UNL     1      -7.291   2.572  66.272  1.00  0.00    -0.064 OA 
HETATM   22  I   UNL     1      -8.430   1.520  69.079  1.00  0.00    -0.111 I  
HETATM   23  C   UNL     1      -8.965   4.484  68.794  1.00  0.00    -0.111 A  
HETATM   24  O   UNL     1      -9.533   4.352  70.050  1.00  0.00    -0.143 OA 
HETATM   25  C   UNL     1      -9.816   5.457  70.804  1.00  0.00    -0.190 A  
HETATM   26  C   UNL     1     -10.280   5.248  72.115  1.00  0.00    -0.199 A  
HETATM   27  C   UNL     1     -10.592   6.339  72.930  1.00  0.00    -0.233 A  
HETATM   28  I   UNL     1     -10.511   3.288  72.873  1.00  0.00    -0.112 I  
HETATM   29  C   UNL     1     -10.398   7.631  72.440  1.00  0.00    -0.238 A  
HETATM   30  O   UNL     1     -11.090   6.164  74.193  1.00  0.00    -0.271 OA 
HETATM   31  H   UNL     1     -11.303   6.906  74.747  1.00  0.00     0.000 HD 
HETATM   32  I   UNL     1     -10.828   9.324  73.596  1.00  0.00     9.582 I  
HETATM   33  C   UNL     1      -9.925   7.832  71.136  1.00  0.00    -0.194 A  
HETATM   34  C   UNL     1      -9.656   6.745  70.287  1.00  0.00    -0.170 A  
ENDBRANCH  12  14
TORSDOF 1
ENDMDL
MODEL      120
REMARK 921   NORMALIZED FREE ENERGY PREDICTED BY IDOCK:   15.47 KCAL/MOL
REMARK 922        TOTAL FREE ENERGY PREDICTED BY IDOCK:   15.67 KCAL/MOL
REMARK 923 INTER-LIGAND FREE ENERGY PREDICTED BY IDOCK:   12.63 KCAL/MOL
REMARK 924 INTRA-LIGAND FREE ENERGY PREDICTED BY IDOCK:    3.05 KCAL/MOL
REMARK 927      BINDING AFFINITY PREDICTED BY RF-SCORE:    0.00 PKD
ROOT
HETATM    1  O   UNL     1     -11.912  18.983  68.935  1.00  0.00     3.659 OA 
HETATM    2  C   UNL     1     -11.700  17.874  68.193  1.00  0.00     1.730 C  
HETATM    3  O   UNL     1     -12.527  16.985  68.111  1.00  0.00     1.533 OA 
HETATM    4  C   UNL     1     -10.345  17.768  67.589  1.00  0.00    -0.375 A  
HETATM    5  C   UNL     1      -9.761  18.861  66.914  1.00  0.00    -0.318 A  
HETATM    6 CL   UNL     1     -10.616  20.374  66.776  1.00  0.00    -0.207 Cl 
HETATM    7  C   UNL     1      -8.486  18.736  66.326  1.00  0.00    -0.241 A  
HETATM    8 CL   UNL     1      -7.777  20.092  65.489  1.00  0.00    -0.204 Cl 
HETATM    9  C   UNL     1      -7.784  17.523  66.416  1.00  0.00    -0.297 A  
HETATM   10  C   UNL     1      -8.357  16.429  67.092  1.00  0.00    -0.187 A  
HETATM   11 CL   UNL     1      -6.215  17.367  65.675  1.00  0.00     0.089 Cl 
HETATM   12  C   UNL     1      -9.652  16.521  67.660  1.00  0.00    -0.235 A  
HETATM   13 CL   UNL     1      -7.454  14.946  67.260  1.00  0.00    -0.225 Cl 
ENDROOT
BRANCH  12  14
HETATM   14  C   UNL     1     -10.270  15.287  68.276  1.00  0.00    -0.226 A  
HETATM   15  C   UNL     1     -10.331  14.108  67.596  1.00  0.00    -0.241 A  
HETATM   16  C   UNL     1      -9.829  13.972  66.228  1.00  0.00    -0.318 C  
HETATM   17  C   UNL     1      -9.694  12.775  65.635  1.00  0.00    -0.120 C  
HETATM   18  C   UNL     1     -10.087  11.524  66.361  1.00  0.00    -0.216 C  
HETATM   19  I   UNL     1      -8.963  12.620  63.717  1.00  0.00     4.236 I  
HETATM   20  C   UNL     1     -10.840  11.699  67.644  1.00  0.00    -0.225 C  
HETATM   21  O   UNL     1      -9.829  10.413  65.907  1.00  0.00    -0.208 OA 
HETATM   22  I   UNL     1     -11.683   9.997  68.491  1.00  0.00     1.291 I  
HETATM   23  C   UNL     1     -10.957  12.920  68.201  1.00  0.00    -0.248 A  
HETATM   24  O   UNL     1     -11.705  13.068  69.357  1.00  0.00    -0.295 OA 
HETATM   25  C   UNL     1     -11.635  14.221  70.088  1.00  0.00    -0.246 A  
HETATM   26  C   UNL     1     -12.327  14.258  71.312  1.00  0.00    -0.363 A  
HETATM   27  C   UNL     1     -12.297  15.413  72.098  1.00  0.00    -0.379 A  
HETATM   28  I   UNL     1     -13.420  12.577  71.980  1.00  0.00     0.223 I  
HETATM   29  C   UNL     1     -11.541  16.506  71.673  1.00  0.00    -0.125 A  
HETATM   30  O   UNL     1     -13.000  15.494  73.269  1.00  0.00    -0.443 OA 
HETATM   31  H   UNL     1     -12.980  16.280  73.804  1.00  0.00     0.000 HD 
HETATM   32  I   UNL     1     -11.429  18.272  72.795  1.00  0.00     6.173 I  
HETATM   33  C   UNL     1     -10.844  16.457  70.458  1.00  0.00    -0.073 A  
HETATM   34  C   UNL     1     -10.906  15.322  69.632  1.00  0.00    -0.294 A  
ENDBRANCH  12  14
TORSDOF 1
ENDMDL
MODEL      121
REMARK 921   NORMALIZED FREE ENERGY PREDICTED BY IDOCK:   17.81 KCAL/MOL
REMARK 922        TOTAL FREE ENERGY PREDICTED BY IDOCK:   18.15 KCAL/MOL
REMARK 923 INTER-LIGAND FREE ENERGY PREDICTED BY IDOCK:   18.51 KCAL/MOL
REMARK 924 INTRA-LIGAND FREE ENERGY PREDICTED BY IDOCK:   -0.36 KCAL/MOL
REMARK 927      BINDING AFFINITY PREDICTED BY RF-SCORE:    0.00 PKD
ROOT
HETATM    1  O   UNL     1      -5.623  15.488  67.906  1.00  0.00    -0.124 OA 
HETATM    2  C   UNL     1      -6.664  14.632  67.993  1.00  0.00    -0.143 C  
HETATM    3  O   UNL     1      -6.963  13.885  67.080  1.00  0.00    -0.125 OA 
HETATM    4  C   UNL     1      -7.483  14.755  69.229  1.00  0.00    -0.162 A  
HETATM    5  C   UNL     1      -6.874  14.831  70.501  1.00  0.00     0.220 A  
HETATM    6 CL   UNL     1      -5.139  14.787  70.655  1.00  0.00    -0.114 Cl 
HETATM    7  C   UNL     1      -7.665  14.922  71.664  1.00  0.00     3.669 A  
HETATM    8 CL   UNL     1      -6.903  15.009  73.230  1.00  0.00     3.012 Cl 
HETATM    9  C   UNL     1      -9.066  14.948  71.564  1.00  0.00     4.142 A  
HETATM   10  C   UNL     1      -9.681  14.879  70.299  1.00  0.00     0.560 A  
HETATM   11 CL   UNL     1     -10.041  15.047  73.004  1.00  0.00     3.937 Cl 
HETATM   12  C   UNL     1      -8.906  14.750  69.119  1.00  0.00    -0.084 A  
HETATM   13 CL   UNL     1     -11.418  14.978  70.175  1.00  0.00    -0.291 Cl 
ENDROOT
BRANCH  12  14
HETATM   14  C   UNL     1      -9.614  14.565  67.797  1.00  0.00    -0.215 A  
HETATM   15  C   UNL     1     -10.137  15.622  67.115  1.00  0.00    -0.256 A  
HETATM   16  C   UNL     1     -10.068  16.990  67.631  1.00  0.00    -0.298 C  
HETATM   17  C   UNL     1     -10.389  18.053  66.875  1.00  0.00    -0.370 C  
HETATM   18  C   UNL     1     -10.861  17.862  65.465  1.00  0.00     0.115 C  
HETATM   19  I   UNL     1     -10.261  19.964  67.627  1.00  0.00    -0.482 I  
HETATM   20  C   UNL     1     -11.177  16.459  65.046  1.00  0.00    -0.134 C  
HETATM   21  O   UNL     1     -11.009  18.815  64.706  1.00  0.00    -0.283 OA 
HETATM   22  I   UNL     1     -12.144  16.208  63.222  1.00  0.00     7.119 I  
HETATM   23  C   UNL     1     -10.842  15.422  65.838  1.00  0.00    -0.325 A  
HETATM   24  O   UNL     1     -11.194  14.138  65.456  1.00  0.00    -0.305 OA 
HETATM   25  C   UNL     1     -10.655  13.053  66.090  1.00  0.00    -0.277 A  
HETATM   26  C   UNL     1     -10.963  11.781  65.575  1.00  0.00    -0.290 A  
HETATM   27  C   UNL     1     -10.446  10.635  66.185  1.00  0.00    -0.194 A  
HETATM   28  I   UNL     1     -12.206  11.580  63.877  1.00  0.00     0.723 I  
HETATM   29  C   UNL     1      -9.592  10.773  67.280  1.00  0.00    -0.160 A  
HETATM   30  O   UNL     1     -10.768   9.383  65.735  1.00  0.00     0.192 OA 
HETATM   31  H   UNL     1     -10.416   8.603  66.150  1.00  0.00     0.000 HD 
HETATM   32  I   UNL     1      -8.763   9.111  68.248  1.00  0.00    -0.128 I  
HETATM   33  C   UNL     1      -9.281  12.045  67.780  1.00  0.00    -0.190 A  
HETATM   34  C   UNL     1      -9.834  13.204  67.210  1.00  0.00    -0.232 A  
ENDBRANCH  12  14
TORSDOF 1
ENDMDL
MODEL      122
REMARK 921   NORMALIZED FREE ENERGY PREDICTED BY IDOCK:   18.48 KCAL/MOL
REMARK 922        TOTAL FREE ENERGY PREDICTED BY IDOCK:   18.86 KCAL/MOL
REMARK 923 INTER-LIGAND FREE ENERGY PREDICTED BY IDOCK:   17.64 KCAL/MOL
REMARK 924 INTRA-LIGAND FREE ENERGY PREDICTED BY IDOCK:    1.22 KCAL/MOL
REMARK 927      BINDING AFFINITY PREDICTED BY RF-SCORE:    0.00 PKD
ROOT
HETATM    1  O   UNL     1     -11.611  18.510  65.593  1.00  0.00     1.097 OA 
HETATM    2  C   UNL     1     -10.910  17.400  65.911  1.00  0.00     0.002 C  
HETATM    3  O   UNL     1     -11.430  16.302  65.967  1.00  0.00     0.311 OA 
HETATM    4  C   UNL     1      -9.494  17.637  66.301  1.00  0.00    -0.232 A  
HETATM    5  C   UNL     1      -8.658  18.476  65.532  1.00  0.00     1.030 A  
HETATM    6 CL   UNL     1      -9.268  19.262  64.101  1.00  0.00     7.394 Cl 
HETATM    7  C   UNL     1      -7.312  18.671  65.901  1.00  0.00    -0.213 A  
HETATM    8 CL   UNL     1      -6.286  19.703  64.941  1.00  0.00    -0.312 Cl 
HETATM    9  C   UNL     1      -6.795  18.039  67.044  1.00  0.00    -0.188 A  
HETATM   10  C   UNL     1      -7.624  17.205  67.820  1.00  0.00    -0.176 A  
HETATM   11 CL   UNL     1      -5.128  18.270  67.491  1.00  0.00    -0.139 Cl 
HETATM   12  C   UNL     1      -8.971  16.967  67.447  1.00  0.00    -0.215 A  
HETATM   13 CL   UNL     1      -6.998  16.475  69.276  1.00  0.00    -0.225 Cl 
ENDROOT
BRANCH  12  14
HETATM   14  C   UNL     1      -9.786  15.976  68.246  1.00  0.00    -0.219 A  
HETATM   15  C   UNL     1     -10.194  16.252  69.517  1.00  0.00    -0.251 A  
HETATM   16  C   UNL     1      -9.847  17.504  70.190  1.00  0.00     1.362 C  
HETATM   17  C   UNL     1     -10.416  17.869  71.350  1.00  0.00     3.243 C  
HETATM   18  C   UNL     1     -11.421  16.975  72.013  1.00  0.00     0.746 C  
HETATM   19  I   UNL     1      -9.921  19.648  72.259  1.00  0.00     5.769 I  
HETATM   20  C   UNL     1     -11.563  15.592  71.454  1.00  0.00    -0.433 C  
HETATM   21  O   UNL     1     -12.069  17.352  72.985  1.00  0.00     0.599 OA 
HETATM   22  I   UNL     1     -12.692  14.235  72.553  1.00  0.00    -0.279 I  
HETATM   23  C   UNL     1     -10.970  15.267  70.290  1.00  0.00    -0.289 A  
HETATM   24  O   UNL     1     -11.068  13.968  69.820  1.00  0.00    -0.174 OA 
HETATM   25  C   UNL     1     -10.709  13.664  68.537  1.00  0.00    -0.255 A  
HETATM   26  C   UNL     1     -10.946  12.352  68.088  1.00  0.00    -0.228 A  
HETATM   27  C   UNL     1     -10.593  11.981  66.788  1.00  0.00    -0.227 A  
HETATM   28  I   UNL     1     -11.836  10.924  69.368  1.00  0.00    -0.290 I  
HETATM   29  C   UNL     1     -10.044  12.938  65.933  1.00  0.00    -0.289 A  
HETATM   30  O   UNL     1     -10.768  10.700  66.341  1.00  0.00    -0.214 OA 
HETATM   31  H   UNL     1     -10.528  10.448  65.457  1.00  0.00     0.000 HD 
HETATM   32  I   UNL     1      -9.498  12.475  63.965  1.00  0.00     1.465 I  
HETATM   33  C   UNL     1      -9.822  14.247  66.384  1.00  0.00    -0.309 A  
HETATM   34  C   UNL     1     -10.123  14.621  67.704  1.00  0.00    -0.228 A  
ENDBRANCH  12  14
TORSDOF 1
ENDMDL
MODEL      123
REMARK 921   NORMALIZED FREE ENERGY PREDICTED BY IDOCK:   18.69 KCAL/MOL
REMARK 922        TOTAL FREE ENERGY PREDICTED BY IDOCK:   19.08 KCAL/MOL
REMARK 923 INTER-LIGAND FREE ENERGY PREDICTED BY IDOCK:   17.44 KCAL/MOL
REMARK 924 INTRA-LIGAND FREE ENERGY PREDICTED BY IDOCK:    1.64 KCAL/MOL
REMARK 927      BINDING AFFINITY PREDICTED BY RF-SCORE:    0.00 PKD
ROOT
HETATM    1  O   UNL     1     -12.895  13.507  65.913  1.00  0.00    -0.375 OA 
HETATM    2  C   UNL     1     -11.797  13.546  66.698  1.00  0.00    -0.407 C  
HETATM    3  O   UNL     1     -10.690  13.268  66.275  1.00  0.00    -0.282 OA 
HETATM    4  C   UNL     1     -12.057  13.833  68.134  1.00  0.00    -0.316 A  
HETATM    5  C   UNL     1     -12.908  14.891  68.523  1.00  0.00     1.191 A  
HETATM    6 CL   UNL     1     -13.683  15.888  67.323  1.00  0.00     6.165 Cl 
HETATM    7  C   UNL     1     -13.124  15.165  69.888  1.00  0.00     0.233 A  
HETATM    8 CL   UNL     1     -14.172  16.478  70.357  1.00  0.00     4.688 Cl 
HETATM    9  C   UNL     1     -12.501  14.381  70.873  1.00  0.00    -0.354 A  
HETATM   10  C   UNL     1     -11.655  13.320  70.494  1.00  0.00     0.187 A  
HETATM   11 CL   UNL     1     -12.758  14.732  72.559  1.00  0.00    -0.420 Cl 
HETATM   12  C   UNL     1     -11.395  13.049  69.127  1.00  0.00    -0.328 A  
HETATM   13 CL   UNL     1     -10.936  12.307  71.718  1.00  0.00     5.691 Cl 
ENDROOT
BRANCH  12  14
HETATM   14  C   UNL     1     -10.393  11.975  68.773  1.00  0.00    -0.181 A  
HETATM   15  C   UNL     1     -10.646  10.658  69.015  1.00  0.00    -0.249 A  
HETATM   16  C   UNL     1     -11.884  10.209  69.653  1.00  0.00    -0.114 C  
HETATM   17  C   UNL     1     -12.229   8.912  69.702  1.00  0.00     1.385 C  
HETATM   18  C   UNL     1     -11.326   7.867  69.118  1.00  0.00     0.486 C  
HETATM   19  I   UNL     1     -13.990   8.318  70.587  1.00  0.00     1.654 I  
HETATM   20  C   UNL     1      -9.955   8.314  68.713  1.00  0.00    -0.183 C  
HETATM   21  O   UNL     1     -11.687   6.700  69.008  1.00  0.00    -0.082 OA 
HETATM   22  I   UNL     1      -8.581   6.833  68.219  1.00  0.00    -0.120 I  
HETATM   23  C   UNL     1      -9.649   9.626  68.684  1.00  0.00    -0.150 A  
HETATM   24  O   UNL     1      -8.360  10.013  68.360  1.00  0.00    -0.108 OA 
HETATM   25  C   UNL     1      -8.078  11.318  68.069  1.00  0.00    -0.128 A  
HETATM   26  C   UNL     1      -6.775  11.622  67.634  1.00  0.00    -0.087 A  
HETATM   27  C   UNL     1      -6.428  12.940  67.328  1.00  0.00    -0.025 A  
HETATM   28  I   UNL     1      -5.326  10.095  67.435  1.00  0.00    -0.041 I  
HETATM   29  C   UNL     1      -7.399  13.938  67.420  1.00  0.00    -0.109 A  
HETATM   30  O   UNL     1      -5.156  13.271  66.949  1.00  0.00    -0.047 OA 
HETATM   31  H   UNL     1      -4.919  14.168  66.741  1.00  0.00     0.000 HD 
HETATM   32  I   UNL     1      -6.970  15.938  66.970  1.00  0.00     0.246 I  
HETATM   33  C   UNL     1      -8.699  13.627  67.844  1.00  0.00    -0.184 A  
HETATM   34  C   UNL     1      -9.048  12.315  68.205  1.00  0.00    -0.196 A  
ENDBRANCH  12  14
TORSDOF 1
ENDMDL
MODEL      124
REMARK 921   NORMALIZED FREE ENERGY PREDICTED BY IDOCK:   19.12 KCAL/MOL
REMARK 922        TOTAL FREE ENERGY PREDICTED BY IDOCK:   19.53 KCAL/MOL
REMARK 923 INTER-LIGAND FREE ENERGY PREDICTED BY IDOCK:   19.29 KCAL/MOL
REMARK 924 INTRA-LIGAND FREE ENERGY PREDICTED BY IDOCK:    0.24 KCAL/MOL
REMARK 927      BINDING AFFINITY PREDICTED BY RF-SCORE:    0.00 PKD
ROOT
HETATM    1  O   UNL     1     -11.807  13.827  71.016  1.00  0.00    -0.226 OA 
HETATM    2  C   UNL     1     -11.213  14.570  70.057  1.00  0.00    -0.181 C  
HETATM    3  O   UNL     1     -11.846  15.085  69.154  1.00  0.00    -0.302 OA 
HETATM    4  C   UNL     1      -9.727  14.610  70.118  1.00  0.00     0.681 A  
HETATM    5  C   UNL     1      -9.055  14.851  71.336  1.00  0.00     3.795 A  
HETATM    6 CL   UNL     1      -9.954  15.106  72.807  1.00  0.00     3.949 Cl 
HETATM    7  C   UNL     1      -7.647  14.911  71.372  1.00  0.00     2.823 A  
HETATM    8 CL   UNL     1      -6.827  15.216  72.881  1.00  0.00     2.966 Cl 
HETATM    9  C   UNL     1      -6.902  14.719  70.197  1.00  0.00    -0.066 A  
HETATM   10  C   UNL     1      -7.565  14.471  68.979  1.00  0.00    -0.124 A  
HETATM   11 CL   UNL     1      -5.164  14.806  70.242  1.00  0.00    -0.105 Cl 
HETATM   12  C   UNL     1      -8.980  14.443  68.913  1.00  0.00    -0.067 A  
HETATM   13 CL   UNL     1      -6.635  14.167  67.534  1.00  0.00    -0.167 Cl 
ENDROOT
BRANCH  12  14
HETATM   14  C   UNL     1      -9.646  14.288  67.565  1.00  0.00    -0.216 A  
HETATM   15  C   UNL     1     -10.194  15.353  66.915  1.00  0.00    -0.273 A  
HETATM   16  C   UNL     1     -10.195  16.698  67.492  1.00  0.00    -0.289 C  
HETATM   17  C   UNL     1     -10.539  17.779  66.773  1.00  0.00    -0.233 C  
HETATM   18  C   UNL     1     -10.967  17.632  65.344  1.00  0.00     0.244 C  
HETATM   19  I   UNL     1     -10.508  19.660  67.609  1.00  0.00    -0.404 I  
HETATM   20  C   UNL     1     -11.215  16.237  64.857  1.00  0.00    -0.236 C  
HETATM   21  O   UNL     1     -11.135  18.611  64.623  1.00  0.00    -0.124 OA 
HETATM   22  I   UNL     1     -12.125  16.029  62.998  1.00  0.00     8.485 I  
HETATM   23  C   UNL     1     -10.859  15.181  65.612  1.00  0.00    -0.360 A  
HETATM   24  O   UNL     1     -11.148  13.902  65.167  1.00  0.00    -0.310 OA 
HETATM   25  C   UNL     1     -10.582  12.812  65.768  1.00  0.00    -0.273 A  
HETATM   26  C   UNL     1     -10.824  11.552  65.191  1.00  0.00    -0.265 A  
HETATM   27  C   UNL     1     -10.277  10.402  65.765  1.00  0.00    -0.235 A  
HETATM   28  I   UNL     1     -12.016  11.378  63.453  1.00  0.00     1.203 I  
HETATM   29  C   UNL     1      -9.457  10.526  66.887  1.00  0.00    -0.165 A  
HETATM   30  O   UNL     1     -10.536   9.159  65.253  1.00  0.00     0.306 OA 
HETATM   31  H   UNL     1     -10.164   8.377  65.644  1.00  0.00     0.000 HD 
HETATM   32  I   UNL     1      -8.585   8.857  67.805  1.00  0.00    -0.127 I  
HETATM   33  C   UNL     1      -9.211  11.786  67.450  1.00  0.00    -0.174 A  
HETATM   34  C   UNL     1      -9.796  12.946  66.915  1.00  0.00    -0.235 A  
ENDBRANCH  12  14
TORSDOF 1
ENDMDL
MODEL      125
REMARK 921   NORMALIZED FREE ENERGY PREDICTED BY IDOCK:   20.03 KCAL/MOL
REMARK 922        TOTAL FREE ENERGY PREDICTED BY IDOCK:   20.50 KCAL/MOL
REMARK 923 INTER-LIGAND FREE ENERGY PREDICTED BY IDOCK:   20.25 KCAL/MOL
REMARK 924 INTRA-LIGAND FREE ENERGY PREDICTED BY IDOCK:    0.25 KCAL/MOL
REMARK 927      BINDING AFFINITY PREDICTED BY RF-SCORE:    0.00 PKD
ROOT
HETATM    1  O   UNL     1     -12.799  14.294  69.789  1.00  0.00    -0.121 OA 
HETATM    2  C   UNL     1     -11.948  13.464  69.147  1.00  0.00    -0.317 C  
HETATM    3  O   UNL     1     -11.562  12.423  69.644  1.00  0.00    -0.285 OA 
HETATM    4  C   UNL     1     -11.428  13.973  67.849  1.00  0.00    -0.347 A  
HETATM    5  C   UNL     1     -12.295  14.537  66.888  1.00  0.00    -0.048 A  
HETATM    6 CL   UNL     1     -14.005  14.656  67.202  1.00  0.00     6.998 Cl 
HETATM    7  C   UNL     1     -11.789  14.992  65.654  1.00  0.00    -0.050 A  
HETATM    8 CL   UNL     1     -12.871  15.681  64.472  1.00  0.00     0.530 Cl 
HETATM    9  C   UNL     1     -10.417  14.896  65.375  1.00  0.00    -0.384 A  
HETATM   10  C   UNL     1      -9.543  14.340  66.331  1.00  0.00    -0.298 A  
HETATM   11 CL   UNL     1      -9.797  15.446  63.843  1.00  0.00     4.135 Cl 
HETATM   12  C   UNL     1     -10.035  13.843  67.564  1.00  0.00    -0.240 A  
HETATM   13 CL   UNL     1      -7.830  14.283  66.008  1.00  0.00     2.187 Cl 
ENDROOT
BRANCH  12  14
HETATM   14  C   UNL     1      -9.078  13.153  68.507  1.00  0.00    -0.053 A  
HETATM   15  C   UNL     1      -8.191  13.859  69.264  1.00  0.00     0.404 A  
HETATM   16  C   UNL     1      -8.095  15.318  69.190  1.00  0.00    -0.228 C  
HETATM   17  C   UNL     1      -7.381  16.030  70.076  1.00  0.00     0.471 C  
HETATM   18  C   UNL     1      -6.626  15.336  71.170  1.00  0.00     0.891 C  
HETATM   19  I   UNL     1      -7.285  18.082  69.954  1.00  0.00     1.614 I  
HETATM   20  C   UNL     1      -6.519  13.845  71.071  1.00  0.00     0.416 C  
HETATM   21  O   UNL     1      -6.097  15.965  72.081  1.00  0.00     1.387 OA 
HETATM   22  I   UNL     1      -5.206  12.899  72.377  1.00  0.00     0.587 I  
HETATM   23  C   UNL     1      -7.250  13.170  70.163  1.00  0.00     1.275 A  
HETATM   24  O   UNL     1      -7.094  11.799  70.052  1.00  0.00     0.189 OA 
HETATM   25  C   UNL     1      -7.989  11.053  69.337  1.00  0.00     0.047 A  
HETATM   26  C   UNL     1      -7.839   9.655  69.365  1.00  0.00    -0.104 A  
HETATM   27  C   UNL     1      -8.720   8.842  68.647  1.00  0.00    -0.134 A  
HETATM   28  I   UNL     1      -6.285   8.763  70.486  1.00  0.00    -0.050 I  
HETATM   29  C   UNL     1      -9.770   9.432  67.942  1.00  0.00    -0.152 A  
HETATM   30  O   UNL     1      -8.569   7.482  68.617  1.00  0.00    -0.129 OA 
HETATM   31  H   UNL     1      -9.168   6.929  68.129  1.00  0.00     0.000 HD 
HETATM   32  I   UNL     1     -11.144   8.290  66.850  1.00  0.00     2.338 I  
HETATM   33  C   UNL     1      -9.920  10.826  67.929  1.00  0.00    -0.196 A  
HETATM   34  C   UNL     1      -9.011  11.659  68.602  1.00  0.00    -0.087 A  
ENDBRANCH  12  14
TORSDOF 1
ENDMDL
MODEL      126
REMARK 921   NORMALIZED FREE ENERGY PREDICTED BY IDOCK:   20.20 KCAL/MOL
REMARK 922        TOTAL FREE ENERGY PREDICTED BY IDOCK:   20.68 KCAL/MOL
REMARK 923 INTER-LIGAND FREE ENERGY PREDICTED BY IDOCK:   13.59 KCAL/MOL
REMARK 924 INTRA-LIGAND FREE ENERGY PREDICTED BY IDOCK:    7.09 KCAL/MOL
REMARK 927      BINDING AFFINITY PREDICTED BY RF-SCORE:    0.00 PKD
ROOT
HETATM    1  O   UNL     1     -12.735  12.574  69.008  1.00  0.00     0.543 OA 
HETATM    2  C   UNL     1     -11.515  12.744  68.453  1.00  0.00    -0.311 C  
HETATM    3  O   UNL     1     -10.489  12.595  69.090  1.00  0.00    -0.058 OA 
HETATM    4  C   UNL     1     -11.523  13.242  67.051  1.00  0.00    -0.378 A  
HETATM    5  C   UNL     1     -12.367  12.664  66.078  1.00  0.00    -0.103 A  
HETATM    6 CL   UNL     1     -13.432  11.350  66.499  1.00  0.00     8.669 Cl 
HETATM    7  C   UNL     1     -12.344  13.131  64.748  1.00  0.00    -0.423 A  
HETATM    8 CL   UNL     1     -13.387  12.405  63.553  1.00  0.00     0.277 Cl 
HETATM    9  C   UNL     1     -11.487  14.182  64.384  1.00  0.00    -0.332 A  
HETATM   10  C   UNL     1     -10.645  14.768  65.350  1.00  0.00    -0.378 A  
HETATM   11 CL   UNL     1     -11.451  14.747  62.737  1.00  0.00     3.632 Cl 
HETATM   12  C   UNL     1     -10.626  14.291  66.684  1.00  0.00    -0.278 A  
HETATM   13 CL   UNL     1      -9.631  16.116  64.909  1.00  0.00     0.950 Cl 
ENDROOT
BRANCH  12  14
HETATM   14  C   UNL     1      -9.626  14.874  67.654  1.00  0.00    -0.200 A  
HETATM   15  C   UNL     1      -9.497  16.221  67.820  1.00  0.00    -0.221 A  
HETATM   16  C   UNL     1     -10.297  17.178  67.054  1.00  0.00    -0.308 C  
HETATM   17  C   UNL     1     -10.328  18.485  67.360  1.00  0.00    -0.400 C  
HETATM   18  C   UNL     1      -9.508  19.014  68.498  1.00  0.00    -0.383 C  
HETATM   19  I   UNL     1     -11.481  19.799  66.275  1.00  0.00     2.377 I  
HETATM   20  C   UNL     1      -8.501  18.077  69.094  1.00  0.00     0.123 C  
HETATM   21  O   UNL     1      -9.636  20.168  68.896  1.00  0.00    -0.128 OA 
HETATM   22  I   UNL     1      -7.131  18.884  70.434  1.00  0.00     1.953 I  
HETATM   23  C   UNL     1      -8.502  16.774  68.754  1.00  0.00    -0.253 A  
HETATM   24  O   UNL     1      -7.529  15.939  69.274  1.00  0.00    -0.200 OA 
HETATM   25  C   UNL     1      -7.646  14.581  69.164  1.00  0.00    -0.102 A  
HETATM   26  C   UNL     1      -6.685  13.790  69.818  1.00  0.00     0.027 A  
HETATM   27  C   UNL     1      -6.750  12.396  69.735  1.00  0.00     0.132 A  
HETATM   28  I   UNL     1      -5.129  14.690  70.931  1.00  0.00    -0.153 I  
HETATM   29  C   UNL     1      -7.802  11.806  69.034  1.00  0.00     0.065 A  
HETATM   30  O   UNL     1      -5.801  11.603  70.320  1.00  0.00    -0.135 OA 
HETATM   31  H   UNL     1      -5.846  10.656  70.264  1.00  0.00     0.000 HD 
HETATM   32  I   UNL     1      -7.987   9.726  68.869  1.00  0.00    -0.114 I  
HETATM   33  C   UNL     1      -8.764  12.601  68.395  1.00  0.00    -0.118 A  
HETATM   34  C   UNL     1      -8.682  14.003  68.426  1.00  0.00    -0.179 A  
ENDBRANCH  12  14
TORSDOF 1
ENDMDL
MODEL      127
REMARK 921   NORMALIZED FREE ENERGY PREDICTED BY IDOCK:   21.61 KCAL/MOL
REMARK 922        TOTAL FREE ENERGY PREDICTED BY IDOCK:   22.17 KCAL/MOL
REMARK 923 INTER-LIGAND FREE ENERGY PREDICTED BY IDOCK:   20.49 KCAL/MOL
REMARK 924 INTRA-LIGAND FREE ENERGY PREDICTED BY IDOCK:    1.68 KCAL/MOL
REMARK 927      BINDING AFFINITY PREDICTED BY RF-SCORE:    0.00 PKD
ROOT
HETATM    1  O   UNL     1      -6.895  15.233  67.990  1.00  0.00    -0.115 OA 
HETATM    2  C   UNL     1      -8.179  15.461  68.343  1.00  0.00    -0.142 C  
HETATM    3  O   UNL     1      -8.531  15.503  69.507  1.00  0.00    -0.256 OA 
HETATM    4  C   UNL     1      -9.142  15.534  67.212  1.00  0.00    -0.215 A  
HETATM    5  C   UNL     1      -8.862  16.309  66.066  1.00  0.00    -0.273 A  
HETATM    6 CL   UNL     1      -7.369  17.201  65.945  1.00  0.00    -0.158 Cl 
HETATM    7  C   UNL     1      -9.796  16.388  65.014  1.00  0.00     0.807 A  
HETATM    8 CL   UNL     1      -9.442  17.354  63.606  1.00  0.00    11.790 Cl 
HETATM    9  C   UNL     1     -11.010  15.686  65.094  1.00  0.00    -0.398 A  
HETATM   10  C   UNL     1     -11.295  14.905  66.231  1.00  0.00    -0.306 A  
HETATM   11 CL   UNL     1     -12.168  15.796  63.798  1.00  0.00     0.276 Cl 
HETATM   12  C   UNL     1     -10.386  14.840  67.317  1.00  0.00    -0.247 A  
HETATM   13 CL   UNL     1     -12.774  13.982  66.298  1.00  0.00    -0.366 Cl 
ENDROOT
BRANCH  12  14
HETATM   14  C   UNL     1     -10.786  14.082  68.561  1.00  0.00    -0.268 A  
HETATM   15  C   UNL     1     -10.923  12.726  68.555  1.00  0.00    -0.288 A  
HETATM   16  C   UNL     1     -10.717  11.930  67.344  1.00  0.00    -0.271 C  
HETATM   17  C   UNL     1     -10.642  10.590  67.379  1.00  0.00    -0.263 C  
HETATM   18  C   UNL     1     -10.798   9.857  68.678  1.00  0.00    -0.209 C  
HETATM   19  I   UNL     1     -10.330   9.502  65.660  1.00  0.00     1.213 I  
HETATM   20  C   UNL     1     -11.269  10.662  69.851  1.00  0.00    -0.308 C  
HETATM   21  O   UNL     1     -10.579   8.653  68.763  1.00  0.00    -0.211 OA 
HETATM   22  I   UNL     1     -11.812   9.614  71.564  1.00  0.00    -0.316 I  
HETATM   23  C   UNL     1     -11.334  12.005  69.771  1.00  0.00    -0.126 A  
HETATM   24  O   UNL     1     -11.825  12.724  70.848  1.00  0.00    -0.040 OA 
HETATM   25  C   UNL     1     -11.668  14.080  70.907  1.00  0.00    -0.062 A  
HETATM   26  C   UNL     1     -12.084  14.732  72.083  1.00  0.00    -0.297 A  
HETATM   27  C   UNL     1     -11.954  16.119  72.198  1.00  0.00    -0.537 A  
HETATM   28  I   UNL     1     -12.910  13.631  73.687  1.00  0.00     4.860 I  
HETATM   29  C   UNL     1     -11.370  16.836  71.153  1.00  0.00     0.358 A  
HETATM   30  O   UNL     1     -12.394  16.784  73.310  1.00  0.00    -0.288 OA 
HETATM   31  H   UNL     1     -12.306  17.727  73.388  1.00  0.00     0.000 HD 
HETATM   32  I   UNL     1     -11.124  18.914  71.246  1.00  0.00     7.780 I  
HETATM   33  C   UNL     1     -10.947  16.178  69.990  1.00  0.00    -0.364 A  
HETATM   34  C   UNL     1     -11.119  14.792  69.838  1.00  0.00    -0.266 A  
ENDBRANCH  12  14
TORSDOF 1
ENDMDL
MODEL      128
REMARK 921   NORMALIZED FREE ENERGY PREDICTED BY IDOCK:   22.51 KCAL/MOL
REMARK 922        TOTAL FREE ENERGY PREDICTED BY IDOCK:   23.12 KCAL/MOL
REMARK 923 INTER-LIGAND FREE ENERGY PREDICTED BY IDOCK:   22.66 KCAL/MOL
REMARK 924 INTRA-LIGAND FREE ENERGY PREDICTED BY IDOCK:    0.46 KCAL/MOL
REMARK 927      BINDING AFFINITY PREDICTED BY RF-SCORE:    0.00 PKD
ROOT
HETATM    1  O   UNL     1      -5.600  15.221  67.851  1.00  0.00    -0.129 OA 
HETATM    2  C   UNL     1      -6.647  14.374  67.957  1.00  0.00    -0.150 C  
HETATM    3  O   UNL     1      -6.941  13.597  67.068  1.00  0.00    -0.008 OA 
HETATM    4  C   UNL     1      -7.479  14.547  69.178  1.00  0.00    -0.118 A  
HETATM    5  C   UNL     1      -6.884  14.666  70.453  1.00  0.00     0.118 A  
HETATM    6 CL   UNL     1      -5.150  14.617  70.628  1.00  0.00    -0.111 Cl 
HETATM    7  C   UNL     1      -7.687  14.803  71.603  1.00  0.00     3.687 A  
HETATM    8 CL   UNL     1      -6.941  14.943  73.173  1.00  0.00     3.102 Cl 
HETATM    9  C   UNL     1      -9.086  14.834  71.487  1.00  0.00     4.376 A  
HETATM   10  C   UNL     1      -9.687  14.722  70.218  1.00  0.00     0.718 A  
HETATM   11 CL   UNL     1     -10.076  14.991  72.911  1.00  0.00     3.714 Cl 
HETATM   12  C   UNL     1      -8.901  14.547  69.052  1.00  0.00    -0.039 A  
HETATM   13 CL   UNL     1     -11.423  14.827  70.071  1.00  0.00    -0.303 Cl 
ENDROOT
BRANCH  12  14
HETATM   14  C   UNL     1      -9.595  14.317  67.730  1.00  0.00    -0.221 A  
HETATM   15  C   UNL     1      -9.658  13.079  67.165  1.00  0.00    -0.230 A  
HETATM   16  C   UNL     1      -9.038  11.908  67.788  1.00  0.00    -0.180 C  
HETATM   17  C   UNL     1      -9.274  10.661  67.350  1.00  0.00    -0.143 C  
HETATM   18  C   UNL     1     -10.174  10.431  66.173  1.00  0.00    -0.223 C  
HETATM   19  I   UNL     1      -8.403   9.035  68.264  1.00  0.00    -0.121 I  
HETATM   20  C   UNL     1     -10.581  11.642  65.391  1.00  0.00    -0.280 C  
HETATM   21  O   UNL     1     -10.530   9.301  65.851  1.00  0.00    -0.029 OA 
HETATM   22  I   UNL     1     -11.543  11.321  63.575  1.00  0.00     1.156 I  
HETATM   23  C   UNL     1     -10.319  12.875  65.865  1.00  0.00    -0.285 A  
HETATM   24  O   UNL     1     -10.654  13.980  65.100  1.00  0.00    -0.337 OA 
HETATM   25  C   UNL     1     -10.644  15.233  65.646  1.00  0.00    -0.362 A  
HETATM   26  C   UNL     1     -11.110  16.294  64.848  1.00  0.00    -0.290 A  
HETATM   27  C   UNL     1     -11.117  17.598  65.351  1.00  0.00     0.452 A  
HETATM   28  I   UNL     1     -11.804  15.937  62.883  1.00  0.00     8.955 I  
HETATM   29  C   UNL     1     -10.697  17.823  66.662  1.00  0.00    -0.122 A  
HETATM   30  O   UNL     1     -11.519  18.655  64.581  1.00  0.00     0.672 OA 
HETATM   31  H   UNL     1     -11.523  19.542  64.923  1.00  0.00     0.000 HD 
HETATM   32  I   UNL     1     -10.686  19.742  67.502  1.00  0.00    -0.049 I  
HETATM   33  C   UNL     1     -10.245  16.759  67.456  1.00  0.00    -0.289 A  
HETATM   34  C   UNL     1     -10.184  15.451  66.947  1.00  0.00    -0.273 A  
ENDBRANCH  12  14
TORSDOF 1
ENDMDL
MODEL      129
REMARK 921   NORMALIZED FREE ENERGY PREDICTED BY IDOCK:   22.83 KCAL/MOL
REMARK 922        TOTAL FREE ENERGY PREDICTED BY IDOCK:   23.46 KCAL/MOL
REMARK 923 INTER-LIGAND FREE ENERGY PREDICTED BY IDOCK:    3.57 KCAL/MOL
REMARK 924 INTRA-LIGAND FREE ENERGY PREDICTED BY IDOCK:   19.90 KCAL/MOL
REMARK 927      BINDING AFFINITY PREDICTED BY RF-SCORE:    0.00 PKD
ROOT
HETATM    1  O   UNL     1      -8.741   5.618  66.818  1.00  0.00    -0.114 OA 
HETATM    2  C   UNL     1      -8.324   6.617  67.627  1.00  0.00    -0.122 C  
HETATM    3  O   UNL     1      -8.351   6.520  68.840  1.00  0.00    -0.120 OA 
HETATM    4  C   UNL     1      -7.946   7.877  66.932  1.00  0.00    -0.108 A  
HETATM    5  C   UNL     1      -7.110   7.859  65.795  1.00  0.00    -0.060 A  
HETATM    6 CL   UNL     1      -6.499   6.351  65.171  1.00  0.00    -0.038 Cl 
HETATM    7  C   UNL     1      -6.741   9.064  65.164  1.00  0.00    -0.072 A  
HETATM    8 CL   UNL     1      -5.702   9.031  63.764  1.00  0.00    -0.070 Cl 
HETATM    9  C   UNL     1      -7.213  10.292  65.656  1.00  0.00    -0.148 A  
HETATM   10  C   UNL     1      -8.053  10.318  66.787  1.00  0.00    -0.121 A  
HETATM   11 CL   UNL     1      -6.745  11.780  64.882  1.00  0.00     2.508 Cl 
HETATM   12  C   UNL     1      -8.407   9.122  67.459  1.00  0.00    -0.116 A  
HETATM   13 CL   UNL     1      -8.691  11.839  67.355  1.00  0.00    -0.156 Cl 
ENDROOT
BRANCH  12  14
HETATM   14  C   UNL     1      -9.216   9.210  68.732  1.00  0.00    -0.136 A  
HETATM   15  C   UNL     1     -10.079  10.241  68.956  1.00  0.00    -0.225 A  
HETATM   16  C   UNL     1     -10.254  11.331  67.996  1.00  0.00    -0.201 C  
HETATM   17  C   UNL     1     -11.246  12.229  68.111  1.00  0.00    -0.269 C  
HETATM   18  C   UNL     1     -12.202  12.154  69.263  1.00  0.00    -0.051 C  
HETATM   19  I   UNL     1     -11.476  13.737  66.729  1.00  0.00    -0.450 I  
HETATM   20  C   UNL     1     -11.851  11.205  70.368  1.00  0.00    -0.369 C  
HETATM   21  O   UNL     1     -13.205  12.860  69.309  1.00  0.00     1.570 OA 
HETATM   22  I   UNL     1     -12.972  11.326  72.116  1.00  0.00     1.004 I  
HETATM   23  C   UNL     1     -10.844  10.325  70.212  1.00  0.00    -0.286 A  
HETATM   24  O   UNL     1     -10.500   9.496  71.267  1.00  0.00    -0.320 OA 
HETATM   25  C   UNL     1      -9.672   8.426  71.069  1.00  0.00    -0.174 A  
HETATM   26  C   UNL     1      -9.460   7.558  72.155  1.00  0.00    -0.147 A  
HETATM   27  C   UNL     1      -8.617   6.452  72.014  1.00  0.00    -0.126 A  
HETATM   28  I   UNL     1     -10.407   7.909  74.012  1.00  0.00     3.040 I  
HETATM   29  C   UNL     1      -8.027   6.201  70.775  1.00  0.00    -0.115 A  
HETATM   30  O   UNL     1      -8.355   5.618  73.067  1.00  0.00    -0.118 OA 
HETATM   31  H   UNL     1      -7.782   4.866  72.971  1.00  0.00     0.000 HD 
HETATM   32  I   UNL     1      -6.761   4.560  70.469  1.00  0.00    -0.038 I  
HETATM   33  C   UNL     1      -8.252   7.064  69.693  1.00  0.00    -0.131 A  
HETATM   34  C   UNL     1      -9.055   8.209  69.834  1.00  0.00    -0.151 A  
ENDBRANCH  12  14
TORSDOF 1
ENDMDL
MODEL      130
REMARK 921   NORMALIZED FREE ENERGY PREDICTED BY IDOCK:   22.97 KCAL/MOL
REMARK 922        TOTAL FREE ENERGY PREDICTED BY IDOCK:   23.61 KCAL/MOL
REMARK 923 INTER-LIGAND FREE ENERGY PREDICTED BY IDOCK:    8.89 KCAL/MOL
REMARK 924 INTRA-LIGAND FREE ENERGY PREDICTED BY IDOCK:   14.72 KCAL/MOL
REMARK 927      BINDING AFFINITY PREDICTED BY RF-SCORE:    0.00 PKD
ROOT
HETATM    1  O   UNL     1      -7.115  14.825  69.604  1.00  0.00    -0.167 OA 
HETATM    2  C   UNL     1      -8.153  14.233  68.974  1.00  0.00    -0.003 C  
HETATM    3  O   UNL     1      -9.309  14.499  69.245  1.00  0.00    -0.061 OA 
HETATM    4  C   UNL     1      -7.782  13.154  68.020  1.00  0.00    -0.146 A  
HETATM    5  C   UNL     1      -6.750  13.340  67.076  1.00  0.00     0.572 A  
HETATM    6 CL   UNL     1      -5.876  14.847  67.007  1.00  0.00     0.742 Cl 
HETATM    7  C   UNL     1      -6.427  12.317  66.162  1.00  0.00     1.693 A  
HETATM    8 CL   UNL     1      -5.154  12.561  64.995  1.00  0.00     4.572 Cl 
HETATM    9  C   UNL     1      -7.125  11.099  66.192  1.00  0.00     0.003 A  
HETATM   10  C   UNL     1      -8.153  10.902  67.136  1.00  0.00    -0.127 A  
HETATM   11 CL   UNL     1      -6.734   9.841  65.053  1.00  0.00    -0.100 Cl 
HETATM   12  C   UNL     1      -8.518  11.930  68.040  1.00  0.00    -0.162 A  
HETATM   13 CL   UNL     1      -8.973   9.364  67.214  1.00  0.00    -0.139 Cl 
ENDROOT
BRANCH  12  14
HETATM   14  C   UNL     1      -9.701  11.713  68.955  1.00  0.00    -0.029 A  
HETATM   15  C   UNL     1     -10.564  12.725  69.253  1.00  0.00     0.117 A  
HETATM   16  C   UNL     1     -10.384  14.080  68.730  1.00  0.00    -0.225 C  
HETATM   17  C   UNL     1     -11.337  15.019  68.846  1.00  0.00    -0.297 C  
HETATM   18  C   UNL     1     -12.623  14.708  69.552  1.00  0.00    -0.004 C  
HETATM   19  I   UNL     1     -11.060  16.909  68.079  1.00  0.00     0.268 I  
HETATM   20  C   UNL     1     -12.680  13.415  70.306  1.00  0.00    -0.009 C  
HETATM   21  O   UNL     1     -13.567  15.492  69.535  1.00  0.00     1.017 OA 
HETATM   22  I   UNL     1     -14.314  13.118  71.558  1.00  0.00     2.426 I  
HETATM   23  C   UNL     1     -11.700  12.502  70.164  1.00  0.00    -0.175 A  
HETATM   24  O   UNL     1     -11.745  11.339  70.913  1.00  0.00    -0.207 OA 
HETATM   25  C   UNL     1     -10.924  10.287  70.615  1.00  0.00    -0.214 A  
HETATM   26  C   UNL     1     -11.105   9.095  71.338  1.00  0.00    -0.345 A  
HETATM   27  C   UNL     1     -10.290   7.989  71.080  1.00  0.00    -0.197 A  
HETATM   28  I   UNL     1     -12.605   8.954  72.820  1.00  0.00     0.941 I  
HETATM   29  C   UNL     1      -9.329   8.072  70.073  1.00  0.00    -0.156 A  
HETATM   30  O   UNL     1     -10.412   6.832  71.802  1.00  0.00    -0.206 OA 
HETATM   31  H   UNL     1      -9.858   6.081  71.627  1.00  0.00     0.000 HD 
HETATM   32  I   UNL     1      -8.073   6.461  69.611  1.00  0.00    -0.128 I  
HETATM   33  C   UNL     1      -9.162   9.261  69.348  1.00  0.00    -0.159 A  
HETATM   34  C   UNL     1      -9.938  10.397  69.630  1.00  0.00    -0.209 A  
ENDBRANCH  12  14
TORSDOF 1
ENDMDL
MODEL      131
REMARK 921   NORMALIZED FREE ENERGY PREDICTED BY IDOCK:   23.15 KCAL/MOL
REMARK 922        TOTAL FREE ENERGY PREDICTED BY IDOCK:   23.80 KCAL/MOL
REMARK 923 INTER-LIGAND FREE ENERGY PREDICTED BY IDOCK:    0.77 KCAL/MOL
REMARK 924 INTRA-LIGAND FREE ENERGY PREDICTED BY IDOCK:   23.03 KCAL/MOL
REMARK 927      BINDING AFFINITY PREDICTED BY RF-SCORE:    0.00 PKD
ROOT
HETATM    1  O   UNL     1      -7.114  14.817  69.609  1.00  0.00    -0.167 OA 
HETATM    2  C   UNL     1      -8.162  14.212  69.008  1.00  0.00     0.070 C  
HETATM    3  O   UNL     1      -9.313  14.533  69.242  1.00  0.00    -0.061 OA 
HETATM    4  C   UNL     1      -7.813  13.056  68.140  1.00  0.00    -0.145 A  
HETATM    5  C   UNL     1      -6.763  13.141  67.200  1.00  0.00     0.232 A  
HETATM    6 CL   UNL     1      -5.841  14.612  67.036  1.00  0.00     0.848 Cl 
HETATM    7  C   UNL     1      -6.461  12.045  66.369  1.00  0.00     0.571 A  
HETATM    8 CL   UNL     1      -5.166  12.164  65.207  1.00  0.00     2.536 Cl 
HETATM    9  C   UNL     1      -7.197  10.854  66.476  1.00  0.00    -0.142 A  
HETATM   10  C   UNL     1      -8.243  10.757  67.416  1.00  0.00    -0.116 A  
HETATM   11 CL   UNL     1      -6.831   9.505  65.437  1.00  0.00    -0.083 Cl 
HETATM   12  C   UNL     1      -8.587  11.860  68.237  1.00  0.00    -0.162 A  
HETATM   13 CL   UNL     1      -9.111   9.255  67.593  1.00  0.00    -0.133 Cl 
ENDROOT
BRANCH  12  14
HETATM   14  C   UNL     1      -9.788  11.746  69.147  1.00  0.00     0.198 A  
HETATM   15  C   UNL     1     -10.251  10.534  69.566  1.00  0.00    -0.230 A  
HETATM   16  C   UNL     1      -9.633   9.277  69.141  1.00  0.00    -0.161 C  
HETATM   17  C   UNL     1      -9.947   8.103  69.711  1.00  0.00    -0.191 C  
HETATM   18  C   UNL     1     -10.977   8.041  70.798  1.00  0.00    -0.248 C  
HETATM   19  I   UNL     1      -9.043   6.356  69.103  1.00  0.00    -0.131 I  
HETATM   20  C   UNL     1     -11.783   9.283  71.032  1.00  0.00    -0.311 C  
HETATM   21  O   UNL     1     -11.169   7.013  71.441  1.00  0.00    -0.241 OA 
HETATM   22  I   UNL     1     -13.430   9.123  72.292  1.00  0.00    -0.428 I  
HETATM   23  C   UNL     1     -11.436  10.440  70.436  1.00  0.00    -0.337 A  
HETATM   24  O   UNL     1     -12.226  11.561  70.622  1.00  0.00    -0.364 OA 
HETATM   25  C   UNL     1     -11.776  12.798  70.254  1.00  0.00    -0.107 A  
HETATM   26  C   UNL     1     -12.578  13.906  70.580  1.00  0.00    -0.312 A  
HETATM   27  C   UNL     1     -12.172  15.195  70.222  1.00  0.00    -0.350 A  
HETATM   28  I   UNL     1     -14.405  13.644  71.611  1.00  0.00     0.987 I  
HETATM   29  C   UNL     1     -10.946  15.367  69.579  1.00  0.00    -0.275 A  
HETATM   30  O   UNL     1     -12.956  16.286  70.484  1.00  0.00    -0.301 OA 
HETATM   31  H   UNL     1     -12.680  17.162  70.241  1.00  0.00     0.000 HD 
HETATM   32  I   UNL     1     -10.253  17.263  69.019  1.00  0.00    -0.070 I  
HETATM   33  C   UNL     1     -10.146  14.259  69.268  1.00  0.00     0.014 A  
HETATM   34  C   UNL     1     -10.565  12.954  69.574  1.00  0.00     0.383 A  
ENDBRANCH  12  14
TORSDOF 1
ENDMDL
MODEL      132
REMARK 921   NORMALIZED FREE ENERGY PREDICTED BY IDOCK:   23.28 KCAL/MOL
REMARK 922        TOTAL FREE ENERGY PREDICTED BY IDOCK:   23.94 KCAL/MOL
REMARK 923 INTER-LIGAND FREE ENERGY PREDICTED BY IDOCK:   13.77 KCAL/MOL
REMARK 924 INTRA-LIGAND FREE ENERGY PREDICTED BY IDOCK:   10.17 KCAL/MOL
REMARK 927      BINDING AFFINITY PREDICTED BY RF-SCORE:    0.00 PKD
ROOT
HETATM    1  O   UNL     1      -9.898  17.037  65.243  1.00  0.00    -0.385 OA 
HETATM    2  C   UNL     1      -9.050  16.072  65.662  1.00  0.00     0.045 C  
HETATM    3  O   UNL     1      -8.755  15.122  64.961  1.00  0.00     1.989 OA 
HETATM    4  C   UNL     1      -8.604  16.194  67.076  1.00  0.00    -0.233 A  
HETATM    5  C   UNL     1      -8.151  17.427  67.593  1.00  0.00    -0.197 A  
HETATM    6 CL   UNL     1      -8.107  18.847  66.583  1.00  0.00    -0.274 Cl 
HETATM    7  C   UNL     1      -7.708  17.520  68.928  1.00  0.00    -0.207 A  
HETATM    8 CL   UNL     1      -7.144  19.047  69.553  1.00  0.00    -0.200 Cl 
HETATM    9  C   UNL     1      -7.724  16.387  69.757  1.00  0.00     0.481 A  
HETATM   10  C   UNL     1      -8.181  15.154  69.251  1.00  0.00    -0.216 A  
HETATM   11 CL   UNL     1      -7.163  16.501  71.402  1.00  0.00     4.540 Cl 
HETATM   12  C   UNL     1      -8.597  15.029  67.902  1.00  0.00    -0.155 A  
HETATM   13 CL   UNL     1      -8.262  13.764  70.303  1.00  0.00     2.240 Cl 
ENDROOT
BRANCH  12  14
HETATM   14  C   UNL     1      -8.969  13.663  67.375  1.00  0.00    -0.218 A  
HETATM   15  C   UNL     1      -8.327  12.538  67.798  1.00  0.00    -0.170 A  
HETATM   16  C   UNL     1      -7.227  12.587  68.762  1.00  0.00    -0.089 C  
HETATM   17  C   UNL     1      -6.735  11.478  69.338  1.00  0.00    -0.116 C  
HETATM   18  C   UNL     1      -7.292  10.132  68.982  1.00  0.00    -0.087 C  
HETATM   19  I   UNL     1      -5.202  11.586  70.707  1.00  0.00    -0.092 I  
HETATM   20  C   UNL     1      -8.223  10.078  67.809  1.00  0.00    -0.113 C  
HETATM   21  O   UNL     1      -6.972   9.123  69.603  1.00  0.00    -0.051 OA 
HETATM   22  I   UNL     1      -8.738   8.195  67.092  1.00  0.00    -0.155 I  
HETATM   23  C   UNL     1      -8.687  11.216  67.258  1.00  0.00    -0.139 A  
HETATM   24  O   UNL     1      -9.502  11.144  66.141  1.00  0.00    -0.191 OA 
HETATM   25  C   UNL     1     -10.195  12.241  65.714  1.00  0.00    -0.255 A  
HETATM   26  C   UNL     1     -11.094  12.068  64.646  1.00  0.00    -0.322 A  
HETATM   27  C   UNL     1     -11.826  13.156  64.163  1.00  0.00    -0.429 A  
HETATM   28  I   UNL     1     -11.354  10.168  63.758  1.00  0.00     6.650 I  
HETATM   29  C   UNL     1     -11.682  14.400  64.779  1.00  0.00    -0.416 A  
HETATM   30  O   UNL     1     -12.671  13.027  63.095  1.00  0.00    -0.611 OA 
HETATM   31  H   UNL     1     -13.169  13.767  62.766  1.00  0.00     0.000 HD 
HETATM   32  I   UNL     1     -12.748  16.082  64.128  1.00  0.00     3.752 I  
HETATM   33  C   UNL     1     -10.792  14.563  65.850  1.00  0.00    -0.308 A  
HETATM   34  C   UNL     1     -10.012  13.490  66.313  1.00  0.00    -0.302 A  
ENDBRANCH  12  14
TORSDOF 1
ENDMDL
MODEL      133
REMARK 921   NORMALIZED FREE ENERGY PREDICTED BY IDOCK:   23.52 KCAL/MOL
REMARK 922        TOTAL FREE ENERGY PREDICTED BY IDOCK:   24.19 KCAL/MOL
REMARK 923 INTER-LIGAND FREE ENERGY PREDICTED BY IDOCK:   24.09 KCAL/MOL
REMARK 924 INTRA-LIGAND FREE ENERGY PREDICTED BY IDOCK:    0.10 KCAL/MOL
REMARK 927      BINDING AFFINITY PREDICTED BY RF-SCORE:    0.00 PKD
ROOT
HETATM    1  O   UNL     1      -8.774  14.307  63.688  1.00  0.00     7.616 OA 
HETATM    2  C   UNL     1      -9.326  14.278  64.920  1.00  0.00     1.307 C  
HETATM    3  O   UNL     1     -10.254  15.002  65.230  1.00  0.00    -0.361 OA 
HETATM    4  C   UNL     1      -8.644  13.388  65.898  1.00  0.00     1.163 A  
HETATM    5  C   UNL     1      -8.281  12.068  65.551  1.00  0.00     1.062 A  
HETATM    6 CL   UNL     1      -8.621  11.447  63.959  1.00  0.00     0.378 Cl 
HETATM    7  C   UNL     1      -7.657  11.230  66.497  1.00  0.00    -0.111 A  
HETATM    8 CL   UNL     1      -7.219   9.600  66.060  1.00  0.00    -0.096 Cl 
HETATM    9  C   UNL     1      -7.383  11.706  67.789  1.00  0.00    -0.106 A  
HETATM   10  C   UNL     1      -7.736  13.024  68.142  1.00  0.00    -0.143 A  
HETATM   11 CL   UNL     1      -6.625  10.664  68.961  1.00  0.00    -0.058 Cl 
HETATM   12  C   UNL     1      -8.397  13.872  67.218  1.00  0.00    -0.199 A  
HETATM   13 CL   UNL     1      -7.334  13.633  69.726  1.00  0.00     0.415 Cl 
ENDROOT
BRANCH  12  14
HETATM   14  C   UNL     1      -8.857  15.236  67.678  1.00  0.00    -0.180 A  
HETATM   15  C   UNL     1      -8.305  16.378  67.180  1.00  0.00    -0.214 A  
HETATM   16  C   UNL     1      -7.222  16.353  66.196  1.00  0.00     0.445 C  
HETATM   17  C   UNL     1      -6.823  17.461  65.550  1.00  0.00     0.565 C  
HETATM   18  C   UNL     1      -7.468  18.782  65.845  1.00  0.00    -0.198 C  
HETATM   19  I   UNL     1      -5.310  17.386  64.156  1.00  0.00     4.710 I  
HETATM   20  C   UNL     1      -8.379  18.835  67.033  1.00  0.00    -0.272 C  
HETATM   21  O   UNL     1      -7.233  19.774  65.162  1.00  0.00    -0.372 OA 
HETATM   22  I   UNL     1      -9.016  20.714  67.657  1.00  0.00     0.123 I  
HETATM   23  C   UNL     1      -8.750  17.700  67.655  1.00  0.00    -0.232 A  
HETATM   24  O   UNL     1      -9.548  17.776  68.784  1.00  0.00    -0.311 OA 
HETATM   25  C   UNL     1     -10.152  16.658  69.286  1.00  0.00    -0.257 A  
HETATM   26  C   UNL     1     -11.043  16.826  70.362  1.00  0.00     0.172 A  
HETATM   27  C   UNL     1     -11.685  15.717  70.920  1.00  0.00    -0.406 A  
HETATM   28  I   UNL     1     -11.423  18.750  71.151  1.00  0.00    10.184 I  
HETATM   29  C   UNL     1     -11.463  14.455  70.369  1.00  0.00    -0.170 A  
HETATM   30  O   UNL     1     -12.518  15.846  71.998  1.00  0.00    -0.420 OA 
HETATM   31  H   UNL     1     -12.955  15.092  72.377  1.00  0.00     0.000 HD 
HETATM   32  I   UNL     1     -12.392  12.740  71.134  1.00  0.00     0.427 I  
HETATM   33  C   UNL     1     -10.583  14.296  69.289  1.00  0.00    -0.160 A  
HETATM   34  C   UNL     1      -9.891  15.393  68.751  1.00  0.00    -0.211 A  
ENDBRANCH  12  14
TORSDOF 1
ENDMDL
MODEL      134
REMARK 921   NORMALIZED FREE ENERGY PREDICTED BY IDOCK:   23.86 KCAL/MOL
REMARK 922        TOTAL FREE ENERGY PREDICTED BY IDOCK:   24.55 KCAL/MOL
REMARK 923 INTER-LIGAND FREE ENERGY PREDICTED BY IDOCK:   25.59 KCAL/MOL
REMARK 924 INTRA-LIGAND FREE ENERGY PREDICTED BY IDOCK:   -1.04 KCAL/MOL
REMARK 927      BINDING AFFINITY PREDICTED BY RF-SCORE:    0.00 PKD
ROOT
HETATM    1  O   UNL     1     -12.759  16.165  65.603  1.00  0.00     2.268 OA 
HETATM    2  C   UNL     1     -12.637  15.394  66.707  1.00  0.00     1.560 C  
HETATM    3  O   UNL     1     -13.422  15.466  67.634  1.00  0.00     3.701 OA 
HETATM    4  C   UNL     1     -11.415  14.548  66.755  1.00  0.00    -0.376 A  
HETATM    5  C   UNL     1     -11.018  13.778  65.640  1.00  0.00    -0.288 A  
HETATM    6 CL   UNL     1     -11.954  13.803  64.169  1.00  0.00    -0.475 Cl 
HETATM    7  C   UNL     1      -9.872  12.962  65.710  1.00  0.00    -0.209 A  
HETATM    8 CL   UNL     1      -9.395  12.009  64.329  1.00  0.00     0.152 Cl 
HETATM    9  C   UNL     1      -9.109  12.917  66.888  1.00  0.00    -0.224 A  
HETATM   10  C   UNL     1      -9.494  13.687  68.004  1.00  0.00    -0.209 A  
HETATM   11 CL   UNL     1      -7.700  11.897  66.977  1.00  0.00    -0.160 Cl 
HETATM   12  C   UNL     1     -10.663  14.487  67.967  1.00  0.00    -0.243 A  
HETATM   13 CL   UNL     1      -8.507  13.680  69.442  1.00  0.00     0.638 Cl 
ENDROOT
BRANCH  12  14
HETATM   14  C   UNL     1     -11.098  15.204  69.224  1.00  0.00    -0.279 A  
HETATM   15  C   UNL     1     -10.692  16.477  69.493  1.00  0.00    -0.321 A  
HETATM   16  C   UNL     1      -9.795  17.212  68.599  1.00  0.00    -0.300 C  
HETATM   17  C   UNL     1      -9.563  18.526  68.747  1.00  0.00    -0.333 C  
HETATM   18  C   UNL     1     -10.206  19.285  69.869  1.00  0.00     0.679 C  
HETATM   19  I   UNL     1      -8.314  19.533  67.458  1.00  0.00    -0.373 I  
HETATM   20  C   UNL     1     -10.899  18.473  70.920  1.00  0.00     2.965 C  
HETATM   21  O   UNL     1     -10.138  20.509  69.935  1.00  0.00     0.206 OA 
HETATM   22  I   UNL     1     -11.502  19.467  72.644  1.00  0.00    12.308 I  
HETATM   23  C   UNL     1     -11.106  17.155  70.733  1.00  0.00     0.956 A  
HETATM   24  O   UNL     1     -11.699  16.413  71.740  1.00  0.00    -0.478 OA 
HETATM   25  C   UNL     1     -12.157  15.149  71.495  1.00  0.00    -0.345 A  
HETATM   26  C   UNL     1     -12.854  14.497  72.529  1.00  0.00    -0.386 A  
HETATM   27  C   UNL     1     -13.340  13.201  72.338  1.00  0.00    -0.490 A  
HETATM   28  I   UNL     1     -13.177  15.463  74.381  1.00  0.00     2.865 I  
HETATM   29  C   UNL     1     -13.161  12.583  71.100  1.00  0.00    -0.045 A  
HETATM   30  O   UNL     1     -13.979  12.526  73.342  1.00  0.00     0.956 OA 
HETATM   31  H   UNL     1     -14.309  11.644  73.212  1.00  0.00     0.000 HD 
HETATM   32  I   UNL     1     -13.866  10.648  70.721  1.00  0.00     2.410 I  
HETATM   33  C   UNL     1     -12.475  13.243  70.070  1.00  0.00    -0.166 A  
HETATM   34  C   UNL     1     -11.936  14.526  70.264  1.00  0.00    -0.379 A  
ENDBRANCH  12  14
TORSDOF 1
ENDMDL
MODEL      135
REMARK 921   NORMALIZED FREE ENERGY PREDICTED BY IDOCK:   23.86 KCAL/MOL
REMARK 922        TOTAL FREE ENERGY PREDICTED BY IDOCK:   24.55 KCAL/MOL
REMARK 923 INTER-LIGAND FREE ENERGY PREDICTED BY IDOCK:   16.81 KCAL/MOL
REMARK 924 INTRA-LIGAND FREE ENERGY PREDICTED BY IDOCK:    7.74 KCAL/MOL
REMARK 927      BINDING AFFINITY PREDICTED BY RF-SCORE:    0.00 PKD
ROOT
HETATM    1  O   UNL     1      -9.823   9.693  72.481  1.00  0.00     1.291 OA 
HETATM    2  C   UNL     1     -10.244   8.932  71.447  1.00  0.00    -0.305 C  
HETATM    3  O   UNL     1      -9.949   7.756  71.349  1.00  0.00    -0.177 OA 
HETATM    4  C   UNL     1     -10.986   9.663  70.385  1.00  0.00    -0.356 A  
HETATM    5  C   UNL     1     -12.021  10.567  70.710  1.00  0.00    -0.370 A  
HETATM    6 CL   UNL     1     -12.454  10.853  72.373  1.00  0.00     0.653 Cl 
HETATM    7  C   UNL     1     -12.731  11.232  69.690  1.00  0.00     0.174 A  
HETATM    8 CL   UNL     1     -14.012  12.341  70.103  1.00  0.00     3.841 Cl 
HETATM    9  C   UNL     1     -12.406  11.009  68.343  1.00  0.00     0.587 A  
HETATM   10  C   UNL     1     -11.370  10.113  68.010  1.00  0.00    -0.078 A  
HETATM   11 CL   UNL     1     -13.294  11.822  67.085  1.00  0.00     6.433 Cl 
HETATM   12  C   UNL     1     -10.668   9.406  69.017  1.00  0.00    -0.209 A  
HETATM   13 CL   UNL     1     -10.925   9.889  66.338  1.00  0.00     0.097 Cl 
ENDROOT
BRANCH  12  14
HETATM   14  C   UNL     1      -9.644   8.373  68.606  1.00  0.00    -0.153 A  
HETATM   15  C   UNL     1      -8.680   8.654  67.685  1.00  0.00    -0.136 A  
HETATM   16  C   UNL     1      -8.593   9.956  67.023  1.00  0.00    -0.130 C  
HETATM   17  C   UNL     1      -7.530  10.308  66.281  1.00  0.00    -0.118 C  
HETATM   18  C   UNL     1      -6.396   9.348  66.084  1.00  0.00    -0.068 C  
HETATM   19  I   UNL     1      -7.431  12.157  65.383  1.00  0.00     4.176 I  
HETATM   20  C   UNL     1      -6.620   7.939  66.541  1.00  0.00    -0.054 C  
HETATM   21  O   UNL     1      -5.349   9.696  65.546  1.00  0.00    -0.042 OA 
HETATM   22  I   UNL     1      -5.205   6.522  65.979  1.00  0.00    -0.018 I  
HETATM   23  C   UNL     1      -7.703   7.629  67.279  1.00  0.00    -0.113 A  
HETATM   24  O   UNL     1      -7.919   6.311  67.643  1.00  0.00    -0.110 OA 
HETATM   25  C   UNL     1      -8.849   5.996  68.595  1.00  0.00    -0.109 A  
HETATM   26  C   UNL     1      -8.933   4.652  69.003  1.00  0.00    -0.110 A  
HETATM   27  C   UNL     1      -9.869   4.270  69.967  1.00  0.00    -0.205 A  
HETATM   28  I   UNL     1      -7.652   3.193  68.166  1.00  0.00    -0.052 I  
HETATM   29  C   UNL     1     -10.684   5.243  70.547  1.00  0.00    -0.138 A  
HETATM   30  O   UNL     1     -10.006   2.962  70.347  1.00  0.00     0.053 OA 
HETATM   31  H   UNL     1     -10.643   2.703  71.003  1.00  0.00     0.000 HD 
HETATM   32  I   UNL     1     -12.105   4.763  72.009  1.00  0.00     2.986 I  
HETATM   33  C   UNL     1     -10.586   6.582  70.144  1.00  0.00    -0.277 A  
HETATM   34  C   UNL     1      -9.687   6.973  69.138  1.00  0.00    -0.156 A  
ENDBRANCH  12  14
TORSDOF 1
ENDMDL
MODEL      136
REMARK 921   NORMALIZED FREE ENERGY PREDICTED BY IDOCK:   25.76 KCAL/MOL
REMARK 922        TOTAL FREE ENERGY PREDICTED BY IDOCK:   26.56 KCAL/MOL
REMARK 923 INTER-LIGAND FREE ENERGY PREDICTED BY IDOCK:   27.40 KCAL/MOL
REMARK 924 INTRA-LIGAND FREE ENERGY PREDICTED BY IDOCK:   -0.84 KCAL/MOL
REMARK 927      BINDING AFFINITY PREDICTED BY RF-SCORE:    0.00 PKD
ROOT
HETATM    1  O   UNL     1      -6.528  16.259  67.980  1.00  0.00    -0.119 OA 
HETATM    2  C   UNL     1      -7.670  16.081  68.681  1.00  0.00    -0.176 C  
HETATM    3  O   UNL     1      -7.869  15.083  69.348  1.00  0.00    -0.190 OA 
HETATM    4  C   UNL     1      -8.704  17.130  68.480  1.00  0.00    -0.261 A  
HETATM    5  C   UNL     1      -8.371  18.501  68.532  1.00  0.00    -0.334 A  
HETATM    6 CL   UNL     1      -6.728  19.001  68.830  1.00  0.00    -0.301 Cl 
HETATM    7  C   UNL     1      -9.368  19.483  68.365  1.00  0.00    -0.367 A  
HETATM    8 CL   UNL     1      -8.945  21.174  68.438  1.00  0.00     0.899 Cl 
HETATM    9  C   UNL     1     -10.700  19.104  68.135  1.00  0.00    -0.135 A  
HETATM   10  C   UNL     1     -11.041  17.738  68.076  1.00  0.00     0.100 A  
HETATM   11 CL   UNL     1     -11.932  20.319  67.943  1.00  0.00     2.280 Cl 
HETATM   12  C   UNL     1     -10.061  16.734  68.277  1.00  0.00    -0.274 A  
HETATM   13 CL   UNL     1     -12.684  17.271  67.724  1.00  0.00     3.789 Cl 
ENDROOT
BRANCH  12  14
HETATM   14  C   UNL     1     -10.495  15.287  68.318  1.00  0.00    -0.244 A  
HETATM   15  C   UNL     1     -11.083  14.752  69.424  1.00  0.00    -0.302 A  
HETATM   16  C   UNL     1     -11.306  15.534  70.641  1.00  0.00    -0.367 C  
HETATM   17  C   UNL     1     -12.068  15.079  71.649  1.00  0.00    -0.347 C  
HETATM   18  C   UNL     1     -12.701  13.723  71.566  1.00  0.00    -0.346 C  
HETATM   19  I   UNL     1     -12.378  16.215  73.338  1.00  0.00    -0.533 I  
HETATM   20  C   UNL     1     -12.250  12.838  70.443  1.00  0.00    -0.293 C  
HETATM   21  O   UNL     1     -13.524  13.349  72.396  1.00  0.00    -0.534 OA 
HETATM   22  I   UNL     1     -12.856  10.849  70.500  1.00  0.00     0.048 I  
HETATM   23  C   UNL     1     -11.481  13.334  69.456  1.00  0.00    -0.234 A  
HETATM   24  O   UNL     1     -11.029  12.486  68.459  1.00  0.00    -0.227 OA 
HETATM   25  C   UNL     1     -10.473  12.989  67.316  1.00  0.00    -0.238 A  
HETATM   26  C   UNL     1     -10.146  12.079  66.296  1.00  0.00    -0.222 A  
HETATM   27  C   UNL     1      -9.568  12.535  65.108  1.00  0.00     0.081 A  
HETATM   28  I   UNL     1     -10.519  10.012  66.539  1.00  0.00    -0.038 I  
HETATM   29  C   UNL     1      -9.362  13.904  64.934  1.00  0.00     1.167 A  
HETATM   30  O   UNL     1      -9.195  11.666  64.118  1.00  0.00    -0.422 OA 
HETATM   31  H   UNL     1      -8.802  11.977  63.311  1.00  0.00     0.000 HD 
HETATM   32  I   UNL     1      -8.514  14.678  63.182  1.00  0.00    26.155 I  
HETATM   33  C   UNL     1      -9.701  14.807  65.951  1.00  0.00    -0.355 A  
HETATM   34  C   UNL     1     -10.234  14.358  67.171  1.00  0.00    -0.257 A  
ENDBRANCH  12  14
TORSDOF 1
ENDMDL
MODEL      137
REMARK 921   NORMALIZED FREE ENERGY PREDICTED BY IDOCK:   28.67 KCAL/MOL
REMARK 922        TOTAL FREE ENERGY PREDICTED BY IDOCK:   29.65 KCAL/MOL
REMARK 923 INTER-LIGAND FREE ENERGY PREDICTED BY IDOCK:   23.69 KCAL/MOL
REMARK 924 INTRA-LIGAND FREE ENERGY PREDICTED BY IDOCK:    5.95 KCAL/MOL
REMARK 927      BINDING AFFINITY PREDICTED BY RF-SCORE:    0.00 PKD
ROOT
HETATM    1  O   UNL     1      -7.886  12.563  68.663  1.00  0.00    -0.120 OA 
HETATM    2  C   UNL     1      -7.711  11.308  68.195  1.00  0.00    -0.112 C  
HETATM    3  O   UNL     1      -7.718  11.056  67.004  1.00  0.00    -0.121 OA 
HETATM    4  C   UNL     1      -7.630  10.250  69.237  1.00  0.00    -0.125 A  
HETATM    5  C   UNL     1      -6.808  10.409  70.374  1.00  0.00    -0.065 A  
HETATM    6 CL   UNL     1      -5.867  11.861  70.588  1.00  0.00    -0.132 Cl 
HETATM    7  C   UNL     1      -6.723   9.387  71.340  1.00  0.00     0.055 A  
HETATM    8 CL   UNL     1      -5.700   9.592  72.738  1.00  0.00     0.141 Cl 
HETATM    9  C   UNL     1      -7.464   8.205  71.183  1.00  0.00    -0.074 A  
HETATM   10  C   UNL     1      -8.291   8.039  70.055  1.00  0.00    -0.123 A  
HETATM   11 CL   UNL     1      -7.347   6.937  72.372  1.00  0.00    -0.085 Cl 
HETATM   12  C   UNL     1      -8.364   9.039  69.053  1.00  0.00    -0.124 A  
HETATM   13 CL   UNL     1      -9.261   6.598  69.896  1.00  0.00    -0.147 Cl 
ENDROOT
BRANCH  12  14
HETATM   14  C   UNL     1      -9.175   8.768  67.807  1.00  0.00    -0.146 A  
HETATM   15  C   UNL     1     -10.007   9.711  67.281  1.00  0.00    -0.250 A  
HETATM   16  C   UNL     1     -10.184  11.024  67.901  1.00  0.00    -0.207 C  
HETATM   17  C   UNL     1     -10.831  12.023  67.279  1.00  0.00    -0.246 C  
HETATM   18  C   UNL     1     -11.425  11.808  65.919  1.00  0.00    -0.207 C  
HETATM   19  I   UNL     1     -11.042  13.866  68.172  1.00  0.00    -0.338 I  
HETATM   20  C   UNL     1     -11.466  10.396  65.420  1.00  0.00     1.708 C  
HETATM   21  O   UNL     1     -11.881  12.741  65.266  1.00  0.00    -0.356 OA 
HETATM   22  I   UNL     1     -12.578  10.030  63.701  1.00  0.00    13.561 I  
HETATM   23  C   UNL     1     -10.807   9.423  66.078  1.00  0.00     0.899 A  
HETATM   24  O   UNL     1     -10.905   8.117  65.631  1.00  0.00     2.465 OA 
HETATM   25  C   UNL     1     -10.059   7.154  66.105  1.00  0.00     0.346 A  
HETATM   26  C   UNL     1     -10.134   5.876  65.521  1.00  0.00     0.716 A  
HETATM   27  C   UNL     1      -9.297   4.851  65.970  1.00  0.00    -0.156 A  
HETATM   28  I   UNL     1     -11.508   5.487  63.962  1.00  0.00     7.511 I  
HETATM   29  C   UNL     1      -8.364   5.123  66.970  1.00  0.00    -0.107 A  
HETATM   30  O   UNL     1      -9.383   3.586  65.453  1.00  0.00    -0.149 OA 
HETATM   31  H   UNL     1      -8.814   2.889  65.759  1.00  0.00     0.000 HD 
HETATM   32  I   UNL     1      -7.062   3.650  67.694  1.00  0.00    -0.055 I  
HETATM   33  C   UNL     1      -8.286   6.402  67.539  1.00  0.00    -0.117 A  
HETATM   34  C   UNL     1      -9.155   7.429  67.135  1.00  0.00    -0.146 A  
ENDBRANCH  12  14
TORSDOF 1
ENDMDL
MODEL      138
REMARK 921   NORMALIZED FREE ENERGY PREDICTED BY IDOCK:   29.37 KCAL/MOL
REMARK 922        TOTAL FREE ENERGY PREDICTED BY IDOCK:   30.38 KCAL/MOL
REMARK 923 INTER-LIGAND FREE ENERGY PREDICTED BY IDOCK:   30.14 KCAL/MOL
REMARK 924 INTRA-LIGAND FREE ENERGY PREDICTED BY IDOCK:    0.24 KCAL/MOL
REMARK 927      BINDING AFFINITY PREDICTED BY RF-SCORE:    0.00 PKD
ROOT
HETATM    1  O   UNL     1      -7.062  10.133  68.395  1.00  0.00    -0.069 OA 
HETATM    2  C   UNL     1      -8.352   9.846  68.672  1.00  0.00    -0.110 C  
HETATM    3  O   UNL     1      -8.826  10.006  69.782  1.00  0.00    -0.203 OA 
HETATM    4  C   UNL     1      -9.111   9.211  67.561  1.00  0.00    -0.137 A  
HETATM    5  C   UNL     1      -9.052   9.730  66.249  1.00  0.00    -0.157 A  
HETATM    6 CL   UNL     1      -8.080  11.132  65.896  1.00  0.00    -0.078 Cl 
HETATM    7  C   UNL     1      -9.797   9.131  65.213  1.00  0.00     0.240 A  
HETATM    8 CL   UNL     1      -9.721   9.784  63.598  1.00  0.00     0.104 Cl 
HETATM    9  C   UNL     1     -10.595   8.006  65.477  1.00  0.00     3.341 A  
HETATM   10  C   UNL     1     -10.655   7.479  66.782  1.00  0.00    -0.198 A  
HETATM   11 CL   UNL     1     -11.525   7.277  64.198  1.00  0.00    15.865 Cl 
HETATM   12  C   UNL     1      -9.943   8.086  67.846  1.00  0.00    -0.223 A  
HETATM   13 CL   UNL     1     -11.595   6.042  67.092  1.00  0.00     0.468 Cl 
ENDROOT
BRANCH  12  14
HETATM   14  C   UNL     1     -10.128   7.553  69.248  1.00  0.00    -0.188 A  
HETATM   15  C   UNL     1      -9.536   6.395  69.653  1.00  0.00    -0.154 A  
HETATM   16  C   UNL     1      -8.710   5.588  68.753  1.00  0.00    -0.102 C  
HETATM   17  C   UNL     1      -7.958   4.569  69.199  1.00  0.00    -0.069 C  
HETATM   18  C   UNL     1      -7.965   4.205  70.653  1.00  0.00    -0.055 C  
HETATM   19  I   UNL     1      -6.792   3.470  67.908  1.00  0.00    -0.051 I  
HETATM   20  C   UNL     1      -9.007   4.862  71.506  1.00  0.00    -0.135 C  
HETATM   21  O   UNL     1      -7.173   3.387  71.111  1.00  0.00    -0.032 OA 
HETATM   22  I   UNL     1      -9.253   4.129  73.436  1.00  0.00    -0.123 I  
HETATM   23  C   UNL     1      -9.744   5.877  71.016  1.00  0.00    -0.172 A  
HETATM   24  O   UNL     1     -10.740   6.432  71.802  1.00  0.00    -0.222 OA 
HETATM   25  C   UNL     1     -11.326   7.615  71.449  1.00  0.00    -0.258 A  
HETATM   26  C   UNL     1     -12.244   8.181  72.352  1.00  0.00    -0.319 A  
HETATM   27  C   UNL     1     -12.880   9.386  72.042  1.00  0.00    -0.414 A  
HETATM   28  I   UNL     1     -12.677   7.223  74.186  1.00  0.00    11.381 I  
HETATM   29  C   UNL     1     -12.560  10.036  70.849  1.00  0.00    -0.332 A  
HETATM   30  O   UNL     1     -13.813   9.934  72.880  1.00  0.00    -0.466 OA 
HETATM   31  H   UNL     1     -14.245  10.754  72.669  1.00  0.00     0.000 HD 
HETATM   32  I   UNL     1     -13.455  11.852  70.310  1.00  0.00     3.337 I  
HETATM   33  C   UNL     1     -11.636   9.472  69.959  1.00  0.00    -0.091 A  
HETATM   34  C   UNL     1     -11.028   8.235  70.233  1.00  0.00    -0.233 A  
ENDBRANCH  12  14
TORSDOF 1
ENDMDL
MODEL      139
REMARK 921   NORMALIZED FREE ENERGY PREDICTED BY IDOCK:   31.65 KCAL/MOL
REMARK 922        TOTAL FREE ENERGY PREDICTED BY IDOCK:   32.79 KCAL/MOL
REMARK 923 INTER-LIGAND FREE ENERGY PREDICTED BY IDOCK:    7.98 KCAL/MOL
REMARK 924 INTRA-LIGAND FREE ENERGY PREDICTED BY IDOCK:   24.81 KCAL/MOL
REMARK 927      BINDING AFFINITY PREDICTED BY RF-SCORE:    0.00 PKD
ROOT
HETATM    1  O   UNL     1      -9.464   8.849  67.850  1.00  0.00    -0.140 OA 
HETATM    2  C   UNL     1      -8.894   9.987  67.394  1.00  0.00    -0.128 C  
HETATM    3  O   UNL     1      -7.798  10.356  67.772  1.00  0.00    -0.100 OA 
HETATM    4  C   UNL     1      -9.752  10.808  66.498  1.00  0.00    -0.236 A  
HETATM    5  C   UNL     1     -10.463  10.218  65.430  1.00  0.00    -0.055 A  
HETATM    6 CL   UNL     1     -10.356   8.503  65.136  1.00  0.00     2.244 Cl 
HETATM    7  C   UNL     1     -11.251  11.014  64.574  1.00  0.00     0.169 A  
HETATM    8 CL   UNL     1     -12.119  10.276  63.254  1.00  0.00     4.337 Cl 
HETATM    9  C   UNL     1     -11.343  12.399  64.785  1.00  0.00    -0.315 A  
HETATM   10  C   UNL     1     -10.642  12.995  65.852  1.00  0.00    -0.275 A  
HETATM   11 CL   UNL     1     -12.307  13.382  63.718  1.00  0.00    -0.457 Cl 
HETATM   12  C   UNL     1      -9.815  12.219  66.703  1.00  0.00    -0.230 A  
HETATM   13 CL   UNL     1     -10.811  14.705  66.151  1.00  0.00    -0.314 Cl 
ENDROOT
BRANCH  12  14
HETATM   14  C   UNL     1      -8.994  12.919  67.761  1.00  0.00    -0.191 A  
HETATM   15  C   UNL     1      -8.852  14.275  67.770  1.00  0.00    -0.185 A  
HETATM   16  C   UNL     1      -9.460  15.127  66.747  1.00  0.00    -0.260 C  
HETATM   17  C   UNL     1      -9.501  16.463  66.867  1.00  0.00    -0.235 C  
HETATM   18  C   UNL     1      -8.890  17.134  68.061  1.00  0.00    -0.229 C  
HETATM   19  I   UNL     1     -10.383  17.630  65.419  1.00  0.00     1.053 I  
HETATM   20  C   UNL     1      -8.047  16.277  68.955  1.00  0.00    -0.236 C  
HETATM   21  O   UNL     1      -9.051  18.332  68.273  1.00  0.00    -0.289 OA 
HETATM   22  I   UNL     1      -6.926  17.245  70.415  1.00  0.00     2.918 I  
HETATM   23  C   UNL     1      -8.031  14.940  68.796  1.00  0.00    -0.156 A  
HETATM   24  O   UNL     1      -7.202  14.173  69.597  1.00  0.00    -0.031 OA 
HETATM   25  C   UNL     1      -7.345  12.814  69.646  1.00  0.00     0.664 A  
HETATM   26  C   UNL     1      -6.551  12.109  70.569  1.00  0.00     0.925 A  
HETATM   27  C   UNL     1      -6.650  10.718  70.658  1.00  0.00     0.241 A  
HETATM   28  I   UNL     1      -5.201  13.137  71.830  1.00  0.00     0.112 I  
HETATM   29  C   UNL     1      -7.572  10.048  69.853  1.00  0.00    -0.170 A  
HETATM   30  O   UNL     1      -5.855  10.003  71.513  1.00  0.00    -0.247 OA 
HETATM   31  H   UNL     1      -5.922   9.057  71.574  1.00  0.00     0.000 HD 
HETATM   32  I   UNL     1      -7.795   7.967  69.931  1.00  0.00    -0.107 I  
HETATM   33  C   UNL     1      -8.368  10.759  68.944  1.00  0.00    -0.147 A  
HETATM   34  C   UNL     1      -8.243  12.151  68.806  1.00  0.00     0.055 A  
ENDBRANCH  12  14
TORSDOF 1
ENDMDL
MODEL      140
REMARK 921   NORMALIZED FREE ENERGY PREDICTED BY IDOCK:   32.53 KCAL/MOL
REMARK 922        TOTAL FREE ENERGY PREDICTED BY IDOCK:   33.72 KCAL/MOL
REMARK 923 INTER-LIGAND FREE ENERGY PREDICTED BY IDOCK:   16.86 KCAL/MOL
REMARK 924 INTRA-LIGAND FREE ENERGY PREDICTED BY IDOCK:   16.87 KCAL/MOL
REMARK 927      BINDING AFFINITY PREDICTED BY RF-SCORE:    0.00 PKD
ROOT
HETATM    1  O   UNL     1     -10.336  10.177  72.331  1.00  0.00     2.798 OA 
HETATM    2  C   UNL     1     -10.945   9.972  71.143  1.00  0.00    -0.113 C  
HETATM    3  O   UNL     1     -10.920   8.892  70.583  1.00  0.00    -0.224 OA 
HETATM    4  C   UNL     1     -11.539  11.184  70.519  1.00  0.00    -0.287 A  
HETATM    5  C   UNL     1     -12.339  12.072  71.270  1.00  0.00    -0.090 A  
HETATM    6 CL   UNL     1     -12.648  11.770  72.959  1.00  0.00     3.506 Cl 
HETATM    7  C   UNL     1     -12.915  13.203  70.658  1.00  0.00     0.080 A  
HETATM    8 CL   UNL     1     -13.907  14.290  71.594  1.00  0.00    -0.466 Cl 
HETATM    9  C   UNL     1     -12.688  13.460  69.296  1.00  0.00     0.650 A  
HETATM   10  C   UNL     1     -11.886  12.583  68.540  1.00  0.00    -0.295 A  
HETATM   11 CL   UNL     1     -13.413  14.851  68.539  1.00  0.00     3.434 Cl 
HETATM   12  C   UNL     1     -11.327  11.421  69.127  1.00  0.00    -0.353 A  
HETATM   13 CL   UNL     1     -11.553  12.941  66.866  1.00  0.00    -0.399 Cl 
ENDROOT
BRANCH  12  14
HETATM   14  C   UNL     1     -10.570  10.451  68.249  1.00  0.00    -0.245 A  
HETATM   15  C   UNL     1      -9.842  10.879  67.179  1.00  0.00    -0.213 A  
HETATM   16  C   UNL     1      -9.771  12.292  66.803  1.00  0.00    -0.219 C  
HETATM   17  C   UNL     1      -8.896  12.741  65.889  1.00  0.00     0.504 C  
HETATM   18  C   UNL     1      -7.969  11.787  65.197  1.00  0.00     1.416 C  
HETATM   19  I   UNL     1      -8.809  14.738  65.399  1.00  0.00     3.419 I  
HETATM   20  C   UNL     1      -8.236  10.326  65.397  1.00  0.00    -0.156 C  
HETATM   21  O   UNL     1      -7.059  12.188  64.478  1.00  0.00     3.704 OA 
HETATM   22  I   UNL     1      -7.186   8.996  64.192  1.00  0.00    -0.105 I  
HETATM   23  C   UNL     1      -9.127   9.919  66.321  1.00  0.00    -0.155 A  
HETATM   24  O   UNL     1      -9.398   8.568  66.450  1.00  0.00    -0.181 OA 
HETATM   25  C   UNL     1     -10.088   8.098  67.532  1.00  0.00    -0.224 A  
HETATM   26  C   UNL     1     -10.225   6.704  67.661  1.00  0.00    -0.177 A  
HETATM   27  C   UNL     1     -10.926   6.166  68.744  1.00  0.00    -0.348 A  
HETATM   28  I   UNL     1      -9.378   5.404  66.226  1.00  0.00    -0.156 I  
HETATM   29  C   UNL     1     -11.448   7.026  69.711  1.00  0.00    -0.130 A  
HETATM   30  O   UNL     1     -11.116   4.816  68.868  1.00  0.00     1.067 OA 
HETATM   31  H   UNL     1     -11.593   4.451  69.605  1.00  0.00     0.000 HD 
HETATM   32  I   UNL     1     -12.502   6.306  71.372  1.00  0.00     0.807 I  
HETATM   33  C   UNL     1     -11.298   8.413  69.582  1.00  0.00     0.209 A  
HETATM   34  C   UNL     1     -10.641   8.971  68.473  1.00  0.00    -0.196 A  
ENDBRANCH  12  14
TORSDOF 1
ENDMDL
MODEL      141
REMARK 921   NORMALIZED FREE ENERGY PREDICTED BY IDOCK:   33.73 KCAL/MOL
REMARK 922        TOTAL FREE ENERGY PREDICTED BY IDOCK:   34.99 KCAL/MOL
REMARK 923 INTER-LIGAND FREE ENERGY PREDICTED BY IDOCK:    7.68 KCAL/MOL
REMARK 924 INTRA-LIGAND FREE ENERGY PREDICTED BY IDOCK:   27.32 KCAL/MOL
REMARK 927      BINDING AFFINITY PREDICTED BY RF-SCORE:    0.00 PKD
ROOT
HETATM    1  O   UNL     1      -8.264  10.184  67.304  1.00  0.00    -0.117 OA 
HETATM    2  C   UNL     1      -8.733   9.472  68.352  1.00  0.00    -0.124 C  
HETATM    3  O   UNL     1      -8.586   9.843  69.502  1.00  0.00    -0.155 OA 
HETATM    4  C   UNL     1      -9.331   8.155  68.004  1.00  0.00    -0.144 A  
HETATM    5  C   UNL     1     -10.257   8.032  66.945  1.00  0.00    -0.315 A  
HETATM    6 CL   UNL     1     -10.720   9.428  66.010  1.00  0.00     0.270 Cl 
HETATM    7  C   UNL     1     -10.833   6.782  66.645  1.00  0.00    -0.072 A  
HETATM    8 CL   UNL     1     -11.980   6.643  65.338  1.00  0.00     6.232 Cl 
HETATM    9  C   UNL     1     -10.482   5.646  67.392  1.00  0.00    -0.241 A  
HETATM   10  C   UNL     1      -9.555   5.758  68.447  1.00  0.00    -0.125 A  
HETATM   11 CL   UNL     1     -11.206   4.104  67.028  1.00  0.00     2.903 Cl 
HETATM   12  C   UNL     1      -8.991   7.012  68.789  1.00  0.00    -0.131 A  
HETATM   13 CL   UNL     1      -9.072   4.333  69.330  1.00  0.00    -0.163 Cl 
ENDROOT
BRANCH  12  14
HETATM   14  C   UNL     1      -8.090   7.103  69.999  1.00  0.00    -0.127 A  
HETATM   15  C   UNL     1      -7.909   6.039  70.832  1.00  0.00    -0.107 A  
HETATM   16  C   UNL     1      -8.591   4.762  70.621  1.00  0.00    -0.118 C  
HETATM   17  C   UNL     1      -8.259   3.656  71.307  1.00  0.00    -0.067 C  
HETATM   18  C   UNL     1      -7.178   3.707  72.345  1.00  0.00    -0.048 C  
HETATM   19  I   UNL     1      -9.225   1.870  70.969  1.00  0.00    -0.192 I  
HETATM   20  C   UNL     1      -6.681   5.066  72.732  1.00  0.00    -0.066 C  
HETATM   21  O   UNL     1      -6.748   2.685  72.871  1.00  0.00    -0.021 OA 
HETATM   22  I   UNL     1      -5.436   5.184  74.393  1.00  0.00    -0.024 I  
HETATM   23  C   UNL     1      -7.045   6.150  72.020  1.00  0.00    -0.083 A  
HETATM   24  O   UNL     1      -6.619   7.403  72.428  1.00  0.00    -0.054 OA 
HETATM   25  C   UNL     1      -6.745   8.484  71.602  1.00  0.00    -0.079 A  
HETATM   26  C   UNL     1      -6.185   9.700  72.031  1.00  0.00     0.334 A  
HETATM   27  C   UNL     1      -6.289  10.841  71.231  1.00  0.00     0.788 A  
HETATM   28  I   UNL     1      -5.179   9.824  73.886  1.00  0.00     0.206 I  
HETATM   29  C   UNL     1      -6.917  10.745  69.989  1.00  0.00    -0.084 A  
HETATM   30  O   UNL     1      -5.795  12.048  71.645  1.00  0.00    -0.249 OA 
HETATM   31  H   UNL     1      -5.867  12.824  71.101  1.00  0.00     0.000 HD 
HETATM   32  I   UNL     1      -7.108  12.400  68.719  1.00  0.00     0.011 I  
HETATM   33  C   UNL     1      -7.463   9.527  69.562  1.00  0.00    -0.092 A  
HETATM   34  C   UNL     1      -7.412   8.384  70.378  1.00  0.00    -0.067 A  
ENDBRANCH  12  14
TORSDOF 1
ENDMDL
MODEL      142
REMARK 921   NORMALIZED FREE ENERGY PREDICTED BY IDOCK:   35.21 KCAL/MOL
REMARK 922        TOTAL FREE ENERGY PREDICTED BY IDOCK:   36.57 KCAL/MOL
REMARK 923 INTER-LIGAND FREE ENERGY PREDICTED BY IDOCK:   29.44 KCAL/MOL
REMARK 924 INTRA-LIGAND FREE ENERGY PREDICTED BY IDOCK:    7.13 KCAL/MOL
REMARK 927      BINDING AFFINITY PREDICTED BY RF-SCORE:    0.00 PKD
ROOT
HETATM    1  O   UNL     1     -13.455  14.919  69.453  1.00  0.00     1.232 OA 
HETATM    2  C   UNL     1     -12.370  14.828  68.652  1.00  0.00     0.040 C  
HETATM    3  O   UNL     1     -12.454  14.485  67.488  1.00  0.00    -0.114 OA 
HETATM    4  C   UNL     1     -11.065  15.060  69.327  1.00  0.00    -0.280 A  
HETATM    5  C   UNL     1     -10.877  16.161  70.191  1.00  0.00    -0.328 A  
HETATM    6 CL   UNL     1     -12.180  17.279  70.494  1.00  0.00     3.800 Cl 
HETATM    7  C   UNL     1      -9.627  16.381  70.803  1.00  0.00     2.538 A  
HETATM    8 CL   UNL     1      -9.405  17.747  71.864  1.00  0.00     9.785 Cl 
HETATM    9  C   UNL     1      -8.561  15.499  70.565  1.00  0.00     1.576 A  
HETATM   10  C   UNL     1      -8.741  14.395  69.708  1.00  0.00     0.752 A  
HETATM   11 CL   UNL     1      -7.013  15.781  71.311  1.00  0.00     2.118 Cl 
HETATM   12  C   UNL     1      -9.978  14.175  69.054  1.00  0.00    -0.067 A  
HETATM   13 CL   UNL     1      -7.433  13.265  69.467  1.00  0.00     0.399 Cl 
ENDROOT
BRANCH  12  14
HETATM   14  C   UNL     1     -10.088  13.044  68.058  1.00  0.00    -0.235 A  
HETATM   15  C   UNL     1      -9.689  11.779  68.371  1.00  0.00    -0.197 A  
HETATM   16  C   UNL     1      -9.109  11.447  69.673  1.00  0.00     1.001 C  
HETATM   17  C   UNL     1      -8.912  10.177  70.061  1.00  0.00     0.028 C  
HETATM   18  C   UNL     1      -9.261   9.044  69.143  1.00  0.00    -0.144 C  
HETATM   19  I   UNL     1      -8.115   9.745  71.908  1.00  0.00     3.852 I  
HETATM   20  C   UNL     1      -9.599   9.404  67.728  1.00  0.00    -0.134 C  
HETATM   21  O   UNL     1      -9.239   7.879  69.528  1.00  0.00    -0.152 OA 
HETATM   22  I   UNL     1      -9.756   7.844  66.363  1.00  0.00     0.010 I  
HETATM   23  C   UNL     1      -9.782  10.693  67.381  1.00  0.00    -0.167 A  
HETATM   24  O   UNL     1     -10.038  11.007  66.058  1.00  0.00    -0.230 OA 
HETATM   25  C   UNL     1     -10.482  12.253  65.712  1.00  0.00    -0.255 A  
HETATM   26  C   UNL     1     -10.836  12.469  64.368  1.00  0.00    -0.342 A  
HETATM   27  C   UNL     1     -11.289  13.724  63.956  1.00  0.00    -0.155 A  
HETATM   28  I   UNL     1     -10.689  10.904  62.954  1.00  0.00     1.510 I  
HETATM   29  C   UNL     1     -11.424  14.743  64.900  1.00  0.00    -0.412 A  
HETATM   30  O   UNL     1     -11.595  13.975  62.645  1.00  0.00     0.766 OA 
HETATM   31  H   UNL     1     -11.903  14.829  62.365  1.00  0.00     0.000 HD 
HETATM   32  I   UNL     1     -12.108  16.651  64.373  1.00  0.00     3.864 I  
HETATM   33  C   UNL     1     -11.081  14.517  66.240  1.00  0.00    -0.332 A  
HETATM   34  C   UNL     1     -10.574  13.276  66.660  1.00  0.00    -0.283 A  
ENDBRANCH  12  14
TORSDOF 1
ENDMDL
MODEL      143
REMARK 921   NORMALIZED FREE ENERGY PREDICTED BY IDOCK:   35.96 KCAL/MOL
REMARK 922        TOTAL FREE ENERGY PREDICTED BY IDOCK:   37.36 KCAL/MOL
REMARK 923 INTER-LIGAND FREE ENERGY PREDICTED BY IDOCK:    6.66 KCAL/MOL
REMARK 924 INTRA-LIGAND FREE ENERGY PREDICTED BY IDOCK:   30.70 KCAL/MOL
REMARK 927      BINDING AFFINITY PREDICTED BY RF-SCORE:    0.00 PKD
ROOT
HETATM    1  O   UNL     1      -6.981  10.231  68.744  1.00  0.00    -0.063 OA 
HETATM    2  C   UNL     1      -8.035   9.412  68.536  1.00  0.00    -0.093 C  
HETATM    3  O   UNL     1      -9.174   9.743  68.812  1.00  0.00    -0.136 OA 
HETATM    4  C   UNL     1      -7.690   8.045  68.063  1.00  0.00    -0.118 A  
HETATM    5  C   UNL     1      -6.772   7.849  67.009  1.00  0.00    -0.068 A  
HETATM    6 CL   UNL     1      -6.013   9.213  66.233  1.00  0.00    -0.058 Cl 
HETATM    7  C   UNL     1      -6.474   6.548  66.556  1.00  0.00    -0.043 A  
HETATM    8 CL   UNL     1      -5.344   6.319  65.248  1.00  0.00    -0.017 Cl 
HETATM    9  C   UNL     1      -7.082   5.435  67.159  1.00  0.00    -0.070 A  
HETATM   10  C   UNL     1      -7.995   5.621  68.216  1.00  0.00    -0.100 A  
HETATM   11 CL   UNL     1      -6.723   3.829  66.589  1.00  0.00    -0.045 Cl 
HETATM   12  C   UNL     1      -8.336   6.922  68.663  1.00  0.00    -0.121 A  
HETATM   13 CL   UNL     1      -8.697   4.233  69.007  1.00  0.00    -0.109 Cl 
ENDROOT
BRANCH  12  14
HETATM   14  C   UNL     1      -9.404   7.074  69.722  1.00  0.00    -0.146 A  
HETATM   15  C   UNL     1      -9.888   8.299  70.072  1.00  0.00    -0.182 A  
HETATM   16  C   UNL     1      -9.387   9.535  69.468  1.00  0.00    -0.199 C  
HETATM   17  C   UNL     1     -10.000  10.715  69.651  1.00  0.00    -0.050 C  
HETATM   18  C   UNL     1     -11.220  10.807  70.519  1.00  0.00    -0.101 C  
HETATM   19  I   UNL     1      -9.282  12.430  68.768  1.00  0.00     0.502 I  
HETATM   20  C   UNL     1     -11.557   9.596  71.334  1.00  0.00    -0.400 C  
HETATM   21  O   UNL     1     -11.887  11.835  70.577  1.00  0.00    -0.330 OA 
HETATM   22  I   UNL     1     -13.032   9.810  72.784  1.00  0.00     1.871 I  
HETATM   23  C   UNL     1     -10.913   8.433  71.121  1.00  0.00    -0.244 A  
HETATM   24  O   UNL     1     -11.201   7.342  71.924  1.00  0.00    -0.237 OA 
HETATM   25  C   UNL     1     -10.769   6.092  71.580  1.00  0.00    -0.245 A  
HETATM   26  C   UNL     1     -11.198   5.014  72.375  1.00  0.00    -0.047 A  
HETATM   27  C   UNL     1     -10.782   3.714  72.076  1.00  0.00     0.402 A  
HETATM   28  I   UNL     1     -12.472   5.339  74.030  1.00  0.00     7.740 I  
HETATM   29  C   UNL     1      -9.975   3.498  70.958  1.00  0.00     0.024 A  
HETATM   30  O   UNL     1     -11.144   2.653  72.861  1.00  0.00    -0.062 OA 
HETATM   31  H   UNL     1     -10.861   1.769  72.657  1.00  0.00     0.000 HD 
HETATM   32  I   UNL     1      -9.315   1.582  70.428  1.00  0.00    -0.086 I  
HETATM   33  C   UNL     1      -9.561   4.577  70.164  1.00  0.00    -0.264 A  
HETATM   34  C   UNL     1      -9.928   5.895  70.482  1.00  0.00    -0.243 A  
ENDBRANCH  12  14
TORSDOF 1
ENDMDL
MODEL      144
REMARK 921   NORMALIZED FREE ENERGY PREDICTED BY IDOCK:   36.33 KCAL/MOL
REMARK 922        TOTAL FREE ENERGY PREDICTED BY IDOCK:   37.76 KCAL/MOL
REMARK 923 INTER-LIGAND FREE ENERGY PREDICTED BY IDOCK:   30.59 KCAL/MOL
REMARK 924 INTRA-LIGAND FREE ENERGY PREDICTED BY IDOCK:    7.17 KCAL/MOL
REMARK 927      BINDING AFFINITY PREDICTED BY RF-SCORE:    0.00 PKD
ROOT
HETATM    1  O   UNL     1      -9.636  13.348  66.115  1.00  0.00    -0.268 OA 
HETATM    2  C   UNL     1      -9.562  14.014  67.288  1.00  0.00    -0.238 C  
HETATM    3  O   UNL     1      -9.384  13.440  68.346  1.00  0.00    -0.206 OA 
HETATM    4  C   UNL     1      -9.834  15.474  67.204  1.00  0.00    -0.236 A  
HETATM    5  C   UNL     1      -9.224  16.272  66.211  1.00  0.00    -0.328 A  
HETATM    6 CL   UNL     1      -8.136  15.561  65.050  1.00  0.00     4.893 Cl 
HETATM    7  C   UNL     1      -9.473  17.659  66.161  1.00  0.00    -0.158 A  
HETATM    8 CL   UNL     1      -8.710  18.635  64.934  1.00  0.00     3.098 Cl 
HETATM    9  C   UNL     1     -10.337  18.255  67.093  1.00  0.00    -0.384 A  
HETATM   10  C   UNL     1     -10.954  17.465  68.083  1.00  0.00    -0.160 A  
HETATM   11 CL   UNL     1     -10.632  19.970  67.037  1.00  0.00    -0.519 Cl 
HETATM   12  C   UNL     1     -10.691  16.076  68.175  1.00  0.00    -0.311 A  
HETATM   13 CL   UNL     1     -12.079  18.197  69.198  1.00  0.00     5.078 Cl 
ENDROOT
BRANCH  12  14
HETATM   14  C   UNL     1     -11.286  15.293  69.322  1.00  0.00    -0.291 A  
HETATM   15  C   UNL     1     -11.810  14.049  69.138  1.00  0.00    -0.391 A  
HETATM   16  C   UNL     1     -11.853  13.410  67.822  1.00  0.00    -0.395 C  
HETATM   17  C   UNL     1     -12.171  12.114  67.670  1.00  0.00     0.378 C  
HETATM   18  C   UNL     1     -12.524  11.278  68.863  1.00  0.00     0.355 C  
HETATM   19  I   UNL     1     -12.199  11.243  65.805  1.00  0.00     3.707 I  
HETATM   20  C   UNL     1     -12.734  12.006  70.156  1.00  0.00     0.217 C  
HETATM   21  O   UNL     1     -12.664  10.062  68.773  1.00  0.00     1.127 OA 
HETATM   22  I   UNL     1     -13.546  10.922  71.734  1.00  0.00     0.579 I  
HETATM   23  C   UNL     1     -12.406  13.307  70.263  1.00  0.00    -0.264 A  
HETATM   24  O   UNL     1     -12.660  13.974  71.450  1.00  0.00    -0.341 OA 
HETATM   25  C   UNL     1     -12.115  15.205  71.686  1.00  0.00    -0.359 A  
HETATM   26  C   UNL     1     -12.316  15.772  72.958  1.00  0.00    -0.478 A  
HETATM   27  C   UNL     1     -11.788  17.031  73.255  1.00  0.00     0.231 A  
HETATM   28  I   UNL     1     -13.416  14.734  74.435  1.00  0.00     6.545 I  
HETATM   29  C   UNL     1     -11.027  17.694  72.291  1.00  0.00     2.634 A  
HETATM   30  O   UNL     1     -12.008  17.627  74.467  1.00  0.00    -0.244 OA 
HETATM   31  H   UNL     1     -11.649  18.484  74.668  1.00  0.00     0.000 HD 
HETATM   32  I   UNL     1     -10.187  19.578  72.654  1.00  0.00     6.518 I  
HETATM   33  C   UNL     1     -10.821  17.118  71.030  1.00  0.00     1.222 A  
HETATM   34  C   UNL     1     -11.390  15.876  70.699  1.00  0.00    -0.421 A  
ENDBRANCH  12  14
TORSDOF 1
ENDMDL
MODEL      145
REMARK 921   NORMALIZED FREE ENERGY PREDICTED BY IDOCK:   36.68 KCAL/MOL
REMARK 922        TOTAL FREE ENERGY PREDICTED BY IDOCK:   38.13 KCAL/MOL
REMARK 923 INTER-LIGAND FREE ENERGY PREDICTED BY IDOCK:   15.12 KCAL/MOL
REMARK 924 INTRA-LIGAND FREE ENERGY PREDICTED BY IDOCK:   23.01 KCAL/MOL
REMARK 927      BINDING AFFINITY PREDICTED BY RF-SCORE:    0.00 PKD
ROOT
HETATM    1  O   UNL     1      -7.971  18.648  67.282  1.00  0.00    -0.234 OA 
HETATM    2  C   UNL     1      -8.828  17.645  67.571  1.00  0.00    -0.231 C  
HETATM    3  O   UNL     1      -8.731  16.985  68.589  1.00  0.00    -0.251 OA 
HETATM    4  C   UNL     1      -9.816  17.331  66.503  1.00  0.00    -0.306 A  
HETATM    5  C   UNL     1     -10.545  18.355  65.862  1.00  0.00    -0.285 A  
HETATM    6 CL   UNL     1     -10.301  20.024  66.304  1.00  0.00    -0.578 Cl 
HETATM    7  C   UNL     1     -11.495  18.039  64.870  1.00  0.00     2.353 A  
HETATM    8 CL   UNL     1     -12.394  19.313  64.089  1.00  0.00     9.470 Cl 
HETATM    9  C   UNL     1     -11.715  16.701  64.506  1.00  0.00     0.521 A  
HETATM   10  C   UNL     1     -10.988  15.673  65.137  1.00  0.00    -0.398 A  
HETATM   11 CL   UNL     1     -12.900  16.312  63.290  1.00  0.00     3.833 Cl 
HETATM   12  C   UNL     1     -10.054  15.965  66.161  1.00  0.00    -0.334 A  
HETATM   13 CL   UNL     1     -11.217  14.018  64.635  1.00  0.00    -0.373 Cl 
ENDROOT
BRANCH  12  14
HETATM   14  C   UNL     1      -9.383  14.822  66.887  1.00  0.00    -0.256 A  
HETATM   15  C   UNL     1      -9.854  13.546  66.794  1.00  0.00    -0.267 A  
HETATM   16  C   UNL     1     -11.046  13.213  66.013  1.00  0.00    -0.299 C  
HETATM   17  C   UNL     1     -11.389  11.942  65.747  1.00  0.00    -0.299 C  
HETATM   18  C   UNL     1     -10.561  10.809  66.275  1.00  0.00    -0.192 C  
HETATM   19  I   UNL     1     -13.061  11.510  64.627  1.00  0.00     4.209 I  
HETATM   20  C   UNL     1      -9.510  11.158  67.284  1.00  0.00    -0.164 C  
HETATM   21  O   UNL     1     -10.760   9.652  65.919  1.00  0.00     0.098 OA 
HETATM   22  I   UNL     1      -8.584   9.581  68.274  1.00  0.00    -0.119 I  
HETATM   23  C   UNL     1      -9.201  12.447  67.525  1.00  0.00    -0.183 A  
HETATM   24  O   UNL     1      -8.266  12.748  68.501  1.00  0.00    -0.142 OA 
HETATM   25  C   UNL     1      -7.740  14.006  68.595  1.00  0.00    -0.135 A  
HETATM   26  C   UNL     1      -6.710  14.212  69.530  1.00  0.00    -0.112 A  
HETATM   27  C   UNL     1      -6.139  15.479  69.676  1.00  0.00    -0.150 A  
HETATM   28  I   UNL     1      -6.011  12.616  70.728  1.00  0.00     0.819 I  
HETATM   29  C   UNL     1      -6.574  16.519  68.854  1.00  0.00    -0.173 A  
HETATM   30  O   UNL     1      -5.168  15.718  70.611  1.00  0.00    -0.156 OA 
HETATM   31  H   UNL     1      -4.780  16.580  70.710  1.00  0.00     0.000 HD 
HETATM   32  I   UNL     1      -5.765  18.446  68.995  1.00  0.00    -0.238 I  
HETATM   33  C   UNL     1      -7.593  16.304  67.916  1.00  0.00    -0.148 A  
HETATM   34  C   UNL     1      -8.213  15.049  67.795  1.00  0.00    -0.162 A  
ENDBRANCH  12  14
TORSDOF 1
ENDMDL
MODEL      146
REMARK 921   NORMALIZED FREE ENERGY PREDICTED BY IDOCK:   37.02 KCAL/MOL
REMARK 922        TOTAL FREE ENERGY PREDICTED BY IDOCK:   38.48 KCAL/MOL
REMARK 923 INTER-LIGAND FREE ENERGY PREDICTED BY IDOCK:   10.03 KCAL/MOL
REMARK 924 INTRA-LIGAND FREE ENERGY PREDICTED BY IDOCK:   28.45 KCAL/MOL
REMARK 927      BINDING AFFINITY PREDICTED BY RF-SCORE:    0.00 PKD
ROOT
HETATM    1  O   UNL     1     -11.097  10.390  64.549  1.00  0.00     0.573 OA 
HETATM    2  C   UNL     1     -10.745  10.843  65.772  1.00  0.00    -0.109 C  
HETATM    3  O   UNL     1     -10.094  10.168  66.548  1.00  0.00    -0.215 OA 
HETATM    4  C   UNL     1     -11.309  12.168  66.142  1.00  0.00    -0.414 A  
HETATM    5  C   UNL     1     -11.261  13.257  65.244  1.00  0.00    -0.295 A  
HETATM    6 CL   UNL     1     -10.538  13.072  63.669  1.00  0.00    -0.181 Cl 
HETATM    7  C   UNL     1     -11.778  14.513  65.620  1.00  0.00    -0.335 A  
HETATM    8 CL   UNL     1     -11.707  15.852  64.505  1.00  0.00    -0.260 Cl 
HETATM    9  C   UNL     1     -12.355  14.688  66.888  1.00  0.00     0.066 A  
HETATM   10  C   UNL     1     -12.412  13.606  67.788  1.00  0.00     0.260 A  
HETATM   11 CL   UNL     1     -12.980  16.245  67.355  1.00  0.00     3.457 Cl 
HETATM   12  C   UNL     1     -11.866  12.344  67.445  1.00  0.00    -0.360 A  
HETATM   13 CL   UNL     1     -13.189  13.809  69.337  1.00  0.00     1.374 Cl 
ENDROOT
BRANCH  12  14
HETATM   14  C   UNL     1     -11.850  11.247  68.485  1.00  0.00    -0.355 A  
HETATM   15  C   UNL     1     -12.296  11.464  69.755  1.00  0.00    -0.250 A  
HETATM   16  C   UNL     1     -12.790  12.770  70.192  1.00  0.00     0.346 C  
HETATM   17  C   UNL     1     -13.422  12.935  71.366  1.00  0.00     0.065 C  
HETATM   18  C   UNL     1     -13.617  11.770  72.289  1.00  0.00     0.053 C  
HETATM   19  I   UNL     1     -14.124  14.782  71.940  1.00  0.00    -0.741 I  
HETATM   20  C   UNL     1     -12.878  10.511  71.949  1.00  0.00    -0.403 C  
HETATM   21  O   UNL     1     -14.324  11.857  73.288  1.00  0.00     1.714 OA 
HETATM   22  I   UNL     1     -12.865   9.003  73.380  1.00  0.00     4.637 I  
HETATM   23  C   UNL     1     -12.253  10.391  70.762  1.00  0.00    -0.359 A  
HETATM   24  O   UNL     1     -11.529   9.242  70.492  1.00  0.00    -0.265 OA 
HETATM   25  C   UNL     1     -11.103   8.971  69.222  1.00  0.00     0.060 A  
HETATM   26  C   UNL     1     -10.478   7.731  68.996  1.00  0.00    -0.205 A  
HETATM   27  C   UNL     1     -10.016   7.402  67.719  1.00  0.00    -0.167 A  
HETATM   28  I   UNL     1     -10.227   6.350  70.577  1.00  0.00    -0.271 I  
HETATM   29  C   UNL     1     -10.221   8.299  66.670  1.00  0.00    -0.263 A  
HETATM   30  O   UNL     1      -9.361   6.224  67.481  1.00  0.00    -0.115 OA 
HETATM   31  H   UNL     1      -9.047   6.000  66.612  1.00  0.00     0.000 HD 
HETATM   32  I   UNL     1      -9.572   7.883  64.722  1.00  0.00     3.219 I  
HETATM   33  C   UNL     1     -10.855   9.528  66.900  1.00  0.00    -0.085 A  
HETATM   34  C   UNL     1     -11.278   9.894  68.188  1.00  0.00    -0.142 A  
ENDBRANCH  12  14
TORSDOF 1
ENDMDL
MODEL      147
REMARK 921   NORMALIZED FREE ENERGY PREDICTED BY IDOCK:   37.45 KCAL/MOL
REMARK 922        TOTAL FREE ENERGY PREDICTED BY IDOCK:   38.93 KCAL/MOL
REMARK 923 INTER-LIGAND FREE ENERGY PREDICTED BY IDOCK:   29.83 KCAL/MOL
REMARK 924 INTRA-LIGAND FREE ENERGY PREDICTED BY IDOCK:    9.11 KCAL/MOL
REMARK 927      BINDING AFFINITY PREDICTED BY RF-SCORE:    0.00 PKD
ROOT
HETATM    1  O   UNL     1     -10.862  16.336  64.377  1.00  0.00    -0.648 OA 
HETATM    2  C   UNL     1     -10.033  15.380  64.848  1.00  0.00     0.098 C  
HETATM    3  O   UNL     1      -9.723  14.409  64.183  1.00  0.00     0.890 OA 
HETATM    4  C   UNL     1      -9.627  15.539  66.271  1.00  0.00    -0.338 A  
HETATM    5  C   UNL     1      -9.182  16.784  66.766  1.00  0.00    -0.243 A  
HETATM    6 CL   UNL     1      -9.101  18.174  65.718  1.00  0.00     0.222 Cl 
HETATM    7  C   UNL     1      -8.778  16.912  68.110  1.00  0.00    -0.226 A  
HETATM    8 CL   UNL     1      -8.224  18.454  68.709  1.00  0.00    -0.296 Cl 
HETATM    9  C   UNL     1      -8.825  15.803  68.970  1.00  0.00    -0.236 A  
HETATM   10  C   UNL     1      -9.274  14.559  68.485  1.00  0.00    -0.195 A  
HETATM   11 CL   UNL     1      -8.312  15.961  70.626  1.00  0.00     2.006 Cl 
HETATM   12  C   UNL     1      -9.651  14.398  67.129  1.00  0.00    -0.251 A  
HETATM   13 CL   UNL     1      -9.394  13.200  69.573  1.00  0.00     1.162 Cl 
ENDROOT
BRANCH  12  14
HETATM   14  C   UNL     1     -10.016  13.019  66.630  1.00  0.00    -0.250 A  
HETATM   15  C   UNL     1     -11.020  12.832  65.727  1.00  0.00    -0.306 A  
HETATM   16  C   UNL     1     -11.817  13.945  65.210  1.00  0.00    -0.365 C  
HETATM   17  C   UNL     1     -12.657  13.797  64.173  1.00  0.00    -0.102 C  
HETATM   18  C   UNL     1     -12.825  12.456  63.522  1.00  0.00    -0.202 C  
HETATM   19  I   UNL     1     -13.748  15.389  63.457  1.00  0.00     7.998 I  
HETATM   20  C   UNL     1     -12.210  11.285  64.227  1.00  0.00     0.738 C  
HETATM   21  O   UNL     1     -13.461  12.326  62.481  1.00  0.00     0.738 OA 
HETATM   22  I   UNL     1     -12.710   9.390  63.531  1.00  0.00    21.116 I  
HETATM   23  C   UNL     1     -11.377  11.480  65.267  1.00  0.00    -0.081 A  
HETATM   24  O   UNL     1     -10.865  10.382  65.938  1.00  0.00    -0.028 OA 
HETATM   25  C   UNL     1      -9.829  10.527  66.818  1.00  0.00    -0.193 A  
HETATM   26  C   UNL     1      -9.280   9.357  67.373  1.00  0.00    -0.126 A  
HETATM   27  C   UNL     1      -8.223   9.444  68.284  1.00  0.00    -0.118 A  
HETATM   28  I   UNL     1     -10.039   7.457  66.844  1.00  0.00    -0.252 I  
HETATM   29  C   UNL     1      -7.698  10.697  68.599  1.00  0.00    -0.110 A  
HETATM   30  O   UNL     1      -7.702   8.326  68.877  1.00  0.00    -0.098 OA 
HETATM   31  H   UNL     1      -6.984   8.385  69.496  1.00  0.00     0.000 HD 
HETATM   32  I   UNL     1      -6.107  10.920  69.944  1.00  0.00    -0.142 I  
HETATM   33  C   UNL     1      -8.243  11.858  68.033  1.00  0.00    -0.157 A  
HETATM   34  C   UNL     1      -9.339  11.791  67.156  1.00  0.00    -0.178 A  
ENDBRANCH  12  14
TORSDOF 1
ENDMDL
MODEL      148
REMARK 921   NORMALIZED FREE ENERGY PREDICTED BY IDOCK:   37.97 KCAL/MOL
REMARK 922        TOTAL FREE ENERGY PREDICTED BY IDOCK:   39.49 KCAL/MOL
REMARK 923 INTER-LIGAND FREE ENERGY PREDICTED BY IDOCK:   12.66 KCAL/MOL
REMARK 924 INTRA-LIGAND FREE ENERGY PREDICTED BY IDOCK:   26.83 KCAL/MOL
REMARK 927      BINDING AFFINITY PREDICTED BY RF-SCORE:    0.00 PKD
ROOT
HETATM    1  O   UNL     1      -8.284  10.192  67.302  1.00  0.00    -0.117 OA 
HETATM    2  C   UNL     1      -8.860   9.488  68.301  1.00  0.00    -0.124 C  
HETATM    3  O   UNL     1      -8.787   9.840  69.464  1.00  0.00    -0.163 OA 
HETATM    4  C   UNL     1      -9.482   8.201  67.891  1.00  0.00    -0.162 A  
HETATM    5  C   UNL     1     -10.327   8.126  66.763  1.00  0.00    -0.291 A  
HETATM    6 CL   UNL     1     -10.662   9.549  65.814  1.00  0.00     0.451 Cl 
HETATM    7  C   UNL     1     -10.928   6.903  66.403  1.00  0.00     0.653 A  
HETATM    8 CL   UNL     1     -11.975   6.825  65.011  1.00  0.00     8.915 Cl 
HETATM    9  C   UNL     1     -10.680   5.746  67.159  1.00  0.00    -0.275 A  
HETATM   10  C   UNL     1      -9.833   5.810  68.283  1.00  0.00    -0.139 A  
HETATM   11 CL   UNL     1     -11.435   4.239  66.720  1.00  0.00     3.553 Cl 
HETATM   12  C   UNL     1      -9.248   7.036  68.684  1.00  0.00    -0.131 A  
HETATM   13 CL   UNL     1      -9.476   4.357  69.180  1.00  0.00    -0.223 Cl 
ENDROOT
BRANCH  12  14
HETATM   14  C   UNL     1      -8.440   7.078  69.961  1.00  0.00    -0.140 A  
HETATM   15  C   UNL     1      -7.696   8.169  70.297  1.00  0.00    -0.085 A  
HETATM   16  C   UNL     1      -7.615   9.349  69.435  1.00  0.00    -0.083 C  
HETATM   17  C   UNL     1      -7.062  10.499  69.855  1.00  0.00    -0.145 C  
HETATM   18  C   UNL     1      -6.477  10.599  71.231  1.00  0.00     0.858 C  
HETATM   19  I   UNL     1      -6.984  12.147  68.624  1.00  0.00    -0.084 I  
HETATM   20  C   UNL     1      -6.330   9.317  71.994  1.00  0.00     0.128 C  
HETATM   21  O   UNL     1      -6.109  11.674  71.694  1.00  0.00     0.351 OA 
HETATM   22  I   UNL     1      -5.223   9.380  73.753  1.00  0.00     0.039 I  
HETATM   23  C   UNL     1      -6.897   8.185  71.534  1.00  0.00    -0.060 A  
HETATM   24  O   UNL     1      -6.701   7.001  72.225  1.00  0.00    -0.057 OA 
HETATM   25  C   UNL     1      -7.459   5.899  71.944  1.00  0.00    -0.095 A  
HETATM   26  C   UNL     1      -7.291   4.768  72.763  1.00  0.00    -0.085 A  
HETATM   27  C   UNL     1      -8.034   3.609  72.518  1.00  0.00    -0.073 A  
HETATM   28  I   UNL     1      -5.918   4.799  74.370  1.00  0.00    -0.038 I  
HETATM   29  C   UNL     1      -8.969   3.607  71.483  1.00  0.00    -0.107 A  
HETATM   30  O   UNL     1      -7.856   2.479  73.269  1.00  0.00    -0.048 OA 
HETATM   31  H   UNL     1      -8.361   1.691  73.103  1.00  0.00     0.000 HD 
HETATM   32  I   UNL     1     -10.134   1.919  71.054  1.00  0.00     0.736 I  
HETATM   33  C   UNL     1      -9.139   4.742  70.678  1.00  0.00    -0.177 A  
HETATM   34  C   UNL     1      -8.363   5.896  70.878  1.00  0.00    -0.126 A  
ENDBRANCH  12  14
TORSDOF 1
ENDMDL
MODEL      149
REMARK 921   NORMALIZED FREE ENERGY PREDICTED BY IDOCK:   38.06 KCAL/MOL
REMARK 922        TOTAL FREE ENERGY PREDICTED BY IDOCK:   39.58 KCAL/MOL
REMARK 923 INTER-LIGAND FREE ENERGY PREDICTED BY IDOCK:   21.11 KCAL/MOL
REMARK 924 INTRA-LIGAND FREE ENERGY PREDICTED BY IDOCK:   18.47 KCAL/MOL
REMARK 927      BINDING AFFINITY PREDICTED BY RF-SCORE:    0.00 PKD
ROOT
HETATM    1  O   UNL     1      -8.754   8.394  65.088  1.00  0.00    -0.162 OA 
HETATM    2  C   UNL     1      -9.496   8.004  66.147  1.00  0.00    -0.122 C  
HETATM    3  O   UNL     1     -10.014   8.805  66.903  1.00  0.00    -0.208 OA 
HETATM    4  C   UNL     1      -9.531   6.536  66.388  1.00  0.00    -0.165 A  
HETATM    5  C   UNL     1      -9.770   5.631  65.332  1.00  0.00     0.360 A  
HETATM    6 CL   UNL     1     -10.027   6.213  63.709  1.00  0.00     3.115 Cl 
HETATM    7  C   UNL     1      -9.825   4.245  65.581  1.00  0.00    -0.218 A  
HETATM    8 CL   UNL     1     -10.128   3.136  64.270  1.00  0.00    -0.151 Cl 
HETATM    9  C   UNL     1      -9.632   3.754  66.882  1.00  0.00    -0.179 A  
HETATM   10  C   UNL     1      -9.387   4.650  67.942  1.00  0.00    -0.134 A  
HETATM   11 CL   UNL     1      -9.714   2.042  67.190  1.00  0.00     0.236 Cl 
HETATM   12  C   UNL     1      -9.363   6.050  67.720  1.00  0.00    -0.106 A  
HETATM   13 CL   UNL     1      -9.082   4.033  69.544  1.00  0.00    -0.172 Cl 
ENDROOT
BRANCH  12  14
HETATM   14  C   UNL     1      -9.211   6.975  68.905  1.00  0.00    -0.136 A  
HETATM   15  C   UNL     1      -9.526   6.571  70.168  1.00  0.00    -0.164 A  
HETATM   16  C   UNL     1     -10.053   5.234  70.448  1.00  0.00    -0.324 C  
HETATM   17  C   UNL     1     -10.164   4.762  71.700  1.00  0.00    -0.179 C  
HETATM   18  C   UNL     1      -9.771   5.616  72.868  1.00  0.00    -0.155 C  
HETATM   19  I   UNL     1     -10.888   2.868  72.056  1.00  0.00     1.556 I  
HETATM   20  C   UNL     1      -9.490   7.059  72.581  1.00  0.00    -0.142 C  
HETATM   21  O   UNL     1      -9.713   5.157  74.005  1.00  0.00    -0.140 OA 
HETATM   22  I   UNL     1      -9.273   8.327  74.215  1.00  0.00     2.431 I  
HETATM   23  C   UNL     1      -9.392   7.492  71.309  1.00  0.00    -0.149 A  
HETATM   24  O   UNL     1      -9.188   8.840  71.067  1.00  0.00    -0.181 OA 
HETATM   25  C   UNL     1      -8.828   9.276  69.823  1.00  0.00    -0.167 A  
HETATM   26  C   UNL     1      -8.521  10.641  69.675  1.00  0.00     0.126 A  
HETATM   27  C   UNL     1      -8.153  11.144  68.424  1.00  0.00    -0.141 A  
HETATM   28  I   UNL     1      -8.609  11.947  71.334  1.00  0.00    16.757 I  
HETATM   29  C   UNL     1      -8.056  10.271  67.341  1.00  0.00    -0.110 A  
HETATM   30  O   UNL     1      -7.896  12.476  68.242  1.00  0.00    -0.130 OA 
HETATM   31  H   UNL     1      -7.646  12.819  67.391  1.00  0.00     0.000 HD 
HETATM   32  I   UNL     1      -7.501  10.937  65.434  1.00  0.00     0.511 I  
HETATM   33  C   UNL     1      -8.353   8.910  67.498  1.00  0.00    -0.109 A  
HETATM   34  C   UNL     1      -8.774   8.398  68.737  1.00  0.00    -0.136 A  
ENDBRANCH  12  14
TORSDOF 1
ENDMDL
MODEL      150
REMARK 921   NORMALIZED FREE ENERGY PREDICTED BY IDOCK:   39.69 KCAL/MOL
REMARK 922        TOTAL FREE ENERGY PREDICTED BY IDOCK:   41.31 KCAL/MOL
REMARK 923 INTER-LIGAND FREE ENERGY PREDICTED BY IDOCK:   14.27 KCAL/MOL
REMARK 924 INTRA-LIGAND FREE ENERGY PREDICTED BY IDOCK:   27.04 KCAL/MOL
REMARK 927      BINDING AFFINITY PREDICTED BY RF-SCORE:    0.00 PKD
ROOT
HETATM    1  O   UNL     1     -11.589  13.982  73.342  1.00  0.00     1.011 OA 
HETATM    2  C   UNL     1     -11.693  13.898  71.998  1.00  0.00     1.176 C  
HETATM    3  O   UNL     1     -12.108  12.897  71.444  1.00  0.00     0.044 OA 
HETATM    4  C   UNL     1     -11.153  15.063  71.248  1.00  0.00    -0.187 A  
HETATM    5  C   UNL     1     -11.472  16.385  71.627  1.00  0.00    -0.157 A  
HETATM    6 CL   UNL     1     -12.510  16.686  72.994  1.00  0.00    -0.224 Cl 
HETATM    7  C   UNL     1     -10.972  17.477  70.890  1.00  0.00     1.712 A  
HETATM    8 CL   UNL     1     -11.379  19.106  71.364  1.00  0.00     5.143 Cl 
HETATM    9  C   UNL     1     -10.143  17.258  69.778  1.00  0.00     0.272 A  
HETATM   10  C   UNL     1      -9.814  15.942  69.397  1.00  0.00    -0.280 A  
HETATM   11 CL   UNL     1      -9.538  18.609  68.861  1.00  0.00    -0.358 Cl 
HETATM   12  C   UNL     1     -10.335  14.828  70.101  1.00  0.00     0.152 A  
HETATM   13 CL   UNL     1      -8.730  15.676  68.056  1.00  0.00    -0.166 Cl 
ENDROOT
BRANCH  12  14
HETATM   14  C   UNL     1     -10.046  13.438  69.585  1.00  0.00     0.971 A  
HETATM   15  C   UNL     1     -10.800  12.367  69.966  1.00  0.00     0.812 A  
HETATM   16  C   UNL     1     -11.910  12.495  70.911  1.00  0.00     0.305 C  
HETATM   17  C   UNL     1     -12.781  11.496  71.125  1.00  0.00    -0.356 C  
HETATM   18  C   UNL     1     -12.621  10.188  70.409  1.00  0.00    -0.145 C  
HETATM   19  I   UNL     1     -14.344  11.717  72.445  1.00  0.00     2.842 I  
HETATM   20  C   UNL     1     -11.340   9.985  69.657  1.00  0.00    -0.202 C  
HETATM   21  O   UNL     1     -13.484   9.318  70.465  1.00  0.00     0.245 OA 
HETATM   22  I   UNL     1     -10.952   8.071  68.944  1.00  0.00     0.495 I  
HETATM   23  C   UNL     1     -10.492  11.015  69.471  1.00  0.00    -0.092 A  
HETATM   24  O   UNL     1      -9.290  10.792  68.822  1.00  0.00    -0.169 OA 
HETATM   25  C   UNL     1      -8.529  11.841  68.389  1.00  0.00    -0.155 A  
HETATM   26  C   UNL     1      -7.380  11.544  67.633  1.00  0.00    -0.105 A  
HETATM   27  C   UNL     1      -6.560  12.576  67.169  1.00  0.00    -0.055 A  
HETATM   28  I   UNL     1      -6.875   9.539  67.190  1.00  0.00    -0.085 I  
HETATM   29  C   UNL     1      -6.920  13.899  67.428  1.00  0.00    -0.043 A  
HETATM   30  O   UNL     1      -5.411  12.313  66.473  1.00  0.00    -0.461 OA 
HETATM   31  H   UNL     1      -4.854  13.015  66.157  1.00  0.00     0.000 HD 
HETATM   32  I   UNL     1      -5.757  15.508  66.759  1.00  0.00     2.424 I  
HETATM   33  C   UNL     1      -8.073  14.188  68.171  1.00  0.00    -0.148 A  
HETATM   34  C   UNL     1      -8.878  13.160  68.689  1.00  0.00     0.051 A  
ENDBRANCH  12  14
TORSDOF 1
ENDMDL
MODEL      151
REMARK 921   NORMALIZED FREE ENERGY PREDICTED BY IDOCK:   40.74 KCAL/MOL
REMARK 922        TOTAL FREE ENERGY PREDICTED BY IDOCK:   42.41 KCAL/MOL
REMARK 923 INTER-LIGAND FREE ENERGY PREDICTED BY IDOCK:   38.13 KCAL/MOL
REMARK 924 INTRA-LIGAND FREE ENERGY PREDICTED BY IDOCK:    4.28 KCAL/MOL
REMARK 927      BINDING AFFINITY PREDICTED BY RF-SCORE:    0.00 PKD
ROOT
HETATM    1  O   UNL     1     -12.853   8.081  66.952  1.00  0.00     8.949 OA 
HETATM    2  C   UNL     1     -11.807   7.618  66.233  1.00  0.00     5.553 C  
HETATM    3  O   UNL     1     -11.531   6.434  66.184  1.00  0.00     0.842 OA 
HETATM    4  C   UNL     1     -10.954   8.666  65.611  1.00  0.00     3.577 A  
HETATM    5  C   UNL     1     -11.527   9.744  64.902  1.00  0.00     5.047 A  
HETATM    6 CL   UNL     1     -13.258   9.877  64.741  1.00  0.00    12.434 Cl 
HETATM    7  C   UNL     1     -10.704  10.716  64.297  1.00  0.00     0.159 A  
HETATM    8 CL   UNL     1     -11.422  12.040  63.418  1.00  0.00    -0.503 Cl 
HETATM    9  C   UNL     1      -9.307  10.623  64.404  1.00  0.00    -0.251 A  
HETATM   10  C   UNL     1      -8.728   9.553  65.115  1.00  0.00    -0.172 A  
HETATM   11 CL   UNL     1      -8.292  11.817  63.644  1.00  0.00     1.063 Cl 
HETATM   12  C   UNL     1      -9.534   8.546  65.701  1.00  0.00    -0.051 A  
HETATM   13 CL   UNL     1      -6.995   9.477  65.303  1.00  0.00    -0.088 Cl 
ENDROOT
BRANCH  12  14
HETATM   14  C   UNL     1      -8.864   7.360  66.354  1.00  0.00    -0.176 A  
HETATM   15  C   UNL     1      -9.088   6.088  65.919  1.00  0.00    -0.117 A  
HETATM   16  C   UNL     1     -10.005   5.793  64.817  1.00  0.00     1.481 C  
HETATM   17  C   UNL     1     -10.068   4.577  64.250  1.00  0.00     0.159 C  
HETATM   18  C   UNL     1      -9.205   3.461  64.757  1.00  0.00    -0.142 C  
HETATM   19  I   UNL     1     -11.354   4.204  62.687  1.00  0.00     1.411 I  
HETATM   20  C   UNL     1      -8.476   3.706  66.043  1.00  0.00    -0.111 C  
HETATM   21  O   UNL     1      -9.127   2.391  64.161  1.00  0.00    -0.102 OA 
HETATM   22  I   UNL     1      -7.549   2.072  66.935  1.00  0.00    -0.067 I  
HETATM   23  C   UNL     1      -8.443   4.941  66.581  1.00  0.00    -0.106 A  
HETATM   24  O   UNL     1      -7.811   5.132  67.798  1.00  0.00    -0.090 OA 
HETATM   25  C   UNL     1      -7.532   6.393  68.245  1.00  0.00    -0.091 A  
HETATM   26  C   UNL     1      -6.784   6.513  69.430  1.00  0.00    -0.056 A  
HETATM   27  C   UNL     1      -6.475   7.777  69.939  1.00  0.00    -0.034 A  
HETATM   28  I   UNL     1      -6.118   4.790  70.458  1.00  0.00    -0.020 I  
HETATM   29  C   UNL     1      -6.880   8.911  69.235  1.00  0.00    -0.050 A  
HETATM   30  O   UNL     1      -5.790   7.922  71.115  1.00  0.00    -0.034 OA 
HETATM   31  H   UNL     1      -5.579   8.782  71.461  1.00  0.00     0.000 HD 
HETATM   32  I   UNL     1      -6.449  10.844  69.917  1.00  0.00    -0.071 I  
HETATM   33  C   UNL     1      -7.616   8.785  68.048  1.00  0.00    -0.097 A  
HETATM   34  C   UNL     1      -7.979   7.522  67.552  1.00  0.00    -0.116 A  
ENDBRANCH  12  14
TORSDOF 1
ENDMDL
MODEL      152
REMARK 921   NORMALIZED FREE ENERGY PREDICTED BY IDOCK:   40.74 KCAL/MOL
REMARK 922        TOTAL FREE ENERGY PREDICTED BY IDOCK:   42.42 KCAL/MOL
REMARK 923 INTER-LIGAND FREE ENERGY PREDICTED BY IDOCK:   42.61 KCAL/MOL
REMARK 924 INTRA-LIGAND FREE ENERGY PREDICTED BY IDOCK:   -0.19 KCAL/MOL
REMARK 927      BINDING AFFINITY PREDICTED BY RF-SCORE:    0.00 PKD
ROOT
HETATM    1  O   UNL     1      -8.653   6.018  65.827  1.00  0.00    -0.147 OA 
HETATM    2  C   UNL     1      -8.235   6.962  66.698  1.00  0.00    -0.115 C  
HETATM    3  O   UNL     1      -7.548   6.690  67.665  1.00  0.00    -0.101 OA 
HETATM    4  C   UNL     1      -8.772   8.328  66.456  1.00  0.00    -0.157 A  
HETATM    5  C   UNL     1      -8.764   8.895  65.163  1.00  0.00    -0.178 A  
HETATM    6 CL   UNL     1      -8.126   8.001  63.809  1.00  0.00    -0.132 Cl 
HETATM    7  C   UNL     1      -9.253  10.200  64.955  1.00  0.00    -0.232 A  
HETATM    8 CL   UNL     1      -9.233  10.893  63.354  1.00  0.00    -0.254 Cl 
HETATM    9  C   UNL     1      -9.762  10.943  66.032  1.00  0.00    -0.224 A  
HETATM   10  C   UNL     1      -9.779  10.383  67.325  1.00  0.00    -0.165 A  
HETATM   11 CL   UNL     1     -10.354  12.561  65.775  1.00  0.00    -0.279 Cl 
HETATM   12  C   UNL     1      -9.259   9.086  67.563  1.00  0.00    -0.152 A  
HETATM   13 CL   UNL     1     -10.473  11.283  68.649  1.00  0.00    -0.208 Cl 
ENDROOT
BRANCH  12  14
HETATM   14  C   UNL     1      -9.194   8.574  68.984  1.00  0.00    -0.146 A  
HETATM   15  C   UNL     1      -8.333   9.109  69.894  1.00  0.00    -0.146 A  
HETATM   16  C   UNL     1      -7.406  10.187  69.547  1.00  0.00    -0.123 C  
HETATM   17  C   UNL     1      -6.711  10.857  70.481  1.00  0.00     0.316 C  
HETATM   18  C   UNL     1      -6.848  10.493  71.929  1.00  0.00     2.689 C  
HETATM   19  I   UNL     1      -5.433  12.382  69.959  1.00  0.00    -0.153 I  
HETATM   20  C   UNL     1      -7.588   9.227  72.238  1.00  0.00     0.825 C  
HETATM   21  O   UNL     1      -6.350  11.185  72.812  1.00  0.00     2.253 OA 
HETATM   22  I   UNL     1      -7.502   8.531  74.195  1.00  0.00     0.121 I  
HETATM   23  C   UNL     1      -8.267   8.584  71.269  1.00  0.00    -0.142 A  
HETATM   24  O   UNL     1      -8.897   7.387  71.563  1.00  0.00    -0.124 OA 
HETATM   25  C   UNL     1      -9.799   6.843  70.693  1.00  0.00    -0.182 A  
HETATM   26  C   UNL     1     -10.489   5.690  71.107  1.00  0.00    -0.241 A  
HETATM   27  C   UNL     1     -11.419   5.086  70.256  1.00  0.00     2.326 A  
HETATM   28  I   UNL     1     -10.134   4.852  73.015  1.00  0.00    -0.254 I  
HETATM   29  C   UNL     1     -11.681   5.666  69.014  1.00  0.00     1.939 A  
HETATM   30  O   UNL     1     -12.069   3.936  70.614  1.00  0.00     8.070 OA 
HETATM   31  H   UNL     1     -12.701   3.526  70.035  1.00  0.00     0.000 HD 
HETATM   32  I   UNL     1     -13.067   4.836  67.681  1.00  0.00    28.370 I  
HETATM   33  C   UNL     1     -10.998   6.822  68.613  1.00  0.00    -0.261 A  
HETATM   34  C   UNL     1     -10.023   7.411  69.436  1.00  0.00    -0.176 A  
ENDBRANCH  12  14
TORSDOF 1
ENDMDL
MODEL      153
REMARK 921   NORMALIZED FREE ENERGY PREDICTED BY IDOCK:   42.76 KCAL/MOL
REMARK 922        TOTAL FREE ENERGY PREDICTED BY IDOCK:   44.56 KCAL/MOL
REMARK 923 INTER-LIGAND FREE ENERGY PREDICTED BY IDOCK:   42.23 KCAL/MOL
REMARK 924 INTRA-LIGAND FREE ENERGY PREDICTED BY IDOCK:    2.33 KCAL/MOL
REMARK 927      BINDING AFFINITY PREDICTED BY RF-SCORE:    0.00 PKD
ROOT
HETATM    1  O   UNL     1     -13.117  16.134  65.899  1.00  0.00     3.373 OA 
HETATM    2  C   UNL     1     -13.312  15.113  66.763  1.00  0.00     3.761 C  
HETATM    3  O   UNL     1     -13.914  15.259  67.810  1.00  0.00     6.392 OA 
HETATM    4  C   UNL     1     -12.637  13.839  66.397  1.00  0.00    -0.309 A  
HETATM    5  C   UNL     1     -12.718  13.322  65.086  1.00  0.00    -0.402 A  
HETATM    6 CL   UNL     1     -13.612  14.171  63.854  1.00  0.00     2.839 Cl 
HETATM    7  C   UNL     1     -12.094  12.100  64.762  1.00  0.00    -0.294 A  
HETATM    8 CL   UNL     1     -12.206  11.468  63.141  1.00  0.00    -0.216 Cl 
HETATM    9  C   UNL     1     -11.377  11.394  65.741  1.00  0.00    -0.008 A  
HETATM   10  C   UNL     1     -11.286  11.905  67.051  1.00  0.00    -0.329 A  
HETATM   11 CL   UNL     1     -10.618   9.878  65.342  1.00  0.00     0.146 Cl 
HETATM   12  C   UNL     1     -11.936  13.113  67.407  1.00  0.00    -0.379 A  
HETATM   13 CL   UNL     1     -10.340  11.058  68.247  1.00  0.00    -0.187 Cl 
ENDROOT
BRANCH  12  14
HETATM   14  C   UNL     1     -11.905  13.562  68.850  1.00  0.00    -0.384 A  
HETATM   15  C   UNL     1     -11.457  14.800  69.200  1.00  0.00    -0.323 A  
HETATM   16  C   UNL     1     -10.959  15.755  68.209  1.00  0.00    -0.325 C  
HETATM   17  C   UNL     1     -10.718  17.040  68.518  1.00  0.00    -0.352 C  
HETATM   18  C   UNL     1     -10.930  17.534  69.917  1.00  0.00     1.026 C  
HETATM   19  I   UNL     1     -10.038  18.361  67.093  1.00  0.00    -0.457 I  
HETATM   20  C   UNL     1     -11.181  16.493  70.966  1.00  0.00     0.045 C  
HETATM   21  O   UNL     1     -10.870  18.729  70.190  1.00  0.00     1.480 OA 
HETATM   22  I   UNL     1     -11.145  17.118  72.949  1.00  0.00     4.174 I  
HETATM   23  C   UNL     1     -11.413  15.215  70.613  1.00  0.00    -0.305 A  
HETATM   24  O   UNL     1     -11.587  14.260  71.600  1.00  0.00    -0.004 OA 
HETATM   25  C   UNL     1     -12.075  13.021  71.292  1.00  0.00     0.282 A  
HETATM   26  C   UNL     1     -12.339  12.142  72.358  1.00  0.00     1.758 A  
HETATM   27  C   UNL     1     -12.832  10.860  72.102  1.00  0.00    -0.061 A  
HETATM   28  I   UNL     1     -11.995  12.742  74.355  1.00  0.00    18.131 I  
HETATM   29  C   UNL     1     -13.097  10.483  70.785  1.00  0.00    -0.257 A  
HETATM   30  O   UNL     1     -13.053   9.968  73.116  1.00  0.00     0.207 OA 
HETATM   31  H   UNL     1     -13.388   9.096  72.942  1.00  0.00     0.000 HD 
HETATM   32  I   UNL     1     -13.849   8.586  70.311  1.00  0.00     3.107 I  
HETATM   33  C   UNL     1     -12.842  11.369  69.729  1.00  0.00     0.267 A  
HETATM   34  C   UNL     1     -12.298  12.642  69.966  1.00  0.00    -0.164 A  
ENDBRANCH  12  14
TORSDOF 1
ENDMDL
MODEL      154
REMARK 921   NORMALIZED FREE ENERGY PREDICTED BY IDOCK:   47.02 KCAL/MOL
REMARK 922        TOTAL FREE ENERGY PREDICTED BY IDOCK:   49.06 KCAL/MOL
REMARK 923 INTER-LIGAND FREE ENERGY PREDICTED BY IDOCK:   33.64 KCAL/MOL
REMARK 924 INTRA-LIGAND FREE ENERGY PREDICTED BY IDOCK:   15.43 KCAL/MOL
REMARK 927      BINDING AFFINITY PREDICTED BY RF-SCORE:    0.00 PKD
ROOT
HETATM    1  O   UNL     1     -13.000  15.551  69.216  1.00  0.00     0.367 OA 
HETATM    2  C   UNL     1     -11.963  14.685  69.221  1.00  0.00    -0.302 C  
HETATM    3  O   UNL     1     -10.850  15.010  68.851  1.00  0.00    -0.226 OA 
HETATM    4  C   UNL     1     -12.307  13.287  69.593  1.00  0.00    -0.154 A  
HETATM    5  C   UNL     1     -13.110  13.011  70.721  1.00  0.00     0.154 A  
HETATM    6 CL   UNL     1     -13.724  14.309  71.709  1.00  0.00    -0.462 Cl 
HETATM    7  C   UNL     1     -13.406  11.679  71.075  1.00  0.00     0.424 A  
HETATM    8 CL   UNL     1     -14.393  11.349  72.474  1.00  0.00     1.025 Cl 
HETATM    9  C   UNL     1     -12.913  10.617  70.300  1.00  0.00    -0.068 A  
HETATM   10  C   UNL     1     -12.117  10.884  69.169  1.00  0.00    -0.221 A  
HETATM   11 CL   UNL     1     -13.270   8.972  70.747  1.00  0.00     0.125 Cl 
HETATM   12  C   UNL     1     -11.776  12.213  68.816  1.00  0.00    -0.374 A  
HETATM   13 CL   UNL     1     -11.562   9.565  68.170  1.00  0.00     0.495 Cl 
ENDROOT
BRANCH  12  14
HETATM   14  C   UNL     1     -10.827  12.443  67.663  1.00  0.00    -0.258 A  
HETATM   15  C   UNL     1     -10.869  13.588  66.925  1.00  0.00    -0.286 A  
HETATM   16  C   UNL     1     -11.846  14.646  67.186  1.00  0.00    -0.367 C  
HETATM   17  C   UNL     1     -11.757  15.855  66.607  1.00  0.00     0.644 C  
HETATM   18  C   UNL     1     -10.650  16.150  65.639  1.00  0.00    -0.363 C  
HETATM   19  I   UNL     1     -13.136  17.327  67.014  1.00  0.00    10.909 I  
HETATM   20  C   UNL     1      -9.825  14.984  65.185  1.00  0.00    -0.131 C  
HETATM   21  O   UNL     1     -10.455  17.286  65.219  1.00  0.00    -0.661 OA 
HETATM   22  I   UNL     1      -8.515  15.308  63.603  1.00  0.00    23.670 I  
HETATM   23  C   UNL     1      -9.951  13.788  65.790  1.00  0.00    -0.275 A  
HETATM   24  O   UNL     1      -9.219  12.711  65.318  1.00  0.00     0.230 OA 
HETATM   25  C   UNL     1      -9.120  11.562  66.052  1.00  0.00    -0.198 A  
HETATM   26  C   UNL     1      -8.266  10.554  65.570  1.00  0.00    -0.162 A  
HETATM   27  C   UNL     1      -8.130   9.355  66.275  1.00  0.00    -0.111 A  
HETATM   28  I   UNL     1      -7.178  10.832  63.779  1.00  0.00     0.895 I  
HETATM   29  C   UNL     1      -8.818   9.192  67.478  1.00  0.00    -0.119 A  
HETATM   30  O   UNL     1      -7.344   8.339  65.805  1.00  0.00    -0.070 OA 
HETATM   31  H   UNL     1      -7.251   7.523  66.284  1.00  0.00     0.000 HD 
HETATM   32  I   UNL     1      -8.663   7.434  68.606  1.00  0.00    -0.123 I  
HETATM   33  C   UNL     1      -9.659  10.206  67.958  1.00  0.00    -0.160 A  
HETATM   34  C   UNL     1      -9.846  11.395  67.234  1.00  0.00    -0.209 A  
ENDBRANCH  12  14
TORSDOF 1
ENDMDL
MODEL      155
REMARK 921   NORMALIZED FREE ENERGY PREDICTED BY IDOCK:   51.63 KCAL/MOL
REMARK 922        TOTAL FREE ENERGY PREDICTED BY IDOCK:   53.95 KCAL/MOL
REMARK 923 INTER-LIGAND FREE ENERGY PREDICTED BY IDOCK:   49.52 KCAL/MOL
REMARK 924 INTRA-LIGAND FREE ENERGY PREDICTED BY IDOCK:    4.42 KCAL/MOL
REMARK 927      BINDING AFFINITY PREDICTED BY RF-SCORE:    0.00 PKD
ROOT
HETATM    1  O   UNL     1      -8.653   6.018  65.827  1.00  0.00    -0.147 OA 
HETATM    2  C   UNL     1      -8.247   6.949  66.718  1.00  0.00    -0.114 C  
HETATM    3  O   UNL     1      -7.571   6.662  67.688  1.00  0.00    -0.101 OA 
HETATM    4  C   UNL     1      -8.784   8.318  66.492  1.00  0.00    -0.157 A  
HETATM    5  C   UNL     1      -8.762   8.906  65.208  1.00  0.00    -0.186 A  
HETATM    6 CL   UNL     1      -8.107   8.035  63.848  1.00  0.00    -0.132 Cl 
HETATM    7  C   UNL     1      -9.252  10.213  65.016  1.00  0.00    -0.217 A  
HETATM    8 CL   UNL     1      -9.215  10.931  63.427  1.00  0.00    -0.254 Cl 
HETATM    9  C   UNL     1      -9.775  10.937  66.100  1.00  0.00    -0.210 A  
HETATM   10  C   UNL     1      -9.806  10.356  67.383  1.00  0.00    -0.178 A  
HETATM   11 CL   UNL     1     -10.367  12.557  65.862  1.00  0.00    -0.276 Cl 
HETATM   12  C   UNL     1      -9.286   9.056  67.606  1.00  0.00    -0.150 A  
HETATM   13 CL   UNL     1     -10.517  11.232  68.713  1.00  0.00    -0.216 Cl 
ENDROOT
BRANCH  12  14
HETATM   14  C   UNL     1      -9.237   8.521  69.018  1.00  0.00    -0.146 A  
HETATM   15  C   UNL     1      -9.681   7.269  69.320  1.00  0.00    -0.161 A  
HETATM   16  C   UNL     1     -10.253   6.382  68.306  1.00  0.00    -0.197 C  
HETATM   17  C   UNL     1     -10.494   5.084  68.552  1.00  0.00     0.049 C  
HETATM   18  C   UNL     1     -10.205   4.503  69.903  1.00  0.00     0.010 C  
HETATM   19  I   UNL     1     -11.279   3.859  67.095  1.00  0.00     8.175 I  
HETATM   20  C   UNL     1      -9.875   5.475  70.995  1.00  0.00    -0.182 C  
HETATM   21  O   UNL     1     -10.267   3.295  70.107  1.00  0.00     0.424 OA 
HETATM   22  I   UNL     1      -9.802   4.732  72.936  1.00  0.00    -0.220 I  
HETATM   23  C   UNL     1      -9.646   6.770  70.706  1.00  0.00    -0.168 A  
HETATM   24  O   UNL     1      -9.399   7.661  71.736  1.00  0.00    -0.142 OA 
HETATM   25  C   UNL     1      -8.912   8.911  71.473  1.00  0.00    -0.205 A  
HETATM   26  C   UNL     1      -8.571   9.721  72.571  1.00  0.00     3.888 A  
HETATM   27  C   UNL     1      -8.074  11.010  72.363  1.00  0.00    12.286 A  
HETATM   28  I   UNL     1      -8.802   9.005  74.547  1.00  0.00     5.378 I  
HETATM   29  C   UNL     1      -7.884  11.463  71.058  1.00  0.00     5.571 A  
HETATM   30  O   UNL     1      -7.780  11.837  73.414  1.00  0.00    13.909 OA 
HETATM   31  H   UNL     1      -7.443  12.714  73.272  1.00  0.00     0.000 HD 
HETATM   32  I   UNL     1      -7.133  13.377  70.653  1.00  0.00     3.338 I  
HETATM   33  C   UNL     1      -8.215  10.646  69.968  1.00  0.00     0.498 A  
HETATM   34  C   UNL     1      -8.764   9.367  70.161  1.00  0.00    -0.245 A  
ENDBRANCH  12  14
TORSDOF 1
ENDMDL
MODEL      156
REMARK 921   NORMALIZED FREE ENERGY PREDICTED BY IDOCK:   52.68 KCAL/MOL
REMARK 922        TOTAL FREE ENERGY PREDICTED BY IDOCK:   55.05 KCAL/MOL
REMARK 923 INTER-LIGAND FREE ENERGY PREDICTED BY IDOCK:   55.96 KCAL/MOL
REMARK 924 INTRA-LIGAND FREE ENERGY PREDICTED BY IDOCK:   -0.91 KCAL/MOL
REMARK 927      BINDING AFFINITY PREDICTED BY RF-SCORE:    0.00 PKD
ROOT
HETATM    1  O   UNL     1      -7.981  13.413  70.496  1.00  0.00     2.744 OA 
HETATM    2  C   UNL     1      -8.032  12.279  69.764  1.00  0.00     1.658 C  
HETATM    3  O   UNL     1      -7.284  12.083  68.825  1.00  0.00    -0.105 OA 
HETATM    4  C   UNL     1      -9.141  11.351  70.113  1.00  0.00     2.499 A  
HETATM    5  C   UNL     1      -9.414  11.014  71.457  1.00  0.00     8.161 A  
HETATM    6 CL   UNL     1      -8.455  11.686  72.748  1.00  0.00    19.236 Cl 
HETATM    7  C   UNL     1     -10.452  10.114  71.768  1.00  0.00     2.095 A  
HETATM    8 CL   UNL     1     -10.776   9.700  73.431  1.00  0.00     5.333 Cl 
HETATM    9  C   UNL     1     -11.230   9.552  70.743  1.00  0.00    -0.317 A  
HETATM   10  C   UNL     1     -10.969   9.887  69.400  1.00  0.00    -0.230 A  
HETATM   11 CL   UNL     1     -12.504   8.429  71.130  1.00  0.00    -0.240 Cl 
HETATM   12  C   UNL     1      -9.907  10.762  69.061  1.00  0.00    -0.208 A  
HETATM   13 CL   UNL     1     -11.980   9.240  68.134  1.00  0.00     2.075 Cl 
ENDROOT
BRANCH  12  14
HETATM   14  C   UNL     1      -9.594  11.001  67.602  1.00  0.00    -0.181 A  
HETATM   15  C   UNL     1     -10.215  11.985  66.893  1.00  0.00    -0.230 A  
HETATM   16  C   UNL     1     -11.236  12.847  67.491  1.00  0.00    -0.329 C  
HETATM   17  C   UNL     1     -11.695  13.944  66.867  1.00  0.00    -0.399 C  
HETATM   18  C   UNL     1     -11.185  14.308  65.504  1.00  0.00    -0.320 C  
HETATM   19  I   UNL     1     -13.115  15.146  67.746  1.00  0.00     5.279 I  
HETATM   20  C   UNL     1     -10.349  13.281  64.804  1.00  0.00    -0.363 C  
HETATM   21  O   UNL     1     -11.467  15.381  64.981  1.00  0.00    -0.335 OA 
HETATM   22  I   UNL     1      -9.914  13.618  62.798  1.00  0.00    11.436 I  
HETATM   23  C   UNL     1      -9.914  12.192  65.466  1.00  0.00    -0.246 A  
HETATM   24  O   UNL     1      -9.190  11.229  64.785  1.00  0.00    -0.185 OA 
HETATM   25  C   UNL     1      -8.519  10.252  65.466  1.00  0.00    -0.162 A  
HETATM   26  C   UNL     1      -7.707   9.379  64.719  1.00  0.00    -0.116 A  
HETATM   27  C   UNL     1      -7.002   8.357  65.361  1.00  0.00    -0.074 A  
HETATM   28  I   UNL     1      -7.541   9.595  62.623  1.00  0.00    -0.139 I  
HETATM   29  C   UNL     1      -7.082   8.243  66.749  1.00  0.00    -0.077 A  
HETATM   30  O   UNL     1      -6.244   7.463  64.654  1.00  0.00    -0.037 OA 
HETATM   31  H   UNL     1      -5.765   6.768  65.090  1.00  0.00     0.000 HD 
HETATM   32  I   UNL     1      -6.049   6.750  67.794  1.00  0.00    -0.032 I  
HETATM   33  C   UNL     1      -7.883   9.125  67.488  1.00  0.00    -0.100 A  
HETATM   34  C   UNL     1      -8.639  10.124  66.852  1.00  0.00    -0.127 A  
ENDBRANCH  12  14
TORSDOF 1
ENDMDL
MODEL      157
REMARK 921   NORMALIZED FREE ENERGY PREDICTED BY IDOCK:   56.40 KCAL/MOL
REMARK 922        TOTAL FREE ENERGY PREDICTED BY IDOCK:   58.99 KCAL/MOL
REMARK 923 INTER-LIGAND FREE ENERGY PREDICTED BY IDOCK:   53.62 KCAL/MOL
REMARK 924 INTRA-LIGAND FREE ENERGY PREDICTED BY IDOCK:    5.37 KCAL/MOL
REMARK 927      BINDING AFFINITY PREDICTED BY RF-SCORE:    0.00 PKD
ROOT
HETATM    1  O   UNL     1     -11.659  12.929  71.978  1.00  0.00     2.291 OA 
HETATM    2  C   UNL     1     -10.900  12.636  70.900  1.00  0.00     3.579 C  
HETATM    3  O   UNL     1      -9.960  13.332  70.564  1.00  0.00     3.228 OA 
HETATM    4  C   UNL     1     -11.369  11.478  70.093  1.00  0.00    -0.146 A  
HETATM    5  C   UNL     1     -11.738  10.262  70.709  1.00  0.00    -0.360 A  
HETATM    6 CL   UNL     1     -11.658  10.089  72.442  1.00  0.00     1.178 Cl 
HETATM    7  C   UNL     1     -12.157   9.166  69.928  1.00  0.00     0.632 A  
HETATM    8 CL   UNL     1     -12.604   7.668  70.700  1.00  0.00     0.046 Cl 
HETATM    9  C   UNL     1     -12.219   9.280  68.530  1.00  0.00     3.172 A  
HETATM   10  C   UNL     1     -11.858  10.491  67.907  1.00  0.00     0.552 A  
HETATM   11 CL   UNL     1     -12.723   7.919  67.566  1.00  0.00     8.751 Cl 
HETATM   12  C   UNL     1     -11.400  11.594  68.670  1.00  0.00    -0.326 A  
HETATM   13 CL   UNL     1     -12.000  10.649  66.176  1.00  0.00     1.976 Cl 
ENDROOT
BRANCH  12  14
HETATM   14  C   UNL     1     -10.917  12.831  67.950  1.00  0.00    -0.262 A  
HETATM   15  C   UNL     1     -10.095  12.747  66.866  1.00  0.00    -0.234 A  
HETATM   16  C   UNL     1      -9.612  11.464  66.354  1.00  0.00    -0.228 C  
HETATM   17  C   UNL     1      -8.981  11.361  65.173  1.00  0.00     0.034 C  
HETATM   18  C   UNL     1      -8.725  12.584  64.344  1.00  0.00     2.138 C  
HETATM   19  I   UNL     1      -8.335   9.537  64.472  1.00  0.00    -0.229 I  
HETATM   20  C   UNL     1      -8.984  13.907  65.000  1.00  0.00     2.235 C  
HETATM   21  O   UNL     1      -8.295  12.502  63.198  1.00  0.00     2.077 OA 
HETATM   22  I   UNL     1      -8.323  15.607  64.000  1.00  0.00    19.982 I  
HETATM   23  C   UNL     1      -9.615  13.963  66.188  1.00  0.00    -0.229 A  
HETATM   24  O   UNL     1      -9.794  15.192  66.801  1.00  0.00    -0.231 OA 
HETATM   25  C   UNL     1     -10.644  15.321  67.864  1.00  0.00    -0.260 A  
HETATM   26  C   UNL     1     -10.870  16.617  68.362  1.00  0.00    -0.361 A  
HETATM   27  C   UNL     1     -11.724  16.809  69.451  1.00  0.00     0.654 A  
HETATM   28  I   UNL     1      -9.925  18.288  67.478  1.00  0.00    -0.425 I  
HETATM   29  C   UNL     1     -12.378  15.708  70.006  1.00  0.00    -0.276 A  
HETATM   30  O   UNL     1     -11.924  18.052  69.987  1.00  0.00     4.081 OA 
HETATM   31  H   UNL     1     -12.505  18.183  70.728  1.00  0.00     0.000 HD 
HETATM   32  I   UNL     1     -13.686  15.906  71.631  1.00  0.00     1.235 I  
HETATM   33  C   UNL     1     -12.158  14.421  69.496  1.00  0.00    -0.366 A  
HETATM   34  C   UNL     1     -11.262  14.205  68.435  1.00  0.00    -0.289 A  
ENDBRANCH  12  14
TORSDOF 1
ENDMDL
MODEL      158
REMARK 921   NORMALIZED FREE ENERGY PREDICTED BY IDOCK:   56.53 KCAL/MOL
REMARK 922        TOTAL FREE ENERGY PREDICTED BY IDOCK:   59.13 KCAL/MOL
REMARK 923 INTER-LIGAND FREE ENERGY PREDICTED BY IDOCK:   31.81 KCAL/MOL
REMARK 924 INTRA-LIGAND FREE ENERGY PREDICTED BY IDOCK:   27.32 KCAL/MOL
REMARK 927      BINDING AFFINITY PREDICTED BY RF-SCORE:    0.00 PKD
ROOT
HETATM    1  O   UNL     1     -11.534   6.804  69.980  1.00  0.00    -0.338 OA 
HETATM    2  C   UNL     1     -10.545   7.612  69.540  1.00  0.00    -0.227 C  
HETATM    3  O   UNL     1     -10.145   8.558  70.194  1.00  0.00    -0.185 OA 
HETATM    4  C   UNL     1     -10.069   7.335  68.158  1.00  0.00    -0.201 A  
HETATM    5  C   UNL     1      -9.774   6.019  67.740  1.00  0.00    -0.115 A  
HETATM    6 CL   UNL     1      -9.966   4.679  68.838  1.00  0.00    -0.210 Cl 
HETATM    7  C   UNL     1      -9.301   5.776  66.435  1.00  0.00    -0.156 A  
HETATM    8 CL   UNL     1      -8.934   4.147  65.932  1.00  0.00    -0.121 Cl 
HETATM    9  C   UNL     1      -9.128   6.842  65.538  1.00  0.00     0.225 A  
HETATM   10  C   UNL     1      -9.425   8.158  65.945  1.00  0.00    -0.012 A  
HETATM   11 CL   UNL     1      -8.529   6.541  63.930  1.00  0.00     0.171 Cl 
HETATM   12  C   UNL     1      -9.868   8.429  67.263  1.00  0.00    -0.264 A  
HETATM   13 CL   UNL     1      -9.273   9.471  64.806  1.00  0.00    -0.286 Cl 
ENDROOT
BRANCH  12  14
HETATM   14  C   UNL     1     -10.065   9.866  67.687  1.00  0.00    -0.241 A  
HETATM   15  C   UNL     1     -10.126  10.218  69.002  1.00  0.00    -0.225 A  
HETATM   16  C   UNL     1     -10.032   9.228  70.076  1.00  0.00    -0.238 C  
HETATM   17  C   UNL     1      -9.880   9.586  71.362  1.00  0.00     0.082 C  
HETATM   18  C   UNL     1      -9.828  11.035  71.742  1.00  0.00     8.721 C  
HETATM   19  I   UNL     1      -9.728   8.167  72.845  1.00  0.00    -0.125 I  
HETATM   20  C   UNL     1     -10.191  12.023  70.675  1.00  0.00     4.413 C  
HETATM   21  O   UNL     1      -9.534  11.388  72.880  1.00  0.00    16.064 OA 
HETATM   22  I   UNL     1     -10.453  14.001  71.263  1.00  0.00     5.343 I  
HETATM   23  C   UNL     1     -10.339  11.620  69.399  1.00  0.00     0.178 A  
HETATM   24  O   UNL     1     -10.729  12.539  68.440  1.00  0.00    -0.225 OA 
HETATM   25  C   UNL     1     -10.641  12.237  67.110  1.00  0.00    -0.225 A  
HETATM   26  C   UNL     1     -10.939  13.257  66.189  1.00  0.00    -0.279 A  
HETATM   27  C   UNL     1     -10.872  13.003  64.816  1.00  0.00    -0.337 A  
HETATM   28  I   UNL     1     -11.493  15.183  66.861  1.00  0.00     0.053 I  
HETATM   29  C   UNL     1     -10.466  11.743  64.376  1.00  0.00    -0.311 A  
HETATM   30  O   UNL     1     -11.204  13.963  63.899  1.00  0.00    -0.569 OA 
HETATM   31  H   UNL     1     -11.158  13.790  62.965  1.00  0.00     0.000 HD 
HETATM   32  I   UNL     1     -10.325  11.279  62.339  1.00  0.00     2.085 I  
HETATM   33  C   UNL     1     -10.159  10.734  65.300  1.00  0.00    -0.353 A  
HETATM   34  C   UNL     1     -10.272  10.958  66.682  1.00  0.00    -0.282 A  
ENDBRANCH  12  14
TORSDOF 1
ENDMDL
MODEL      159
REMARK 921   NORMALIZED FREE ENERGY PREDICTED BY IDOCK:   58.33 KCAL/MOL
REMARK 922        TOTAL FREE ENERGY PREDICTED BY IDOCK:   61.03 KCAL/MOL
REMARK 923 INTER-LIGAND FREE ENERGY PREDICTED BY IDOCK:   62.01 KCAL/MOL
REMARK 924 INTRA-LIGAND FREE ENERGY PREDICTED BY IDOCK:   -0.98 KCAL/MOL
REMARK 927      BINDING AFFINITY PREDICTED BY RF-SCORE:    0.00 PKD
ROOT
HETATM    1  O   UNL     1      -9.552   8.816  67.899  1.00  0.00    -0.140 OA 
HETATM    2  C   UNL     1      -9.275  10.085  67.527  1.00  0.00    -0.137 C  
HETATM    3  O   UNL     1      -8.406  10.742  68.070  1.00  0.00    -0.115 OA 
HETATM    4  C   UNL     1     -10.184  10.655  66.497  1.00  0.00    -0.288 A  
HETATM    5  C   UNL     1     -10.517   9.924  65.335  1.00  0.00     0.244 A  
HETATM    6 CL   UNL     1      -9.872   8.325  65.082  1.00  0.00     1.088 Cl 
HETATM    7  C   UNL     1     -11.360  10.488  64.357  1.00  0.00     1.717 A  
HETATM    8 CL   UNL     1     -11.760   9.579  62.924  1.00  0.00     8.610 Cl 
HETATM    9  C   UNL     1     -11.883  11.779  64.535  1.00  0.00    -0.152 A  
HETATM   10  C   UNL     1     -11.560  12.513  65.694  1.00  0.00    -0.389 A  
HETATM   11 CL   UNL     1     -12.913  12.479  63.318  1.00  0.00    -0.097 Cl 
HETATM   12  C   UNL     1     -10.686  11.980  66.673  1.00  0.00    -0.280 A  
HETATM   13 CL   UNL     1     -12.264  14.090  65.943  1.00  0.00    -0.450 Cl 
ENDROOT
BRANCH  12  14
HETATM   14  C   UNL     1     -10.279  12.849  67.841  1.00  0.00    -0.233 A  
HETATM   15  C   UNL     1      -9.243  13.729  67.746  1.00  0.00    -0.206 A  
HETATM   16  C   UNL     1      -8.450  13.867  66.524  1.00  0.00     0.289 C  
HETATM   17  C   UNL     1      -7.574  14.871  66.354  1.00  0.00     1.382 C  
HETATM   18  C   UNL     1      -7.361  15.880  67.442  1.00  0.00    -0.193 C  
HETATM   19  I   UNL     1      -6.491  15.047  64.612  1.00  0.00    24.152 I  
HETATM   20  C   UNL     1      -7.976  15.573  68.773  1.00  0.00    -0.163 C  
HETATM   21  O   UNL     1      -6.689  16.889  67.254  1.00  0.00    -0.140 OA 
HETATM   22  I   UNL     1      -7.419  16.776  70.375  1.00  0.00     3.611 I  
HETATM   23  C   UNL     1      -8.846  14.553  68.900  1.00  0.00    -0.103 A  
HETATM   24  O   UNL     1      -9.359  14.253  70.151  1.00  0.00     1.069 OA 
HETATM   25  C   UNL     1     -10.425  13.408  70.280  1.00  0.00     1.934 A  
HETATM   26  C   UNL     1     -10.970  13.241  71.566  1.00  0.00     4.468 A  
HETATM   27  C   UNL     1     -12.057  12.384  71.760  1.00  0.00     1.106 A  
HETATM   28  I   UNL     1     -10.159  14.277  73.220  1.00  0.00    11.436 I  
HETATM   29  C   UNL     1     -12.616  11.734  70.659  1.00  0.00    -0.201 A  
HETATM   30  O   UNL     1     -12.577  12.165  73.007  1.00  0.00     1.471 OA 
HETATM   31  H   UNL     1     -13.315  11.582  73.139  1.00  0.00     0.000 HD 
HETATM   32  I   UNL     1     -14.253  10.442  70.856  1.00  0.00     3.185 I  
HETATM   33  C   UNL     1     -12.074  11.914  69.379  1.00  0.00    -0.277 A  
HETATM   34  C   UNL     1     -10.950  12.732  69.176  1.00  0.00    -0.185 A  
ENDBRANCH  12  14
TORSDOF 1
ENDMDL
MODEL      160
REMARK 921   NORMALIZED FREE ENERGY PREDICTED BY IDOCK:   60.50 KCAL/MOL
REMARK 922        TOTAL FREE ENERGY PREDICTED BY IDOCK:   63.33 KCAL/MOL
REMARK 923 INTER-LIGAND FREE ENERGY PREDICTED BY IDOCK:   45.63 KCAL/MOL
REMARK 924 INTRA-LIGAND FREE ENERGY PREDICTED BY IDOCK:   17.71 KCAL/MOL
REMARK 927      BINDING AFFINITY PREDICTED BY RF-SCORE:    0.00 PKD
ROOT
HETATM    1  O   UNL     1      -5.213   8.813  68.876  1.00  0.00    -0.032 OA 
HETATM    2  C   UNL     1      -6.435   8.472  69.340  1.00  0.00    -0.037 C  
HETATM    3  O   UNL     1      -6.646   7.403  69.881  1.00  0.00    -0.041 OA 
HETATM    4  C   UNL     1      -7.521   9.442  69.034  1.00  0.00    -0.073 A  
HETATM    5  C   UNL     1      -7.343  10.826  69.251  1.00  0.00    -0.129 A  
HETATM    6 CL   UNL     1      -5.837  11.436  69.882  1.00  0.00    -0.093 Cl 
HETATM    7  C   UNL     1      -8.390  11.729  68.979  1.00  0.00     0.189 A  
HETATM    8 CL   UNL     1      -8.161  13.436  69.257  1.00  0.00     0.488 Cl 
HETATM    9  C   UNL     1      -9.616  11.259  68.480  1.00  0.00    -0.198 A  
HETATM   10  C   UNL     1      -9.800   9.881  68.255  1.00  0.00    -0.147 A  
HETATM   11 CL   UNL     1     -10.912  12.376  68.159  1.00  0.00    -0.244 Cl 
HETATM   12  C   UNL     1      -8.773   8.951  68.555  1.00  0.00    -0.134 A  
HETATM   13 CL   UNL     1     -11.300   9.308  67.573  1.00  0.00     0.413 Cl 
ENDROOT
BRANCH  12  14
HETATM   14  C   UNL     1      -9.057   7.475  68.405  1.00  0.00    -0.133 A  
HETATM   15  C   UNL     1      -9.918   7.009  67.457  1.00  0.00    -0.201 A  
HETATM   16  C   UNL     1     -10.635   7.907  66.550  1.00  0.00     0.141 C  
HETATM   17  C   UNL     1     -11.314   7.449  65.486  1.00  0.00     6.506 C  
HETATM   18  C   UNL     1     -11.381   5.977  65.208  1.00  0.00     3.698 C  
HETATM   19  I   UNL     1     -12.293   8.742  64.218  1.00  0.00    25.326 I  
HETATM   20  C   UNL     1     -10.873   5.066  66.284  1.00  0.00    -0.083 C  
HETATM   21  O   UNL     1     -11.858   5.544  64.163  1.00  0.00     3.677 OA 
HETATM   22  I   UNL     1     -11.260   3.034  66.068  1.00  0.00     7.854 I  
HETATM   23  C   UNL     1     -10.201   5.568  67.337  1.00  0.00    -0.209 A  
HETATM   24  O   UNL     1      -9.790   4.715  68.347  1.00  0.00    -0.149 OA 
HETATM   25  C   UNL     1      -8.894   5.135  69.290  1.00  0.00    -0.095 A  
HETATM   26  C   UNL     1      -8.428   4.183  70.215  1.00  0.00    -0.068 A  
HETATM   27  C   UNL     1      -7.516   4.556  71.206  1.00  0.00    -0.067 A  
HETATM   28  I   UNL     1      -9.097   2.179  70.122  1.00  0.00    -0.158 I  
HETATM   29  C   UNL     1      -7.046   5.869  71.237  1.00  0.00    -0.073 A  
HETATM   30  O   UNL     1      -7.084   3.662  72.147  1.00  0.00    -0.042 OA 
HETATM   31  H   UNL     1      -6.464   3.916  72.821  1.00  0.00     0.000 HD 
HETATM   32  I   UNL     1      -5.670   6.513  72.679  1.00  0.00    -0.038 I  
HETATM   33  C   UNL     1      -7.506   6.810  70.305  1.00  0.00    -0.090 A  
HETATM   34  C   UNL     1      -8.461   6.463  69.336  1.00  0.00    -0.126 A  
ENDBRANCH  12  14
TORSDOF 1
ENDMDL
MODEL      161
REMARK 921   NORMALIZED FREE ENERGY PREDICTED BY IDOCK:   65.57 KCAL/MOL
REMARK 922        TOTAL FREE ENERGY PREDICTED BY IDOCK:   68.70 KCAL/MOL
REMARK 923 INTER-LIGAND FREE ENERGY PREDICTED BY IDOCK:   63.76 KCAL/MOL
REMARK 924 INTRA-LIGAND FREE ENERGY PREDICTED BY IDOCK:    4.93 KCAL/MOL
REMARK 927      BINDING AFFINITY PREDICTED BY RF-SCORE:    0.00 PKD
ROOT
HETATM    1  O   UNL     1      -8.703  14.211  63.457  1.00  0.00     7.791 OA 
HETATM    2  C   UNL     1      -9.612  14.513  64.409  1.00  0.00     2.181 C  
HETATM    3  O   UNL     1     -10.344  15.481  64.319  1.00  0.00     0.173 OA 
HETATM    4  C   UNL     1      -9.568  13.652  65.621  1.00  0.00    -0.026 A  
HETATM    5  C   UNL     1      -9.501  12.246  65.513  1.00  0.00    -0.017 A  
HETATM    6 CL   UNL     1      -9.464  11.480  63.948  1.00  0.00    -0.177 Cl 
HETATM    7  C   UNL     1      -9.485  11.443  66.671  1.00  0.00    -0.189 A  
HETATM    8 CL   UNL     1      -9.409   9.707  66.526  1.00  0.00    -0.197 Cl 
HETATM    9  C   UNL     1      -9.525  12.038  67.943  1.00  0.00    -0.196 A  
HETATM   10  C   UNL     1      -9.586  13.441  68.060  1.00  0.00    -0.219 A  
HETATM   11 CL   UNL     1      -9.520  11.043  69.372  1.00  0.00     0.016 Cl 
HETATM   12  C   UNL     1      -9.640  14.265  66.908  1.00  0.00    -0.268 A  
HETATM   13 CL   UNL     1      -9.569  14.179  69.640  1.00  0.00     0.541 Cl 
ENDROOT
BRANCH  12  14
HETATM   14  C   UNL     1      -9.819  15.755  67.084  1.00  0.00    -0.227 A  
HETATM   15  C   UNL     1     -10.869  16.417  66.521  1.00  0.00    -0.073 A  
HETATM   16  C   UNL     1     -11.865  15.733  65.695  1.00  0.00     0.640 C  
HETATM   17  C   UNL     1     -13.007  16.331  65.317  1.00  0.00     3.664 C  
HETATM   18  C   UNL     1     -13.284  17.750  65.713  1.00  0.00    12.776 C  
HETATM   19  I   UNL     1     -14.397  15.332  64.173  1.00  0.00    10.478 I  
HETATM   20  C   UNL     1     -12.148  18.511  66.324  1.00  0.00     4.476 C  
HETATM   21  O   UNL     1     -14.380  18.266  65.516  1.00  0.00    14.962 OA 
HETATM   22  I   UNL     1     -12.403  20.561  66.570  1.00  0.00     8.045 I  
HETATM   23  C   UNL     1     -11.018  17.873  66.684  1.00  0.00     0.205 A  
HETATM   24  O   UNL     1      -9.960  18.605  67.194  1.00  0.00    -0.305 OA 
HETATM   25  C   UNL     1      -8.910  17.977  67.805  1.00  0.00    -0.255 A  
HETATM   26  C   UNL     1      -7.929  18.786  68.406  1.00  0.00    -0.334 A  
HETATM   27  C   UNL     1      -6.829  18.200  69.039  1.00  0.00    -0.250 A  
HETATM   28  I   UNL     1      -8.098  20.893  68.362  1.00  0.00     1.510 I  
HETATM   29  C   UNL     1      -6.743  16.809  69.102  1.00  0.00    -0.223 A  
HETATM   30  O   UNL     1      -5.835  18.963  69.589  1.00  0.00    -0.232 OA 
HETATM   31  H   UNL     1      -5.088  18.564  70.020  1.00  0.00     0.000 HD 
HETATM   32  I   UNL     1      -5.137  15.846  70.041  1.00  0.00    -0.154 I  
HETATM   33  C   UNL     1      -7.731  16.009  68.510  1.00  0.00    -0.158 A  
HETATM   34  C   UNL     1      -8.815  16.584  67.826  1.00  0.00    -0.197 A  
ENDBRANCH  12  14
TORSDOF 1
ENDMDL
MODEL      162
REMARK 921   NORMALIZED FREE ENERGY PREDICTED BY IDOCK:   66.44 KCAL/MOL
REMARK 922        TOTAL FREE ENERGY PREDICTED BY IDOCK:   69.62 KCAL/MOL
REMARK 923 INTER-LIGAND FREE ENERGY PREDICTED BY IDOCK:   49.44 KCAL/MOL
REMARK 924 INTRA-LIGAND FREE ENERGY PREDICTED BY IDOCK:   20.18 KCAL/MOL
REMARK 927      BINDING AFFINITY PREDICTED BY RF-SCORE:    0.00 PKD
ROOT
HETATM    1  O   UNL     1     -13.083   7.199  67.117  1.00  0.00     9.119 OA 
HETATM    2  C   UNL     1     -11.774   7.198  66.782  1.00  0.00     2.166 C  
HETATM    3  O   UNL     1     -11.061   6.229  66.968  1.00  0.00    -0.362 OA 
HETATM    4  C   UNL     1     -11.247   8.497  66.286  1.00  0.00     2.505 A  
HETATM    5  C   UNL     1     -11.945   9.242  65.310  1.00  0.00     9.840 A  
HETATM    6 CL   UNL     1     -13.453   8.655  64.662  1.00  0.00    20.733 Cl 
HETATM    7  C   UNL     1     -11.420  10.459  64.833  1.00  0.00     2.136 A  
HETATM    8 CL   UNL     1     -12.287  11.366  63.623  1.00  0.00    -0.080 Cl 
HETATM    9  C   UNL     1     -10.201  10.946  65.333  1.00  0.00    -0.277 A  
HETATM   10  C   UNL     1      -9.501  10.213  66.312  1.00  0.00    -0.180 A  
HETATM   11 CL   UNL     1      -9.547  12.444  64.731  1.00  0.00     0.030 Cl 
HETATM   12  C   UNL     1      -9.993   8.969  66.780  1.00  0.00    -0.332 A  
HETATM   13 CL   UNL     1      -8.022  10.853  66.979  1.00  0.00    -0.127 Cl 
ENDROOT
BRANCH  12  14
HETATM   14  C   UNL     1      -9.151   8.166  67.744  1.00  0.00    -0.140 A  
HETATM   15  C   UNL     1      -9.212   6.805  67.778  1.00  0.00    -0.111 A  
HETATM   16  C   UNL     1     -10.109   6.045  66.907  1.00  0.00    -0.229 C  
HETATM   17  C   UNL     1     -10.022   4.710  66.787  1.00  0.00    -0.225 C  
HETATM   18  C   UNL     1      -9.003   3.945  67.576  1.00  0.00    -0.134 C  
HETATM   19  I   UNL     1     -11.286   3.675  65.535  1.00  0.00     4.909 I  
HETATM   20  C   UNL     1      -8.280   4.699  68.651  1.00  0.00    -0.082 C  
HETATM   21  O   UNL     1      -8.797   2.753  67.370  1.00  0.00    -0.117 OA 
HETATM   22  I   UNL     1      -7.117   3.590  69.970  1.00  0.00    -0.041 I  
HETATM   23  C   UNL     1      -8.400   6.038  68.739  1.00  0.00    -0.106 A  
HETATM   24  O   UNL     1      -7.769   6.708  69.773  1.00  0.00    -0.107 OA 
HETATM   25  C   UNL     1      -7.651   8.069  69.750  1.00  0.00    -0.092 A  
HETATM   26  C   UNL     1      -6.895   8.674  70.770  1.00  0.00    -0.049 A  
HETATM   27  C   UNL     1      -6.746  10.063  70.802  1.00  0.00    -0.008 A  
HETATM   28  I   UNL     1      -5.975   7.499  72.267  1.00  0.00    -0.041 I  
HETATM   29  C   UNL     1      -7.320  10.832  69.789  1.00  0.00    -0.064 A  
HETATM   30  O   UNL     1      -6.057  10.682  71.809  1.00  0.00    -0.073 OA 
HETATM   31  H   UNL     1      -5.956  11.627  71.831  1.00  0.00     0.000 HD 
HETATM   32  I   UNL     1      -7.137  12.919  69.750  1.00  0.00     1.215 I  
HETATM   33  C   UNL     1      -8.063  10.221  68.769  1.00  0.00    -0.120 A  
HETATM   34  C   UNL     1      -8.265   8.831  68.752  1.00  0.00    -0.116 A  
ENDBRANCH  12  14
TORSDOF 1
ENDMDL
MODEL      163
REMARK 921   NORMALIZED FREE ENERGY PREDICTED BY IDOCK:   67.57 KCAL/MOL
REMARK 922        TOTAL FREE ENERGY PREDICTED BY IDOCK:   70.81 KCAL/MOL
REMARK 923 INTER-LIGAND FREE ENERGY PREDICTED BY IDOCK:   71.04 KCAL/MOL
REMARK 924 INTRA-LIGAND FREE ENERGY PREDICTED BY IDOCK:   -0.23 KCAL/MOL
REMARK 927      BINDING AFFINITY PREDICTED BY RF-SCORE:    0.00 PKD
ROOT
HETATM    1  O   UNL     1     -12.085  17.293  65.195  1.00  0.00     1.882 OA 
HETATM    2  C   UNL     1     -11.687  16.232  65.932  1.00  0.00     1.026 C  
HETATM    3  O   UNL     1     -12.463  15.600  66.624  1.00  0.00     1.101 OA 
HETATM    4  C   UNL     1     -10.223  15.973  65.927  1.00  0.00    -0.386 A  
HETATM    5  C   UNL     1      -9.488  15.966  64.721  1.00  0.00     1.898 A  
HETATM    6 CL   UNL     1     -10.283  16.267  63.200  1.00  0.00     8.280 Cl 
HETATM    7  C   UNL     1      -8.105  15.694  64.732  1.00  0.00     7.766 A  
HETATM    8 CL   UNL     1      -7.209  15.681  63.235  1.00  0.00    23.079 Cl 
HETATM    9  C   UNL     1      -7.446  15.438  65.945  1.00  0.00     3.141 A  
HETATM   10  C   UNL     1      -8.170  15.449  67.153  1.00  0.00    -0.219 A  
HETATM   11 CL   UNL     1      -5.740  15.088  65.953  1.00  0.00     6.021 Cl 
HETATM   12  C   UNL     1      -9.567  15.684  67.162  1.00  0.00    -0.224 A  
HETATM   13 CL   UNL     1      -7.335  15.196  68.664  1.00  0.00    -0.115 Cl 
ENDROOT
BRANCH  12  14
HETATM   14  C   UNL     1     -10.319  15.573  68.469  1.00  0.00    -0.225 A  
HETATM   15  C   UNL     1     -10.311  16.585  69.382  1.00  0.00    -0.298 A  
HETATM   16  C   UNL     1      -9.558  17.821  69.166  1.00  0.00    -0.041 C  
HETATM   17  C   UNL     1      -9.714  18.896  69.955  1.00  0.00     0.960 C  
HETATM   18  C   UNL     1     -10.661  18.850  71.117  1.00  0.00     2.901 C  
HETATM   19  I   UNL     1      -8.654  20.626  69.609  1.00  0.00     3.068 I  
HETATM   20  C   UNL     1     -11.216  17.506  71.478  1.00  0.00     1.982 C  
HETATM   21  O   UNL     1     -10.939  19.860  71.755  1.00  0.00     3.927 OA 
HETATM   22  I   UNL     1     -12.256  17.361  73.273  1.00  0.00     2.869 I  
HETATM   23  C   UNL     1     -11.031  16.453  70.660  1.00  0.00    -0.080 A  
HETATM   24  O   UNL     1     -11.504  15.209  71.041  1.00  0.00    -0.297 OA 
HETATM   25  C   UNL     1     -11.567  14.183  70.139  1.00  0.00    -0.224 A  
HETATM   26  C   UNL     1     -12.168  12.983  70.560  1.00  0.00    -0.313 A  
HETATM   27  C   UNL     1     -12.255  11.898  69.684  1.00  0.00    -0.153 A  
HETATM   28  I   UNL     1     -12.948  12.800  72.516  1.00  0.00     1.286 I  
HETATM   29  C   UNL     1     -11.776  12.036  68.380  1.00  0.00    -0.332 A  
HETATM   30  O   UNL     1     -12.791  10.703  70.082  1.00  0.00    -0.435 OA 
HETATM   31  H   UNL     1     -12.850   9.965  69.486  1.00  0.00     0.000 HD 
HETATM   32  I   UNL     1     -11.876  10.467  66.997  1.00  0.00     3.790 I  
HETATM   33  C   UNL     1     -11.189  13.239  67.964  1.00  0.00    -0.307 A  
HETATM   34  C   UNL     1     -11.048  14.321  68.850  1.00  0.00    -0.283 A  
ENDBRANCH  12  14
TORSDOF 1
ENDMDL
MODEL      164
REMARK 921   NORMALIZED FREE ENERGY PREDICTED BY IDOCK:   69.73 KCAL/MOL
REMARK 922        TOTAL FREE ENERGY PREDICTED BY IDOCK:   73.10 KCAL/MOL
REMARK 923 INTER-LIGAND FREE ENERGY PREDICTED BY IDOCK:   64.70 KCAL/MOL
REMARK 924 INTRA-LIGAND FREE ENERGY PREDICTED BY IDOCK:    8.40 KCAL/MOL
REMARK 927      BINDING AFFINITY PREDICTED BY RF-SCORE:    0.00 PKD
ROOT
HETATM    1  O   UNL     1     -11.662  10.207  69.691  1.00  0.00    -0.195 OA 
HETATM    2  C   UNL     1     -11.270  11.327  70.338  1.00  0.00     0.186 C  
HETATM    3  O   UNL     1     -11.986  12.307  70.423  1.00  0.00    -0.343 OA 
HETATM    4  C   UNL     1      -9.866  11.315  70.830  1.00  0.00     4.072 A  
HETATM    5  C   UNL     1      -9.349  10.204  71.531  1.00  0.00     3.029 A  
HETATM    6 CL   UNL     1     -10.348   8.808  71.836  1.00  0.00    -0.397 Cl 
HETATM    7  C   UNL     1      -8.025  10.218  72.011  1.00  0.00     4.781 A  
HETATM    8 CL   UNL     1      -7.399   8.843  72.882  1.00  0.00     0.175 Cl 
HETATM    9  C   UNL     1      -7.205  11.336  71.787  1.00  0.00     6.191 A  
HETATM   10  C   UNL     1      -7.711  12.447  71.083  1.00  0.00     7.776 A  
HETATM   11 CL   UNL     1      -5.573  11.358  72.394  1.00  0.00     0.848 Cl 
HETATM   12  C   UNL     1      -9.051  12.468  70.622  1.00  0.00     7.771 A  
HETATM   13 CL   UNL     1      -6.670  13.806  70.748  1.00  0.00     0.470 Cl 
ENDROOT
BRANCH  12  14
HETATM   14  C   UNL     1      -9.581  13.726  69.973  1.00  0.00     2.052 A  
HETATM   15  C   UNL     1      -8.881  14.373  69.000  1.00  0.00     0.009 A  
HETATM   16  C   UNL     1      -7.570  13.908  68.545  1.00  0.00    -0.134 C  
HETATM   17  C   UNL     1      -6.977  14.412  67.451  1.00  0.00    -0.064 C  
HETATM   18  C   UNL     1      -7.640  15.504  66.666  1.00  0.00     0.135 C  
HETATM   19  I   UNL     1      -5.142  13.718  66.826  1.00  0.00     3.230 I  
HETATM   20  C   UNL     1      -8.841  16.146  67.291  1.00  0.00    -0.186 C  
HETATM   21  O   UNL     1      -7.199  15.872  65.582  1.00  0.00     1.911 OA 
HETATM   22  I   UNL     1      -9.571  17.872  66.390  1.00  0.00    -0.176 I  
HETATM   23  C   UNL     1      -9.401  15.610  68.392  1.00  0.00    -0.195 A  
HETATM   24  O   UNL     1     -10.476  16.251  68.985  1.00  0.00    -0.239 OA 
HETATM   25  C   UNL     1     -11.227  15.616  69.934  1.00  0.00    -0.331 A  
HETATM   26  C   UNL     1     -12.374  16.279  70.408  1.00  0.00     0.487 A  
HETATM   27  C   UNL     1     -13.176  15.681  71.383  1.00  0.00    -0.465 A  
HETATM   28  I   UNL     1     -12.901  18.183  69.656  1.00  0.00    18.934 I  
HETATM   29  C   UNL     1     -12.848  14.407  71.846  1.00  0.00    -0.349 A  
HETATM   30  O   UNL     1     -14.270  16.324  71.897  1.00  0.00     0.205 OA 
HETATM   31  H   UNL     1     -14.815  15.917  72.560  1.00  0.00     0.000 HD 
HETATM   32  I   UNL     1     -14.000  13.430  73.298  1.00  0.00     4.709 I  
HETATM   33  C   UNL     1     -11.710  13.747  71.362  1.00  0.00     0.555 A  
HETATM   34  C   UNL     1     -10.865  14.357  70.419  1.00  0.00     0.253 A  
ENDBRANCH  12  14
TORSDOF 1
ENDMDL
MODEL      165
REMARK 921   NORMALIZED FREE ENERGY PREDICTED BY IDOCK:   73.65 KCAL/MOL
REMARK 922        TOTAL FREE ENERGY PREDICTED BY IDOCK:   77.26 KCAL/MOL
REMARK 923 INTER-LIGAND FREE ENERGY PREDICTED BY IDOCK:   77.64 KCAL/MOL
REMARK 924 INTRA-LIGAND FREE ENERGY PREDICTED BY IDOCK:   -0.39 KCAL/MOL
REMARK 927      BINDING AFFINITY PREDICTED BY RF-SCORE:    0.00 PKD
ROOT
HETATM    1  O   UNL     1     -13.503  12.868  67.891  1.00  0.00     3.469 OA 
HETATM    2  C   UNL     1     -12.337  13.125  68.524  1.00  0.00     0.169 C  
HETATM    3  O   UNL     1     -12.025  14.248  68.871  1.00  0.00    -0.325 OA 
HETATM    4  C   UNL     1     -11.420  11.961  68.654  1.00  0.00    -0.350 A  
HETATM    5  C   UNL     1     -11.891  10.708  69.102  1.00  0.00    -0.215 A  
HETATM    6 CL   UNL     1     -13.572  10.491  69.511  1.00  0.00     1.668 Cl 
HETATM    7  C   UNL     1     -11.004   9.622  69.243  1.00  0.00    -0.168 A  
HETATM    8 CL   UNL     1     -11.597   8.081  69.804  1.00  0.00     0.243 Cl 
HETATM    9  C   UNL     1      -9.644   9.777  68.930  1.00  0.00    -0.167 A  
HETATM   10  C   UNL     1      -9.166  11.023  68.477  1.00  0.00    -0.177 A  
HETATM   11 CL   UNL     1      -8.547   8.438  69.119  1.00  0.00    -0.133 Cl 
HETATM   12  C   UNL     1     -10.033  12.137  68.361  1.00  0.00    -0.206 A  
HETATM   13 CL   UNL     1      -7.489  11.193  68.025  1.00  0.00    -0.091 Cl 
ENDROOT
BRANCH  12  14
HETATM   14  C   UNL     1      -9.452  13.479  67.981  1.00  0.00    -0.220 A  
HETATM   15  C   UNL     1      -9.140  14.412  68.924  1.00  0.00    -0.069 A  
HETATM   16  C   UNL     1      -9.372  14.183  70.351  1.00  0.00     2.521 C  
HETATM   17  C   UNL     1      -8.877  15.002  71.293  1.00  0.00     3.523 C  
HETATM   18  C   UNL     1      -8.082  16.211  70.901  1.00  0.00     3.807 C  
HETATM   19  I   UNL     1      -9.203  14.637  73.292  1.00  0.00    13.926 I  
HETATM   20  C   UNL     1      -8.082  16.573  69.447  1.00  0.00     0.048 C  
HETATM   21  O   UNL     1      -7.489  16.886  71.737  1.00  0.00     6.994 OA 
HETATM   22  I   UNL     1      -7.275  18.418  68.928  1.00  0.00    -0.146 I  
HETATM   23  C   UNL     1      -8.595  15.724  68.536  1.00  0.00    -0.183 A  
HETATM   24  O   UNL     1      -8.635  16.103  67.205  1.00  0.00    -0.170 OA 
HETATM   25  C   UNL     1      -8.902  15.185  66.228  1.00  0.00    -0.176 A  
HETATM   26  C   UNL     1      -8.810  15.611  64.891  1.00  0.00     3.478 A  
HETATM   27  C   UNL     1      -9.079  14.718  63.851  1.00  0.00     8.525 A  
HETATM   28  I   UNL     1      -8.267  17.602  64.433  1.00  0.00    12.030 I  
HETATM   29  C   UNL     1      -9.396  13.394  64.156  1.00  0.00     2.213 A  
HETATM   30  O   UNL     1      -9.044  15.118  62.542  1.00  0.00    15.245 OA 
HETATM   31  H   UNL     1      -9.226  14.511  61.835  1.00  0.00     0.000 HD 
HETATM   32  I   UNL     1      -9.801  11.984  62.660  1.00  0.00     2.658 I  
HETATM   33  C   UNL     1      -9.475  12.973  65.491  1.00  0.00     0.142 A  
HETATM   34  C   UNL     1      -9.258  13.872  66.548  1.00  0.00    -0.220 A  
ENDBRANCH  12  14
TORSDOF 1
ENDMDL
MODEL      166
REMARK 921   NORMALIZED FREE ENERGY PREDICTED BY IDOCK:   73.98 KCAL/MOL
REMARK 922        TOTAL FREE ENERGY PREDICTED BY IDOCK:   77.61 KCAL/MOL
REMARK 923 INTER-LIGAND FREE ENERGY PREDICTED BY IDOCK:   77.41 KCAL/MOL
REMARK 924 INTRA-LIGAND FREE ENERGY PREDICTED BY IDOCK:    0.20 KCAL/MOL
REMARK 927      BINDING AFFINITY PREDICTED BY RF-SCORE:    0.00 PKD
ROOT
HETATM    1  O   UNL     1      -8.696  18.392  66.624  1.00  0.00    -0.270 OA 
HETATM    2  C   UNL     1      -9.726  17.646  67.082  1.00  0.00    -0.291 C  
HETATM    3  O   UNL     1      -9.823  17.329  68.253  1.00  0.00    -0.276 OA 
HETATM    4  C   UNL     1     -10.657  17.145  66.036  1.00  0.00    -0.205 A  
HETATM    5  C   UNL     1     -11.155  18.003  65.032  1.00  0.00     1.167 A  
HETATM    6 CL   UNL     1     -10.683  19.681  64.989  1.00  0.00     0.326 Cl 
HETATM    7  C   UNL     1     -12.056  17.518  64.063  1.00  0.00     5.847 A  
HETATM    8 CL   UNL     1     -12.669  18.590  62.831  1.00  0.00    19.748 Cl 
HETATM    9  C   UNL     1     -12.458  16.173  64.084  1.00  0.00     0.996 A  
HETATM   10  C   UNL     1     -11.963  15.308  65.080  1.00  0.00    -0.029 A  
HETATM   11 CL   UNL     1     -13.583  15.580  62.894  1.00  0.00     4.821 Cl 
HETATM   12  C   UNL     1     -11.084  15.783  66.085  1.00  0.00    -0.078 A  
HETATM   13 CL   UNL     1     -12.412  13.623  65.063  1.00  0.00    -0.449 Cl 
ENDROOT
BRANCH  12  14
HETATM   14  C   UNL     1     -10.669  14.846  67.196  1.00  0.00    -0.296 A  
HETATM   15  C   UNL     1     -11.234  14.917  68.434  1.00  0.00    -0.304 A  
HETATM   16  C   UNL     1     -12.250  15.917  68.768  1.00  0.00     0.166 C  
HETATM   17  C   UNL     1     -12.956  15.859  69.909  1.00  0.00     0.723 C  
HETATM   18  C   UNL     1     -12.699  14.765  70.902  1.00  0.00    -0.342 C  
HETATM   19  I   UNL     1     -14.393  17.269  70.338  1.00  0.00    18.384 I  
HETATM   20  C   UNL     1     -11.486  13.917  70.669  1.00  0.00     0.144 C  
HETATM   21  O   UNL     1     -13.432  14.597  71.872  1.00  0.00    -0.321 OA 
HETATM   22  I   UNL     1     -10.925  12.624  72.198  1.00  0.00    11.790 I  
HETATM   23  C   UNL     1     -10.804  14.011  69.512  1.00  0.00    -0.036 A  
HETATM   24  O   UNL     1      -9.654  13.259  69.341  1.00  0.00     0.581 OA 
HETATM   25  C   UNL     1      -9.085  13.129  68.105  1.00  0.00    -0.200 A  
HETATM   26  C   UNL     1      -7.990  12.255  67.981  1.00  0.00    -0.150 A  
HETATM   27  C   UNL     1      -7.364  12.089  66.743  1.00  0.00     0.033 A  
HETATM   28  I   UNL     1      -7.274  11.185  69.658  1.00  0.00     0.383 I  
HETATM   29  C   UNL     1      -7.865  12.765  65.631  1.00  0.00     2.882 A  
HETATM   30  O   UNL     1      -6.267  11.282  66.604  1.00  0.00    -0.120 OA 
HETATM   31  H   UNL     1      -5.841  11.169  65.762  1.00  0.00     0.000 HD 
HETATM   32  I   UNL     1      -6.997  12.564  63.735  1.00  0.00    12.344 I  
HETATM   33  C   UNL     1      -8.964  13.625  65.759  1.00  0.00     0.692 A  
HETATM   34  C   UNL     1      -9.572  13.844  67.007  1.00  0.00    -0.254 A  
ENDBRANCH  12  14
TORSDOF 1
ENDMDL
MODEL      167
REMARK 921   NORMALIZED FREE ENERGY PREDICTED BY IDOCK:   83.90 KCAL/MOL
REMARK 922        TOTAL FREE ENERGY PREDICTED BY IDOCK:   88.11 KCAL/MOL
REMARK 923 INTER-LIGAND FREE ENERGY PREDICTED BY IDOCK:   87.61 KCAL/MOL
REMARK 924 INTRA-LIGAND FREE ENERGY PREDICTED BY IDOCK:    0.49 KCAL/MOL
REMARK 927      BINDING AFFINITY PREDICTED BY RF-SCORE:    0.00 PKD
ROOT
HETATM    1  O   UNL     1      -6.840  12.529  69.766  1.00  0.00     0.058 OA 
HETATM    2  C   UNL     1      -7.098  13.423  68.786  1.00  0.00    -0.101 C  
HETATM    3  O   UNL     1      -6.709  14.574  68.844  1.00  0.00    -0.088 OA 
HETATM    4  C   UNL     1      -7.987  12.931  67.700  1.00  0.00    -0.167 A  
HETATM    5  C   UNL     1      -7.772  11.673  67.096  1.00  0.00    -0.159 A  
HETATM    6 CL   UNL     1      -6.454  10.657  67.615  1.00  0.00    -0.056 Cl 
HETATM    7  C   UNL     1      -8.609  11.233  66.051  1.00  0.00    -0.130 A  
HETATM    8 CL   UNL     1      -8.329   9.680  65.308  1.00  0.00    -0.129 Cl 
HETATM    9  C   UNL     1      -9.670  12.039  65.609  1.00  0.00    -0.223 A  
HETATM   10  C   UNL     1      -9.896  13.293  66.210  1.00  0.00    -0.285 A  
HETATM   11 CL   UNL     1     -10.694  11.499  64.308  1.00  0.00    -0.389 Cl 
HETATM   12  C   UNL     1      -9.045  13.772  67.238  1.00  0.00    -0.232 A  
HETATM   13 CL   UNL     1     -11.255  14.263  65.705  1.00  0.00    -0.307 Cl 
ENDROOT
BRANCH  12  14
HETATM   14  C   UNL     1      -9.258  15.169  67.772  1.00  0.00    -0.180 A  
HETATM   15  C   UNL     1      -9.100  16.265  66.978  1.00  0.00    -0.226 A  
HETATM   16  C   UNL     1      -8.692  16.158  65.577  1.00  0.00     0.799 C  
HETATM   17  C   UNL     1      -8.740  17.207  64.740  1.00  0.00     4.900 C  
HETATM   18  C   UNL     1      -9.195  18.548  65.233  1.00  0.00     1.917 C  
HETATM   19  I   UNL     1      -8.179  17.015  62.769  1.00  0.00    35.350 I  
HETATM   20  C   UNL     1      -9.351  18.701  66.715  1.00  0.00    -0.308 C  
HETATM   21  O   UNL     1      -9.397  19.479  64.460  1.00  0.00     2.942 OA 
HETATM   22  I   UNL     1      -9.651  20.625  67.444  1.00  0.00    -0.042 I  
HETATM   23  C   UNL     1      -9.290  17.622  67.519  1.00  0.00    -0.248 A  
HETATM   24  O   UNL     1      -9.382  17.794  68.890  1.00  0.00    -0.248 OA 
HETATM   25  C   UNL     1      -9.583  16.721  69.713  1.00  0.00     0.466 A  
HETATM   26  C   UNL     1      -9.786  16.979  71.081  1.00  0.00     4.615 A  
HETATM   27  C   UNL     1      -9.990  15.922  71.971  1.00  0.00     3.987 A  
HETATM   28  I   UNL     1      -9.783  18.963  71.811  1.00  0.00     7.375 I  
HETATM   29  C   UNL     1     -10.032  14.617  71.479  1.00  0.00     3.108 A  
HETATM   30  O   UNL     1     -10.141  16.141  73.314  1.00  0.00     5.858 OA 
HETATM   31  H   UNL     1     -10.280  15.422  73.919  1.00  0.00     0.000 HD 
HETATM   32  I   UNL     1     -10.346  12.973  72.738  1.00  0.00    19.028 I  
HETATM   33  C   UNL     1      -9.841  14.368  70.112  1.00  0.00     0.995 A  
HETATM   34  C   UNL     1      -9.583  15.416  69.214  1.00  0.00    -0.268 A  
ENDBRANCH  12  14
TORSDOF 1
ENDMDL
MODEL      168
REMARK 921   NORMALIZED FREE ENERGY PREDICTED BY IDOCK:   87.04 KCAL/MOL
REMARK 922        TOTAL FREE ENERGY PREDICTED BY IDOCK:   91.43 KCAL/MOL
REMARK 923 INTER-LIGAND FREE ENERGY PREDICTED BY IDOCK:   82.28 KCAL/MOL
REMARK 924 INTRA-LIGAND FREE ENERGY PREDICTED BY IDOCK:    9.15 KCAL/MOL
REMARK 927      BINDING AFFINITY PREDICTED BY RF-SCORE:    0.00 PKD
ROOT
HETATM    1  O   UNL     1     -12.653  18.447  67.517  1.00  0.00     3.754 OA 
HETATM    2  C   UNL     1     -12.046  17.283  67.838  1.00  0.00     2.019 C  
HETATM    3  O   UNL     1     -12.070  16.833  68.968  1.00  0.00     0.414 OA 
HETATM    4  C   UNL     1     -11.253  16.660  66.744  1.00  0.00     0.384 A  
HETATM    5  C   UNL     1     -11.785  16.529  65.443  1.00  0.00     1.001 A  
HETATM    6 CL   UNL     1     -13.392  17.102  65.082  1.00  0.00     8.688 Cl 
HETATM    7  C   UNL     1     -11.031  15.914  64.424  1.00  0.00    -0.013 A  
HETATM    8 CL   UNL     1     -11.700  15.752  62.822  1.00  0.00     4.583 Cl 
HETATM    9  C   UNL     1      -9.738  15.436  64.694  1.00  0.00     1.301 A  
HETATM   10  C   UNL     1      -9.197  15.568  65.988  1.00  0.00    -0.326 A  
HETATM   11 CL   UNL     1      -8.813  14.664  63.437  1.00  0.00    12.037 Cl 
HETATM   12  C   UNL     1      -9.952  16.150  67.037  1.00  0.00    -0.259 A  
HETATM   13 CL   UNL     1      -7.567  15.033  66.303  1.00  0.00     1.208 Cl 
ENDROOT
BRANCH  12  14
HETATM   14  C   UNL     1      -9.374  16.166  68.433  1.00  0.00    -0.206 A  
HETATM   15  C   UNL     1      -9.560  17.227  69.268  1.00  0.00     0.017 A  
HETATM   16  C   UNL     1     -10.304  18.418  68.857  1.00  0.00    -0.168 C  
HETATM   17  C   UNL     1     -10.669  19.367  69.734  1.00  0.00     1.402 C  
HETATM   18  C   UNL     1     -10.293  19.243  71.181  1.00  0.00     2.555 C  
HETATM   19  I   UNL     1     -11.735  21.019  69.125  1.00  0.00     6.056 I  
HETATM   20  C   UNL     1      -9.314  18.165  71.531  1.00  0.00     8.254 C  
HETATM   21  O   UNL     1     -10.745  20.009  72.026  1.00  0.00     3.518 OA 
HETATM   22  I   UNL     1      -8.526  18.187  73.455  1.00  0.00    16.747 I  
HETATM   23  C   UNL     1      -8.971  17.236  70.618  1.00  0.00     4.506 A  
HETATM   24  O   UNL     1      -8.022  16.283  70.945  1.00  0.00     3.036 OA 
HETATM   25  C   UNL     1      -7.838  15.184  70.153  1.00  0.00     0.408 A  
HETATM   26  C   UNL     1      -6.944  14.197  70.607  1.00  0.00     0.686 A  
HETATM   27  C   UNL     1      -6.712  13.055  69.836  1.00  0.00     0.235 A  
HETATM   28  I   UNL     1      -5.940  14.424  72.453  1.00  0.00     1.171 I  
HETATM   29  C   UNL     1      -7.408  12.890  68.638  1.00  0.00    -0.099 A  
HETATM   30  O   UNL     1      -5.811  12.103  70.230  1.00  0.00    -0.145 OA 
HETATM   31  H   UNL     1      -5.653  11.326  69.705  1.00  0.00     0.000 HD 
HETATM   32  I   UNL     1      -7.131  11.204  67.426  1.00  0.00    -0.126 I  
HETATM   33  C   UNL     1      -8.306  13.872  68.198  1.00  0.00    -0.163 A  
HETATM   34  C   UNL     1      -8.511  15.049  68.936  1.00  0.00    -0.192 A  
ENDBRANCH  12  14
TORSDOF 1
ENDMDL
MODEL      169
REMARK 921   NORMALIZED FREE ENERGY PREDICTED BY IDOCK:   97.28 KCAL/MOL
REMARK 922        TOTAL FREE ENERGY PREDICTED BY IDOCK:  102.27 KCAL/MOL
REMARK 923 INTER-LIGAND FREE ENERGY PREDICTED BY IDOCK:   95.26 KCAL/MOL
REMARK 924 INTRA-LIGAND FREE ENERGY PREDICTED BY IDOCK:    7.01 KCAL/MOL
REMARK 927      BINDING AFFINITY PREDICTED BY RF-SCORE:    0.00 PKD
ROOT
HETATM    1  O   UNL     1      -7.262  10.542  70.827  1.00  0.00    -0.097 OA 
HETATM    2  C   UNL     1      -8.451  11.088  70.488  1.00  0.00     2.997 C  
HETATM    3  O   UNL     1      -9.268  10.488  69.814  1.00  0.00    -0.071 OA 
HETATM    4  C   UNL     1      -8.634  12.507  70.894  1.00  0.00     9.607 A  
HETATM    5  C   UNL     1      -8.313  12.938  72.200  1.00  0.00    17.058 A  
HETATM    6 CL   UNL     1      -7.687  11.812  73.374  1.00  0.00    16.408 Cl 
HETATM    7  C   UNL     1      -8.516  14.281  72.576  1.00  0.00     8.829 A  
HETATM    8 CL   UNL     1      -8.123  14.801  74.193  1.00  0.00     8.064 Cl 
HETATM    9  C   UNL     1      -9.029  15.203  71.649  1.00  0.00     4.531 A  
HETATM   10  C   UNL     1      -9.346  14.783  70.343  1.00  0.00     1.224 A  
HETATM   11 CL   UNL     1      -9.291  16.859  72.121  1.00  0.00     9.633 Cl 
HETATM   12  C   UNL     1      -9.184  13.430  69.954  1.00  0.00     2.474 A  
HETATM   13 CL   UNL     1      -9.920  15.946  69.176  1.00  0.00    -0.229 Cl 
ENDROOT
BRANCH  12  14
HETATM   14  C   UNL     1      -9.644  13.005  68.579  1.00  0.00    -0.113 A  
HETATM   15  C   UNL     1      -8.905  12.154  67.812  1.00  0.00    -0.172 A  
HETATM   16  C   UNL     1      -7.616  11.626  68.261  1.00  0.00    -0.120 C  
HETATM   17  C   UNL     1      -6.989  10.632  67.610  1.00  0.00    -0.079 C  
HETATM   18  C   UNL     1      -7.589  10.046  66.368  1.00  0.00    -0.104 C  
HETATM   19  I   UNL     1      -5.187   9.898  68.282  1.00  0.00    -0.034 I  
HETATM   20  C   UNL     1      -8.761  10.772  65.780  1.00  0.00    -0.186 C  
HETATM   21  O   UNL     1      -7.121   9.039  65.846  1.00  0.00    -0.086 OA 
HETATM   22  I   UNL     1      -9.395  10.177  63.891  1.00  0.00    -0.170 I  
HETATM   23  C   UNL     1      -9.356  11.766  66.465  1.00  0.00    -0.210 A  
HETATM   24  O   UNL     1     -10.402  12.460  65.880  1.00  0.00    -0.246 OA 
HETATM   25  C   UNL     1     -11.191  13.289  66.627  1.00  0.00    -0.306 A  
HETATM   26  C   UNL     1     -12.306  13.869  65.995  1.00  0.00    -0.475 A  
HETATM   27  C   UNL     1     -13.146  14.730  66.708  1.00  0.00     2.098 A  
HETATM   28  I   UNL     1     -12.730  13.452  63.967  1.00  0.00     0.489 I  
HETATM   29  C   UNL     1     -12.886  14.970  68.058  1.00  0.00     1.671 A  
HETATM   30  O   UNL     1     -14.209  15.346  66.106  1.00  0.00     3.268 OA 
HETATM   31  H   UNL     1     -14.780  15.931  66.590  1.00  0.00     0.000 HD 
HETATM   32  I   UNL     1     -14.099  16.235  69.205  1.00  0.00    10.235 I  
HETATM   33  C   UNL     1     -11.780  14.379  68.684  1.00  0.00    -0.367 A  
HETATM   34  C   UNL     1     -10.898  13.553  67.967  1.00  0.00    -0.266 A  
ENDBRANCH  12  14
TORSDOF 1
ENDMDL
MODEL      170
REMARK 921   NORMALIZED FREE ENERGY PREDICTED BY IDOCK:  119.62 KCAL/MOL
REMARK 922        TOTAL FREE ENERGY PREDICTED BY IDOCK:  125.91 KCAL/MOL
REMARK 923 INTER-LIGAND FREE ENERGY PREDICTED BY IDOCK:  125.75 KCAL/MOL
REMARK 924 INTRA-LIGAND FREE ENERGY PREDICTED BY IDOCK:    0.16 KCAL/MOL
REMARK 927      BINDING AFFINITY PREDICTED BY RF-SCORE:    0.00 PKD
ROOT
HETATM    1  O   UNL     1     -12.476  19.792  68.465  1.00  0.00     3.991 OA 
HETATM    2  C   UNL     1     -12.735  18.730  67.671  1.00  0.00     6.062 C  
HETATM    3  O   UNL     1     -13.599  17.918  67.942  1.00  0.00     6.421 OA 
HETATM    4  C   UNL     1     -11.813  18.565  66.516  1.00  0.00     2.730 A  
HETATM    5  C   UNL     1     -11.482  19.658  65.686  1.00  0.00     1.107 A  
HETATM    6 CL   UNL     1     -12.145  21.239  66.000  1.00  0.00     6.338 Cl 
HETATM    7  C   UNL     1     -10.626  19.479  64.580  1.00  0.00     2.686 A  
HETATM    8 CL   UNL     1     -10.229  20.835  63.558  1.00  0.00     5.856 Cl 
HETATM    9  C   UNL     1     -10.089  18.212  64.302  1.00  0.00     6.600 A  
HETATM   10  C   UNL     1     -10.409  17.117  65.129  1.00  0.00     0.274 A  
HETATM   11 CL   UNL     1      -9.043  17.991  62.927  1.00  0.00    22.826 Cl 
HETATM   12  C   UNL     1     -11.296  17.266  66.224  1.00  0.00     1.005 A  
HETATM   13 CL   UNL     1      -9.687  15.559  64.819  1.00  0.00     0.469 Cl 
ENDROOT
BRANCH  12  14
HETATM   14  C   UNL     1     -11.698  16.041  67.011  1.00  0.00     0.603 A  
HETATM   15  C   UNL     1     -12.445  15.048  66.450  1.00  0.00     0.564 A  
HETATM   16  C   UNL     1     -12.921  15.121  65.068  1.00  0.00     0.743 C  
HETATM   17  C   UNL     1     -13.470  14.064  64.448  1.00  0.00     1.943 C  
HETATM   18  C   UNL     1     -13.639  12.764  65.177  1.00  0.00     1.905 C  
HETATM   19  I   UNL     1     -14.108  14.194  62.496  1.00  0.00    14.586 I  
HETATM   20  C   UNL     1     -13.395  12.786  66.656  1.00  0.00     4.127 C  
HETATM   21  O   UNL     1     -13.990  11.744  64.593  1.00  0.00     1.283 OA 
HETATM   22  I   UNL     1     -13.944  11.095  67.733  1.00  0.00    20.560 I  
HETATM   23  C   UNL     1     -12.847  13.871  67.237  1.00  0.00     0.977 A  
HETATM   24  O   UNL     1     -12.682  13.891  68.612  1.00  0.00     0.293 OA 
HETATM   25  C   UNL     1     -11.905  14.846  69.205  1.00  0.00    -0.307 A  
HETATM   26  C   UNL     1     -11.684  14.737  70.590  1.00  0.00    -0.297 A  
HETATM   27  C   UNL     1     -10.904  15.689  71.251  1.00  0.00     0.019 A  
HETATM   28  I   UNL     1     -12.526  13.140  71.690  1.00  0.00     0.465 I  
HETATM   29  C   UNL     1     -10.316  16.718  70.515  1.00  0.00     0.904 A  
HETATM   30  O   UNL     1     -10.712  15.635  72.606  1.00  0.00     0.771 OA 
HETATM   31  H   UNL     1     -10.181  16.282  73.055  1.00  0.00     0.000 HD 
HETATM   32  I   UNL     1      -9.121  18.180  71.422  1.00  0.00    10.957 I  
HETATM   33  C   UNL     1     -10.531  16.813  69.133  1.00  0.00    -0.343 A  
HETATM   34  C   UNL     1     -11.356  15.894  68.462  1.00  0.00    -0.374 A  
ENDBRANCH  12  14
TORSDOF 1
ENDMDL
