MODEL        1
REMARK 921   NORMALIZED FREE ENERGY PREDICTED BY IDOCK:   -6.89 KCAL/MOL
REMARK 922        TOTAL FREE ENERGY PREDICTED BY IDOCK:  -10.57 KCAL/MOL
REMARK 923 INTER-LIGAND FREE ENERGY PREDICTED BY IDOCK:   -9.71 KCAL/MOL
REMARK 924 INTRA-LIGAND FREE ENERGY PREDICTED BY IDOCK:   -0.86 KCAL/MOL
REMARK 927      BINDING AFFINITY PREDICTED BY RF-SCORE:    0.00 PKD
ROOT
HETATM    1  C   UNL     1     -13.769   7.005  71.407  1.00  0.00    -0.195 C  
HETATM    2  N   UNL     1     -12.470   7.344  71.990  1.00  0.00    -0.279 NA 
ENDROOT
BRANCH   2   3
HETATM    3  C   UNL     1     -11.405   7.141  71.089  1.00  0.00    -0.275 A  
HETATM    4  C   UNL     1      -9.200   7.475  70.438  1.00  0.00    -0.157 A  
HETATM    5  C   UNL     1      -9.356   6.769  69.260  1.00  0.00    -0.144 A  
HETATM    6  C   UNL     1     -11.632   6.415  69.918  1.00  0.00    -0.422 A  
HETATM    7  C   UNL     1     -10.603   6.230  68.995  1.00  0.00    -0.322 A  
HETATM    8  N   UNL     1     -10.187   7.670  71.343  1.00  0.00    -0.186 NA 
ENDBRANCH   2   3
BRANCH   2   9
HETATM    9  C   UNL     1     -12.430   8.658  72.665  1.00  0.00    -0.214 C  
BRANCH   9  10
HETATM   10  C   UNL     1     -13.313   9.696  71.959  1.00  0.00    -0.457 C  
BRANCH  10  11
HETATM   11  O   UNL     1     -12.696  10.991  71.918  1.00  0.00    -0.355 OA 
BRANCH  11  12
HETATM   12  C   UNL     1     -12.239  11.377  70.680  1.00  0.00    -0.389 A  
HETATM   13  C   UNL     1     -11.691  12.987  68.952  1.00  0.00    -0.371 A  
HETATM   14  C   UNL     1     -12.092  12.697  70.257  1.00  0.00    -0.372 A  
HETATM   15  C   UNL     1     -11.412  11.959  68.045  1.00  0.00    -0.389 A  
HETATM   16  C   UNL     1     -11.505  10.631  68.487  1.00  0.00    -0.333 A  
HETATM   17  C   UNL     1     -11.917  10.342  69.794  1.00  0.00    -0.176 A  
BRANCH  15  18
HETATM   18  C   UNL     1     -11.105  12.288  66.607  1.00  0.00    -0.344 C  
BRANCH  18  19
HETATM   19  C   UNL     1     -11.724  13.549  66.010  1.00  0.00    -0.359 C  
HETATM   20  S   UNL     1     -10.637  14.990  65.768  1.00  0.00    -0.364 SA 
HETATM   21  C   UNL     1     -11.515  15.485  64.340  1.00  0.00    -0.259 C  
HETATM   22  N   UNL     1     -12.297  14.470  63.900  1.00  0.00    -1.047 N  
HETATM   23  O   UNL     1     -11.436  16.593  63.839  1.00  0.00    -1.186 OA 
HETATM   24  C   UNL     1     -12.413  13.353  64.677  1.00  0.00    -0.331 C  
HETATM   25  H   UNL     1     -12.788  14.538  63.009  1.00  0.00     0.000 HD 
HETATM   26  O   UNL     1     -13.078  12.376  64.358  1.00  0.00    -0.786 OA 
ENDBRANCH  18  19
ENDBRANCH  15  18
ENDBRANCH  11  12
ENDBRANCH  10  11
ENDBRANCH   9  10
ENDBRANCH   2   9
TORSDOF 7
ENDMDL
MODEL        2
REMARK 921   NORMALIZED FREE ENERGY PREDICTED BY IDOCK:   -6.86 KCAL/MOL
REMARK 922        TOTAL FREE ENERGY PREDICTED BY IDOCK:  -10.52 KCAL/MOL
REMARK 923 INTER-LIGAND FREE ENERGY PREDICTED BY IDOCK:   -9.62 KCAL/MOL
REMARK 924 INTRA-LIGAND FREE ENERGY PREDICTED BY IDOCK:   -0.90 KCAL/MOL
REMARK 927      BINDING AFFINITY PREDICTED BY RF-SCORE:    0.00 PKD
ROOT
HETATM    1  C   UNL     1     -10.408   7.286  73.572  1.00  0.00    -0.366 C  
HETATM    2  N   UNL     1     -10.789   7.515  72.178  1.00  0.00    -0.229 NA 
ENDROOT
BRANCH   2   3
HETATM    3  C   UNL     1     -10.408   6.453  71.333  1.00  0.00    -0.206 A  
HETATM    4  C   UNL     1      -9.153   4.545  70.905  1.00  0.00    -0.131 A  
HETATM    5  C   UNL     1      -9.638   4.417  69.617  1.00  0.00    -0.275 A  
HETATM    6  C   UNL     1     -10.940   6.382  70.044  1.00  0.00    -0.397 A  
HETATM    7  C   UNL     1     -10.552   5.361  69.178  1.00  0.00    -0.241 A  
HETATM    8  N   UNL     1      -9.513   5.532  71.757  1.00  0.00    -0.149 NA 
ENDBRANCH   2   3
BRANCH   2   9
HETATM    9  C   UNL     1     -12.191   7.943  71.992  1.00  0.00    -0.317 C  
BRANCH   9  10
HETATM   10  C   UNL     1     -12.304   9.453  71.736  1.00  0.00    -0.394 C  
BRANCH  10  11
HETATM   11  O   UNL     1     -11.069  10.014  71.270  1.00  0.00    -0.309 OA 
BRANCH  11  12
HETATM   12  C   UNL     1     -11.061  10.377  69.944  1.00  0.00    -0.305 A  
HETATM   13  C   UNL     1     -10.469  10.123  67.606  1.00  0.00    -0.293 A  
HETATM   14  C   UNL     1     -10.492   9.632  68.912  1.00  0.00    -0.234 A  
HETATM   15  C   UNL     1     -11.029  11.368  67.300  1.00  0.00    -0.336 A  
HETATM   16  C   UNL     1     -11.651  12.093  68.326  1.00  0.00    -0.382 A  
HETATM   17  C   UNL     1     -11.665  11.603  69.639  1.00  0.00    -0.418 A  
BRANCH  15  18
HETATM   18  C   UNL     1     -10.882  11.938  65.913  1.00  0.00    -0.342 C  
BRANCH  18  19
HETATM   19  C   UNL     1     -11.590  13.253  65.598  1.00  0.00    -0.335 C  
HETATM   20  S   UNL     1     -10.613  14.786  65.715  1.00  0.00    -0.350 SA 
HETATM   21  C   UNL     1     -11.511  15.526  64.411  1.00  0.00    -0.259 C  
HETATM   22  N   UNL     1     -12.209  14.583  63.734  1.00  0.00    -1.047 N  
HETATM   23  O   UNL     1     -11.511  16.721  64.174  1.00  0.00    -1.171 OA 
HETATM   24  C   UNL     1     -12.248  13.314  64.237  1.00  0.00    -0.392 C  
HETATM   25  H   UNL     1     -12.695  14.815  62.868  1.00  0.00     0.000 HD 
HETATM   26  O   UNL     1     -12.834  12.389  63.689  1.00  0.00    -0.743 OA 
ENDBRANCH  18  19
ENDBRANCH  15  18
ENDBRANCH  11  12
ENDBRANCH  10  11
ENDBRANCH   9  10
ENDBRANCH   2   9
TORSDOF 7
ENDMDL
MODEL        3
REMARK 921   NORMALIZED FREE ENERGY PREDICTED BY IDOCK:   -6.80 KCAL/MOL
REMARK 922        TOTAL FREE ENERGY PREDICTED BY IDOCK:  -10.43 KCAL/MOL
REMARK 923 INTER-LIGAND FREE ENERGY PREDICTED BY IDOCK:   -9.34 KCAL/MOL
REMARK 924 INTRA-LIGAND FREE ENERGY PREDICTED BY IDOCK:   -1.09 KCAL/MOL
REMARK 927      BINDING AFFINITY PREDICTED BY RF-SCORE:    0.00 PKD
ROOT
HETATM    1  C   UNL     1     -13.066  10.087  71.627  1.00  0.00    -0.445 C  
HETATM    2  N   UNL     1     -12.551  11.071  70.674  1.00  0.00    -0.344 NA 
ENDROOT
BRANCH   2   3
HETATM    3  C   UNL     1     -12.778  12.398  71.094  1.00  0.00    -0.240 A  
HETATM    4  C   UNL     1     -13.820  13.941  72.483  1.00  0.00    -0.515 A  
HETATM    5  C   UNL     1     -13.245  15.025  71.846  1.00  0.00    -0.455 A  
HETATM    6  C   UNL     1     -12.162  13.445  70.407  1.00  0.00    -0.415 A  
HETATM    7  C   UNL     1     -12.398  14.767  70.781  1.00  0.00    -0.397 A  
HETATM    8  N   UNL     1     -13.608  12.652  72.131  1.00  0.00    -0.497 NA 
ENDBRANCH   2   3
BRANCH   2   9
HETATM    9  C   UNL     1     -11.163  10.821  70.232  1.00  0.00    -0.245 C  
BRANCH   9  10
HETATM   10  C   UNL     1     -11.112  10.098  68.878  1.00  0.00    -0.207 C  
BRANCH  10  11
HETATM   11  O   UNL     1     -11.796  10.829  67.850  1.00  0.00    -0.553 OA 
BRANCH  11  12
HETATM   12  C   UNL     1     -11.118  11.924  67.368  1.00  0.00    -0.279 A  
HETATM   13  C   UNL     1      -9.136  13.230  66.872  1.00  0.00    -0.235 A  
HETATM   14  C   UNL     1      -9.730  12.046  67.310  1.00  0.00    -0.190 A  
HETATM   15  C   UNL     1      -9.920  14.316  66.466  1.00  0.00    -0.289 A  
HETATM   16  C   UNL     1     -11.315  14.174  66.469  1.00  0.00    -0.348 A  
HETATM   17  C   UNL     1     -11.910  12.988  66.919  1.00  0.00    -0.442 A  
BRANCH  15  18
HETATM   18  C   UNL     1      -9.264  15.627  66.118  1.00  0.00    -0.378 C  
BRANCH  18  19
HETATM   19  C   UNL     1      -9.976  16.915  66.522  1.00  0.00    -0.301 C  
HETATM   20  S   UNL     1      -8.997  18.184  67.389  1.00  0.00    -0.259 SA 
HETATM   21  C   UNL     1      -9.913  19.477  66.651  1.00  0.00    -0.407 C  
HETATM   22  N   UNL     1     -10.620  19.003  65.598  1.00  0.00    -0.356 N  
HETATM   23  O   UNL     1      -9.916  20.627  67.054  1.00  0.00    -0.441 OA 
HETATM   24  C   UNL     1     -10.652  17.655  65.387  1.00  0.00     0.039 C  
HETATM   25  H   UNL     1     -11.118  19.639  64.975  1.00  0.00     0.000 HD 
HETATM   26  O   UNL     1     -11.245  17.131  64.453  1.00  0.00    -1.143 OA 
ENDBRANCH  18  19
ENDBRANCH  15  18
ENDBRANCH  11  12
ENDBRANCH  10  11
ENDBRANCH   9  10
ENDBRANCH   2   9
TORSDOF 7
ENDMDL
MODEL        4
REMARK 921   NORMALIZED FREE ENERGY PREDICTED BY IDOCK:   -6.75 KCAL/MOL
REMARK 922        TOTAL FREE ENERGY PREDICTED BY IDOCK:  -10.37 KCAL/MOL
REMARK 923 INTER-LIGAND FREE ENERGY PREDICTED BY IDOCK:   -8.39 KCAL/MOL
REMARK 924 INTRA-LIGAND FREE ENERGY PREDICTED BY IDOCK:   -1.98 KCAL/MOL
REMARK 927      BINDING AFFINITY PREDICTED BY RF-SCORE:    0.00 PKD
ROOT
HETATM    1  C   UNL     1      -6.233  21.175  67.407  1.00  0.00    -0.353 C  
HETATM    2  N   UNL     1      -6.698  19.790  67.501  1.00  0.00    -0.213 NA 
ENDROOT
BRANCH   2   3
HETATM    3  C   UNL     1      -8.104  19.690  67.457  1.00  0.00    -0.298 A  
HETATM    4  C   UNL     1     -10.158  19.431  68.510  1.00  0.00    -0.437 A  
HETATM    5  C   UNL     1     -10.860  19.432  67.319  1.00  0.00    -0.561 A  
HETATM    6  C   UNL     1      -8.749  19.701  66.219  1.00  0.00    -0.401 A  
HETATM    7  C   UNL     1     -10.135  19.568  66.147  1.00  0.00    -0.557 A  
HETATM    8  N   UNL     1      -8.814  19.553  68.599  1.00  0.00    -0.364 NA 
ENDBRANCH   2   3
BRANCH   2   9
HETATM    9  C   UNL     1      -6.010  18.853  66.589  1.00  0.00    -0.161 C  
BRANCH   9  10
HETATM   10  C   UNL     1      -5.833  17.463  67.218  1.00  0.00    -0.138 C  
BRANCH  10  11
HETATM   11  O   UNL     1      -6.549  16.451  66.496  1.00  0.00    -0.245 OA 
BRANCH  11  12
HETATM   12  C   UNL     1      -7.806  16.174  66.978  1.00  0.00    -0.223 A  
HETATM   13  C   UNL     1     -10.188  15.762  66.778  1.00  0.00    -0.284 A  
HETATM   14  C   UNL     1      -8.938  15.963  66.190  1.00  0.00    -0.376 A  
HETATM   15  C   UNL     1     -10.331  15.753  68.169  1.00  0.00    -0.242 A  
HETATM   16  C   UNL     1      -9.185  15.910  68.962  1.00  0.00    -0.242 A  
HETATM   17  C   UNL     1      -7.932  16.120  68.371  1.00  0.00    -0.162 A  
BRANCH  15  18
HETATM   18  C   UNL     1     -11.704  15.664  68.783  1.00  0.00    -0.382 C  
BRANCH  18  19
HETATM   19  C   UNL     1     -11.849  14.936  70.116  1.00  0.00    -0.308 C  
HETATM   20  S   UNL     1     -13.262  15.386  71.175  1.00  0.00    -0.496 SA 
HETATM   21  C   UNL     1     -13.400  13.753  71.783  1.00  0.00    -0.383 C  
HETATM   22  N   UNL     1     -12.698  12.903  70.995  1.00  0.00    -0.305 N  
HETATM   23  O   UNL     1     -14.026  13.447  72.783  1.00  0.00    -0.724 OA 
HETATM   24  C   UNL     1     -11.902  13.426  70.018  1.00  0.00    -0.294 C  
HETATM   25  H   UNL     1     -12.764  11.894  71.129  1.00  0.00     0.000 HD 
HETATM   26  O   UNL     1     -11.245  12.742  69.244  1.00  0.00    -0.242 OA 
ENDBRANCH  18  19
ENDBRANCH  15  18
ENDBRANCH  11  12
ENDBRANCH  10  11
ENDBRANCH   9  10
ENDBRANCH   2   9
TORSDOF 7
ENDMDL
MODEL        5
REMARK 921   NORMALIZED FREE ENERGY PREDICTED BY IDOCK:   -6.66 KCAL/MOL
REMARK 922        TOTAL FREE ENERGY PREDICTED BY IDOCK:  -10.25 KCAL/MOL
REMARK 923 INTER-LIGAND FREE ENERGY PREDICTED BY IDOCK:   -8.85 KCAL/MOL
REMARK 924 INTRA-LIGAND FREE ENERGY PREDICTED BY IDOCK:   -1.40 KCAL/MOL
REMARK 927      BINDING AFFINITY PREDICTED BY RF-SCORE:    0.00 PKD
ROOT
HETATM    1  C   UNL     1     -13.732   9.463  72.214  1.00  0.00    -0.426 C  
HETATM    2  N   UNL     1     -12.712   9.931  71.276  1.00  0.00    -0.355 NA 
ENDROOT
BRANCH   2   3
HETATM    3  C   UNL     1     -12.713  11.335  71.134  1.00  0.00    -0.390 A  
HETATM    4  C   UNL     1     -13.275  13.455  71.899  1.00  0.00    -0.431 A  
HETATM    5  C   UNL     1     -12.749  14.084  70.786  1.00  0.00    -0.396 A  
HETATM    6  C   UNL     1     -12.161  11.904  69.986  1.00  0.00    -0.366 A  
HETATM    7  C   UNL     1     -12.181  13.287  69.807  1.00  0.00    -0.285 A  
HETATM    8  N   UNL     1     -13.270  12.115  72.087  1.00  0.00    -0.453 NA 
ENDBRANCH   2   3
BRANCH   2   9
HETATM    9  C   UNL     1     -11.367   9.362  71.503  1.00  0.00    -0.394 C  
BRANCH   9  10
HETATM   10  C   UNL     1     -11.059   8.208  70.537  1.00  0.00    -0.253 C  
BRANCH  10  11
HETATM   11  O   UNL     1      -9.820   8.404  69.842  1.00  0.00    -0.182 OA 
BRANCH  11  12
HETATM   12  C   UNL     1      -9.838   9.397  68.892  1.00  0.00    -0.171 A  
HETATM   13  C   UNL     1     -10.560  10.438  66.825  1.00  0.00    -0.270 A  
HETATM   14  C   UNL     1     -10.670   9.421  67.774  1.00  0.00    -0.290 A  
HETATM   15  C   UNL     1      -9.623  11.465  66.982  1.00  0.00    -0.192 A  
HETATM   16  C   UNL     1      -8.825  11.473  68.135  1.00  0.00    -0.165 A  
HETATM   17  C   UNL     1      -8.929  10.446  69.082  1.00  0.00    -0.188 A  
BRANCH  15  18
HETATM   18  C   UNL     1      -9.432  12.482  65.887  1.00  0.00    -0.111 C  
BRANCH  18  19
HETATM   19  C   UNL     1     -10.535  13.512  65.662  1.00  0.00    -0.293 C  
HETATM   20  S   UNL     1     -10.038  15.254  65.470  1.00  0.00    -0.372 SA 
HETATM   21  C   UNL     1     -11.349  15.565  64.357  1.00  0.00    -0.252 C  
HETATM   22  N   UNL     1     -11.865  14.396  63.908  1.00  0.00    -0.730 N  
HETATM   23  O   UNL     1     -11.740  16.680  64.057  1.00  0.00    -1.143 OA 
HETATM   24  C   UNL     1     -11.437  13.233  64.479  1.00  0.00    -0.365 C  
HETATM   25  H   UNL     1     -12.558  14.386  63.159  1.00  0.00     0.000 HD 
HETATM   26  O   UNL     1     -11.828  12.126  64.129  1.00  0.00    -0.373 OA 
ENDBRANCH  18  19
ENDBRANCH  15  18
ENDBRANCH  11  12
ENDBRANCH  10  11
ENDBRANCH   9  10
ENDBRANCH   2   9
TORSDOF 7
ENDMDL
MODEL        6
REMARK 921   NORMALIZED FREE ENERGY PREDICTED BY IDOCK:   -6.63 KCAL/MOL
REMARK 922        TOTAL FREE ENERGY PREDICTED BY IDOCK:  -10.20 KCAL/MOL
REMARK 923 INTER-LIGAND FREE ENERGY PREDICTED BY IDOCK:   -9.52 KCAL/MOL
REMARK 924 INTRA-LIGAND FREE ENERGY PREDICTED BY IDOCK:   -0.68 KCAL/MOL
REMARK 927      BINDING AFFINITY PREDICTED BY RF-SCORE:    0.00 PKD
ROOT
HETATM    1  C   UNL     1     -11.001  16.297  64.696  1.00  0.00    -0.194 C  
HETATM    2  N   UNL     1      -9.938  16.360  65.700  1.00  0.00    -0.529 NA 
ENDROOT
BRANCH   2   3
HETATM    3  C   UNL     1     -10.049  17.494  66.532  1.00  0.00    -0.331 A  
HETATM    4  C   UNL     1     -10.025  18.485  68.632  1.00  0.00    -0.383 A  
HETATM    5  C   UNL     1     -10.338  19.736  68.135  1.00  0.00    -0.561 A  
HETATM    6  C   UNL     1     -10.364  18.729  65.962  1.00  0.00    -0.467 A  
HETATM    7  C   UNL     1     -10.513  19.857  66.767  1.00  0.00    -0.575 A  
HETATM    8  N   UNL     1      -9.882  17.378  67.868  1.00  0.00    -0.276 NA 
ENDBRANCH   2   3
BRANCH   2   9
HETATM    9  C   UNL     1      -9.727  15.101  66.444  1.00  0.00    -0.278 C  
BRANCH   9  10
HETATM   10  C   UNL     1     -11.014  14.270  66.548  1.00  0.00    -0.316 C  
BRANCH  10  11
HETATM   11  O   UNL     1     -11.753  14.570  67.741  1.00  0.00    -0.349 OA 
BRANCH  11  12
HETATM   12  C   UNL     1     -11.889  13.520  68.619  1.00  0.00    -0.369 A  
HETATM   13  C   UNL     1     -11.960  11.176  69.237  1.00  0.00    -0.421 A  
HETATM   14  C   UNL     1     -11.727  12.175  68.290  1.00  0.00    -0.401 A  
HETATM   15  C   UNL     1     -12.346  11.504  70.541  1.00  0.00    -0.432 A  
HETATM   16  C   UNL     1     -12.453  12.858  70.888  1.00  0.00    -0.383 A  
HETATM   17  C   UNL     1     -12.229  13.859  69.934  1.00  0.00    -0.393 A  
BRANCH  15  18
HETATM   18  C   UNL     1     -12.716  10.413  71.512  1.00  0.00    -0.564 C  
BRANCH  18  19
HETATM   19  C   UNL     1     -12.162   9.013  71.264  1.00  0.00    -0.312 C  
HETATM   20  S   UNL     1     -10.663   8.524  72.177  1.00  0.00    -0.350 SA 
HETATM   21  C   UNL     1     -11.189   6.859  72.263  1.00  0.00    -0.263 C  
HETATM   22  N   UNL     1     -12.507   6.771  71.962  1.00  0.00    -0.500 N  
HETATM   23  O   UNL     1     -10.455   5.924  72.536  1.00  0.00    -0.191 OA 
HETATM   24  C   UNL     1     -13.145   7.886  71.499  1.00  0.00    -0.311 C  
HETATM   25  H   UNL     1     -13.011   5.893  72.079  1.00  0.00     0.000 HD 
HETATM   26  O   UNL     1     -14.337   7.913  71.220  1.00  0.00    -0.369 OA 
ENDBRANCH  18  19
ENDBRANCH  15  18
ENDBRANCH  11  12
ENDBRANCH  10  11
ENDBRANCH   9  10
ENDBRANCH   2   9
TORSDOF 7
ENDMDL
MODEL        7
REMARK 921   NORMALIZED FREE ENERGY PREDICTED BY IDOCK:   -6.58 KCAL/MOL
REMARK 922        TOTAL FREE ENERGY PREDICTED BY IDOCK:  -10.12 KCAL/MOL
REMARK 923 INTER-LIGAND FREE ENERGY PREDICTED BY IDOCK:   -8.44 KCAL/MOL
REMARK 924 INTRA-LIGAND FREE ENERGY PREDICTED BY IDOCK:   -1.68 KCAL/MOL
REMARK 927      BINDING AFFINITY PREDICTED BY RF-SCORE:    0.00 PKD
ROOT
HETATM    1  C   UNL     1      -9.625  11.007  62.847  1.00  0.00    -0.343 C  
HETATM    2  N   UNL     1      -9.688  11.297  64.280  1.00  0.00    -0.248 NA 
ENDROOT
BRANCH   2   3
HETATM    3  C   UNL     1     -10.523  12.395  64.570  1.00  0.00    -0.325 A  
HETATM    4  C   UNL     1     -10.887  14.683  64.745  1.00  0.00    -0.385 A  
HETATM    5  C   UNL     1     -12.178  14.523  65.213  1.00  0.00    -0.321 A  
HETATM    6  C   UNL     1     -11.818  12.162  65.037  1.00  0.00    -0.357 A  
HETATM    7  C   UNL     1     -12.651  13.231  65.364  1.00  0.00    -0.526 A  
HETATM    8  N   UNL     1     -10.063  13.658  64.428  1.00  0.00    -0.254 NA 
ENDBRANCH   2   3
BRANCH   2   9
HETATM    9  C   UNL     1      -9.947  10.116  65.130  1.00  0.00    -0.309 C  
BRANCH   9  10
HETATM   10  C   UNL     1      -8.818   9.876  66.142  1.00  0.00    -0.144 C  
BRANCH  10  11
HETATM   11  O   UNL     1      -9.307   9.811  67.489  1.00  0.00    -0.133 OA 
BRANCH  11  12
HETATM   12  C   UNL     1      -9.980  10.931  67.916  1.00  0.00    -0.176 A  
HETATM   13  C   UNL     1     -10.227  13.301  68.364  1.00  0.00    -0.249 A  
HETATM   14  C   UNL     1      -9.498  12.237  67.832  1.00  0.00    -0.200 A  
HETATM   15  C   UNL     1     -11.465  13.084  68.978  1.00  0.00    -0.353 A  
HETATM   16  C   UNL     1     -11.976  11.779  69.013  1.00  0.00    -0.341 A  
HETATM   17  C   UNL     1     -11.239  10.710  68.488  1.00  0.00    -0.342 A  
BRANCH  15  18
HETATM   18  C   UNL     1     -12.177  14.225  69.658  1.00  0.00    -0.371 C  
BRANCH  18  19
HETATM   19  C   UNL     1     -11.931  14.439  71.149  1.00  0.00    -0.316 C  
HETATM   20  S   UNL     1     -11.627  16.143  71.718  1.00  0.00    -0.324 SA 
HETATM   21  C   UNL     1     -12.416  15.834  73.247  1.00  0.00    -0.506 C  
HETATM   22  N   UNL     1     -13.143  14.693  73.173  1.00  0.00    -0.513 N  
HETATM   23  O   UNL     1     -12.301  16.544  74.231  1.00  0.00    -0.642 OA 
HETATM   24  C   UNL     1     -13.022  13.914  72.058  1.00  0.00    -0.349 C  
HETATM   25  H   UNL     1     -13.766  14.421  73.933  1.00  0.00     0.000 HD 
HETATM   26  O   UNL     1     -13.650  12.877  71.888  1.00  0.00    -0.416 OA 
ENDBRANCH  18  19
ENDBRANCH  15  18
ENDBRANCH  11  12
ENDBRANCH  10  11
ENDBRANCH   9  10
ENDBRANCH   2   9
TORSDOF 7
ENDMDL
MODEL        8
REMARK 921   NORMALIZED FREE ENERGY PREDICTED BY IDOCK:   -6.58 KCAL/MOL
REMARK 922        TOTAL FREE ENERGY PREDICTED BY IDOCK:  -10.12 KCAL/MOL
REMARK 923 INTER-LIGAND FREE ENERGY PREDICTED BY IDOCK:   -9.93 KCAL/MOL
REMARK 924 INTRA-LIGAND FREE ENERGY PREDICTED BY IDOCK:   -0.19 KCAL/MOL
REMARK 927      BINDING AFFINITY PREDICTED BY RF-SCORE:    0.00 PKD
ROOT
HETATM    1  C   UNL     1     -10.959   8.648  70.586  1.00  0.00    -0.240 C  
HETATM    2  N   UNL     1     -11.961   8.114  71.508  1.00  0.00    -0.288 NA 
ENDROOT
BRANCH   2   3
HETATM    3  C   UNL     1     -11.405   7.234  72.459  1.00  0.00    -0.296 A  
HETATM    4  C   UNL     1      -9.974   6.801  74.237  1.00  0.00    -0.323 A  
HETATM    5  C   UNL     1     -10.288   5.455  74.268  1.00  0.00    -0.302 A  
HETATM    6  C   UNL     1     -11.770   5.886  72.435  1.00  0.00    -0.307 A  
HETATM    7  C   UNL     1     -11.207   4.989  73.343  1.00  0.00    -0.391 A  
HETATM    8  N   UNL     1     -10.505   7.685  73.361  1.00  0.00    -0.345 NA 
ENDBRANCH   2   3
BRANCH   2   9
HETATM    9  C   UNL     1     -12.851   9.135  72.100  1.00  0.00    -0.412 C  
BRANCH   9  10
HETATM   10  C   UNL     1     -13.145  10.281  71.120  1.00  0.00    -0.390 C  
BRANCH  10  11
HETATM   11  O   UNL     1     -12.968  11.568  71.727  1.00  0.00    -0.446 OA 
BRANCH  11  12
HETATM   12  C   UNL     1     -12.493  12.546  70.885  1.00  0.00    -0.269 A  
HETATM   13  C   UNL     1     -12.235  14.826  70.100  1.00  0.00    -0.391 A  
HETATM   14  C   UNL     1     -12.694  13.915  71.053  1.00  0.00    -0.428 A  
HETATM   15  C   UNL     1     -11.548  14.386  68.963  1.00  0.00    -0.330 A  
HETATM   16  C   UNL     1     -11.296  13.014  68.822  1.00  0.00    -0.332 A  
HETATM   17  C   UNL     1     -11.766  12.100  69.774  1.00  0.00    -0.381 A  
BRANCH  15  18
HETATM   18  C   UNL     1     -11.173  15.369  67.885  1.00  0.00    -0.329 C  
BRANCH  18  19
HETATM   19  C   UNL     1     -11.007  14.846  66.462  1.00  0.00    -0.327 C  
HETATM   20  S   UNL     1     -12.263  13.682  65.839  1.00  0.00    -0.469 SA 
HETATM   21  C   UNL     1     -12.112  14.300  64.211  1.00  0.00    -0.441 C  
HETATM   22  N   UNL     1     -11.462  15.489  64.224  1.00  0.00    -0.737 N  
HETATM   23  O   UNL     1     -12.522  13.721  63.220  1.00  0.00    -0.819 OA 
HETATM   24  C   UNL     1     -10.906  15.915  65.395  1.00  0.00    -0.349 C  
HETATM   25  H   UNL     1     -11.391  16.052  63.377  1.00  0.00     0.000 HD 
HETATM   26  O   UNL     1     -10.317  16.982  65.513  1.00  0.00    -0.585 OA 
ENDBRANCH  18  19
ENDBRANCH  15  18
ENDBRANCH  11  12
ENDBRANCH  10  11
ENDBRANCH   9  10
ENDBRANCH   2   9
TORSDOF 7
ENDMDL
MODEL        9
REMARK 921   NORMALIZED FREE ENERGY PREDICTED BY IDOCK:   -6.56 KCAL/MOL
REMARK 922        TOTAL FREE ENERGY PREDICTED BY IDOCK:  -10.11 KCAL/MOL
REMARK 923 INTER-LIGAND FREE ENERGY PREDICTED BY IDOCK:   -8.36 KCAL/MOL
REMARK 924 INTRA-LIGAND FREE ENERGY PREDICTED BY IDOCK:   -1.74 KCAL/MOL
REMARK 927      BINDING AFFINITY PREDICTED BY RF-SCORE:    0.00 PKD
ROOT
HETATM    1  C   UNL     1     -12.482  11.748  63.281  1.00  0.00    -0.290 C  
HETATM    2  N   UNL     1     -11.317  12.618  63.442  1.00  0.00    -0.466 NA 
ENDROOT
BRANCH   2   3
HETATM    3  C   UNL     1     -11.365  13.368  64.636  1.00  0.00    -0.350 A  
HETATM    4  C   UNL     1     -10.537  15.035  66.024  1.00  0.00    -0.322 A  
HETATM    5  C   UNL     1     -11.457  14.774  67.023  1.00  0.00    -0.362 A  
HETATM    6  C   UNL     1     -12.323  13.051  65.601  1.00  0.00    -0.504 A  
HETATM    7  C   UNL     1     -12.369  13.756  66.804  1.00  0.00    -0.365 A  
HETATM    8  N   UNL     1     -10.473  14.360  64.854  1.00  0.00    -0.434 NA 
ENDBRANCH   2   3
BRANCH   2   9
HETATM    9  C   UNL     1     -10.020  11.947  63.219  1.00  0.00    -0.380 C  
BRANCH   9  10
HETATM   10  C   UNL     1      -9.869  10.682  64.077  1.00  0.00    -0.338 C  
BRANCH  10  11
HETATM   11  O   UNL     1      -8.965  10.879  65.173  1.00  0.00    -0.197 OA 
BRANCH  11  12
HETATM   12  C   UNL     1      -9.556  10.913  66.414  1.00  0.00    -0.197 A  
HETATM   13  C   UNL     1      -9.853  11.728  68.678  1.00  0.00    -0.153 A  
HETATM   14  C   UNL     1      -9.249  11.823  67.424  1.00  0.00    -0.174 A  
HETATM   15  C   UNL     1     -10.791  10.726  68.945  1.00  0.00    -0.269 A  
HETATM   16  C   UNL     1     -11.143   9.844  67.913  1.00  0.00    -0.216 A  
HETATM   17  C   UNL     1     -10.529   9.935  66.657  1.00  0.00    -0.239 A  
BRANCH  15  18
HETATM   18  C   UNL     1     -11.337  10.559  70.340  1.00  0.00    -0.411 C  
BRANCH  18  19
HETATM   19  C   UNL     1     -11.372   9.154  70.935  1.00  0.00    -0.295 C  
HETATM   20  S   UNL     1      -9.973   8.646  71.985  1.00  0.00    -0.319 SA 
HETATM   21  C   UNL     1     -11.010   7.660  72.989  1.00  0.00    -0.400 C  
HETATM   22  N   UNL     1     -12.308   7.981  72.772  1.00  0.00    -0.610 N  
HETATM   23  O   UNL     1     -10.605   6.801  73.753  1.00  0.00    -0.337 OA 
HETATM   24  C   UNL     1     -12.607   8.837  71.751  1.00  0.00    -0.356 C  
HETATM   25  H   UNL     1     -13.046   7.591  73.358  1.00  0.00     0.000 HD 
HETATM   26  O   UNL     1     -13.745   9.203  71.488  1.00  0.00    -0.378 OA 
ENDBRANCH  18  19
ENDBRANCH  15  18
ENDBRANCH  11  12
ENDBRANCH  10  11
ENDBRANCH   9  10
ENDBRANCH   2   9
TORSDOF 7
ENDMDL
MODEL       10
REMARK 921   NORMALIZED FREE ENERGY PREDICTED BY IDOCK:   -6.56 KCAL/MOL
REMARK 922        TOTAL FREE ENERGY PREDICTED BY IDOCK:  -10.10 KCAL/MOL
REMARK 923 INTER-LIGAND FREE ENERGY PREDICTED BY IDOCK:   -9.48 KCAL/MOL
REMARK 924 INTRA-LIGAND FREE ENERGY PREDICTED BY IDOCK:   -0.62 KCAL/MOL
REMARK 927      BINDING AFFINITY PREDICTED BY RF-SCORE:    0.00 PKD
ROOT
HETATM    1  C   UNL     1     -10.827   7.602  72.837  1.00  0.00    -0.389 C  
HETATM    2  N   UNL     1     -11.456   8.389  71.775  1.00  0.00    -0.280 NA 
ENDROOT
BRANCH   2   3
HETATM    3  C   UNL     1     -11.108   7.930  70.487  1.00  0.00    -0.256 A  
HETATM    4  C   UNL     1     -10.147   8.266  68.399  1.00  0.00    -0.201 A  
HETATM    5  C   UNL     1     -10.501   7.010  67.944  1.00  0.00    -0.267 A  
HETATM    6  C   UNL     1     -11.495   6.647  70.093  1.00  0.00    -0.444 A  
HETATM    7  C   UNL     1     -11.193   6.184  68.813  1.00  0.00    -0.307 A  
HETATM    8  N   UNL     1     -10.435   8.735  69.635  1.00  0.00    -0.217 NA 
ENDBRANCH   2   3
BRANCH   2   9
HETATM    9  C   UNL     1     -12.906   8.604  71.953  1.00  0.00    -0.369 C  
BRANCH   9  10
HETATM   10  C   UNL     1     -13.400   9.852  71.207  1.00  0.00    -0.342 C  
BRANCH  10  11
HETATM   11  O   UNL     1     -13.044  11.063  71.888  1.00  0.00    -0.486 OA 
BRANCH  11  12
HETATM   12  C   UNL     1     -12.614  12.083  71.072  1.00  0.00    -0.273 A  
HETATM   13  C   UNL     1     -12.438  14.395  70.363  1.00  0.00    -0.420 A  
HETATM   14  C   UNL     1     -12.853  13.439  71.292  1.00  0.00    -0.407 A  
HETATM   15  C   UNL     1     -11.761  14.016  69.200  1.00  0.00    -0.375 A  
HETATM   16  C   UNL     1     -11.471  12.658  69.006  1.00  0.00    -0.354 A  
HETATM   17  C   UNL     1     -11.896  11.698  69.934  1.00  0.00    -0.434 A  
BRANCH  15  18
HETATM   18  C   UNL     1     -11.435  15.046  68.150  1.00  0.00    -0.355 C  
BRANCH  18  19
HETATM   19  C   UNL     1     -11.212  14.567  66.718  1.00  0.00    -0.334 C  
HETATM   20  S   UNL     1     -12.609  13.760  65.871  1.00  0.00    -0.397 SA 
HETATM   21  C   UNL     1     -12.115  14.404  64.322  1.00  0.00    -0.436 C  
HETATM   22  N   UNL     1     -11.220  15.405  64.499  1.00  0.00    -0.685 N  
HETATM   23  O   UNL     1     -12.515  13.985  63.250  1.00  0.00    -0.795 OA 
HETATM   24  C   UNL     1     -10.736  15.633  65.754  1.00  0.00    -0.341 C  
HETATM   25  H   UNL     1     -10.915  15.976  63.711  1.00  0.00     0.000 HD 
HETATM   26  O   UNL     1      -9.941  16.526  66.020  1.00  0.00    -0.313 OA 
ENDBRANCH  18  19
ENDBRANCH  15  18
ENDBRANCH  11  12
ENDBRANCH  10  11
ENDBRANCH   9  10
ENDBRANCH   2   9
TORSDOF 7
ENDMDL
MODEL       11
REMARK 921   NORMALIZED FREE ENERGY PREDICTED BY IDOCK:   -6.54 KCAL/MOL
REMARK 922        TOTAL FREE ENERGY PREDICTED BY IDOCK:  -10.08 KCAL/MOL
REMARK 923 INTER-LIGAND FREE ENERGY PREDICTED BY IDOCK:   -9.36 KCAL/MOL
REMARK 924 INTRA-LIGAND FREE ENERGY PREDICTED BY IDOCK:   -0.72 KCAL/MOL
REMARK 927      BINDING AFFINITY PREDICTED BY RF-SCORE:    0.00 PKD
ROOT
HETATM    1  C   UNL     1     -10.314   6.745  73.793  1.00  0.00    -0.368 C  
HETATM    2  N   UNL     1     -10.435   7.378  72.480  1.00  0.00    -0.219 NA 
ENDROOT
BRANCH   2   3
HETATM    3  C   UNL     1     -11.765   7.732  72.173  1.00  0.00    -0.320 A  
HETATM    4  C   UNL     1     -13.534   9.237  72.231  1.00  0.00    -0.482 A  
HETATM    5  C   UNL     1     -14.404   8.363  71.607  1.00  0.00    -0.536 A  
HETATM    6  C   UNL     1     -12.589   6.801  71.538  1.00  0.00    -0.371 A  
HETATM    7  C   UNL     1     -13.918   7.116  71.255  1.00  0.00    -0.295 A  
HETATM    8  N   UNL     1     -12.244   8.948  72.519  1.00  0.00    -0.296 NA 
ENDBRANCH   2   3
BRANCH   2   9
HETATM    9  C   UNL     1      -9.463   8.464  72.235  1.00  0.00    -0.297 C  
BRANCH   9  10
HETATM   10  C   UNL     1      -9.074   8.565  70.753  1.00  0.00    -0.165 C  
BRANCH  10  11
HETATM   11  O   UNL     1      -8.742   9.908  70.373  1.00  0.00    -0.138 OA 
BRANCH  11  12
HETATM   12  C   UNL     1      -9.361  10.358  69.231  1.00  0.00    -0.187 A  
HETATM   13  C   UNL     1     -11.243  10.654  67.730  1.00  0.00    -0.383 A  
HETATM   14  C   UNL     1     -10.722  10.230  68.954  1.00  0.00    -0.256 A  
HETATM   15  C   UNL     1     -10.414  11.230  66.761  1.00  0.00    -0.291 A  
HETATM   16  C   UNL     1      -9.057  11.410  67.061  1.00  0.00    -0.169 A  
HETATM   17  C   UNL     1      -8.533  10.976  68.286  1.00  0.00    -0.138 A  
BRANCH  15  18
HETATM   18  C   UNL     1     -10.969  11.563  65.400  1.00  0.00    -0.288 C  
BRANCH  18  19
HETATM   19  C   UNL     1     -11.687  12.897  65.224  1.00  0.00    -0.364 C  
HETATM   20  S   UNL     1     -10.723  14.418  65.502  1.00  0.00    -0.360 SA 
HETATM   21  C   UNL     1     -11.628  15.283  64.282  1.00  0.00    -0.197 C  
HETATM   22  N   UNL     1     -12.318  14.410  63.509  1.00  0.00    -1.114 N  
HETATM   23  O   UNL     1     -11.638  16.497  64.171  1.00  0.00    -1.052 OA 
HETATM   24  C   UNL     1     -12.346  13.095  63.876  1.00  0.00    -0.365 C  
HETATM   25  H   UNL     1     -12.806  14.728  62.672  1.00  0.00     0.000 HD 
HETATM   26  O   UNL     1     -12.924  12.228  63.234  1.00  0.00    -0.707 OA 
ENDBRANCH  18  19
ENDBRANCH  15  18
ENDBRANCH  11  12
ENDBRANCH  10  11
ENDBRANCH   9  10
ENDBRANCH   2   9
TORSDOF 7
ENDMDL
MODEL       12
REMARK 921   NORMALIZED FREE ENERGY PREDICTED BY IDOCK:   -6.52 KCAL/MOL
REMARK 922        TOTAL FREE ENERGY PREDICTED BY IDOCK:  -10.05 KCAL/MOL
REMARK 923 INTER-LIGAND FREE ENERGY PREDICTED BY IDOCK:   -9.42 KCAL/MOL
REMARK 924 INTRA-LIGAND FREE ENERGY PREDICTED BY IDOCK:   -0.63 KCAL/MOL
REMARK 927      BINDING AFFINITY PREDICTED BY RF-SCORE:    0.00 PKD
ROOT
HETATM    1  C   UNL     1      -9.277   7.467  71.474  1.00  0.00    -0.140 C  
HETATM    2  N   UNL     1     -10.612   6.888  71.631  1.00  0.00    -0.209 NA 
ENDROOT
BRANCH   2   3
HETATM    3  C   UNL     1     -10.569   5.542  72.051  1.00  0.00    -0.228 A  
HETATM    4  C   UNL     1     -11.066   3.877  73.593  1.00  0.00    -0.240 A  
HETATM    5  C   UNL     1     -10.408   2.899  72.870  1.00  0.00    -0.240 A  
HETATM    6  C   UNL     1      -9.889   4.605  71.271  1.00  0.00    -0.261 A  
HETATM    7  C   UNL     1      -9.804   3.276  71.683  1.00  0.00    -0.220 A  
HETATM    8  N   UNL     1     -11.155   5.172  73.212  1.00  0.00    -0.312 NA 
ENDBRANCH   2   3
BRANCH   2   9
HETATM    9  C   UNL     1     -11.550   7.721  72.411  1.00  0.00    -0.356 C  
BRANCH   9  10
HETATM   10  C   UNL     1     -12.399   8.630  71.511  1.00  0.00    -0.324 C  
BRANCH  10  11
HETATM   11  O   UNL     1     -12.001  10.005  71.605  1.00  0.00    -0.376 OA 
BRANCH  11  12
HETATM   12  C   UNL     1     -11.690  10.603  70.406  1.00  0.00    -0.353 A  
HETATM   13  C   UNL     1     -11.715  12.406  68.786  1.00  0.00    -0.379 A  
HETATM   14  C   UNL     1     -12.009  11.915  70.059  1.00  0.00    -0.409 A  
HETATM   15  C   UNL     1     -11.082  11.598  67.836  1.00  0.00    -0.306 A  
HETATM   16  C   UNL     1     -10.711  10.297  68.203  1.00  0.00    -0.287 A  
HETATM   17  C   UNL     1     -11.015   9.801  69.478  1.00  0.00    -0.256 A  
BRANCH  15  18
HETATM   18  C   UNL     1     -10.889  12.102  66.429  1.00  0.00    -0.306 C  
BRANCH  18  19
HETATM   19  C   UNL     1     -11.538  13.429  66.046  1.00  0.00    -0.344 C  
HETATM   20  S   UNL     1     -10.444  14.868  65.816  1.00  0.00    -0.356 SA 
HETATM   21  C   UNL     1     -11.476  15.525  64.567  1.00  0.00    -0.308 C  
HETATM   22  N   UNL     1     -12.338  14.576  64.129  1.00  0.00    -0.858 N  
HETATM   23  O   UNL     1     -11.425  16.678  64.175  1.00  0.00    -1.131 OA 
HETATM   24  C   UNL     1     -12.392  13.387  64.797  1.00  0.00    -0.396 C  
HETATM   25  H   UNL     1     -12.933  14.746  63.319  1.00  0.00     0.000 HD 
HETATM   26  O   UNL     1     -13.122  12.460  64.468  1.00  0.00    -0.823 OA 
ENDBRANCH  18  19
ENDBRANCH  15  18
ENDBRANCH  11  12
ENDBRANCH  10  11
ENDBRANCH   9  10
ENDBRANCH   2   9
TORSDOF 7
ENDMDL
MODEL       13
REMARK 921   NORMALIZED FREE ENERGY PREDICTED BY IDOCK:   -6.48 KCAL/MOL
REMARK 922        TOTAL FREE ENERGY PREDICTED BY IDOCK:   -9.99 KCAL/MOL
REMARK 923 INTER-LIGAND FREE ENERGY PREDICTED BY IDOCK:   -8.14 KCAL/MOL
REMARK 924 INTRA-LIGAND FREE ENERGY PREDICTED BY IDOCK:   -1.85 KCAL/MOL
REMARK 927      BINDING AFFINITY PREDICTED BY RF-SCORE:    0.00 PKD
ROOT
HETATM    1  C   UNL     1     -11.727  11.501  68.267  1.00  0.00    -0.301 C  
HETATM    2  N   UNL     1     -11.165  11.236  66.942  1.00  0.00    -0.353 NA 
ENDROOT
BRANCH   2   3
HETATM    3  C   UNL     1     -11.541  12.209  65.992  1.00  0.00    -0.358 A  
HETATM    4  C   UNL     1     -11.560  13.029  63.819  1.00  0.00    -0.457 A  
HETATM    5  C   UNL     1     -12.247  14.175  64.172  1.00  0.00    -0.423 A  
HETATM    6  C   UNL     1     -12.238  13.342  66.417  1.00  0.00    -0.419 A  
HETATM    7  C   UNL     1     -12.591  14.333  65.503  1.00  0.00    -0.429 A  
HETATM    8  N   UNL     1     -11.204  12.059  64.692  1.00  0.00    -0.319 NA 
ENDBRANCH   2   3
BRANCH   2   9
HETATM    9  C   UNL     1      -9.717  10.941  66.942  1.00  0.00    -0.181 C  
BRANCH   9  10
HETATM   10  C   UNL     1      -8.952  11.809  67.952  1.00  0.00    -0.180 C  
BRANCH  10  11
HETATM   11  O   UNL     1      -8.296  12.918  67.321  1.00  0.00    -0.178 OA 
BRANCH  11  12
HETATM   12  C   UNL     1      -8.893  14.139  67.528  1.00  0.00    -0.201 A  
HETATM   13  C   UNL     1     -10.123  15.787  68.813  1.00  0.00    -0.215 A  
HETATM   14  C   UNL     1      -9.473  14.555  68.725  1.00  0.00    -0.183 A  
HETATM   15  C   UNL     1     -10.193  16.638  67.705  1.00  0.00    -0.285 A  
HETATM   16  C   UNL     1      -9.562  16.245  66.516  1.00  0.00    -0.286 A  
HETATM   17  C   UNL     1      -8.918  15.004  66.427  1.00  0.00    -0.286 A  
BRANCH  15  18
HETATM   18  C   UNL     1     -11.007  17.904  67.781  1.00  0.00    -0.097 C  
BRANCH  18  19
HETATM   19  C   UNL     1     -10.276  19.237  67.644  1.00  0.00    -0.407 C  
HETATM   20  S   UNL     1      -8.692  19.425  68.524  1.00  0.00    -0.351 SA 
HETATM   21  C   UNL     1      -8.052  20.461  67.269  1.00  0.00    -0.338 C  
HETATM   22  N   UNL     1      -8.815  20.364  66.153  1.00  0.00    -0.583 N  
HETATM   23  O   UNL     1      -7.073  21.173  67.405  1.00  0.00    -0.434 OA 
HETATM   24  C   UNL     1      -9.983  19.662  66.221  1.00  0.00    -0.466 C  
HETATM   25  H   UNL     1      -8.521  20.806  65.283  1.00  0.00     0.000 HD 
HETATM   26  O   UNL     1     -10.730  19.501  65.264  1.00  0.00    -0.408 OA 
ENDBRANCH  18  19
ENDBRANCH  15  18
ENDBRANCH  11  12
ENDBRANCH  10  11
ENDBRANCH   9  10
ENDBRANCH   2   9
TORSDOF 7
ENDMDL
MODEL       14
REMARK 921   NORMALIZED FREE ENERGY PREDICTED BY IDOCK:   -6.46 KCAL/MOL
REMARK 922        TOTAL FREE ENERGY PREDICTED BY IDOCK:   -9.96 KCAL/MOL
REMARK 923 INTER-LIGAND FREE ENERGY PREDICTED BY IDOCK:   -9.16 KCAL/MOL
REMARK 924 INTRA-LIGAND FREE ENERGY PREDICTED BY IDOCK:   -0.79 KCAL/MOL
REMARK 927      BINDING AFFINITY PREDICTED BY RF-SCORE:    0.00 PKD
ROOT
HETATM    1  C   UNL     1     -10.237   5.876  72.662  1.00  0.00    -0.183 C  
HETATM    2  N   UNL     1     -10.587   6.630  71.458  1.00  0.00    -0.220 NA 
ENDROOT
BRANCH   2   3
HETATM    3  C   UNL     1     -11.735   7.429  71.637  1.00  0.00    -0.279 A  
HETATM    4  C   UNL     1     -14.041   7.673  71.787  1.00  0.00    -0.398 A  
HETATM    5  C   UNL     1     -13.968   9.046  71.931  1.00  0.00    -0.445 A  
HETATM    6  C   UNL     1     -11.589   8.810  71.781  1.00  0.00    -0.416 A  
HETATM    7  C   UNL     1     -12.711   9.625  71.925  1.00  0.00    -0.499 A  
HETATM    8  N   UNL     1     -12.964   6.866  71.640  1.00  0.00    -0.356 NA 
ENDBRANCH   2   3
BRANCH   2   9
HETATM    9  C   UNL     1      -9.456   7.352  70.839  1.00  0.00    -0.165 C  
BRANCH   9  10
HETATM   10  C   UNL     1      -9.366   7.096  69.328  1.00  0.00    -0.146 C  
BRANCH  10  11
HETATM   11  O   UNL     1     -10.588   7.423  68.652  1.00  0.00    -0.198 OA 
BRANCH  11  12
HETATM   12  C   UNL     1     -10.492   8.452  67.745  1.00  0.00    -0.220 A  
HETATM   13  C   UNL     1      -9.820   9.470  65.649  1.00  0.00    -0.343 A  
HETATM   14  C   UNL     1      -9.940   8.347  66.469  1.00  0.00    -0.335 A  
HETATM   15  C   UNL     1     -10.264  10.723  66.083  1.00  0.00    -0.308 A  
HETATM   16  C   UNL     1     -10.871  10.819  67.343  1.00  0.00    -0.345 A  
HETATM   17  C   UNL     1     -10.983   9.693  68.170  1.00  0.00    -0.185 A  
BRANCH  15  18
HETATM   18  C   UNL     1     -10.011  11.944  65.238  1.00  0.00    -0.280 C  
BRANCH  18  19
HETATM   19  C   UNL     1     -11.117  12.990  65.137  1.00  0.00    -0.292 C  
HETATM   20  S   UNL     1     -10.641  14.741  65.300  1.00  0.00    -0.425 SA 
HETATM   21  C   UNL     1     -11.889  15.244  64.183  1.00  0.00    -0.124 C  
HETATM   22  N   UNL     1     -12.356  14.174  63.496  1.00  0.00    -1.127 N  
HETATM   23  O   UNL     1     -12.281  16.392  64.069  1.00  0.00    -0.846 OA 
HETATM   24  C   UNL     1     -11.942  12.928  63.869  1.00  0.00    -0.480 C  
HETATM   25  H   UNL     1     -13.002  14.297  62.716  1.00  0.00     0.000 HD 
HETATM   26  O   UNL     1     -12.290  11.902  63.299  1.00  0.00    -0.545 OA 
ENDBRANCH  18  19
ENDBRANCH  15  18
ENDBRANCH  11  12
ENDBRANCH  10  11
ENDBRANCH   9  10
ENDBRANCH   2   9
TORSDOF 7
ENDMDL
MODEL       15
REMARK 921   NORMALIZED FREE ENERGY PREDICTED BY IDOCK:   -6.45 KCAL/MOL
REMARK 922        TOTAL FREE ENERGY PREDICTED BY IDOCK:   -9.94 KCAL/MOL
REMARK 923 INTER-LIGAND FREE ENERGY PREDICTED BY IDOCK:   -9.34 KCAL/MOL
REMARK 924 INTRA-LIGAND FREE ENERGY PREDICTED BY IDOCK:   -0.60 KCAL/MOL
REMARK 927      BINDING AFFINITY PREDICTED BY RF-SCORE:    0.00 PKD
ROOT
HETATM    1  C   UNL     1     -10.611  15.494  65.313  1.00  0.00    -0.424 C  
HETATM    2  N   UNL     1      -9.504  15.980  66.137  1.00  0.00    -0.309 NA 
ENDROOT
BRANCH   2   3
HETATM    3  C   UNL     1      -9.567  17.371  66.358  1.00  0.00    -0.276 A  
HETATM    4  C   UNL     1      -8.669  19.504  66.158  1.00  0.00    -0.311 A  
HETATM    5  C   UNL     1      -9.698  20.092  66.869  1.00  0.00    -0.582 A  
HETATM    6  C   UNL     1     -10.638  17.899  67.082  1.00  0.00    -0.315 A  
HETATM    7  C   UNL     1     -10.704  19.267  67.343  1.00  0.00    -0.594 A  
HETATM    8  N   UNL     1      -8.585  18.179  65.900  1.00  0.00    -0.490 NA 
ENDBRANCH   2   3
BRANCH   2   9
HETATM    9  C   UNL     1      -9.272  15.196  67.368  1.00  0.00    -0.193 C  
BRANCH   9  10
HETATM   10  C   UNL     1     -10.320  14.089  67.553  1.00  0.00    -0.245 C  
BRANCH  10  11
HETATM   11  O   UNL     1     -11.377  14.490  68.436  1.00  0.00    -0.263 OA 
BRANCH  11  12
HETATM   12  C   UNL     1     -11.819  13.511  69.294  1.00  0.00    -0.341 A  
HETATM   13  C   UNL     1     -12.743  12.675  71.375  1.00  0.00    -0.347 A  
HETATM   14  C   UNL     1     -12.395  13.741  70.543  1.00  0.00    -0.429 A  
HETATM   15  C   UNL     1     -12.536  11.353  70.967  1.00  0.00    -0.487 A  
HETATM   16  C   UNL     1     -12.010  11.120  69.689  1.00  0.00    -0.429 A  
HETATM   17  C   UNL     1     -11.651  12.191  68.859  1.00  0.00    -0.377 A  
BRANCH  15  18
HETATM   18  C   UNL     1     -12.799  10.221  71.926  1.00  0.00    -0.528 C  
BRANCH  18  19
HETATM   19  C   UNL     1     -12.237   8.844  71.584  1.00  0.00    -0.343 C  
HETATM   20  S   UNL     1     -10.774   8.276  72.508  1.00  0.00    -0.303 SA 
HETATM   21  C   UNL     1     -11.303   6.612  72.436  1.00  0.00    -0.272 C  
HETATM   22  N   UNL     1     -12.609   6.554  72.080  1.00  0.00    -0.508 N  
HETATM   23  O   UNL     1     -10.581   5.655  72.658  1.00  0.00    -0.202 OA 
HETATM   24  C   UNL     1     -13.229   7.705  71.687  1.00  0.00    -0.352 C  
HETATM   25  H   UNL     1     -13.117   5.671  72.105  1.00  0.00     0.000 HD 
HETATM   26  O   UNL     1     -14.409   7.761  71.367  1.00  0.00    -0.418 OA 
ENDBRANCH  18  19
ENDBRANCH  15  18
ENDBRANCH  11  12
ENDBRANCH  10  11
ENDBRANCH   9  10
ENDBRANCH   2   9
TORSDOF 7
ENDMDL
MODEL       16
REMARK 921   NORMALIZED FREE ENERGY PREDICTED BY IDOCK:   -6.44 KCAL/MOL
REMARK 922        TOTAL FREE ENERGY PREDICTED BY IDOCK:   -9.93 KCAL/MOL
REMARK 923 INTER-LIGAND FREE ENERGY PREDICTED BY IDOCK:   -8.99 KCAL/MOL
REMARK 924 INTRA-LIGAND FREE ENERGY PREDICTED BY IDOCK:   -0.93 KCAL/MOL
REMARK 927      BINDING AFFINITY PREDICTED BY RF-SCORE:    0.00 PKD
ROOT
HETATM    1  C   UNL     1     -10.588  16.666  65.234  1.00  0.00    -0.205 C  
HETATM    2  N   UNL     1     -10.831  15.544  66.141  1.00  0.00    -0.317 NA 
ENDROOT
BRANCH   2   3
HETATM    3  C   UNL     1     -11.115  14.346  65.452  1.00  0.00    -0.331 A  
HETATM    4  C   UNL     1     -10.453  12.551  64.135  1.00  0.00    -0.403 A  
HETATM    5  C   UNL     1     -11.731  12.031  64.059  1.00  0.00    -0.498 A  
HETATM    6  C   UNL     1     -12.429  13.875  65.418  1.00  0.00    -0.528 A  
HETATM    7  C   UNL     1     -12.741  12.713  64.715  1.00  0.00    -0.460 A  
HETATM    8  N   UNL     1     -10.131  13.680  64.807  1.00  0.00    -0.312 NA 
ENDBRANCH   2   3
BRANCH   2   9
HETATM    9  C   UNL     1      -9.815  15.387  67.202  1.00  0.00    -0.221 C  
BRANCH   9  10
HETATM   10  C   UNL     1     -10.422  15.529  68.606  1.00  0.00    -0.237 C  
BRANCH  10  11
HETATM   11  O   UNL     1     -11.770  15.041  68.662  1.00  0.00    -0.329 OA 
BRANCH  11  12
HETATM   12  C   UNL     1     -11.932  13.863  69.353  1.00  0.00    -0.354 A  
HETATM   13  C   UNL     1     -11.891  11.453  69.613  1.00  0.00    -0.431 A  
HETATM   14  C   UNL     1     -11.619  12.597  68.861  1.00  0.00    -0.363 A  
HETATM   15  C   UNL     1     -12.470  11.553  70.883  1.00  0.00    -0.464 A  
HETATM   16  C   UNL     1     -12.733  12.828  71.401  1.00  0.00    -0.353 A  
HETATM   17  C   UNL     1     -12.468  13.976  70.641  1.00  0.00    -0.435 A  
BRANCH  15  18
HETATM   18  C   UNL     1     -12.873  10.305  71.625  1.00  0.00    -0.568 C  
BRANCH  18  19
HETATM   19  C   UNL     1     -12.231   8.984  71.212  1.00  0.00    -0.312 C  
HETATM   20  S   UNL     1     -10.554   8.631  71.832  1.00  0.00    -0.356 SA 
HETATM   21  C   UNL     1     -10.884   6.916  71.914  1.00  0.00    -0.229 C  
HETATM   22  N   UNL     1     -12.218   6.695  71.835  1.00  0.00    -0.373 N  
HETATM   23  O   UNL     1     -10.023   6.059  72.010  1.00  0.00    -0.169 OA 
HETATM   24  C   UNL     1     -13.038   7.748  71.547  1.00  0.00    -0.320 C  
HETATM   25  H   UNL     1     -12.602   5.762  71.988  1.00  0.00     0.000 HD 
HETATM   26  O   UNL     1     -14.256   7.654  71.474  1.00  0.00    -0.426 OA 
ENDBRANCH  18  19
ENDBRANCH  15  18
ENDBRANCH  11  12
ENDBRANCH  10  11
ENDBRANCH   9  10
ENDBRANCH   2   9
TORSDOF 7
ENDMDL
MODEL       17
REMARK 921   NORMALIZED FREE ENERGY PREDICTED BY IDOCK:   -6.41 KCAL/MOL
REMARK 922        TOTAL FREE ENERGY PREDICTED BY IDOCK:   -9.88 KCAL/MOL
REMARK 923 INTER-LIGAND FREE ENERGY PREDICTED BY IDOCK:   -9.22 KCAL/MOL
REMARK 924 INTRA-LIGAND FREE ENERGY PREDICTED BY IDOCK:   -0.66 KCAL/MOL
REMARK 927      BINDING AFFINITY PREDICTED BY RF-SCORE:    0.00 PKD
ROOT
HETATM    1  C   UNL     1     -12.033  14.517  64.385  1.00  0.00    -0.449 C  
HETATM    2  N   UNL     1     -11.632  13.560  65.417  1.00  0.00    -0.310 NA 
ENDROOT
BRANCH   2   3
HETATM    3  C   UNL     1     -10.928  12.459  64.887  1.00  0.00    -0.302 A  
HETATM    4  C   UNL     1      -9.891  11.371  63.117  1.00  0.00    -0.388 A  
HETATM    5  C   UNL     1      -9.601  10.248  63.870  1.00  0.00    -0.354 A  
HETATM    6  C   UNL     1     -10.666  11.359  65.706  1.00  0.00    -0.309 A  
HETATM    7  C   UNL     1     -10.002  10.245  65.196  1.00  0.00    -0.395 A  
HETATM    8  N   UNL     1     -10.539  12.458  63.593  1.00  0.00    -0.445 NA 
ENDBRANCH   2   3
BRANCH   2   9
HETATM    9  C   UNL     1     -10.976  14.170  66.593  1.00  0.00    -0.303 C  
BRANCH   9  10
HETATM   10  C   UNL     1     -11.987  14.545  67.687  1.00  0.00    -0.320 C  
BRANCH  10  11
HETATM   11  O   UNL     1     -11.425  14.428  69.002  1.00  0.00    -0.250 OA 
BRANCH  11  12
HETATM   12  C   UNL     1     -11.914  13.384  69.751  1.00  0.00    -0.330 A  
HETATM   13  C   UNL     1     -12.933  12.383  71.710  1.00  0.00    -0.422 A  
HETATM   14  C   UNL     1     -12.537  13.512  70.992  1.00  0.00    -0.438 A  
HETATM   15  C   UNL     1     -12.728  11.099  71.195  1.00  0.00    -0.510 A  
HETATM   16  C   UNL     1     -12.153  10.972  69.922  1.00  0.00    -0.435 A  
HETATM   17  C   UNL     1     -11.747  12.106  69.206  1.00  0.00    -0.386 A  
BRANCH  15  18
HETATM   18  C   UNL     1     -13.045   9.891  72.038  1.00  0.00    -0.545 C  
BRANCH  18  19
HETATM   19  C   UNL     1     -12.349   8.576  71.699  1.00  0.00    -0.326 C  
HETATM   20  S   UNL     1     -10.853   8.144  72.645  1.00  0.00    -0.316 SA 
HETATM   21  C   UNL     1     -11.221   6.437  72.556  1.00  0.00    -0.272 C  
HETATM   22  N   UNL     1     -12.509   6.258  72.179  1.00  0.00    -0.480 N  
HETATM   23  O   UNL     1     -10.415   5.552  72.786  1.00  0.00    -0.192 OA 
HETATM   24  C   UNL     1     -13.229   7.347  71.781  1.00  0.00    -0.318 C  
HETATM   25  H   UNL     1     -12.932   5.330  72.191  1.00  0.00     0.000 HD 
HETATM   26  O   UNL     1     -14.405   7.292  71.442  1.00  0.00    -0.431 OA 
ENDBRANCH  18  19
ENDBRANCH  15  18
ENDBRANCH  11  12
ENDBRANCH  10  11
ENDBRANCH   9  10
ENDBRANCH   2   9
TORSDOF 7
ENDMDL
MODEL       18
REMARK 921   NORMALIZED FREE ENERGY PREDICTED BY IDOCK:   -6.25 KCAL/MOL
REMARK 922        TOTAL FREE ENERGY PREDICTED BY IDOCK:   -9.66 KCAL/MOL
REMARK 923 INTER-LIGAND FREE ENERGY PREDICTED BY IDOCK:   -9.10 KCAL/MOL
REMARK 924 INTRA-LIGAND FREE ENERGY PREDICTED BY IDOCK:   -0.56 KCAL/MOL
REMARK 927      BINDING AFFINITY PREDICTED BY RF-SCORE:    0.00 PKD
ROOT
HETATM    1  C   UNL     1     -10.435  19.530  66.046  1.00  0.00    -0.516 C  
HETATM    2  N   UNL     1      -9.187  18.772  65.955  1.00  0.00    -0.469 NA 
ENDROOT
BRANCH   2   3
HETATM    3  C   UNL     1      -8.047  19.590  66.101  1.00  0.00    -0.333 A  
HETATM    4  C   UNL     1      -6.066  20.481  65.281  1.00  0.00    -0.244 A  
HETATM    5  C   UNL     1      -5.790  21.158  66.454  1.00  0.00    -0.324 A  
HETATM    6  C   UNL     1      -7.832  20.248  67.314  1.00  0.00    -0.362 A  
HETATM    7  C   UNL     1      -6.695  21.035  67.494  1.00  0.00    -0.428 A  
HETATM    8  N   UNL     1      -7.159  19.709  65.089  1.00  0.00    -0.383 NA 
ENDBRANCH   2   3
BRANCH   2   9
HETATM    9  C   UNL     1      -9.151  17.554  66.792  1.00  0.00    -0.262 C  
BRANCH   9  10
HETATM   10  C   UNL     1      -8.808  16.302  65.973  1.00  0.00    -0.273 C  
BRANCH  10  11
HETATM   11  O   UNL     1      -9.980  15.662  65.450  1.00  0.00    -0.331 OA 
BRANCH  11  12
HETATM   12  C   UNL     1     -10.489  14.653  66.234  1.00  0.00    -0.298 A  
HETATM   13  C   UNL     1     -12.251  13.238  67.112  1.00  0.00    -0.281 A  
HETATM   14  C   UNL     1     -11.815  14.221  66.223  1.00  0.00    -0.420 A  
HETATM   15  C   UNL     1     -11.366  12.654  68.024  1.00  0.00    -0.337 A  
HETATM   16  C   UNL     1     -10.020  13.047  67.997  1.00  0.00    -0.233 A  
HETATM   17  C   UNL     1      -9.585  14.041  67.111  1.00  0.00    -0.245 A  
BRANCH  15  18
HETATM   18  C   UNL     1     -11.882  11.689  69.060  1.00  0.00    -0.391 C  
BRANCH  18  19
HETATM   19  C   UNL     1     -11.997  12.176  70.501  1.00  0.00    -0.216 C  
HETATM   20  S   UNL     1     -12.519  13.901  70.770  1.00  0.00    -0.375 SA 
HETATM   21  C   UNL     1     -13.354  13.479  72.246  1.00  0.00    -0.531 C  
HETATM   22  N   UNL     1     -13.523  12.137  72.317  1.00  0.00    -0.556 N  
HETATM   23  O   UNL     1     -13.706  14.288  73.087  1.00  0.00    -0.534 OA 
HETATM   24  C   UNL     1     -12.910  11.352  71.384  1.00  0.00    -0.397 C  
HETATM   25  H   UNL     1     -14.096  11.722  73.051  1.00  0.00     0.000 HD 
HETATM   26  O   UNL     1     -13.018  10.133  71.351  1.00  0.00    -0.364 OA 
ENDBRANCH  18  19
ENDBRANCH  15  18
ENDBRANCH  11  12
ENDBRANCH  10  11
ENDBRANCH   9  10
ENDBRANCH   2   9
TORSDOF 7
ENDMDL
MODEL       19
REMARK 921   NORMALIZED FREE ENERGY PREDICTED BY IDOCK:   -6.25 KCAL/MOL
REMARK 922        TOTAL FREE ENERGY PREDICTED BY IDOCK:   -9.66 KCAL/MOL
REMARK 923 INTER-LIGAND FREE ENERGY PREDICTED BY IDOCK:   -8.96 KCAL/MOL
REMARK 924 INTRA-LIGAND FREE ENERGY PREDICTED BY IDOCK:   -0.69 KCAL/MOL
REMARK 927      BINDING AFFINITY PREDICTED BY RF-SCORE:    0.00 PKD
ROOT
HETATM    1  C   UNL     1     -11.037   6.171  70.940  1.00  0.00    -0.307 C  
HETATM    2  N   UNL     1     -10.793   6.781  72.248  1.00  0.00    -0.224 NA 
ENDROOT
BRANCH   2   3
HETATM    3  C   UNL     1      -9.427   7.055  72.468  1.00  0.00    -0.142 A  
HETATM    4  C   UNL     1      -7.733   8.156  73.614  1.00  0.00    -0.172 A  
HETATM    5  C   UNL     1      -6.736   7.615  72.824  1.00  0.00    -0.068 A  
HETATM    6  C   UNL     1      -8.472   6.471  71.634  1.00  0.00    -0.124 A  
HETATM    7  C   UNL     1      -7.118   6.754  71.810  1.00  0.00    -0.075 A  
HETATM    8  N   UNL     1      -9.052   7.898  73.455  1.00  0.00    -0.277 NA 
ENDBRANCH   2   3
BRANCH   2   9
HETATM    9  C   UNL     1     -11.682   7.917  72.566  1.00  0.00    -0.367 C  
BRANCH   9  10
HETATM   10  C   UNL     1     -12.176   8.634  71.301  1.00  0.00    -0.281 C  
BRANCH  10  11
HETATM   11  O   UNL     1     -11.781  10.013  71.274  1.00  0.00    -0.361 OA 
BRANCH  11  12
HETATM   12  C   UNL     1     -11.591  10.537  70.017  1.00  0.00    -0.313 A  
HETATM   13  C   UNL     1     -11.905  12.174  68.256  1.00  0.00    -0.361 A  
HETATM   14  C   UNL     1     -12.089  11.763  69.577  1.00  0.00    -0.314 A  
HETATM   15  C   UNL     1     -11.205  11.373  67.348  1.00  0.00    -0.370 A  
HETATM   16  C   UNL     1     -10.656  10.166  67.805  1.00  0.00    -0.304 A  
HETATM   17  C   UNL     1     -10.849   9.750  69.129  1.00  0.00    -0.231 A  
BRANCH  15  18
HETATM   18  C   UNL     1     -11.127  11.772  65.897  1.00  0.00    -0.355 C  
BRANCH  18  19
HETATM   19  C   UNL     1     -11.852  13.042  65.462  1.00  0.00    -0.395 C  
HETATM   20  S   UNL     1     -10.977  14.627  65.667  1.00  0.00    -0.352 SA 
HETATM   21  C   UNL     1     -11.733  15.295  64.240  1.00  0.00    -0.215 C  
HETATM   22  N   UNL     1     -12.290  14.305  63.502  1.00  0.00    -1.122 N  
HETATM   23  O   UNL     1     -11.763  16.485  63.976  1.00  0.00    -1.111 OA 
HETATM   24  C   UNL     1     -12.330  13.045  64.026  1.00  0.00    -0.363 C  
HETATM   25  H   UNL     1     -12.669  14.496  62.575  1.00  0.00     0.000 HD 
HETATM   26  O   UNL     1     -12.792  12.081  63.429  1.00  0.00    -0.760 OA 
ENDBRANCH  18  19
ENDBRANCH  15  18
ENDBRANCH  11  12
ENDBRANCH  10  11
ENDBRANCH   9  10
ENDBRANCH   2   9
TORSDOF 7
ENDMDL
MODEL       20
REMARK 921   NORMALIZED FREE ENERGY PREDICTED BY IDOCK:   -6.24 KCAL/MOL
REMARK 922        TOTAL FREE ENERGY PREDICTED BY IDOCK:   -9.65 KCAL/MOL
REMARK 923 INTER-LIGAND FREE ENERGY PREDICTED BY IDOCK:   -7.82 KCAL/MOL
REMARK 924 INTRA-LIGAND FREE ENERGY PREDICTED BY IDOCK:   -1.83 KCAL/MOL
REMARK 927      BINDING AFFINITY PREDICTED BY RF-SCORE:    0.00 PKD
ROOT
HETATM    1  C   UNL     1      -9.063  10.023  63.630  1.00  0.00    -0.268 C  
HETATM    2  N   UNL     1     -10.214  10.737  64.183  1.00  0.00    -0.353 NA 
ENDROOT
BRANCH   2   3
HETATM    3  C   UNL     1     -10.057  11.036  65.552  1.00  0.00    -0.261 A  
HETATM    4  C   UNL     1     -10.621  10.714  67.782  1.00  0.00    -0.236 A  
HETATM    5  C   UNL     1      -9.761  11.701  68.226  1.00  0.00    -0.197 A  
HETATM    6  C   UNL     1      -9.168  12.044  65.931  1.00  0.00    -0.106 A  
HETATM    7  C   UNL     1      -9.020  12.381  67.276  1.00  0.00    -0.190 A  
HETATM    8  N   UNL     1     -10.782  10.376  66.482  1.00  0.00    -0.144 NA 
ENDBRANCH   2   3
BRANCH   2   9
HETATM    9  C   UNL     1     -10.662  11.889  63.374  1.00  0.00    -0.413 C  
BRANCH   9  10
HETATM   10  C   UNL     1     -12.185  12.077  63.432  1.00  0.00    -0.519 C  
BRANCH  10  11
HETATM   11  O   UNL     1     -12.553  13.456  63.581  1.00  0.00    -0.718 OA 
BRANCH  11  12
HETATM   12  C   UNL     1     -12.055  14.071  64.706  1.00  0.00    -0.437 A  
HETATM   13  C   UNL     1     -11.977  14.568  67.078  1.00  0.00    -0.371 A  
HETATM   14  C   UNL     1     -12.495  13.837  66.008  1.00  0.00    -0.491 A  
HETATM   15  C   UNL     1     -10.994  15.540  66.870  1.00  0.00    -0.268 A  
HETATM   16  C   UNL     1     -10.510  15.737  65.569  1.00  0.00    -0.425 A  
HETATM   17  C   UNL     1     -11.038  15.009  64.494  1.00  0.00    -0.248 A  
BRANCH  15  18
HETATM   18  C   UNL     1     -10.539  16.407  68.016  1.00  0.00    -0.314 C  
BRANCH  18  19
HETATM   19  C   UNL     1      -9.290  17.261  67.819  1.00  0.00    -0.250 C  
HETATM   20  S   UNL     1      -9.333  18.974  68.440  1.00  0.00    -0.372 SA 
HETATM   21  C   UNL     1      -7.629  18.936  68.828  1.00  0.00    -0.333 C  
HETATM   22  N   UNL     1      -7.180  17.658  68.829  1.00  0.00    -0.261 N  
HETATM   23  O   UNL     1      -6.955  19.929  69.044  1.00  0.00    -0.325 OA 
HETATM   24  C   UNL     1      -8.017  16.673  68.388  1.00  0.00    -0.205 C  
HETATM   25  H   UNL     1      -6.239  17.436  69.152  1.00  0.00     0.000 HD 
HETATM   26  O   UNL     1      -7.713  15.487  68.369  1.00  0.00    -0.119 OA 
ENDBRANCH  18  19
ENDBRANCH  15  18
ENDBRANCH  11  12
ENDBRANCH  10  11
ENDBRANCH   9  10
ENDBRANCH   2   9
TORSDOF 7
ENDMDL
MODEL       21
REMARK 921   NORMALIZED FREE ENERGY PREDICTED BY IDOCK:   -6.23 KCAL/MOL
REMARK 922        TOTAL FREE ENERGY PREDICTED BY IDOCK:   -9.63 KCAL/MOL
REMARK 923 INTER-LIGAND FREE ENERGY PREDICTED BY IDOCK:   -8.94 KCAL/MOL
REMARK 924 INTRA-LIGAND FREE ENERGY PREDICTED BY IDOCK:   -0.69 KCAL/MOL
REMARK 927      BINDING AFFINITY PREDICTED BY RF-SCORE:    0.00 PKD
ROOT
HETATM    1  C   UNL     1     -10.234  15.530  69.367  1.00  0.00    -0.262 C  
HETATM    2  N   UNL     1     -11.314  14.580  69.638  1.00  0.00    -0.265 NA 
ENDROOT
BRANCH   2   3
HETATM    3  C   UNL     1     -12.088  14.951  70.757  1.00  0.00    -0.317 A  
HETATM    4  C   UNL     1     -14.104  14.998  71.909  1.00  0.00    -0.532 A  
HETATM    5  C   UNL     1     -13.588  15.753  72.945  1.00  0.00    -0.660 A  
HETATM    6  C   UNL     1     -11.501  15.711  71.771  1.00  0.00    -0.505 A  
HETATM    7  C   UNL     1     -12.254  16.118  72.871  1.00  0.00    -0.640 A  
HETATM    8  N   UNL     1     -13.391  14.599  70.832  1.00  0.00    -0.351 NA 
ENDBRANCH   2   3
BRANCH   2   9
HETATM    9  C   UNL     1     -12.122  14.221  68.454  1.00  0.00    -0.262 C  
BRANCH   9  10
HETATM   10  C   UNL     1     -11.492  13.072  67.654  1.00  0.00    -0.324 C  
BRANCH  10  11
HETATM   11  O   UNL     1     -12.157  11.823  67.891  1.00  0.00    -0.592 OA 
BRANCH  11  12
HETATM   12  C   UNL     1     -11.677  11.104  68.961  1.00  0.00    -0.339 A  
HETATM   13  C   UNL     1     -10.067   9.708  70.117  1.00  0.00    -0.311 A  
HETATM   14  C   UNL     1     -10.432  10.479  69.013  1.00  0.00    -0.238 A  
HETATM   15  C   UNL     1     -10.935   9.559  71.204  1.00  0.00    -0.438 A  
HETATM   16  C   UNL     1     -12.164  10.233  71.177  1.00  0.00    -0.500 A  
HETATM   17  C   UNL     1     -12.534  10.999  70.063  1.00  0.00    -0.319 A  
BRANCH  15  18
HETATM   18  C   UNL     1     -10.578   8.622  72.328  1.00  0.00    -0.375 C  
BRANCH  18  19
HETATM   19  C   UNL     1     -10.737   7.123  72.092  1.00  0.00    -0.215 C  
HETATM   20  S   UNL     1      -9.721   5.997  73.102  1.00  0.00    -0.164 SA 
HETATM   21  C   UNL     1     -10.978   4.782  73.114  1.00  0.00    -0.300 C  
HETATM   22  N   UNL     1     -12.154   5.325  72.716  1.00  0.00    -0.348 N  
HETATM   23  O   UNL     1     -10.798   3.616  73.420  1.00  0.00    -0.190 OA 
HETATM   24  C   UNL     1     -12.151   6.601  72.231  1.00  0.00    -0.188 C  
HETATM   25  H   UNL     1     -13.021   4.792  72.778  1.00  0.00     0.000 HD 
HETATM   26  O   UNL     1     -13.163   7.186  71.867  1.00  0.00    -0.309 OA 
ENDBRANCH  18  19
ENDBRANCH  15  18
ENDBRANCH  11  12
ENDBRANCH  10  11
ENDBRANCH   9  10
ENDBRANCH   2   9
TORSDOF 7
ENDMDL
MODEL       22
REMARK 921   NORMALIZED FREE ENERGY PREDICTED BY IDOCK:   -6.20 KCAL/MOL
REMARK 922        TOTAL FREE ENERGY PREDICTED BY IDOCK:   -9.60 KCAL/MOL
REMARK 923 INTER-LIGAND FREE ENERGY PREDICTED BY IDOCK:   -8.76 KCAL/MOL
REMARK 924 INTRA-LIGAND FREE ENERGY PREDICTED BY IDOCK:   -0.84 KCAL/MOL
REMARK 927      BINDING AFFINITY PREDICTED BY RF-SCORE:    0.00 PKD
ROOT
HETATM    1  C   UNL     1      -9.555  15.554  68.081  1.00  0.00    -0.199 C  
HETATM    2  N   UNL     1     -10.050  16.233  66.883  1.00  0.00    -0.271 NA 
ENDROOT
BRANCH   2   3
HETATM    3  C   UNL     1      -9.895  17.633  66.954  1.00  0.00    -0.306 A  
HETATM    4  C   UNL     1      -8.999  19.622  66.158  1.00  0.00    -0.334 A  
HETATM    5  C   UNL     1      -9.566  20.376  67.168  1.00  0.00    -0.587 A  
HETATM    6  C   UNL     1     -10.499  18.333  68.000  1.00  0.00    -0.387 A  
HETATM    7  C   UNL     1     -10.332  19.713  68.112  1.00  0.00    -0.561 A  
HETATM    8  N   UNL     1      -9.145  18.283  66.037  1.00  0.00    -0.513 NA 
ENDBRANCH   2   3
BRANCH   2   9
HETATM    9  C   UNL     1      -9.575  15.650  65.612  1.00  0.00    -0.284 C  
BRANCH   9  10
HETATM   10  C   UNL     1     -10.713  14.993  64.817  1.00  0.00    -0.330 C  
BRANCH  10  11
HETATM   11  O   UNL     1     -10.540  13.574  64.701  1.00  0.00    -0.387 OA 
BRANCH  11  12
HETATM   12  C   UNL     1     -10.731  12.869  65.866  1.00  0.00    -0.271 A  
HETATM   13  C   UNL     1     -11.894  12.299  67.916  1.00  0.00    -0.358 A  
HETATM   14  C   UNL     1     -11.828  13.008  66.715  1.00  0.00    -0.451 A  
HETATM   15  C   UNL     1     -10.869  11.423  68.286  1.00  0.00    -0.253 A  
HETATM   16  C   UNL     1      -9.793  11.240  67.406  1.00  0.00    -0.201 A  
HETATM   17  C   UNL     1      -9.723  11.959  66.205  1.00  0.00    -0.247 A  
BRANCH  15  18
HETATM   18  C   UNL     1     -10.895  10.765  69.642  1.00  0.00    -0.294 C  
BRANCH  18  19
HETATM   19  C   UNL     1     -12.254  10.438  70.255  1.00  0.00    -0.269 C  
HETATM   20  S   UNL     1     -12.474   8.783  70.985  1.00  0.00    -0.034 SA 
HETATM   21  C   UNL     1     -13.557   9.404  72.208  1.00  0.00    -0.462 C  
HETATM   22  N   UNL     1     -13.462  10.754  72.272  1.00  0.00    -0.539 N  
HETATM   23  O   UNL     1     -14.298   8.709  72.881  1.00  0.00    -0.474 OA 
HETATM   24  C   UNL     1     -12.720  11.401  71.325  1.00  0.00    -0.393 C  
HETATM   25  H   UNL     1     -13.932  11.276  73.011  1.00  0.00     0.000 HD 
HETATM   26  O   UNL     1     -12.556  12.614  71.309  1.00  0.00    -0.350 OA 
ENDBRANCH  18  19
ENDBRANCH  15  18
ENDBRANCH  11  12
ENDBRANCH  10  11
ENDBRANCH   9  10
ENDBRANCH   2   9
TORSDOF 7
ENDMDL
MODEL       23
REMARK 921   NORMALIZED FREE ENERGY PREDICTED BY IDOCK:   -6.16 KCAL/MOL
REMARK 922        TOTAL FREE ENERGY PREDICTED BY IDOCK:   -9.54 KCAL/MOL
REMARK 923 INTER-LIGAND FREE ENERGY PREDICTED BY IDOCK:   -8.87 KCAL/MOL
REMARK 924 INTRA-LIGAND FREE ENERGY PREDICTED BY IDOCK:   -0.67 KCAL/MOL
REMARK 927      BINDING AFFINITY PREDICTED BY RF-SCORE:    0.00 PKD
ROOT
HETATM    1  C   UNL     1      -9.084   8.978  70.837  1.00  0.00    -0.250 C  
HETATM    2  N   UNL     1     -10.267   9.268  70.027  1.00  0.00    -0.201 NA 
ENDROOT
BRANCH   2   3
HETATM    3  C   UNL     1     -11.458   9.233  70.782  1.00  0.00    -0.292 A  
HETATM    4  C   UNL     1     -13.210   8.064  71.762  1.00  0.00    -0.341 A  
HETATM    5  C   UNL     1     -13.831   9.214  72.214  1.00  0.00    -0.527 A  
HETATM    6  C   UNL     1     -12.030  10.433  71.210  1.00  0.00    -0.425 A  
HETATM    7  C   UNL     1     -13.225  10.425  71.928  1.00  0.00    -0.535 A  
HETATM    8  N   UNL     1     -12.054   8.052  71.060  1.00  0.00    -0.263 NA 
ENDBRANCH   2   3
BRANCH   2   9
HETATM    9  C   UNL     1     -10.144  10.469  69.176  1.00  0.00    -0.224 C  
BRANCH   9  10
HETATM   10  C   UNL     1     -10.817  10.278  67.809  1.00  0.00    -0.292 C  
BRANCH  10  11
HETATM   11  O   UNL     1     -11.926  11.169  67.625  1.00  0.00    -0.613 OA 
BRANCH  11  12
HETATM   12  C   UNL     1     -11.605  12.389  67.078  1.00  0.00    -0.365 A  
HETATM   13  C   UNL     1     -10.652  13.855  65.397  1.00  0.00    -0.344 A  
HETATM   14  C   UNL     1     -11.008  12.577  65.832  1.00  0.00    -0.314 A  
HETATM   15  C   UNL     1     -10.902  14.977  66.194  1.00  0.00    -0.329 A  
HETATM   16  C   UNL     1     -11.554  14.795  67.422  1.00  0.00    -0.377 A  
HETATM   17  C   UNL     1     -11.901  13.511  67.863  1.00  0.00    -0.397 A  
BRANCH  15  18
HETATM   18  C   UNL     1     -10.397  16.330  65.766  1.00  0.00    -0.393 C  
BRANCH  18  19
HETATM   19  C   UNL     1     -10.156  17.382  66.845  1.00  0.00    -0.314 C  
HETATM   20  S   UNL     1      -8.687  17.184  67.904  1.00  0.00    -0.226 SA 
HETATM   21  C   UNL     1      -8.484  18.915  68.043  1.00  0.00    -0.295 C  
HETATM   22  N   UNL     1      -9.220  19.547  67.097  1.00  0.00    -0.305 N  
HETATM   23  O   UNL     1      -7.791  19.456  68.887  1.00  0.00    -0.354 OA 
HETATM   24  C   UNL     1     -10.085  18.808  66.343  1.00  0.00    -0.404 C  
HETATM   25  H   UNL     1      -9.130  20.552  66.952  1.00  0.00     0.000 HD 
HETATM   26  O   UNL     1     -10.778  19.282  65.452  1.00  0.00    -0.485 OA 
ENDBRANCH  18  19
ENDBRANCH  15  18
ENDBRANCH  11  12
ENDBRANCH  10  11
ENDBRANCH   9  10
ENDBRANCH   2   9
TORSDOF 7
ENDMDL
MODEL       24
REMARK 921   NORMALIZED FREE ENERGY PREDICTED BY IDOCK:   -6.16 KCAL/MOL
REMARK 922        TOTAL FREE ENERGY PREDICTED BY IDOCK:   -9.54 KCAL/MOL
REMARK 923 INTER-LIGAND FREE ENERGY PREDICTED BY IDOCK:   -8.58 KCAL/MOL
REMARK 924 INTRA-LIGAND FREE ENERGY PREDICTED BY IDOCK:   -0.95 KCAL/MOL
REMARK 927      BINDING AFFINITY PREDICTED BY RF-SCORE:    0.00 PKD
ROOT
HETATM    1  C   UNL     1     -11.444   5.679  72.857  1.00  0.00    -0.243 C  
HETATM    2  N   UNL     1     -11.562   6.573  71.705  1.00  0.00    -0.294 NA 
ENDROOT
BRANCH   2   3
HETATM    3  C   UNL     1     -11.014   6.015  70.531  1.00  0.00    -0.319 A  
HETATM    4  C   UNL     1     -10.874   5.880  68.216  1.00  0.00    -0.240 A  
HETATM    5  C   UNL     1      -9.957   4.847  68.251  1.00  0.00    -0.177 A  
HETATM    6  C   UNL     1     -10.088   4.975  70.639  1.00  0.00    -0.313 A  
HETATM    7  C   UNL     1      -9.558   4.384  69.493  1.00  0.00    -0.271 A  
HETATM    8  N   UNL     1     -11.404   6.462  69.317  1.00  0.00    -0.378 NA 
ENDBRANCH   2   3
BRANCH   2   9
HETATM    9  C   UNL     1     -12.911   7.143  71.512  1.00  0.00    -0.383 C  
BRANCH   9  10
HETATM   10  C   UNL     1     -12.953   8.645  71.832  1.00  0.00    -0.372 C  
BRANCH  10  11
HETATM   11  O   UNL     1     -11.643   9.228  71.850  1.00  0.00    -0.372 OA 
BRANCH  11  12
HETATM   12  C   UNL     1     -11.314   9.951  70.727  1.00  0.00    -0.353 A  
HETATM   13  C   UNL     1     -11.775  11.425  68.858  1.00  0.00    -0.409 A  
HETATM   14  C   UNL     1     -12.183  10.792  70.033  1.00  0.00    -0.409 A  
HETATM   15  C   UNL     1     -10.481  11.243  68.359  1.00  0.00    -0.219 A  
HETATM   16  C   UNL     1      -9.589  10.443  69.087  1.00  0.00    -0.226 A  
HETATM   17  C   UNL     1     -10.002   9.800  70.262  1.00  0.00    -0.309 A  
BRANCH  15  18
HETATM   18  C   UNL     1     -10.099  11.831  67.025  1.00  0.00    -0.232 C  
BRANCH  18  19
HETATM   19  C   UNL     1     -11.219  12.290  66.096  1.00  0.00    -0.328 C  
HETATM   20  S   UNL     1     -11.716  14.041  66.173  1.00  0.00    -0.401 SA 
HETATM   21  C   UNL     1     -12.090  14.069  64.466  1.00  0.00    -0.459 C  
HETATM   22  N   UNL     1     -11.549  12.989  63.853  1.00  0.00    -0.426 N  
HETATM   23  O   UNL     1     -12.760  14.934  63.928  1.00  0.00    -0.789 OA 
HETATM   24  C   UNL     1     -10.982  12.017  64.626  1.00  0.00    -0.317 C  
HETATM   25  H   UNL     1     -11.564  12.905  62.837  1.00  0.00     0.000 HD 
HETATM   26  O   UNL     1     -10.450  11.015  64.167  1.00  0.00    -0.345 OA 
ENDBRANCH  18  19
ENDBRANCH  15  18
ENDBRANCH  11  12
ENDBRANCH  10  11
ENDBRANCH   9  10
ENDBRANCH   2   9
TORSDOF 7
ENDMDL
MODEL       25
REMARK 921   NORMALIZED FREE ENERGY PREDICTED BY IDOCK:   -6.14 KCAL/MOL
REMARK 922        TOTAL FREE ENERGY PREDICTED BY IDOCK:   -9.51 KCAL/MOL
REMARK 923 INTER-LIGAND FREE ENERGY PREDICTED BY IDOCK:   -8.83 KCAL/MOL
REMARK 924 INTRA-LIGAND FREE ENERGY PREDICTED BY IDOCK:   -0.68 KCAL/MOL
REMARK 927      BINDING AFFINITY PREDICTED BY RF-SCORE:    0.00 PKD
ROOT
HETATM    1  C   UNL     1      -9.541  15.269  68.126  1.00  0.00    -0.204 C  
HETATM    2  N   UNL     1     -10.666  15.842  67.386  1.00  0.00    -0.314 NA 
ENDROOT
BRANCH   2   3
HETATM    3  C   UNL     1     -10.538  17.235  67.206  1.00  0.00    -0.283 A  
HETATM    4  C   UNL     1     -10.361  19.099  65.832  1.00  0.00    -0.391 A  
HETATM    5  C   UNL     1     -10.222  19.971  66.895  1.00  0.00    -0.595 A  
HETATM    6  C   UNL     1     -10.405  18.058  68.326  1.00  0.00    -0.389 A  
HETATM    7  C   UNL     1     -10.242  19.434  68.171  1.00  0.00    -0.537 A  
HETATM    8  N   UNL     1     -10.514  17.761  65.961  1.00  0.00    -0.459 NA 
ENDBRANCH   2   3
BRANCH   2   9
HETATM    9  C   UNL     1     -11.014  15.116  66.148  1.00  0.00    -0.331 C  
BRANCH   9  10
HETATM   10  C   UNL     1     -12.265  14.242  66.324  1.00  0.00    -0.410 C  
BRANCH  10  11
HETATM   11  O   UNL     1     -12.003  12.861  66.039  1.00  0.00    -0.410 OA 
BRANCH  11  12
HETATM   12  C   UNL     1     -11.633  12.104  67.126  1.00  0.00    -0.335 A  
HETATM   13  C   UNL     1     -11.426  11.626  69.494  1.00  0.00    -0.371 A  
HETATM   14  C   UNL     1     -11.910  12.422  68.455  1.00  0.00    -0.352 A  
HETATM   15  C   UNL     1     -10.664  10.484  69.225  1.00  0.00    -0.269 A  
HETATM   16  C   UNL     1     -10.432  10.133  67.887  1.00  0.00    -0.265 A  
HETATM   17  C   UNL     1     -10.911  10.938  66.845  1.00  0.00    -0.286 A  
BRANCH  15  18
HETATM   18  C   UNL     1     -10.043   9.711  70.359  1.00  0.00    -0.336 C  
BRANCH  18  19
HETATM   19  C   UNL     1     -10.862   8.595  71.001  1.00  0.00    -0.247 C  
HETATM   20  S   UNL     1     -12.458   9.047  71.754  1.00  0.00    -0.396 SA 
HETATM   21  C   UNL     1     -13.163   7.506  71.323  1.00  0.00    -0.257 C  
HETATM   22  N   UNL     1     -12.392   6.885  70.398  1.00  0.00    -0.604 N  
HETATM   23  O   UNL     1     -14.189   7.064  71.810  1.00  0.00    -0.371 OA 
HETATM   24  C   UNL     1     -11.178   7.429  70.090  1.00  0.00    -0.218 C  
HETATM   25  H   UNL     1     -12.712   6.031  69.942  1.00  0.00     0.000 HD 
HETATM   26  O   UNL     1     -10.420   6.955  69.254  1.00  0.00    -0.197 OA 
ENDBRANCH  18  19
ENDBRANCH  15  18
ENDBRANCH  11  12
ENDBRANCH  10  11
ENDBRANCH   9  10
ENDBRANCH   2   9
TORSDOF 7
ENDMDL
MODEL       26
REMARK 921   NORMALIZED FREE ENERGY PREDICTED BY IDOCK:   -6.13 KCAL/MOL
REMARK 922        TOTAL FREE ENERGY PREDICTED BY IDOCK:   -9.50 KCAL/MOL
REMARK 923 INTER-LIGAND FREE ENERGY PREDICTED BY IDOCK:   -8.76 KCAL/MOL
REMARK 924 INTRA-LIGAND FREE ENERGY PREDICTED BY IDOCK:   -0.74 KCAL/MOL
REMARK 927      BINDING AFFINITY PREDICTED BY RF-SCORE:    0.00 PKD
ROOT
HETATM    1  C   UNL     1      -9.463  15.512  69.041  1.00  0.00    -0.242 C  
HETATM    2  N   UNL     1     -10.454  16.054  68.111  1.00  0.00    -0.260 NA 
ENDROOT
BRANCH   2   3
HETATM    3  C   UNL     1     -10.330  17.449  67.944  1.00  0.00    -0.369 A  
HETATM    4  C   UNL     1     -10.026  19.582  68.813  1.00  0.00    -0.463 A  
HETATM    5  C   UNL     1     -10.156  20.191  67.579  1.00  0.00    -0.549 A  
HETATM    6  C   UNL     1     -10.468  17.998  66.668  1.00  0.00    -0.332 A  
HETATM    7  C   UNL     1     -10.384  19.377  66.482  1.00  0.00    -0.564 A  
HETATM    8  N   UNL     1     -10.111  18.247  69.013  1.00  0.00    -0.347 NA 
ENDBRANCH   2   3
BRANCH   2   9
HETATM    9  C   UNL     1     -10.562  15.315  66.836  1.00  0.00    -0.304 C  
BRANCH   9  10
HETATM   10  C   UNL     1     -11.726  14.312  66.848  1.00  0.00    -0.408 C  
BRANCH  10  11
HETATM   11  O   UNL     1     -11.266  12.954  66.875  1.00  0.00    -0.270 OA 
BRANCH  11  12
HETATM   12  C   UNL     1     -11.571  12.260  68.022  1.00  0.00    -0.349 A  
HETATM   13  C   UNL     1     -12.215  12.053  70.351  1.00  0.00    -0.379 A  
HETATM   14  C   UNL     1     -12.002  12.837  69.216  1.00  0.00    -0.300 A  
HETATM   15  C   UNL     1     -12.014  10.669  70.312  1.00  0.00    -0.425 A  
HETATM   16  C   UNL     1     -11.634  10.081  69.097  1.00  0.00    -0.016 A  
HETATM   17  C   UNL     1     -11.412  10.870  67.961  1.00  0.00    -0.356 A  
BRANCH  15  18
HETATM   18  C   UNL     1     -12.124   9.858  71.577  1.00  0.00    -0.496 C  
BRANCH  18  19
HETATM   19  C   UNL     1     -11.819   8.365  71.501  1.00  0.00    -0.297 C  
HETATM   20  S   UNL     1     -10.513   7.713  72.592  1.00  0.00    -0.317 SA 
HETATM   21  C   UNL     1     -11.341   6.183  72.765  1.00  0.00    -0.222 C  
HETATM   22  N   UNL     1     -12.624   6.299  72.346  1.00  0.00    -0.533 N  
HETATM   23  O   UNL     1     -10.816   5.166  73.184  1.00  0.00    -0.236 OA 
HETATM   24  C   UNL     1     -13.008   7.457  71.733  1.00  0.00    -0.325 C  
HETATM   25  H   UNL     1     -13.289   5.539  72.487  1.00  0.00     0.000 HD 
HETATM   26  O   UNL     1     -14.148   7.666  71.338  1.00  0.00    -0.399 OA 
ENDBRANCH  18  19
ENDBRANCH  15  18
ENDBRANCH  11  12
ENDBRANCH  10  11
ENDBRANCH   9  10
ENDBRANCH   2   9
TORSDOF 7
ENDMDL
MODEL       27
REMARK 921   NORMALIZED FREE ENERGY PREDICTED BY IDOCK:   -6.11 KCAL/MOL
REMARK 922        TOTAL FREE ENERGY PREDICTED BY IDOCK:   -9.46 KCAL/MOL
REMARK 923 INTER-LIGAND FREE ENERGY PREDICTED BY IDOCK:   -8.58 KCAL/MOL
REMARK 924 INTRA-LIGAND FREE ENERGY PREDICTED BY IDOCK:   -0.89 KCAL/MOL
REMARK 927      BINDING AFFINITY PREDICTED BY RF-SCORE:    0.00 PKD
ROOT
HETATM    1  C   UNL     1     -10.950  16.092  68.793  1.00  0.00    -0.330 C  
HETATM    2  N   UNL     1     -11.335  14.807  69.377  1.00  0.00    -0.270 NA 
ENDROOT
BRANCH   2   3
HETATM    3  C   UNL     1     -11.891  14.945  70.666  1.00  0.00    -0.301 A  
HETATM    4  C   UNL     1     -12.062  16.057  72.698  1.00  0.00    -0.538 A  
HETATM    5  C   UNL     1     -12.959  15.142  73.215  1.00  0.00    -0.645 A  
HETATM    6  C   UNL     1     -12.795  13.985  71.125  1.00  0.00    -0.427 A  
HETATM    7  C   UNL     1     -13.331  14.081  72.408  1.00  0.00    -0.617 A  
HETATM    8  N   UNL     1     -11.527  15.978  71.458  1.00  0.00    -0.418 NA 
ENDBRANCH   2   3
BRANCH   2   9
HETATM    9  C   UNL     1     -12.132  13.944  68.480  1.00  0.00    -0.296 C  
BRANCH   9  10
HETATM   10  C   UNL     1     -11.413  12.626  68.159  1.00  0.00    -0.313 C  
BRANCH  10  11
HETATM   11  O   UNL     1     -12.195  11.482  68.530  1.00  0.00    -0.524 OA 
BRANCH  11  12
HETATM   12  C   UNL     1     -11.674  10.731  69.558  1.00  0.00    -0.312 A  
HETATM   13  C   UNL     1      -9.940   9.467  70.686  1.00  0.00    -0.349 A  
HETATM   14  C   UNL     1     -10.354  10.289  69.638  1.00  0.00    -0.281 A  
HETATM   15  C   UNL     1     -10.836   9.080  71.689  1.00  0.00    -0.437 A  
HETATM   16  C   UNL     1     -12.149   9.570  71.639  1.00  0.00    -0.474 A  
HETATM   17  C   UNL     1     -12.566  10.387  70.581  1.00  0.00    -0.435 A  
BRANCH  15  18
HETATM   18  C   UNL     1     -10.405   8.091  72.741  1.00  0.00    -0.408 C  
BRANCH  18  19
HETATM   19  C   UNL     1     -10.102   6.662  72.301  1.00  0.00    -0.174 C  
HETATM   20  S   UNL     1     -11.072   5.980  70.918  1.00  0.00    -0.255 SA 
HETATM   21  C   UNL     1      -9.716   5.026  70.362  1.00  0.00    -0.209 C  
HETATM   22  N   UNL     1      -8.572   5.464  70.940  1.00  0.00    -0.124 N  
HETATM   23  O   UNL     1      -9.811   4.093  69.584  1.00  0.00    -0.217 OA 
HETATM   24  C   UNL     1      -8.658   6.400  71.930  1.00  0.00    -0.127 C  
HETATM   25  H   UNL     1      -7.666   5.103  70.641  1.00  0.00     0.000 HD 
HETATM   26  O   UNL     1      -7.682   6.873  72.498  1.00  0.00    -0.094 OA 
ENDBRANCH  18  19
ENDBRANCH  15  18
ENDBRANCH  11  12
ENDBRANCH  10  11
ENDBRANCH   9  10
ENDBRANCH   2   9
TORSDOF 7
ENDMDL
MODEL       28
REMARK 921   NORMALIZED FREE ENERGY PREDICTED BY IDOCK:   -6.09 KCAL/MOL
REMARK 922        TOTAL FREE ENERGY PREDICTED BY IDOCK:   -9.43 KCAL/MOL
REMARK 923 INTER-LIGAND FREE ENERGY PREDICTED BY IDOCK:   -8.40 KCAL/MOL
REMARK 924 INTRA-LIGAND FREE ENERGY PREDICTED BY IDOCK:   -1.03 KCAL/MOL
REMARK 927      BINDING AFFINITY PREDICTED BY RF-SCORE:    0.00 PKD
ROOT
HETATM    1  C   UNL     1     -10.823  16.621  69.240  1.00  0.00    -0.310 C  
HETATM    2  N   UNL     1     -11.100  15.185  69.270  1.00  0.00    -0.258 NA 
ENDROOT
BRANCH   2   3
HETATM    3  C   UNL     1     -11.969  14.826  70.322  1.00  0.00    -0.310 A  
HETATM    4  C   UNL     1     -13.299  15.387  72.141  1.00  0.00    -0.444 A  
HETATM    5  C   UNL     1     -13.620  14.070  72.415  1.00  0.00    -0.658 A  
HETATM    6  C   UNL     1     -12.253  13.476  70.541  1.00  0.00    -0.433 A  
HETATM    7  C   UNL     1     -13.081  13.094  71.595  1.00  0.00    -0.444 A  
HETATM    8  N   UNL     1     -12.494  15.776  71.127  1.00  0.00    -0.444 NA 
ENDBRANCH   2   3
BRANCH   2   9
HETATM    9  C   UNL     1     -11.486  14.611  67.964  1.00  0.00    -0.324 C  
BRANCH   9  10
HETATM   10  C   UNL     1     -10.289  14.497  67.009  1.00  0.00    -0.263 C  
BRANCH  10  11
HETATM   11  O   UNL     1     -10.240  13.220  66.357  1.00  0.00    -0.278 OA 
BRANCH  11  12
HETATM   12  C   UNL     1     -10.099  12.143  67.201  1.00  0.00    -0.206 A  
HETATM   13  C   UNL     1      -8.964  10.805  68.875  1.00  0.00    -0.158 A  
HETATM   14  C   UNL     1      -9.059  11.971  68.114  1.00  0.00    -0.191 A  
HETATM   15  C   UNL     1      -9.918   9.790  68.749  1.00  0.00    -0.179 A  
HETATM   16  C   UNL     1     -10.994   9.986  67.872  1.00  0.00    -0.311 A  
HETATM   17  C   UNL     1     -11.084  11.153  67.102  1.00  0.00    -0.352 A  
BRANCH  15  18
HETATM   18  C   UNL     1      -9.729   8.487  69.482  1.00  0.00    -0.176 C  
BRANCH  18  19
HETATM   19  C   UNL     1     -10.677   8.167  70.634  1.00  0.00    -0.224 C  
HETATM   20  S   UNL     1     -11.638   9.543  71.343  1.00  0.00    -0.407 SA 
HETATM   21  C   UNL     1     -12.992   8.494  71.690  1.00  0.00    -0.343 C  
HETATM   22  N   UNL     1     -12.864   7.329  71.010  1.00  0.00    -0.581 N  
HETATM   23  O   UNL     1     -13.900   8.780  72.452  1.00  0.00    -0.428 OA 
HETATM   24  C   UNL     1     -11.699   7.090  70.341  1.00  0.00    -0.279 C  
HETATM   25  H   UNL     1     -13.622   6.647  70.998  1.00  0.00     0.000 HD 
HETATM   26  O   UNL     1     -11.495   6.078  69.682  1.00  0.00    -0.394 OA 
ENDBRANCH  18  19
ENDBRANCH  15  18
ENDBRANCH  11  12
ENDBRANCH  10  11
ENDBRANCH   9  10
ENDBRANCH   2   9
TORSDOF 7
ENDMDL
MODEL       29
REMARK 921   NORMALIZED FREE ENERGY PREDICTED BY IDOCK:   -6.09 KCAL/MOL
REMARK 922        TOTAL FREE ENERGY PREDICTED BY IDOCK:   -9.43 KCAL/MOL
REMARK 923 INTER-LIGAND FREE ENERGY PREDICTED BY IDOCK:   -8.54 KCAL/MOL
REMARK 924 INTRA-LIGAND FREE ENERGY PREDICTED BY IDOCK:   -0.89 KCAL/MOL
REMARK 927      BINDING AFFINITY PREDICTED BY RF-SCORE:    0.00 PKD
ROOT
HETATM    1  C   UNL     1     -10.638  16.066  69.092  1.00  0.00    -0.260 C  
HETATM    2  N   UNL     1     -11.209  14.811  69.582  1.00  0.00    -0.266 NA 
ENDROOT
BRANCH   2   3
HETATM    3  C   UNL     1     -11.860  14.965  70.824  1.00  0.00    -0.312 A  
HETATM    4  C   UNL     1     -12.242  16.146  72.787  1.00  0.00    -0.531 A  
HETATM    5  C   UNL     1     -13.113  15.196  73.285  1.00  0.00    -0.622 A  
HETATM    6  C   UNL     1     -12.730  13.966  71.266  1.00  0.00    -0.444 A  
HETATM    7  C   UNL     1     -13.359  14.079  72.505  1.00  0.00    -0.639 A  
HETATM    8  N   UNL     1     -11.619  16.052  71.590  1.00  0.00    -0.465 NA 
ENDBRANCH   2   3
BRANCH   2   9
HETATM    9  C   UNL     1     -12.011  14.074  68.583  1.00  0.00    -0.354 C  
BRANCH   9  10
HETATM   10  C   UNL     1     -11.295  12.808  68.090  1.00  0.00    -0.288 C  
BRANCH  10  11
HETATM   11  O   UNL     1     -12.072  11.625  68.323  1.00  0.00    -0.552 OA 
BRANCH  11  12
HETATM   12  C   UNL     1     -11.640  10.844  69.370  1.00  0.00    -0.316 A  
HETATM   13  C   UNL     1     -10.056   9.429  70.540  1.00  0.00    -0.335 A  
HETATM   14  C   UNL     1     -10.374  10.269  69.471  1.00  0.00    -0.267 A  
HETATM   15  C   UNL     1     -10.996   9.158  71.540  1.00  0.00    -0.434 A  
HETATM   16  C   UNL     1     -12.250   9.781  71.468  1.00  0.00    -0.493 A  
HETATM   17  C   UNL     1     -12.571  10.616  70.391  1.00  0.00    -0.395 A  
BRANCH  15  18
HETATM   18  C   UNL     1     -10.679   8.150  72.615  1.00  0.00    -0.421 C  
BRANCH  18  19
HETATM   19  C   UNL     1      -9.780   6.972  72.252  1.00  0.00    -0.153 C  
HETATM   20  S   UNL     1      -8.792   6.222  73.587  1.00  0.00    -0.124 SA 
HETATM   21  C   UNL     1      -8.917   4.635  72.866  1.00  0.00    -0.118 C  
HETATM   22  N   UNL     1      -9.899   4.624  71.933  1.00  0.00    -0.172 N  
HETATM   23  O   UNL     1      -8.202   3.693  73.160  1.00  0.00    -0.078 OA 
HETATM   24  C   UNL     1     -10.486   5.808  71.591  1.00  0.00    -0.231 C  
HETATM   25  H   UNL     1     -10.193   3.751  71.496  1.00  0.00     0.000 HD 
HETATM   26  O   UNL     1     -11.394   5.900  70.775  1.00  0.00    -0.267 OA 
ENDBRANCH  18  19
ENDBRANCH  15  18
ENDBRANCH  11  12
ENDBRANCH  10  11
ENDBRANCH   9  10
ENDBRANCH   2   9
TORSDOF 7
ENDMDL
MODEL       30
REMARK 921   NORMALIZED FREE ENERGY PREDICTED BY IDOCK:   -6.08 KCAL/MOL
REMARK 922        TOTAL FREE ENERGY PREDICTED BY IDOCK:   -9.42 KCAL/MOL
REMARK 923 INTER-LIGAND FREE ENERGY PREDICTED BY IDOCK:   -8.87 KCAL/MOL
REMARK 924 INTRA-LIGAND FREE ENERGY PREDICTED BY IDOCK:   -0.55 KCAL/MOL
REMARK 927      BINDING AFFINITY PREDICTED BY RF-SCORE:    0.00 PKD
ROOT
HETATM    1  C   UNL     1     -13.076  10.023  72.031  1.00  0.00    -0.441 C  
HETATM    2  N   UNL     1     -11.704   9.601  71.746  1.00  0.00    -0.362 NA 
ENDROOT
BRANCH   2   3
HETATM    3  C   UNL     1     -11.426   8.307  72.235  1.00  0.00    -0.384 A  
HETATM    4  C   UNL     1     -10.139   6.845  73.501  1.00  0.00    -0.292 A  
HETATM    5  C   UNL     1     -10.877   5.739  73.121  1.00  0.00    -0.310 A  
HETATM    6  C   UNL     1     -12.213   7.235  71.812  1.00  0.00    -0.368 A  
HETATM    7  C   UNL     1     -11.937   5.942  72.254  1.00  0.00    -0.211 A  
HETATM    8  N   UNL     1     -10.389   8.105  73.078  1.00  0.00    -0.280 NA 
ENDBRANCH   2   3
BRANCH   2   9
HETATM    9  C   UNL     1     -11.281   9.806  70.345  1.00  0.00    -0.300 C  
BRANCH   9  10
HETATM   10  C   UNL     1     -12.138  10.863  69.634  1.00  0.00    -0.329 C  
BRANCH  10  11
HETATM   11  O   UNL     1     -11.912  10.876  68.217  1.00  0.00    -0.561 OA 
BRANCH  11  12
HETATM   12  C   UNL     1     -11.348  12.033  67.731  1.00  0.00    -0.303 A  
HETATM   13  C   UNL     1      -9.979  13.330  66.207  1.00  0.00    -0.291 A  
HETATM   14  C   UNL     1     -10.570  12.121  66.578  1.00  0.00    -0.269 A  
HETATM   15  C   UNL     1     -10.168  14.483  66.975  1.00  0.00    -0.262 A  
HETATM   16  C   UNL     1     -10.997  14.408  68.104  1.00  0.00    -0.265 A  
HETATM   17  C   UNL     1     -11.581  13.192  68.481  1.00  0.00    -0.361 A  
BRANCH  15  18
HETATM   18  C   UNL     1      -9.421  15.746  66.632  1.00  0.00    -0.279 C  
BRANCH  18  19
HETATM   19  C   UNL     1     -10.124  17.081  66.857  1.00  0.00    -0.298 C  
HETATM   20  S   UNL     1      -9.219  18.368  67.775  1.00  0.00    -0.281 SA 
HETATM   21  C   UNL     1      -9.970  19.642  66.843  1.00  0.00    -0.400 C  
HETATM   22  N   UNL     1     -10.547  19.126  65.732  1.00  0.00    -0.438 N  
HETATM   23  O   UNL     1      -9.978  20.815  67.173  1.00  0.00    -0.422 OA 
HETATM   24  C   UNL     1     -10.608  17.769  65.599  1.00  0.00    -0.123 C  
HETATM   25  H   UNL     1     -10.928  19.738  65.010  1.00  0.00     0.000 HD 
HETATM   26  O   UNL     1     -11.091  17.207  64.624  1.00  0.00    -1.036 OA 
ENDBRANCH  18  19
ENDBRANCH  15  18
ENDBRANCH  11  12
ENDBRANCH  10  11
ENDBRANCH   9  10
ENDBRANCH   2   9
TORSDOF 7
ENDMDL
MODEL       31
REMARK 921   NORMALIZED FREE ENERGY PREDICTED BY IDOCK:   -6.07 KCAL/MOL
REMARK 922        TOTAL FREE ENERGY PREDICTED BY IDOCK:   -9.41 KCAL/MOL
REMARK 923 INTER-LIGAND FREE ENERGY PREDICTED BY IDOCK:   -8.39 KCAL/MOL
REMARK 924 INTRA-LIGAND FREE ENERGY PREDICTED BY IDOCK:   -1.02 KCAL/MOL
REMARK 927      BINDING AFFINITY PREDICTED BY RF-SCORE:    0.00 PKD
ROOT
HETATM    1  C   UNL     1      -9.443   8.722  71.754  1.00  0.00    -0.293 C  
HETATM    2  N   UNL     1     -10.320   7.702  71.179  1.00  0.00    -0.200 NA 
ENDROOT
BRANCH   2   3
HETATM    3  C   UNL     1     -11.682   7.951  71.443  1.00  0.00    -0.281 A  
HETATM    4  C   UNL     1     -13.900   7.264  71.508  1.00  0.00    -0.350 A  
HETATM    5  C   UNL     1     -14.357   8.503  71.914  1.00  0.00    -0.536 A  
HETATM    6  C   UNL     1     -12.075   9.227  71.854  1.00  0.00    -0.440 A  
HETATM    7  C   UNL     1     -13.420   9.507  72.088  1.00  0.00    -0.535 A  
HETATM    8  N   UNL     1     -12.600   6.974  71.271  1.00  0.00    -0.384 NA 
ENDBRANCH   2   3
BRANCH   2   9
HETATM    9  C   UNL     1     -10.041   7.387  69.762  1.00  0.00    -0.193 C  
BRANCH   9  10
HETATM   10  C   UNL     1      -9.657   8.638  68.959  1.00  0.00    -0.163 C  
BRANCH  10  11
HETATM   11  O   UNL     1     -10.526   8.845  67.836  1.00  0.00    -0.228 OA 
BRANCH  11  12
HETATM   12  C   UNL     1     -10.872  10.155  67.603  1.00  0.00    -0.290 A  
HETATM   13  C   UNL     1     -10.943  12.206  66.311  1.00  0.00    -0.332 A  
HETATM   14  C   UNL     1     -10.619  10.853  66.423  1.00  0.00    -0.289 A  
HETATM   15  C   UNL     1     -11.542  12.888  67.375  1.00  0.00    -0.414 A  
HETATM   16  C   UNL     1     -11.848  12.173  68.542  1.00  0.00    -0.365 A  
HETATM   17  C   UNL     1     -11.514  10.817  68.657  1.00  0.00    -0.365 A  
BRANCH  15  18
HETATM   18  C   UNL     1     -11.767  14.375  67.284  1.00  0.00    -0.429 C  
BRANCH  18  19
HETATM   19  C   UNL     1     -10.852  15.291  68.090  1.00  0.00    -0.273 C  
HETATM   20  S   UNL     1     -10.044  16.665  67.208  1.00  0.00    -0.284 SA 
HETATM   21  C   UNL     1     -10.110  17.688  68.624  1.00  0.00    -0.377 C  
HETATM   22  N   UNL     1     -10.973  17.172  69.531  1.00  0.00    -0.292 N  
HETATM   23  O   UNL     1      -9.451  18.704  68.764  1.00  0.00    -0.340 OA 
HETATM   24  C   UNL     1     -11.495  15.931  69.302  1.00  0.00    -0.374 C  
HETATM   25  H   UNL     1     -11.229  17.698  70.366  1.00  0.00     0.000 HD 
HETATM   26  O   UNL     1     -12.298  15.388  70.050  1.00  0.00    -0.359 OA 
ENDBRANCH  18  19
ENDBRANCH  15  18
ENDBRANCH  11  12
ENDBRANCH  10  11
ENDBRANCH   9  10
ENDBRANCH   2   9
TORSDOF 7
ENDMDL
MODEL       32
REMARK 921   NORMALIZED FREE ENERGY PREDICTED BY IDOCK:   -6.05 KCAL/MOL
REMARK 922        TOTAL FREE ENERGY PREDICTED BY IDOCK:   -9.39 KCAL/MOL
REMARK 923 INTER-LIGAND FREE ENERGY PREDICTED BY IDOCK:   -8.09 KCAL/MOL
REMARK 924 INTRA-LIGAND FREE ENERGY PREDICTED BY IDOCK:   -1.29 KCAL/MOL
REMARK 927      BINDING AFFINITY PREDICTED BY RF-SCORE:    0.00 PKD
ROOT
HETATM    1  C   UNL     1     -10.334   7.445  72.762  1.00  0.00    -0.258 C  
HETATM    2  N   UNL     1     -11.572   7.542  71.989  1.00  0.00    -0.276 NA 
ENDROOT
BRANCH   2   3
HETATM    3  C   UNL     1     -11.886   8.871  71.637  1.00  0.00    -0.345 A  
HETATM    4  C   UNL     1     -13.207  10.770  71.840  1.00  0.00    -0.419 A  
HETATM    5  C   UNL     1     -12.505  11.462  70.871  1.00  0.00    -0.478 A  
HETATM    6  C   UNL     1     -11.132   9.511  70.652  1.00  0.00    -0.364 A  
HETATM    7  C   UNL     1     -11.444  10.813  70.263  1.00  0.00    -0.406 A  
HETATM    8  N   UNL     1     -12.923   9.506  72.227  1.00  0.00    -0.400 NA 
ENDBRANCH   2   3
BRANCH   2   9
HETATM    9  C   UNL     1     -11.659   6.596  70.857  1.00  0.00    -0.361 C  
BRANCH   9  10
HETATM   10  C   UNL     1     -10.277   6.079  70.430  1.00  0.00    -0.204 C  
BRANCH  10  11
HETATM   11  O   UNL     1     -10.166   5.950  69.006  1.00  0.00    -0.168 OA 
BRANCH  11  12
HETATM   12  C   UNL     1      -9.922   7.125  68.335  1.00  0.00    -0.158 A  
HETATM   13  C   UNL     1      -8.732   9.193  67.900  1.00  0.00    -0.128 A  
HETATM   14  C   UNL     1      -8.852   7.984  68.586  1.00  0.00    -0.134 A  
HETATM   15  C   UNL     1      -9.674   9.564  66.935  1.00  0.00    -0.237 A  
HETATM   16  C   UNL     1     -10.719   8.676  66.642  1.00  0.00     0.033 A  
HETATM   17  C   UNL     1     -10.844   7.466  67.338  1.00  0.00    -0.299 A  
BRANCH  15  18
HETATM   18  C   UNL     1      -9.600  10.927  66.297  1.00  0.00    -0.234 C  
BRANCH  18  19
HETATM   19  C   UNL     1     -10.736  11.350  65.370  1.00  0.00    -0.253 C  
HETATM   20  S   UNL     1     -11.519  12.966  65.676  1.00  0.00    -0.350 SA 
HETATM   21  C   UNL     1     -11.813  13.211  63.971  1.00  0.00    -0.453 C  
HETATM   22  N   UNL     1     -11.072  12.342  63.242  1.00  0.00    -0.675 N  
HETATM   23  O   UNL     1     -12.591  14.035  63.523  1.00  0.00    -0.842 OA 
HETATM   24  C   UNL     1     -10.389  11.358  63.897  1.00  0.00    -0.379 C  
HETATM   25  H   UNL     1     -11.026  12.421  62.226  1.00  0.00     0.000 HD 
HETATM   26  O   UNL     1      -9.677  10.539  63.330  1.00  0.00    -0.307 OA 
ENDBRANCH  18  19
ENDBRANCH  15  18
ENDBRANCH  11  12
ENDBRANCH  10  11
ENDBRANCH   9  10
ENDBRANCH   2   9
TORSDOF 7
ENDMDL
MODEL       33
REMARK 921   NORMALIZED FREE ENERGY PREDICTED BY IDOCK:   -6.05 KCAL/MOL
REMARK 922        TOTAL FREE ENERGY PREDICTED BY IDOCK:   -9.38 KCAL/MOL
REMARK 923 INTER-LIGAND FREE ENERGY PREDICTED BY IDOCK:   -8.71 KCAL/MOL
REMARK 924 INTRA-LIGAND FREE ENERGY PREDICTED BY IDOCK:   -0.68 KCAL/MOL
REMARK 927      BINDING AFFINITY PREDICTED BY RF-SCORE:    0.00 PKD
ROOT
HETATM    1  C   UNL     1      -9.922  14.913  66.467  1.00  0.00    -0.265 C  
HETATM    2  N   UNL     1     -11.335  14.645  66.194  1.00  0.00    -0.349 NA 
ENDROOT
BRANCH   2   3
HETATM    3  C   UNL     1     -11.515  13.678  65.184  1.00  0.00    -0.316 A  
HETATM    4  C   UNL     1     -12.870  12.238  63.966  1.00  0.00    -0.279 A  
HETATM    5  C   UNL     1     -11.813  11.733  63.232  1.00  0.00    -0.342 A  
HETATM    6  C   UNL     1     -10.403  13.215  64.478  1.00  0.00    -0.389 A  
HETATM    7  C   UNL     1     -10.550  12.234  63.498  1.00  0.00    -0.488 A  
HETATM    8  N   UNL     1     -12.746  13.184  64.924  1.00  0.00    -0.697 NA 
ENDBRANCH   2   3
BRANCH   2   9
HETATM    9  C   UNL     1     -12.152  14.398  67.400  1.00  0.00    -0.313 C  
BRANCH   9  10
HETATM   10  C   UNL     1     -11.294  13.976  68.601  1.00  0.00    -0.276 C  
BRANCH  10  11
HETATM   11  O   UNL     1     -12.045  13.967  69.824  1.00  0.00    -0.312 OA 
BRANCH  11  12
HETATM   12  C   UNL     1     -12.242  12.723  70.375  1.00  0.00    -0.293 A  
HETATM   13  C   UNL     1     -13.136  11.166  72.004  1.00  0.00    -0.433 A  
HETATM   14  C   UNL     1     -13.060  12.453  71.471  1.00  0.00    -0.362 A  
HETATM   15  C   UNL     1     -12.405  10.115  71.441  1.00  0.00    -0.515 A  
HETATM   16  C   UNL     1     -11.626  10.373  70.305  1.00  0.00    -0.410 A  
HETATM   17  C   UNL     1     -11.543  11.668  69.776  1.00  0.00    -0.389 A  
BRANCH  15  18
HETATM   18  C   UNL     1     -12.400   8.762  72.106  1.00  0.00    -0.458 C  
BRANCH  18  19
HETATM   19  C   UNL     1     -11.164   7.883  71.935  1.00  0.00    -0.271 C  
HETATM   20  S   UNL     1     -10.372   7.238  73.444  1.00  0.00    -0.370 SA 
HETATM   21  C   UNL     1      -9.900   5.762  72.634  1.00  0.00    -0.164 C  
HETATM   22  N   UNL     1     -10.587   5.628  71.474  1.00  0.00    -0.238 N  
HETATM   23  O   UNL     1      -9.058   4.990  73.058  1.00  0.00    -0.124 OA 
HETATM   24  C   UNL     1     -11.360   6.671  71.050  1.00  0.00    -0.315 C  
HETATM   25  H   UNL     1     -10.528   4.768  70.930  1.00  0.00     0.000 HD 
HETATM   26  O   UNL     1     -12.034   6.639  70.028  1.00  0.00    -0.340 OA 
ENDBRANCH  18  19
ENDBRANCH  15  18
ENDBRANCH  11  12
ENDBRANCH  10  11
ENDBRANCH   9  10
ENDBRANCH   2   9
TORSDOF 7
ENDMDL
MODEL       34
REMARK 921   NORMALIZED FREE ENERGY PREDICTED BY IDOCK:   -6.03 KCAL/MOL
REMARK 922        TOTAL FREE ENERGY PREDICTED BY IDOCK:   -9.35 KCAL/MOL
REMARK 923 INTER-LIGAND FREE ENERGY PREDICTED BY IDOCK:   -8.73 KCAL/MOL
REMARK 924 INTRA-LIGAND FREE ENERGY PREDICTED BY IDOCK:   -0.62 KCAL/MOL
REMARK 927      BINDING AFFINITY PREDICTED BY RF-SCORE:    0.00 PKD
ROOT
HETATM    1  C   UNL     1      -9.515   8.702  71.847  1.00  0.00    -0.299 C  
HETATM    2  N   UNL     1     -10.753   7.951  71.644  1.00  0.00    -0.219 NA 
ENDROOT
BRANCH   2   3
HETATM    3  C   UNL     1     -10.542   6.556  71.637  1.00  0.00    -0.217 A  
HETATM    4  C   UNL     1     -10.387   4.518  72.740  1.00  0.00    -0.187 A  
HETATM    5  C   UNL     1     -10.058   3.828  71.588  1.00  0.00    -0.149 A  
HETATM    6  C   UNL     1     -10.216   5.922  70.437  1.00  0.00    -0.273 A  
HETATM    7  C   UNL     1      -9.969   4.550  70.410  1.00  0.00    -0.284 A  
HETATM    8  N   UNL     1     -10.624   5.848  72.786  1.00  0.00    -0.213 NA 
ENDBRANCH   2   3
BRANCH   2   9
HETATM    9  C   UNL     1     -11.873   8.374  72.511  1.00  0.00    -0.358 C  
BRANCH   9  10
HETATM   10  C   UNL     1     -13.002   9.040  71.711  1.00  0.00    -0.377 C  
BRANCH  10  11
HETATM   11  O   UNL     1     -13.118  10.439  72.006  1.00  0.00    -0.455 OA 
BRANCH  11  12
HETATM   12  C   UNL     1     -12.667  11.280  71.017  1.00  0.00    -0.359 A  
HETATM   13  C   UNL     1     -11.580  11.804  68.913  1.00  0.00    -0.370 A  
HETATM   14  C   UNL     1     -12.075  10.869  69.823  1.00  0.00    -0.409 A  
HETATM   15  C   UNL     1     -11.680  13.175  69.172  1.00  0.00    -0.376 A  
HETATM   16  C   UNL     1     -12.326  13.591  70.345  1.00  0.00    -0.397 A  
HETATM   17  C   UNL     1     -12.814  12.651  71.262  1.00  0.00    -0.344 A  
BRANCH  15  18
HETATM   18  C   UNL     1     -11.028  14.165  68.241  1.00  0.00    -0.266 C  
BRANCH  18  19
HETATM   19  C   UNL     1     -11.036  13.858  66.746  1.00  0.00    -0.299 C  
HETATM   20  S   UNL     1     -12.652  13.603  65.946  1.00  0.00    -0.370 SA 
HETATM   21  C   UNL     1     -12.086  14.304  64.448  1.00  0.00    -0.468 C  
HETATM   22  N   UNL     1     -10.932  14.982  64.659  1.00  0.00    -0.621 N  
HETATM   23  O   UNL     1     -12.651  14.175  63.376  1.00  0.00    -0.818 OA 
HETATM   24  C   UNL     1     -10.330  14.880  65.881  1.00  0.00    -0.314 C  
HETATM   25  H   UNL     1     -10.522  15.556  63.923  1.00  0.00     0.000 HD 
HETATM   26  O   UNL     1      -9.298  15.469  66.176  1.00  0.00    -0.295 OA 
ENDBRANCH  18  19
ENDBRANCH  15  18
ENDBRANCH  11  12
ENDBRANCH  10  11
ENDBRANCH   9  10
ENDBRANCH   2   9
TORSDOF 7
ENDMDL
MODEL       35
REMARK 921   NORMALIZED FREE ENERGY PREDICTED BY IDOCK:   -6.02 KCAL/MOL
REMARK 922        TOTAL FREE ENERGY PREDICTED BY IDOCK:   -9.35 KCAL/MOL
REMARK 923 INTER-LIGAND FREE ENERGY PREDICTED BY IDOCK:   -8.88 KCAL/MOL
REMARK 924 INTRA-LIGAND FREE ENERGY PREDICTED BY IDOCK:   -0.47 KCAL/MOL
REMARK 927      BINDING AFFINITY PREDICTED BY RF-SCORE:    0.00 PKD
ROOT
HETATM    1  C   UNL     1     -10.564  18.836  66.355  1.00  0.00    -0.368 C  
HETATM    2  N   UNL     1      -9.600  18.078  67.154  1.00  0.00    -0.274 NA 
ENDROOT
BRANCH   2   3
HETATM    3  C   UNL     1      -8.517  18.871  67.586  1.00  0.00    -0.280 A  
HETATM    4  C   UNL     1      -7.166  20.751  67.389  1.00  0.00    -0.354 A  
HETATM    5  C   UNL     1      -6.341  20.367  68.430  1.00  0.00    -0.350 A  
HETATM    6  C   UNL     1      -7.725  18.424  68.646  1.00  0.00    -0.321 A  
HETATM    7  C   UNL     1      -6.629  19.173  69.070  1.00  0.00    -0.331 A  
HETATM    8  N   UNL     1      -8.231  20.035  66.961  1.00  0.00    -0.309 NA 
ENDBRANCH   2   3
BRANCH   2   9
HETATM    9  C   UNL     1     -10.204  17.266  68.230  1.00  0.00    -0.348 C  
BRANCH   9  10
HETATM   10  C   UNL     1     -10.020  15.761  67.990  1.00  0.00    -0.222 C  
BRANCH  10  11
HETATM   11  O   UNL     1     -11.264  15.104  67.709  1.00  0.00    -0.304 OA 
BRANCH  11  12
HETATM   12  C   UNL     1     -11.697  14.239  68.687  1.00  0.00    -0.345 A  
HETATM   13  C   UNL     1     -12.485  13.658  70.905  1.00  0.00    -0.448 A  
HETATM   14  C   UNL     1     -12.136  14.619  69.955  1.00  0.00    -0.385 A  
HETATM   15  C   UNL     1     -12.416  12.294  70.602  1.00  0.00    -0.323 A  
HETATM   16  C   UNL     1     -12.029  11.914  69.310  1.00  0.00    -0.342 A  
HETATM   17  C   UNL     1     -11.670  12.878  68.359  1.00  0.00    -0.382 A  
BRANCH  15  18
HETATM   18  C   UNL     1     -12.673  11.271  71.679  1.00  0.00    -0.448 C  
BRANCH  18  19
HETATM   19  C   UNL     1     -12.414   9.804  71.352  1.00  0.00    -0.387 C  
HETATM   20  S   UNL     1     -10.700   9.200  71.482  1.00  0.00    -0.361 SA 
HETATM   21  C   UNL     1     -11.235   7.616  71.992  1.00  0.00    -0.272 C  
HETATM   22  N   UNL     1     -12.535   7.665  72.371  1.00  0.00    -0.528 N  
HETATM   23  O   UNL     1     -10.532   6.621  71.981  1.00  0.00    -0.202 OA 
HETATM   24  C   UNL     1     -13.236   8.816  72.151  1.00  0.00    -0.414 C  
HETATM   25  H   UNL     1     -12.980   6.860  72.811  1.00  0.00     0.000 HD 
HETATM   26  O   UNL     1     -14.407   8.965  72.476  1.00  0.00    -0.579 OA 
ENDBRANCH  18  19
ENDBRANCH  15  18
ENDBRANCH  11  12
ENDBRANCH  10  11
ENDBRANCH   9  10
ENDBRANCH   2   9
TORSDOF 7
ENDMDL
MODEL       36
REMARK 921   NORMALIZED FREE ENERGY PREDICTED BY IDOCK:   -6.02 KCAL/MOL
REMARK 922        TOTAL FREE ENERGY PREDICTED BY IDOCK:   -9.34 KCAL/MOL
REMARK 923 INTER-LIGAND FREE ENERGY PREDICTED BY IDOCK:   -8.79 KCAL/MOL
REMARK 924 INTRA-LIGAND FREE ENERGY PREDICTED BY IDOCK:   -0.55 KCAL/MOL
REMARK 927      BINDING AFFINITY PREDICTED BY RF-SCORE:    0.00 PKD
ROOT
HETATM    1  C   UNL     1     -13.544   7.174  71.424  1.00  0.00    -0.275 C  
HETATM    2  N   UNL     1     -12.085   7.268  71.358  1.00  0.00    -0.317 NA 
ENDROOT
BRANCH   2   3
HETATM    3  C   UNL     1     -11.453   6.579  72.414  1.00  0.00    -0.271 A  
HETATM    4  C   UNL     1     -10.099   6.549  74.301  1.00  0.00    -0.356 A  
HETATM    5  C   UNL     1     -10.177   5.176  74.435  1.00  0.00    -0.301 A  
HETATM    6  C   UNL     1     -11.576   5.190  72.491  1.00  0.00    -0.097 A  
HETATM    7  C   UNL     1     -10.932   4.482  73.505  1.00  0.00    -0.387 A  
HETATM    8  N   UNL     1     -10.712   7.253  73.321  1.00  0.00    -0.368 NA 
ENDBRANCH   2   3
BRANCH   2   9
HETATM    9  C   UNL     1     -11.514   6.966  70.030  1.00  0.00    -0.277 C  
BRANCH   9  10
HETATM   10  C   UNL     1     -10.550   8.063  69.554  1.00  0.00    -0.214 C  
BRANCH  10  11
HETATM   11  O   UNL     1     -10.110   7.845  68.206  1.00  0.00    -0.182 OA 
BRANCH  11  12
HETATM   12  C   UNL     1     -10.165   8.952  67.392  1.00  0.00    -0.249 A  
HETATM   13  C   UNL     1     -10.948  11.151  66.733  1.00  0.00    -0.309 A  
HETATM   14  C   UNL     1     -10.897  10.108  67.660  1.00  0.00    -0.346 A  
HETATM   15  C   UNL     1     -10.253  11.065  65.522  1.00  0.00    -0.327 A  
HETATM   16  C   UNL     1      -9.472   9.928  65.276  1.00  0.00    -0.331 A  
HETATM   17  C   UNL     1      -9.429   8.877  66.203  1.00  0.00    -0.318 A  
BRANCH  15  18
HETATM   18  C   UNL     1     -10.422  12.142  64.481  1.00  0.00    -0.339 C  
BRANCH  18  19
HETATM   19  C   UNL     1     -10.991  13.486  64.924  1.00  0.00    -0.352 C  
HETATM   20  S   UNL     1      -9.816  14.748  65.513  1.00  0.00    -0.232 SA 
HETATM   21  C   UNL     1     -10.798  16.044  64.873  1.00  0.00    -0.372 C  
HETATM   22  N   UNL     1     -11.709  15.550  64.000  1.00  0.00    -0.924 N  
HETATM   23  O   UNL     1     -10.678  17.214  65.193  1.00  0.00    -0.680 OA 
HETATM   24  C   UNL     1     -11.836  14.196  63.888  1.00  0.00    -0.177 C  
HETATM   25  H   UNL     1     -12.287  16.176  63.440  1.00  0.00     0.000 HD 
HETATM   26  O   UNL     1     -12.615  13.653  63.114  1.00  0.00    -0.792 OA 
ENDBRANCH  18  19
ENDBRANCH  15  18
ENDBRANCH  11  12
ENDBRANCH  10  11
ENDBRANCH   9  10
ENDBRANCH   2   9
TORSDOF 7
ENDMDL
MODEL       37
REMARK 921   NORMALIZED FREE ENERGY PREDICTED BY IDOCK:   -6.02 KCAL/MOL
REMARK 922        TOTAL FREE ENERGY PREDICTED BY IDOCK:   -9.33 KCAL/MOL
REMARK 923 INTER-LIGAND FREE ENERGY PREDICTED BY IDOCK:   -8.87 KCAL/MOL
REMARK 924 INTRA-LIGAND FREE ENERGY PREDICTED BY IDOCK:   -0.46 KCAL/MOL
REMARK 927      BINDING AFFINITY PREDICTED BY RF-SCORE:    0.00 PKD
ROOT
HETATM    1  C   UNL     1     -12.911  10.090  71.651  1.00  0.00    -0.440 C  
HETATM    2  N   UNL     1     -11.544   9.683  71.322  1.00  0.00    -0.365 NA 
ENDROOT
BRANCH   2   3
HETATM    3  C   UNL     1     -11.334   8.301  71.512  1.00  0.00    -0.268 A  
HETATM    4  C   UNL     1     -11.233   6.129  70.696  1.00  0.00    -0.319 A  
HETATM    5  C   UNL     1     -10.975   5.587  71.941  1.00  0.00    -0.264 A  
HETATM    6  C   UNL     1     -11.074   7.822  72.797  1.00  0.00    -0.457 A  
HETATM    7  C   UNL     1     -10.896   6.456  73.016  1.00  0.00    -0.287 A  
HETATM    8  N   UNL     1     -11.414   7.449  70.465  1.00  0.00    -0.277 NA 
ENDBRANCH   2   3
BRANCH   2   9
HETATM    9  C   UNL     1     -11.057  10.181  70.019  1.00  0.00    -0.308 C  
BRANCH   9  10
HETATM   10  C   UNL     1     -12.005  11.224  69.409  1.00  0.00    -0.341 C  
BRANCH  10  11
HETATM   11  O   UNL     1     -11.998  11.185  67.975  1.00  0.00    -0.625 OA 
BRANCH  11  12
HETATM   12  C   UNL     1     -11.728  12.386  67.363  1.00  0.00    -0.347 A  
HETATM   13  C   UNL     1     -11.261  13.823  65.466  1.00  0.00    -0.303 A  
HETATM   14  C   UNL     1     -11.612  12.576  65.987  1.00  0.00    -0.456 A  
HETATM   15  C   UNL     1     -11.033  14.912  66.313  1.00  0.00    -0.338 A  
HETATM   16  C   UNL     1     -11.204  14.736  67.693  1.00  0.00    -0.332 A  
HETATM   17  C   UNL     1     -11.547  13.482  68.216  1.00  0.00    -0.381 A  
BRANCH  15  18
HETATM   18  C   UNL     1     -10.531  16.214  65.744  1.00  0.00    -0.384 C  
BRANCH  18  19
HETATM   19  C   UNL     1     -10.191  17.340  66.716  1.00  0.00    -0.318 C  
HETATM   20  S   UNL     1      -8.629  17.209  67.645  1.00  0.00    -0.214 SA 
HETATM   21  C   UNL     1      -8.413  18.944  67.638  1.00  0.00    -0.280 C  
HETATM   22  N   UNL     1      -9.234  19.511  66.721  1.00  0.00    -0.330 N  
HETATM   23  O   UNL     1      -7.645  19.540  68.373  1.00  0.00    -0.308 OA 
HETATM   24  C   UNL     1     -10.166  18.725  66.107  1.00  0.00    -0.421 C  
HETATM   25  H   UNL     1      -9.156  20.502  66.495  1.00  0.00     0.000 HD 
HETATM   26  O   UNL     1     -10.938  19.138  65.251  1.00  0.00    -0.512 OA 
ENDBRANCH  18  19
ENDBRANCH  15  18
ENDBRANCH  11  12
ENDBRANCH  10  11
ENDBRANCH   9  10
ENDBRANCH   2   9
TORSDOF 7
ENDMDL
MODEL       38
REMARK 921   NORMALIZED FREE ENERGY PREDICTED BY IDOCK:   -6.01 KCAL/MOL
REMARK 922        TOTAL FREE ENERGY PREDICTED BY IDOCK:   -9.32 KCAL/MOL
REMARK 923 INTER-LIGAND FREE ENERGY PREDICTED BY IDOCK:   -8.44 KCAL/MOL
REMARK 924 INTRA-LIGAND FREE ENERGY PREDICTED BY IDOCK:   -0.88 KCAL/MOL
REMARK 927      BINDING AFFINITY PREDICTED BY RF-SCORE:    0.00 PKD
ROOT
HETATM    1  C   UNL     1     -11.528   5.655  72.665  1.00  0.00    -0.285 C  
HETATM    2  N   UNL     1     -11.533   6.554  71.510  1.00  0.00    -0.288 NA 
ENDROOT
BRANCH   2   3
HETATM    3  C   UNL     1     -10.918   5.981  70.378  1.00  0.00    -0.328 A  
HETATM    4  C   UNL     1     -10.580   5.874  68.083  1.00  0.00    -0.244 A  
HETATM    5  C   UNL     1      -9.736   4.783  68.176  1.00  0.00    -0.201 A  
HETATM    6  C   UNL     1     -10.072   4.882  70.545  1.00  0.00    -0.312 A  
HETATM    7  C   UNL     1      -9.479   4.277  69.438  1.00  0.00    -0.256 A  
HETATM    8  N   UNL     1     -11.169   6.471  69.144  1.00  0.00    -0.320 NA 
ENDBRANCH   2   3
BRANCH   2   9
HETATM    9  C   UNL     1     -12.846   7.168  71.221  1.00  0.00    -0.349 C  
BRANCH   9  10
HETATM   10  C   UNL     1     -12.934   8.611  71.741  1.00  0.00    -0.359 C  
BRANCH  10  11
HETATM   11  O   UNL     1     -11.654   9.258  71.754  1.00  0.00    -0.366 OA 
BRANCH  11  12
HETATM   12  C   UNL     1     -11.469  10.197  70.768  1.00  0.00    -0.357 A  
HETATM   13  C   UNL     1     -10.455  11.088  68.753  1.00  0.00    -0.222 A  
HETATM   14  C   UNL     1     -10.634  10.044  69.662  1.00  0.00    -0.278 A  
HETATM   15  C   UNL     1     -11.121  12.306  68.923  1.00  0.00    -0.291 A  
HETATM   16  C   UNL     1     -12.005  12.441  70.003  1.00  0.00    -0.372 A  
HETATM   17  C   UNL     1     -12.176  11.396  70.920  1.00  0.00    -0.447 A  
BRANCH  15  18
HETATM   18  C   UNL     1     -10.818  13.462  68.005  1.00  0.00    -0.264 C  
BRANCH  18  19
HETATM   19  C   UNL     1     -10.709  13.183  66.509  1.00  0.00    -0.279 C  
HETATM   20  S   UNL     1     -12.206  12.605  65.647  1.00  0.00    -0.309 SA 
HETATM   21  C   UNL     1     -11.748  13.432  64.177  1.00  0.00    -0.419 C  
HETATM   22  N   UNL     1     -10.771  14.334  64.436  1.00  0.00    -0.600 N  
HETATM   23  O   UNL     1     -12.235  13.202  63.083  1.00  0.00    -0.631 OA 
HETATM   24  C   UNL     1     -10.205  14.343  65.678  1.00  0.00    -0.350 C  
HETATM   25  H   UNL     1     -10.466  14.992  63.719  1.00  0.00     0.000 HD 
HETATM   26  O   UNL     1      -9.331  15.131  66.015  1.00  0.00    -0.306 OA 
ENDBRANCH  18  19
ENDBRANCH  15  18
ENDBRANCH  11  12
ENDBRANCH  10  11
ENDBRANCH   9  10
ENDBRANCH   2   9
TORSDOF 7
ENDMDL
MODEL       39
REMARK 921   NORMALIZED FREE ENERGY PREDICTED BY IDOCK:   -6.00 KCAL/MOL
REMARK 922        TOTAL FREE ENERGY PREDICTED BY IDOCK:   -9.32 KCAL/MOL
REMARK 923 INTER-LIGAND FREE ENERGY PREDICTED BY IDOCK:   -7.54 KCAL/MOL
REMARK 924 INTRA-LIGAND FREE ENERGY PREDICTED BY IDOCK:   -1.78 KCAL/MOL
REMARK 927      BINDING AFFINITY PREDICTED BY RF-SCORE:    0.00 PKD
ROOT
HETATM    1  C   UNL     1     -11.481  16.406  64.544  1.00  0.00    -0.073 C  
HETATM    2  N   UNL     1     -11.606  15.299  65.494  1.00  0.00    -0.151 NA 
ENDROOT
BRANCH   2   3
HETATM    3  C   UNL     1     -11.497  14.039  64.869  1.00  0.00    -0.358 A  
HETATM    4  C   UNL     1     -12.455  12.183  63.853  1.00  0.00    -0.478 A  
HETATM    5  C   UNL     1     -11.242  11.536  63.706  1.00  0.00    -0.456 A  
HETATM    6  C   UNL     1     -10.239  13.444  64.751  1.00  0.00    -0.339 A  
HETATM    7  C   UNL     1     -10.110  12.184  64.169  1.00  0.00    -0.335 A  
HETATM    8  N   UNL     1     -12.601  13.403  64.420  1.00  0.00    -0.648 NA 
ENDBRANCH   2   3
BRANCH   2   9
HETATM    9  C   UNL     1     -10.766  15.434  66.702  1.00  0.00    -0.309 C  
BRANCH   9  10
HETATM   10  C   UNL     1     -11.509  14.993  67.972  1.00  0.00    -0.342 C  
BRANCH  10  11
HETATM   11  O   UNL     1     -10.710  14.126  68.789  1.00  0.00    -0.245 OA 
BRANCH  11  12
HETATM   12  C   UNL     1     -10.519  12.863  68.280  1.00  0.00    -0.242 A  
HETATM   13  C   UNL     1     -11.241  10.693  67.476  1.00  0.00    -0.326 A  
HETATM   14  C   UNL     1     -11.537  11.984  67.913  1.00  0.00    -0.405 A  
HETATM   15  C   UNL     1      -9.915  10.256  67.383  1.00  0.00    -0.230 A  
HETATM   16  C   UNL     1      -8.889  11.157  67.698  1.00  0.00    -0.136 A  
HETATM   17  C   UNL     1      -9.187  12.451  68.146  1.00  0.00    -0.205 A  
BRANCH  15  18
HETATM   18  C   UNL     1      -9.620   8.820  67.032  1.00  0.00    -0.236 C  
BRANCH  18  19
HETATM   19  C   UNL     1      -9.741   7.772  68.135  1.00  0.00    -0.155 C  
HETATM   20  S   UNL     1     -10.046   8.363  69.831  1.00  0.00    -0.199 SA 
HETATM   21  C   UNL     1     -11.000   6.949  70.213  1.00  0.00    -0.281 C  
HETATM   22  N   UNL     1     -11.346   6.300  69.076  1.00  0.00    -0.537 N  
HETATM   23  O   UNL     1     -11.284   6.603  71.347  1.00  0.00    -0.251 OA 
HETATM   24  C   UNL     1     -10.796   6.713  67.897  1.00  0.00    -0.277 C  
HETATM   25  H   UNL     1     -12.004   5.521  69.100  1.00  0.00     0.000 HD 
HETATM   26  O   UNL     1     -11.060   6.205  66.814  1.00  0.00    -0.322 OA 
ENDBRANCH  18  19
ENDBRANCH  15  18
ENDBRANCH  11  12
ENDBRANCH  10  11
ENDBRANCH   9  10
ENDBRANCH   2   9
TORSDOF 7
ENDMDL
MODEL       40
REMARK 921   NORMALIZED FREE ENERGY PREDICTED BY IDOCK:   -5.98 KCAL/MOL
REMARK 922        TOTAL FREE ENERGY PREDICTED BY IDOCK:   -9.28 KCAL/MOL
REMARK 923 INTER-LIGAND FREE ENERGY PREDICTED BY IDOCK:   -7.52 KCAL/MOL
REMARK 924 INTRA-LIGAND FREE ENERGY PREDICTED BY IDOCK:   -1.76 KCAL/MOL
REMARK 927      BINDING AFFINITY PREDICTED BY RF-SCORE:    0.00 PKD
ROOT
HETATM    1  C   UNL     1      -6.410  20.247  69.848  1.00  0.00    -0.283 C  
HETATM    2  N   UNL     1      -6.788  19.064  69.073  1.00  0.00    -0.309 NA 
ENDROOT
BRANCH   2   3
HETATM    3  C   UNL     1      -7.970  19.262  68.330  1.00  0.00    -0.341 A  
HETATM    4  C   UNL     1      -9.071  19.606  66.314  1.00  0.00    -0.376 A  
HETATM    5  C   UNL     1     -10.311  19.712  66.916  1.00  0.00    -0.583 A  
HETATM    6  C   UNL     1      -9.190  19.357  69.003  1.00  0.00    -0.323 A  
HETATM    7  C   UNL     1     -10.368  19.586  68.294  1.00  0.00    -0.524 A  
HETATM    8  N   UNL     1      -7.917  19.389  66.985  1.00  0.00    -0.257 NA 
ENDBRANCH   2   3
BRANCH   2   9
HETATM    9  C   UNL     1      -5.686  18.475  68.284  1.00  0.00    -0.178 C  
BRANCH   9  10
HETATM   10  C   UNL     1      -5.324  17.063  68.765  1.00  0.00    -0.133 C  
BRANCH  10  11
HETATM   11  O   UNL     1      -5.844  16.047  67.895  1.00  0.00    -0.114 OA 
BRANCH  11  12
HETATM   12  C   UNL     1      -7.204  15.859  67.971  1.00  0.00    -0.132 A  
HETATM   13  C   UNL     1      -9.460  15.796  67.085  1.00  0.00    -0.222 A  
HETATM   14  C   UNL     1      -8.084  15.928  66.892  1.00  0.00    -0.285 A  
HETATM   15  C   UNL     1      -9.985  15.575  68.362  1.00  0.00    -0.214 A  
HETATM   16  C   UNL     1      -9.097  15.449  69.440  1.00  0.00    -0.258 A  
HETATM   17  C   UNL     1      -7.716  15.592  69.247  1.00  0.00    -0.223 A  
BRANCH  15  18
HETATM   18  C   UNL     1     -11.477  15.563  68.569  1.00  0.00    -0.369 C  
BRANCH  18  19
HETATM   19  C   UNL     1     -12.137  14.245  68.965  1.00  0.00    -0.285 C  
HETATM   20  S   UNL     1     -11.679  12.755  68.022  1.00  0.00    -0.346 SA 
HETATM   21  C   UNL     1     -11.860  11.737  69.432  1.00  0.00    -0.334 C  
HETATM   22  N   UNL     1     -11.898  12.498  70.552  1.00  0.00    -0.529 N  
HETATM   23  O   UNL     1     -11.955  10.523  69.390  1.00  0.00    -0.246 OA 
HETATM   24  C   UNL     1     -11.963  13.855  70.418  1.00  0.00    -0.323 C  
HETATM   25  H   UNL     1     -11.879  12.066  71.476  1.00  0.00     0.000 HD 
HETATM   26  O   UNL     1     -11.981  14.627  71.367  1.00  0.00    -0.335 OA 
ENDBRANCH  18  19
ENDBRANCH  15  18
ENDBRANCH  11  12
ENDBRANCH  10  11
ENDBRANCH   9  10
ENDBRANCH   2   9
TORSDOF 7
ENDMDL
MODEL       41
REMARK 921   NORMALIZED FREE ENERGY PREDICTED BY IDOCK:   -5.97 KCAL/MOL
REMARK 922        TOTAL FREE ENERGY PREDICTED BY IDOCK:   -9.26 KCAL/MOL
REMARK 923 INTER-LIGAND FREE ENERGY PREDICTED BY IDOCK:   -8.06 KCAL/MOL
REMARK 924 INTRA-LIGAND FREE ENERGY PREDICTED BY IDOCK:   -1.20 KCAL/MOL
REMARK 927      BINDING AFFINITY PREDICTED BY RF-SCORE:    0.00 PKD
ROOT
HETATM    1  C   UNL     1     -13.632   8.314  71.323  1.00  0.00    -0.124 C  
HETATM    2  N   UNL     1     -12.342   9.004  71.351  1.00  0.00    -0.308 NA 
ENDROOT
BRANCH   2   3
HETATM    3  C   UNL     1     -12.479  10.406  71.270  1.00  0.00    -0.415 A  
HETATM    4  C   UNL     1     -13.355  12.412  72.048  1.00  0.00    -0.407 A  
HETATM    5  C   UNL     1     -12.772  13.152  71.036  1.00  0.00    -0.361 A  
HETATM    6  C   UNL     1     -11.860  11.092  70.222  1.00  0.00    -0.456 A  
HETATM    7  C   UNL     1     -12.010  12.472  70.101  1.00  0.00    -0.377 A  
HETATM    8  N   UNL     1     -13.226  11.071  72.178  1.00  0.00    -0.390 NA 
ENDBRANCH   2   3
BRANCH   2   9
HETATM    9  C   UNL     1     -11.436   8.562  72.431  1.00  0.00    -0.349 C  
BRANCH   9  10
HETATM   10  C   UNL     1      -9.959   8.652  72.019  1.00  0.00    -0.329 C  
BRANCH  10  11
HETATM   11  O   UNL     1      -9.673   7.855  70.861  1.00  0.00    -0.164 OA 
BRANCH  11  12
HETATM   12  C   UNL     1      -9.428   8.569  69.711  1.00  0.00    -0.166 A  
HETATM   13  C   UNL     1      -8.478  10.392  68.425  1.00  0.00    -0.124 A  
HETATM   14  C   UNL     1      -8.603   9.690  69.625  1.00  0.00    -0.196 A  
HETATM   15  C   UNL     1      -9.164   9.977  67.279  1.00  0.00    -0.159 A  
HETATM   16  C   UNL     1      -9.950   8.818  67.351  1.00  0.00    -0.267 A  
HETATM   17  C   UNL     1     -10.083   8.120  68.558  1.00  0.00    -0.220 A  
BRANCH  15  18
HETATM   18  C   UNL     1      -9.118  10.819  66.030  1.00  0.00    -0.204 C  
BRANCH  18  19
HETATM   19  C   UNL     1     -10.377  10.900  65.172  1.00  0.00    -0.278 C  
HETATM   20  S   UNL     1     -11.391  12.408  65.302  1.00  0.00    -0.343 SA 
HETATM   21  C   UNL     1     -11.854  12.312  63.619  1.00  0.00    -0.522 C  
HETATM   22  N   UNL     1     -11.038  11.453  62.961  1.00  0.00    -0.840 N  
HETATM   23  O   UNL     1     -12.790  12.921  63.132  1.00  0.00    -0.544 OA 
HETATM   24  C   UNL     1     -10.152  10.711  63.687  1.00  0.00    -0.245 C  
HETATM   25  H   UNL     1     -11.084  11.365  61.946  1.00  0.00     0.000 HD 
HETATM   26  O   UNL     1      -9.359   9.924  63.184  1.00  0.00    -0.275 OA 
ENDBRANCH  18  19
ENDBRANCH  15  18
ENDBRANCH  11  12
ENDBRANCH  10  11
ENDBRANCH   9  10
ENDBRANCH   2   9
TORSDOF 7
ENDMDL
MODEL       42
REMARK 921   NORMALIZED FREE ENERGY PREDICTED BY IDOCK:   -5.92 KCAL/MOL
REMARK 922        TOTAL FREE ENERGY PREDICTED BY IDOCK:   -9.20 KCAL/MOL
REMARK 923 INTER-LIGAND FREE ENERGY PREDICTED BY IDOCK:   -8.77 KCAL/MOL
REMARK 924 INTRA-LIGAND FREE ENERGY PREDICTED BY IDOCK:   -0.44 KCAL/MOL
REMARK 927      BINDING AFFINITY PREDICTED BY RF-SCORE:    0.00 PKD
ROOT
HETATM    1  C   UNL     1     -10.682  15.675  65.572  1.00  0.00    -0.389 C  
HETATM    2  N   UNL     1     -10.622  16.249  66.917  1.00  0.00    -0.299 NA 
ENDROOT
BRANCH   2   3
HETATM    3  C   UNL     1     -10.404  17.642  66.899  1.00  0.00    -0.329 A  
HETATM    4  C   UNL     1      -9.610  19.563  65.862  1.00  0.00    -0.155 A  
HETATM    5  C   UNL     1      -9.936  20.373  66.934  1.00  0.00    -0.549 A  
HETATM    6  C   UNL     1     -10.760  18.401  68.015  1.00  0.00    -0.277 A  
HETATM    7  C   UNL     1     -10.522  19.775  68.036  1.00  0.00    -0.523 A  
HETATM    8  N   UNL     1      -9.828  18.228  65.826  1.00  0.00    -0.483 NA 
ENDBRANCH   2   3
BRANCH   2   9
HETATM    9  C   UNL     1     -11.728  15.836  67.805  1.00  0.00     0.019 C  
BRANCH   9  10
HETATM   10  C   UNL     1     -11.224  15.054  69.027  1.00  0.00    -0.268 C  
BRANCH  10  11
HETATM   11  O   UNL     1     -12.230  14.935  70.043  1.00  0.00    -0.313 OA 
BRANCH  11  12
HETATM   12  C   UNL     1     -12.410  13.664  70.536  1.00  0.00    -0.355 A  
HETATM   13  C   UNL     1     -12.116  11.257  70.548  1.00  0.00    -0.481 A  
HETATM   14  C   UNL     1     -11.810  12.514  70.025  1.00  0.00    -0.363 A  
HETATM   15  C   UNL     1     -13.020  11.125  71.608  1.00  0.00    -0.548 A  
HETATM   16  C   UNL     1     -13.581  12.285  72.159  1.00  0.00    -0.348 A  
HETATM   17  C   UNL     1     -13.280  13.546  71.627  1.00  0.00    -0.449 A  
BRANCH  15  18
HETATM   18  C   UNL     1     -13.435   9.754  72.075  1.00  0.00    -0.498 C  
BRANCH  18  19
HETATM   19  C   UNL     1     -12.551   8.568  71.697  1.00  0.00    -0.333 C  
HETATM   20  S   UNL     1     -10.965   8.385  72.574  1.00  0.00    -0.242 SA 
HETATM   21  C   UNL     1     -11.054   6.641  72.490  1.00  0.00    -0.261 C  
HETATM   22  N   UNL     1     -12.312   6.255  72.168  1.00  0.00    -0.488 N  
HETATM   23  O   UNL     1     -10.107   5.899  72.679  1.00  0.00    -0.175 OA 
HETATM   24  C   UNL     1     -13.216   7.213  71.809  1.00  0.00    -0.299 C  
HETATM   25  H   UNL     1     -12.578   5.271  72.193  1.00  0.00     0.000 HD 
HETATM   26  O   UNL     1     -14.381   6.968  71.521  1.00  0.00    -0.362 OA 
ENDBRANCH  18  19
ENDBRANCH  15  18
ENDBRANCH  11  12
ENDBRANCH  10  11
ENDBRANCH   9  10
ENDBRANCH   2   9
TORSDOF 7
ENDMDL
MODEL       43
REMARK 921   NORMALIZED FREE ENERGY PREDICTED BY IDOCK:   -5.91 KCAL/MOL
REMARK 922        TOTAL FREE ENERGY PREDICTED BY IDOCK:   -9.18 KCAL/MOL
REMARK 923 INTER-LIGAND FREE ENERGY PREDICTED BY IDOCK:   -8.36 KCAL/MOL
REMARK 924 INTRA-LIGAND FREE ENERGY PREDICTED BY IDOCK:   -0.83 KCAL/MOL
REMARK 927      BINDING AFFINITY PREDICTED BY RF-SCORE:    0.00 PKD
ROOT
HETATM    1  C   UNL     1      -9.835   8.571  72.383  1.00  0.00    -0.288 C  
HETATM    2  N   UNL     1     -10.790   8.987  71.355  1.00  0.00    -0.301 NA 
ENDROOT
BRANCH   2   3
HETATM    3  C   UNL     1     -10.777   8.136  70.230  1.00  0.00    -0.235 A  
HETATM    4  C   UNL     1     -11.236   6.097  69.218  1.00  0.00    -0.367 A  
HETATM    5  C   UNL     1     -10.672   6.475  68.014  1.00  0.00    -0.351 A  
HETATM    6  C   UNL     1     -10.194   8.584  69.044  1.00  0.00    -0.218 A  
HETATM    7  C   UNL     1     -10.137   7.749  67.929  1.00  0.00    -0.232 A  
HETATM    8  N   UNL     1     -11.295   6.890  70.312  1.00  0.00    -0.312 NA 
ENDBRANCH   2   3
BRANCH   2   9
HETATM    9  C   UNL     1     -12.148   9.271  71.864  1.00  0.00    -0.370 C  
BRANCH   9  10
HETATM   10  C   UNL     1     -12.923  10.223  70.940  1.00  0.00    -0.371 C  
BRANCH  10  11
HETATM   11  O   UNL     1     -12.764  11.596  71.324  1.00  0.00    -0.393 OA 
BRANCH  11  12
HETATM   12  C   UNL     1     -12.180  12.400  70.375  1.00  0.00    -0.287 A  
HETATM   13  C   UNL     1     -10.888  12.841  68.371  1.00  0.00    -0.272 A  
HETATM   14  C   UNL     1     -11.514  11.945  69.238  1.00  0.00    -0.366 A  
HETATM   15  C   UNL     1     -10.929  14.218  68.614  1.00  0.00    -0.268 A  
HETATM   16  C   UNL     1     -11.646  14.681  69.726  1.00  0.00    -0.341 A  
HETATM   17  C   UNL     1     -12.266  13.779  70.602  1.00  0.00    -0.434 A  
BRANCH  15  18
HETATM   18  C   UNL     1     -10.141  15.159  67.740  1.00  0.00    -0.230 C  
BRANCH  18  19
HETATM   19  C   UNL     1     -10.725  16.542  67.465  1.00  0.00    -0.283 C  
HETATM   20  S   UNL     1     -10.164  17.920  68.517  1.00  0.00    -0.375 SA 
HETATM   21  C   UNL     1     -10.304  19.059  67.198  1.00  0.00    -0.416 C  
HETATM   22  N   UNL     1     -10.405  18.397  66.021  1.00  0.00    -0.409 N  
HETATM   23  O   UNL     1     -10.325  20.269  67.340  1.00  0.00    -0.379 OA 
HETATM   24  C   UNL     1     -10.550  17.040  66.046  1.00  0.00    -0.206 C  
HETATM   25  H   UNL     1     -10.373  18.901  65.135  1.00  0.00     0.000 HD 
HETATM   26  O   UNL     1     -10.628  16.350  65.037  1.00  0.00    -0.651 OA 
ENDBRANCH  18  19
ENDBRANCH  15  18
ENDBRANCH  11  12
ENDBRANCH  10  11
ENDBRANCH   9  10
ENDBRANCH   2   9
TORSDOF 7
ENDMDL
MODEL       44
REMARK 921   NORMALIZED FREE ENERGY PREDICTED BY IDOCK:   -5.91 KCAL/MOL
REMARK 922        TOTAL FREE ENERGY PREDICTED BY IDOCK:   -9.18 KCAL/MOL
REMARK 923 INTER-LIGAND FREE ENERGY PREDICTED BY IDOCK:   -8.58 KCAL/MOL
REMARK 924 INTRA-LIGAND FREE ENERGY PREDICTED BY IDOCK:   -0.60 KCAL/MOL
REMARK 927      BINDING AFFINITY PREDICTED BY RF-SCORE:    0.00 PKD
ROOT
HETATM    1  C   UNL     1     -11.690  15.205  64.274  1.00  0.00    -0.224 C  
HETATM    2  N   UNL     1     -11.004  15.019  65.553  1.00  0.00    -0.342 NA 
ENDROOT
BRANCH   2   3
HETATM    3  C   UNL     1     -10.753  16.241  66.212  1.00  0.00    -0.185 A  
HETATM    4  C   UNL     1     -10.293  18.517  66.169  1.00  0.00    -0.426 A  
HETATM    5  C   UNL     1     -10.200  18.607  67.546  1.00  0.00    -0.425 A  
HETATM    6  C   UNL     1     -10.675  16.260  67.606  1.00  0.00    -0.311 A  
HETATM    7  C   UNL     1     -10.394  17.448  68.278  1.00  0.00    -0.374 A  
HETATM    8  N   UNL     1     -10.559  17.373  65.499  1.00  0.00    -0.598 NA 
ENDBRANCH   2   3
BRANCH   2   9
HETATM    9  C   UNL     1     -11.609  13.991  66.426  1.00  0.00    -0.369 C  
BRANCH   9  10
HETATM   10  C   UNL     1     -10.872  12.647  66.328  1.00  0.00    -0.273 C  
BRANCH  10  11
HETATM   11  O   UNL     1     -11.702  11.548  66.729  1.00  0.00    -0.510 OA 
BRANCH  11  12
HETATM   12  C   UNL     1     -11.337  10.945  67.910  1.00  0.00    -0.308 A  
HETATM   13  C   UNL     1     -10.196   9.286  69.261  1.00  0.00    -0.211 A  
HETATM   14  C   UNL     1     -10.445   9.879  68.022  1.00  0.00    -0.266 A  
HETATM   15  C   UNL     1     -10.822   9.758  70.419  1.00  0.00    -0.370 A  
HETATM   16  C   UNL     1     -11.675  10.866  70.315  1.00  0.00    -0.437 A  
HETATM   17  C   UNL     1     -11.933  11.455  69.070  1.00  0.00    -0.387 A  
BRANCH  15  18
HETATM   18  C   UNL     1     -10.640   9.026  71.723  1.00  0.00    -0.426 C  
BRANCH  18  19
HETATM   19  C   UNL     1     -10.877   7.519  71.741  1.00  0.00    -0.227 C  
HETATM   20  S   UNL     1      -9.929   6.530  72.941  1.00  0.00    -0.181 SA 
HETATM   21  C   UNL     1     -11.248   5.399  73.138  1.00  0.00    -0.297 C  
HETATM   22  N   UNL     1     -12.390   5.926  72.635  1.00  0.00    -0.506 N  
HETATM   23  O   UNL     1     -11.132   4.294  73.639  1.00  0.00    -0.264 OA 
HETATM   24  C   UNL     1     -12.317   7.100  71.943  1.00  0.00    -0.317 C  
HETATM   25  H   UNL     1     -13.285   5.456  72.772  1.00  0.00     0.000 HD 
HETATM   26  O   UNL     1     -13.294   7.666  71.468  1.00  0.00    -0.346 OA 
ENDBRANCH  18  19
ENDBRANCH  15  18
ENDBRANCH  11  12
ENDBRANCH  10  11
ENDBRANCH   9  10
ENDBRANCH   2   9
TORSDOF 7
ENDMDL
MODEL       45
REMARK 921   NORMALIZED FREE ENERGY PREDICTED BY IDOCK:   -5.89 KCAL/MOL
REMARK 922        TOTAL FREE ENERGY PREDICTED BY IDOCK:   -9.16 KCAL/MOL
REMARK 923 INTER-LIGAND FREE ENERGY PREDICTED BY IDOCK:   -8.34 KCAL/MOL
REMARK 924 INTRA-LIGAND FREE ENERGY PREDICTED BY IDOCK:   -0.82 KCAL/MOL
REMARK 927      BINDING AFFINITY PREDICTED BY RF-SCORE:    0.00 PKD
ROOT
HETATM    1  C   UNL     1     -11.165   6.473  69.985  1.00  0.00    -0.393 C  
HETATM    2  N   UNL     1     -10.917   7.891  69.720  1.00  0.00    -0.199 NA 
ENDROOT
BRANCH   2   3
HETATM    3  C   UNL     1     -11.710   8.736  70.524  1.00  0.00    -0.094 A  
HETATM    4  C   UNL     1     -13.364   9.056  72.123  1.00  0.00    -0.455 A  
HETATM    5  C   UNL     1     -13.292  10.434  72.039  1.00  0.00    -0.440 A  
HETATM    6  C   UNL     1     -11.584  10.120  70.390  1.00  0.00    -0.396 A  
HETATM    7  C   UNL     1     -12.381  10.976  71.149  1.00  0.00    -0.465 A  
HETATM    8  N   UNL     1     -12.604   8.210  71.391  1.00  0.00    -0.305 NA 
ENDBRANCH   2   3
BRANCH   2   9
HETATM    9  C   UNL     1      -9.489   8.267  69.698  1.00  0.00    -0.163 C  
BRANCH   9  10
HETATM   10  C   UNL     1      -9.013   8.644  68.288  1.00  0.00    -0.142 C  
BRANCH  10  11
HETATM   11  O   UNL     1     -10.077   8.586  67.327  1.00  0.00    -0.204 OA 
BRANCH  11  12
HETATM   12  C   UNL     1     -10.238   9.723  66.571  1.00  0.00    -0.219 A  
HETATM   13  C   UNL     1      -9.827  11.161  64.662  1.00  0.00    -0.330 A  
HETATM   14  C   UNL     1      -9.664   9.941  65.319  1.00  0.00    -0.383 A  
HETATM   15  C   UNL     1     -10.582  12.188  65.239  1.00  0.00    -0.319 A  
HETATM   16  C   UNL     1     -11.206  11.950  66.472  1.00  0.00    -0.383 A  
HETATM   17  C   UNL     1     -11.034  10.727  67.135  1.00  0.00    -0.324 A  
BRANCH  15  18
HETATM   18  C   UNL     1     -10.641  13.541  64.577  1.00  0.00    -0.439 C  
BRANCH  18  19
HETATM   19  C   UNL     1     -10.828  14.767  65.465  1.00  0.00    -0.351 C  
HETATM   20  S   UNL     1      -9.437  15.252  66.538  1.00  0.00    -0.305 SA 
HETATM   21  C   UNL     1      -9.836  16.947  66.386  1.00  0.00    -0.305 C  
HETATM   22  N   UNL     1     -10.689  17.133  65.350  1.00  0.00    -0.208 N  
HETATM   23  O   UNL     1      -9.413  17.818  67.126  1.00  0.00    -0.255 OA 
HETATM   24  C   UNL     1     -11.213  16.034  64.732  1.00  0.00    -0.339 C  
HETATM   25  H   UNL     1     -10.934  18.073  65.039  1.00  0.00     0.000 HD 
HETATM   26  O   UNL     1     -11.975  16.097  63.776  1.00  0.00    -0.926 OA 
ENDBRANCH  18  19
ENDBRANCH  15  18
ENDBRANCH  11  12
ENDBRANCH  10  11
ENDBRANCH   9  10
ENDBRANCH   2   9
TORSDOF 7
ENDMDL
MODEL       46
REMARK 921   NORMALIZED FREE ENERGY PREDICTED BY IDOCK:   -5.87 KCAL/MOL
REMARK 922        TOTAL FREE ENERGY PREDICTED BY IDOCK:   -9.13 KCAL/MOL
REMARK 923 INTER-LIGAND FREE ENERGY PREDICTED BY IDOCK:   -8.18 KCAL/MOL
REMARK 924 INTRA-LIGAND FREE ENERGY PREDICTED BY IDOCK:   -0.95 KCAL/MOL
REMARK 927      BINDING AFFINITY PREDICTED BY RF-SCORE:    0.00 PKD
ROOT
HETATM    1  C   UNL     1     -10.725  16.365  65.110  1.00  0.00    -0.291 C  
HETATM    2  N   UNL     1     -10.987  15.162  65.902  1.00  0.00    -0.338 NA 
ENDROOT
BRANCH   2   3
HETATM    3  C   UNL     1     -11.185  14.020  65.099  1.00  0.00    -0.329 A  
HETATM    4  C   UNL     1     -12.505  12.731  63.689  1.00  0.00    -0.389 A  
HETATM    5  C   UNL     1     -11.557  11.731  63.582  1.00  0.00    -0.521 A  
HETATM    6  C   UNL     1     -10.183  13.050  65.034  1.00  0.00    -0.287 A  
HETATM    7  C   UNL     1     -10.369  11.896  64.274  1.00  0.00    -0.362 A  
HETATM    8  N   UNL     1     -12.345  13.854  64.425  1.00  0.00    -0.623 NA 
ENDBRANCH   2   3
BRANCH   2   9
HETATM    9  C   UNL     1     -10.036  14.945  67.013  1.00  0.00    -0.244 C  
BRANCH   9  10
HETATM   10  C   UNL     1     -10.724  15.022  68.384  1.00  0.00    -0.245 C  
BRANCH  10  11
HETATM   11  O   UNL     1     -11.993  14.352  68.388  1.00  0.00    -0.331 OA 
BRANCH  11  12
HETATM   12  C   UNL     1     -11.990  13.106  68.970  1.00  0.00    -0.285 A  
HETATM   13  C   UNL     1     -12.179  11.554  70.823  1.00  0.00    -0.463 A  
HETATM   14  C   UNL     1     -12.283  12.847  70.308  1.00  0.00    -0.362 A  
HETATM   15  C   UNL     1     -11.793  10.487  70.005  1.00  0.00    -0.388 A  
HETATM   16  C   UNL     1     -11.552  10.738  68.646  1.00  0.00    -0.342 A  
HETATM   17  C   UNL     1     -11.648  12.038  68.132  1.00  0.00    -0.403 A  
BRANCH  15  18
HETATM   18  C   UNL     1     -11.562   9.124  70.605  1.00  0.00    -0.282 C  
BRANCH  18  19
HETATM   19  C   UNL     1     -10.608   9.014  71.790  1.00  0.00    -0.356 C  
HETATM   20  S   UNL     1     -10.891   7.663  72.979  1.00  0.00    -0.372 SA 
HETATM   21  C   UNL     1      -9.179   7.498  73.288  1.00  0.00    -0.205 C  
HETATM   22  N   UNL     1      -8.469   8.137  72.327  1.00  0.00    -0.154 N  
HETATM   23  O   UNL     1      -8.711   6.906  74.245  1.00  0.00    -0.151 OA 
HETATM   24  C   UNL     1      -9.143   8.908  71.423  1.00  0.00    -0.248 C  
HETATM   25  H   UNL     1      -7.455   8.045  72.279  1.00  0.00     0.000 HD 
HETATM   26  O   UNL     1      -8.596   9.508  70.507  1.00  0.00    -0.213 OA 
ENDBRANCH  18  19
ENDBRANCH  15  18
ENDBRANCH  11  12
ENDBRANCH  10  11
ENDBRANCH   9  10
ENDBRANCH   2   9
TORSDOF 7
ENDMDL
MODEL       47
REMARK 921   NORMALIZED FREE ENERGY PREDICTED BY IDOCK:   -5.87 KCAL/MOL
REMARK 922        TOTAL FREE ENERGY PREDICTED BY IDOCK:   -9.12 KCAL/MOL
REMARK 923 INTER-LIGAND FREE ENERGY PREDICTED BY IDOCK:   -8.41 KCAL/MOL
REMARK 924 INTRA-LIGAND FREE ENERGY PREDICTED BY IDOCK:   -0.71 KCAL/MOL
REMARK 927      BINDING AFFINITY PREDICTED BY RF-SCORE:    0.00 PKD
ROOT
HETATM    1  C   UNL     1      -9.247  15.316  66.665  1.00  0.00    -0.274 C  
HETATM    2  N   UNL     1     -10.476  16.009  66.276  1.00  0.00    -0.315 NA 
ENDROOT
BRANCH   2   3
HETATM    3  C   UNL     1     -10.433  17.388  66.571  1.00  0.00    -0.264 A  
HETATM    4  C   UNL     1     -10.481  19.612  65.904  1.00  0.00    -0.493 A  
HETATM    5  C   UNL     1     -10.281  20.086  67.187  1.00  0.00    -0.580 A  
HETATM    6  C   UNL     1     -10.231  17.797  67.890  1.00  0.00    -0.362 A  
HETATM    7  C   UNL     1     -10.151  19.153  68.202  1.00  0.00    -0.486 A  
HETATM    8  N   UNL     1     -10.556  18.300  65.581  1.00  0.00    -0.590 NA 
ENDBRANCH   2   3
BRANCH   2   9
HETATM    9  C   UNL     1     -10.934  15.713  64.903  1.00  0.00    -0.431 C  
BRANCH   9  10
HETATM   10  C   UNL     1     -11.788  14.438  64.843  1.00  0.00    -0.417 C  
BRANCH  10  11
HETATM   11  O   UNL     1     -11.204  13.438  63.996  1.00  0.00    -0.369 OA 
BRANCH  11  12
HETATM   12  C   UNL     1     -10.772  12.306  64.647  1.00  0.00    -0.308 A  
HETATM   13  C   UNL     1      -9.723  10.124  64.786  1.00  0.00    -0.389 A  
HETATM   14  C   UNL     1     -10.051  11.269  64.057  1.00  0.00    -0.382 A  
HETATM   15  C   UNL     1     -10.097  10.000  66.128  1.00  0.00    -0.317 A  
HETATM   16  C   UNL     1     -10.773  11.066  66.737  1.00  0.00    -0.319 A  
HETATM   17  C   UNL     1     -11.110  12.211  66.002  1.00  0.00    -0.354 A  
BRANCH  15  18
HETATM   18  C   UNL     1      -9.847   8.707  66.860  1.00  0.00    -0.305 C  
BRANCH  18  19
HETATM   19  C   UNL     1      -9.025   8.757  68.145  1.00  0.00    -0.141 C  
HETATM   20  S   UNL     1      -7.462   9.692  68.111  1.00  0.00    -0.081 SA 
HETATM   21  C   UNL     1      -7.646  10.172  69.782  1.00  0.00    -0.170 C  
HETATM   22  N   UNL     1      -8.919   9.954  70.190  1.00  0.00    -0.356 N  
HETATM   23  O   UNL     1      -6.742  10.616  70.468  1.00  0.00    -0.312 OA 
HETATM   24  C   UNL     1      -9.765   9.280  69.357  1.00  0.00    -0.172 C  
HETATM   25  H   UNL     1      -9.238  10.287  71.100  1.00  0.00     0.000 HD 
HETATM   26  O   UNL     1     -10.937   9.052  69.626  1.00  0.00    -0.220 OA 
ENDBRANCH  18  19
ENDBRANCH  15  18
ENDBRANCH  11  12
ENDBRANCH  10  11
ENDBRANCH   9  10
ENDBRANCH   2   9
TORSDOF 7
ENDMDL
MODEL       48
REMARK 921   NORMALIZED FREE ENERGY PREDICTED BY IDOCK:   -5.85 KCAL/MOL
REMARK 922        TOTAL FREE ENERGY PREDICTED BY IDOCK:   -9.10 KCAL/MOL
REMARK 923 INTER-LIGAND FREE ENERGY PREDICTED BY IDOCK:   -7.89 KCAL/MOL
REMARK 924 INTRA-LIGAND FREE ENERGY PREDICTED BY IDOCK:   -1.21 KCAL/MOL
REMARK 927      BINDING AFFINITY PREDICTED BY RF-SCORE:    0.00 PKD
ROOT
HETATM    1  C   UNL     1      -9.946   6.589  71.309  1.00  0.00    -0.181 C  
HETATM    2  N   UNL     1     -10.389   7.942  70.974  1.00  0.00    -0.201 NA 
ENDROOT
BRANCH   2   3
HETATM    3  C   UNL     1     -11.722   8.185  71.366  1.00  0.00    -0.285 A  
HETATM    4  C   UNL     1     -13.877   7.444  71.816  1.00  0.00    -0.330 A  
HETATM    5  C   UNL     1     -14.347   8.716  72.080  1.00  0.00    -0.518 A  
HETATM    6  C   UNL     1     -12.129   9.496  71.622  1.00  0.00    -0.474 A  
HETATM    7  C   UNL     1     -13.449   9.766  71.978  1.00  0.00    -0.498 A  
HETATM    8  N   UNL     1     -12.601   7.163  71.463  1.00  0.00    -0.374 NA 
ENDBRANCH   2   3
BRANCH   2   9
HETATM    9  C   UNL     1      -9.451   9.009  71.378  1.00  0.00    -0.264 C  
BRANCH   9  10
HETATM   10  C   UNL     1      -8.570   9.475  70.210  1.00  0.00    -0.226 C  
BRANCH  10  11
HETATM   11  O   UNL     1      -9.264   9.419  68.955  1.00  0.00    -0.140 OA 
BRANCH  11  12
HETATM   12  C   UNL     1      -9.819  10.608  68.546  1.00  0.00    -0.168 A  
HETATM   13  C   UNL     1      -9.804  12.988  68.079  1.00  0.00    -0.224 A  
HETATM   14  C   UNL     1      -9.132  11.816  68.432  1.00  0.00    -0.176 A  
HETATM   15  C   UNL     1     -11.178  12.973  67.818  1.00  0.00    -0.313 A  
HETATM   16  C   UNL     1     -11.859  11.749  67.877  1.00  0.00    -0.289 A  
HETATM   17  C   UNL     1     -11.186  10.575  68.241  1.00  0.00    -0.354 A  
BRANCH  15  18
HETATM   18  C   UNL     1     -11.909  14.266  67.564  1.00  0.00    -0.429 C  
BRANCH  18  19
HETATM   19  C   UNL     1     -12.229  15.157  68.761  1.00  0.00    -0.069 C  
HETATM   20  S   UNL     1     -12.373  14.359  70.392  1.00  0.00    -0.359 SA 
HETATM   21  C   UNL     1     -11.731  15.768  71.202  1.00  0.00    -0.428 C  
HETATM   22  N   UNL     1     -11.138  16.591  70.304  1.00  0.00    -0.435 N  
HETATM   23  O   UNL     1     -11.830  15.972  72.400  1.00  0.00    -0.468 OA 
HETATM   24  C   UNL     1     -11.271  16.309  68.975  1.00  0.00    -0.326 C  
HETATM   25  H   UNL     1     -10.604  17.402  70.614  1.00  0.00     0.000 HD 
HETATM   26  O   UNL     1     -10.757  16.979  68.088  1.00  0.00    -0.358 OA 
ENDBRANCH  18  19
ENDBRANCH  15  18
ENDBRANCH  11  12
ENDBRANCH  10  11
ENDBRANCH   9  10
ENDBRANCH   2   9
TORSDOF 7
ENDMDL
MODEL       49
REMARK 921   NORMALIZED FREE ENERGY PREDICTED BY IDOCK:   -5.85 KCAL/MOL
REMARK 922        TOTAL FREE ENERGY PREDICTED BY IDOCK:   -9.09 KCAL/MOL
REMARK 923 INTER-LIGAND FREE ENERGY PREDICTED BY IDOCK:   -8.54 KCAL/MOL
REMARK 924 INTRA-LIGAND FREE ENERGY PREDICTED BY IDOCK:   -0.56 KCAL/MOL
REMARK 927      BINDING AFFINITY PREDICTED BY RF-SCORE:    0.00 PKD
ROOT
HETATM    1  C   UNL     1     -10.322  19.861  66.614  1.00  0.00    -0.485 C  
HETATM    2  N   UNL     1      -9.520  18.932  67.410  1.00  0.00    -0.295 NA 
ENDROOT
BRANCH   2   3
HETATM    3  C   UNL     1      -8.300  19.501  67.834  1.00  0.00    -0.315 A  
HETATM    4  C   UNL     1      -6.625  19.770  69.420  1.00  0.00    -0.355 A  
HETATM    5  C   UNL     1      -5.934  20.689  68.653  1.00  0.00    -0.379 A  
HETATM    6  C   UNL     1      -7.653  20.420  67.007  1.00  0.00    -0.360 A  
HETATM    7  C   UNL     1      -6.465  21.022  67.418  1.00  0.00    -0.427 A  
HETATM    8  N   UNL     1      -7.782  19.181  69.041  1.00  0.00    -0.320 NA 
ENDBRANCH   2   3
BRANCH   2   9
HETATM    9  C   UNL     1     -10.264  18.257  68.493  1.00  0.00    -0.379 C  
BRANCH   9  10
HETATM   10  C   UNL     1     -10.402  16.748  68.244  1.00  0.00    -0.319 C  
BRANCH  10  11
HETATM   11  O   UNL     1     -11.692  16.254  68.629  1.00  0.00    -0.314 OA 
BRANCH  11  12
HETATM   12  C   UNL     1     -11.739  14.908  68.906  1.00  0.00    -0.315 A  
HETATM   13  C   UNL     1     -11.663  12.551  68.341  1.00  0.00    -0.375 A  
HETATM   14  C   UNL     1     -11.519  13.891  67.978  1.00  0.00    -0.339 A  
HETATM   15  C   UNL     1     -12.018  12.198  69.648  1.00  0.00    -0.351 A  
HETATM   16  C   UNL     1     -12.185  13.218  70.595  1.00  0.00    -0.417 A  
HETATM   17  C   UNL     1     -12.049  14.564  70.227  1.00  0.00    -0.386 A  
BRANCH  15  18
HETATM   18  C   UNL     1     -12.294  10.757  69.989  1.00  0.00    -0.371 C  
BRANCH  18  19
HETATM   19  C   UNL     1     -11.515  10.129  71.141  1.00  0.00    -0.307 C  
HETATM   20  S   UNL     1     -12.424   9.033  72.277  1.00  0.00    -0.322 SA 
HETATM   21  C   UNL     1     -11.014   8.031  72.529  1.00  0.00    -0.364 C  
HETATM   22  N   UNL     1     -10.085   8.287  71.578  1.00  0.00    -0.195 N  
HETATM   23  O   UNL     1     -10.896   7.236  73.446  1.00  0.00    -0.374 OA 
HETATM   24  C   UNL     1     -10.294   9.335  70.728  1.00  0.00    -0.281 C  
HETATM   25  H   UNL     1      -9.248   7.710  71.498  1.00  0.00     0.000 HD 
HETATM   26  O   UNL     1      -9.524   9.634  69.824  1.00  0.00    -0.191 OA 
ENDBRANCH  18  19
ENDBRANCH  15  18
ENDBRANCH  11  12
ENDBRANCH  10  11
ENDBRANCH   9  10
ENDBRANCH   2   9
TORSDOF 7
ENDMDL
MODEL       50
REMARK 921   NORMALIZED FREE ENERGY PREDICTED BY IDOCK:   -5.84 KCAL/MOL
REMARK 922        TOTAL FREE ENERGY PREDICTED BY IDOCK:   -9.08 KCAL/MOL
REMARK 923 INTER-LIGAND FREE ENERGY PREDICTED BY IDOCK:   -8.51 KCAL/MOL
REMARK 924 INTRA-LIGAND FREE ENERGY PREDICTED BY IDOCK:   -0.57 KCAL/MOL
REMARK 927      BINDING AFFINITY PREDICTED BY RF-SCORE:    0.00 PKD
ROOT
HETATM    1  C   UNL     1      -9.108   4.885  69.317  1.00  0.00    -0.102 C  
HETATM    2  N   UNL     1     -10.446   5.232  69.798  1.00  0.00    -0.300 NA 
ENDROOT
BRANCH   2   3
HETATM    3  C   UNL     1     -10.421   5.827  71.077  1.00  0.00    -0.244 A  
HETATM    4  C   UNL     1      -9.612   5.942  73.251  1.00  0.00    -0.143 A  
HETATM    5  C   UNL     1     -10.451   6.986  73.594  1.00  0.00    -0.414 A  
HETATM    6  C   UNL     1     -11.294   6.881  71.355  1.00  0.00    -0.308 A  
HETATM    7  C   UNL     1     -11.313   7.463  72.621  1.00  0.00    -0.360 A  
HETATM    8  N   UNL     1      -9.584   5.361  72.030  1.00  0.00    -0.154 NA 
ENDBRANCH   2   3
BRANCH   2   9
HETATM    9  C   UNL     1     -11.274   5.968  68.820  1.00  0.00    -0.132 C  
BRANCH   9  10
HETATM   10  C   UNL     1     -10.429   6.884  67.923  1.00  0.00    -0.212 C  
BRANCH  10  11
HETATM   11  O   UNL     1     -10.430   8.242  68.387  1.00  0.00    -0.207 OA 
BRANCH  11  12
HETATM   12  C   UNL     1     -10.476   9.193  67.395  1.00  0.00    -0.271 A  
HETATM   13  C   UNL     1      -9.933  10.120  65.221  1.00  0.00    -0.381 A  
HETATM   14  C   UNL     1      -9.895   9.065  66.134  1.00  0.00    -0.349 A  
HETATM   15  C   UNL     1     -10.567  11.324  65.545  1.00  0.00    -0.306 A  
HETATM   16  C   UNL     1     -11.200  11.433  66.792  1.00  0.00    -0.319 A  
HETATM   17  C   UNL     1     -11.154  10.377  67.711  1.00  0.00    -0.365 A  
BRANCH  15  18
HETATM   18  C   UNL     1     -10.487  12.494  64.599  1.00  0.00    -0.344 C  
BRANCH  18  19
HETATM   19  C   UNL     1     -11.021  13.841  65.077  1.00  0.00    -0.357 C  
HETATM   20  S   UNL     1      -9.804  15.097  65.589  1.00  0.00    -0.316 SA 
HETATM   21  C   UNL     1     -10.819  16.398  65.012  1.00  0.00    -0.273 C  
HETATM   22  N   UNL     1     -11.786  15.908  64.199  1.00  0.00    -0.876 N  
HETATM   23  O   UNL     1     -10.673  17.568  65.323  1.00  0.00    -0.656 OA 
HETATM   24  C   UNL     1     -11.926  14.554  64.096  1.00  0.00    -0.321 C  
HETATM   25  H   UNL     1     -12.395  16.537  63.676  1.00  0.00     0.000 HD 
HETATM   26  O   UNL     1     -12.755  14.015  63.374  1.00  0.00    -0.796 OA 
ENDBRANCH  18  19
ENDBRANCH  15  18
ENDBRANCH  11  12
ENDBRANCH  10  11
ENDBRANCH   9  10
ENDBRANCH   2   9
TORSDOF 7
ENDMDL
MODEL       51
REMARK 921   NORMALIZED FREE ENERGY PREDICTED BY IDOCK:   -5.83 KCAL/MOL
REMARK 922        TOTAL FREE ENERGY PREDICTED BY IDOCK:   -9.07 KCAL/MOL
REMARK 923 INTER-LIGAND FREE ENERGY PREDICTED BY IDOCK:   -8.09 KCAL/MOL
REMARK 924 INTRA-LIGAND FREE ENERGY PREDICTED BY IDOCK:   -0.98 KCAL/MOL
REMARK 927      BINDING AFFINITY PREDICTED BY RF-SCORE:    0.00 PKD
ROOT
HETATM    1  C   UNL     1      -9.548   7.709  72.397  1.00  0.00    -0.168 C  
HETATM    2  N   UNL     1     -10.605   6.895  71.796  1.00  0.00    -0.211 NA 
ENDROOT
BRANCH   2   3
HETATM    3  C   UNL     1     -11.861   7.536  71.827  1.00  0.00    -0.294 A  
HETATM    4  C   UNL     1     -14.174   7.486  71.620  1.00  0.00    -0.458 A  
HETATM    5  C   UNL     1     -14.304   8.846  71.834  1.00  0.00    -0.378 A  
HETATM    6  C   UNL     1     -11.919   8.912  72.051  1.00  0.00    -0.439 A  
HETATM    7  C   UNL     1     -13.146   9.574  72.052  1.00  0.00    -0.528 A  
HETATM    8  N   UNL     1     -12.992   6.828  71.610  1.00  0.00    -0.311 NA 
ENDBRANCH   2   3
BRANCH   2   9
HETATM    9  C   UNL     1     -10.262   6.331  70.474  1.00  0.00    -0.193 C  
BRANCH   9  10
HETATM   10  C   UNL     1      -9.200   7.169  69.748  1.00  0.00    -0.143 C  
BRANCH  10  11
HETATM   11  O   UNL     1      -9.596   7.497  68.408  1.00  0.00    -0.147 OA 
BRANCH  11  12
HETATM   12  C   UNL     1     -10.020   8.793  68.230  1.00  0.00    -0.176 A  
HETATM   13  C   UNL     1     -10.626  11.021  68.970  1.00  0.00    -0.258 A  
HETATM   14  C   UNL     1     -10.111   9.752  69.238  1.00  0.00    -0.207 A  
HETATM   15  C   UNL     1     -11.049  11.364  67.682  1.00  0.00    -0.325 A  
HETATM   16  C   UNL     1     -10.906  10.419  66.656  1.00  0.00    -0.140 A  
HETATM   17  C   UNL     1     -10.397   9.142  66.928  1.00  0.00    -0.321 A  
BRANCH  15  18
HETATM   18  C   UNL     1     -11.719  12.691  67.439  1.00  0.00    -0.432 C  
BRANCH  18  19
HETATM   19  C   UNL     1     -11.168  13.582  66.330  1.00  0.00    -0.307 C  
HETATM   20  S   UNL     1     -12.306  14.068  64.993  1.00  0.00    -0.433 SA 
HETATM   21  C   UNL     1     -11.520  15.619  64.809  1.00  0.00    -0.283 C  
HETATM   22  N   UNL     1     -10.735  15.872  65.884  1.00  0.00    -0.317 N  
HETATM   23  O   UNL     1     -11.656  16.343  63.839  1.00  0.00    -1.100 OA 
HETATM   24  C   UNL     1     -10.546  14.879  66.802  1.00  0.00    -0.305 C  
HETATM   25  H   UNL     1     -10.294  16.784  66.004  1.00  0.00     0.000 HD 
HETATM   26  O   UNL     1      -9.872  15.016  67.815  1.00  0.00    -0.218 OA 
ENDBRANCH  18  19
ENDBRANCH  15  18
ENDBRANCH  11  12
ENDBRANCH  10  11
ENDBRANCH   9  10
ENDBRANCH   2   9
TORSDOF 7
ENDMDL
MODEL       52
REMARK 921   NORMALIZED FREE ENERGY PREDICTED BY IDOCK:   -5.81 KCAL/MOL
REMARK 922        TOTAL FREE ENERGY PREDICTED BY IDOCK:   -9.04 KCAL/MOL
REMARK 923 INTER-LIGAND FREE ENERGY PREDICTED BY IDOCK:   -7.04 KCAL/MOL
REMARK 924 INTRA-LIGAND FREE ENERGY PREDICTED BY IDOCK:   -2.00 KCAL/MOL
REMARK 927      BINDING AFFINITY PREDICTED BY RF-SCORE:    0.00 PKD
ROOT
HETATM    1  C   UNL     1      -9.302  10.938  63.110  1.00  0.00    -0.324 C  
HETATM    2  N   UNL     1      -9.598  11.216  64.516  1.00  0.00    -0.243 NA 
ENDROOT
BRANCH   2   3
HETATM    3  C   UNL     1     -10.570  12.225  64.672  1.00  0.00    -0.303 A  
HETATM    4  C   UNL     1     -12.779  12.901  64.915  1.00  0.00    -0.403 A  
HETATM    5  C   UNL     1     -12.453  14.244  64.913  1.00  0.00    -0.403 A  
HETATM    6  C   UNL     1     -10.171  13.563  64.664  1.00  0.00    -0.341 A  
HETATM    7  C   UNL     1     -11.117  14.580  64.782  1.00  0.00    -0.400 A  
HETATM    8  N   UNL     1     -11.876  11.901  64.796  1.00  0.00    -0.242 NA 
ENDBRANCH   2   3
BRANCH   2   9
HETATM    9  C   UNL     1      -9.859  10.013  65.333  1.00  0.00    -0.314 C  
BRANCH   9  10
HETATM   10  C   UNL     1      -9.269  10.137  66.746  1.00  0.00    -0.151 C  
BRANCH  10  11
HETATM   11  O   UNL     1     -10.274  10.432  67.726  1.00  0.00    -0.176 OA 
BRANCH  11  12
HETATM   12  C   UNL     1     -10.374  11.758  68.075  1.00  0.00    -0.198 A  
HETATM   13  C   UNL     1     -11.562  13.769  68.723  1.00  0.00    -0.363 A  
HETATM   14  C   UNL     1     -11.550  12.399  68.460  1.00  0.00    -0.358 A  
HETATM   15  C   UNL     1     -10.391  14.527  68.621  1.00  0.00    -0.242 A  
HETATM   16  C   UNL     1      -9.196  13.874  68.287  1.00  0.00    -0.207 A  
HETATM   17  C   UNL     1      -9.187  12.499  68.014  1.00  0.00    -0.204 A  
BRANCH  15  18
HETATM   18  C   UNL     1     -10.448  16.025  68.783  1.00  0.00    -0.248 C  
BRANCH  18  19
HETATM   19  C   UNL     1      -9.556  16.879  67.887  1.00  0.00    -0.244 C  
HETATM   20  S   UNL     1     -10.315  18.315  67.063  1.00  0.00    -0.389 SA 
HETATM   21  C   UNL     1      -8.828  19.230  67.162  1.00  0.00    -0.294 C  
HETATM   22  N   UNL     1      -7.982  18.647  68.045  1.00  0.00    -0.266 N  
HETATM   23  O   UNL     1      -8.598  20.233  66.509  1.00  0.00    -0.277 OA 
HETATM   24  C   UNL     1      -8.314  17.426  68.558  1.00  0.00    -0.271 C  
HETATM   25  H   UNL     1      -7.115  19.109  68.320  1.00  0.00     0.000 HD 
HETATM   26  O   UNL     1      -7.627  16.828  69.376  1.00  0.00    -0.181 OA 
ENDBRANCH  18  19
ENDBRANCH  15  18
ENDBRANCH  11  12
ENDBRANCH  10  11
ENDBRANCH   9  10
ENDBRANCH   2   9
TORSDOF 7
ENDMDL
MODEL       53
REMARK 921   NORMALIZED FREE ENERGY PREDICTED BY IDOCK:   -5.80 KCAL/MOL
REMARK 922        TOTAL FREE ENERGY PREDICTED BY IDOCK:   -9.03 KCAL/MOL
REMARK 923 INTER-LIGAND FREE ENERGY PREDICTED BY IDOCK:   -7.70 KCAL/MOL
REMARK 924 INTRA-LIGAND FREE ENERGY PREDICTED BY IDOCK:   -1.33 KCAL/MOL
REMARK 927      BINDING AFFINITY PREDICTED BY RF-SCORE:    0.00 PKD
ROOT
HETATM    1  C   UNL     1     -11.432   5.659  72.514  1.00  0.00    -0.279 C  
HETATM    2  N   UNL     1     -11.207   6.503  71.339  1.00  0.00    -0.270 NA 
ENDROOT
BRANCH   2   3
HETATM    3  C   UNL     1     -11.819   7.768  71.460  1.00  0.00    -0.293 A  
HETATM    4  C   UNL     1     -13.590   9.115  72.125  1.00  0.00    -0.474 A  
HETATM    5  C   UNL     1     -13.012  10.264  71.619  1.00  0.00    -0.570 A  
HETATM    6  C   UNL     1     -11.177   8.888  70.929  1.00  0.00    -0.334 A  
HETATM    7  C   UNL     1     -11.777  10.144  71.005  1.00  0.00    -0.470 A  
HETATM    8  N   UNL     1     -13.026   7.887  72.055  1.00  0.00    -0.281 NA 
ENDBRANCH   2   3
BRANCH   2   9
HETATM    9  C   UNL     1      -9.799   6.567  70.896  1.00  0.00    -0.183 C  
BRANCH   9  10
HETATM   10  C   UNL     1      -9.545   5.700  69.654  1.00  0.00    -0.151 C  
BRANCH  10  11
HETATM   11  O   UNL     1      -8.698   6.358  68.701  1.00  0.00    -0.122 OA 
BRANCH  11  12
HETATM   12  C   UNL     1      -9.199   7.534  68.196  1.00  0.00    -0.137 A  
HETATM   13  C   UNL     1     -10.752   8.881  66.908  1.00  0.00    -0.153 A  
HETATM   14  C   UNL     1     -10.366   7.650  67.441  1.00  0.00    -0.347 A  
HETATM   15  C   UNL     1      -9.984  10.028  67.132  1.00  0.00    -0.251 A  
HETATM   16  C   UNL     1      -8.841   9.924  67.937  1.00  0.00    -0.129 A  
HETATM   17  C   UNL     1      -8.449   8.686  68.464  1.00  0.00    -0.131 A  
BRANCH  15  18
HETATM   18  C   UNL     1     -10.345  11.320  66.444  1.00  0.00    -0.291 C  
BRANCH  18  19
HETATM   19  C   UNL     1     -11.231  12.309  67.194  1.00  0.00    -0.307 C  
HETATM   20  S   UNL     1     -10.419  13.470  68.339  1.00  0.00    -0.248 SA 
HETATM   21  C   UNL     1     -11.592  14.720  67.995  1.00  0.00    -0.343 C  
HETATM   22  N   UNL     1     -12.286  14.410  66.874  1.00  0.00    -0.547 N  
HETATM   23  O   UNL     1     -11.760  15.709  68.688  1.00  0.00    -0.366 OA 
HETATM   24  C   UNL     1     -12.106  13.178  66.315  1.00  0.00    -0.397 C  
HETATM   25  H   UNL     1     -12.928  15.083  66.456  1.00  0.00     0.000 HD 
HETATM   26  O   UNL     1     -12.670  12.812  65.292  1.00  0.00    -0.625 OA 
ENDBRANCH  18  19
ENDBRANCH  15  18
ENDBRANCH  11  12
ENDBRANCH  10  11
ENDBRANCH   9  10
ENDBRANCH   2   9
TORSDOF 7
ENDMDL
MODEL       54
REMARK 921   NORMALIZED FREE ENERGY PREDICTED BY IDOCK:   -5.76 KCAL/MOL
REMARK 922        TOTAL FREE ENERGY PREDICTED BY IDOCK:   -8.97 KCAL/MOL
REMARK 923 INTER-LIGAND FREE ENERGY PREDICTED BY IDOCK:   -7.26 KCAL/MOL
REMARK 924 INTRA-LIGAND FREE ENERGY PREDICTED BY IDOCK:   -1.71 KCAL/MOL
REMARK 927      BINDING AFFINITY PREDICTED BY RF-SCORE:    0.00 PKD
ROOT
HETATM    1  C   UNL     1     -12.639  12.164  63.859  1.00  0.00    -0.438 C  
HETATM    2  N   UNL     1     -11.322  12.678  64.236  1.00  0.00    -0.339 NA 
ENDROOT
BRANCH   2   3
HETATM    3  C   UNL     1     -11.138  12.714  65.634  1.00  0.00    -0.292 A  
HETATM    4  C   UNL     1     -11.777  12.114  67.785  1.00  0.00    -0.320 A  
HETATM    5  C   UNL     1     -10.779  12.864  68.378  1.00  0.00    -0.273 A  
HETATM    6  C   UNL     1     -10.107  13.490  66.166  1.00  0.00    -0.307 A  
HETATM    7  C   UNL     1      -9.926  13.569  67.546  1.00  0.00    -0.230 A  
HETATM    8  N   UNL     1     -11.971  12.029  66.450  1.00  0.00    -0.593 NA 
ENDBRANCH   2   3
BRANCH   2   9
HETATM    9  C   UNL     1     -10.195  12.059  63.509  1.00  0.00    -0.450 C  
BRANCH   9  10
HETATM   10  C   UNL     1      -9.920  10.625  63.983  1.00  0.00    -0.337 C  
BRANCH  10  11
HETATM   11  O   UNL     1      -8.706  10.531  64.741  1.00  0.00    -0.182 OA 
BRANCH  11  12
HETATM   12  C   UNL     1      -8.849   9.997  66.001  1.00  0.00    -0.145 A  
HETATM   13  C   UNL     1      -8.226   9.657  68.319  1.00  0.00    -0.106 A  
HETATM   14  C   UNL     1      -8.049  10.310  67.099  1.00  0.00    -0.121 A  
HETATM   15  C   UNL     1      -9.221   8.685  68.472  1.00  0.00    -0.138 A  
HETATM   16  C   UNL     1     -10.063   8.411  67.385  1.00  0.00    -0.301 A  
HETATM   17  C   UNL     1      -9.877   9.060  66.157  1.00  0.00    -0.349 A  
BRANCH  15  18
HETATM   18  C   UNL     1      -9.314   7.901  69.756  1.00  0.00    -0.153 C  
BRANCH  18  19
HETATM   19  C   UNL     1     -10.408   8.279  70.750  1.00  0.00    -0.193 C  
HETATM   20  S   UNL     1     -10.931  10.023  70.807  1.00  0.00    -0.233 SA 
HETATM   21  C   UNL     1     -12.575   9.577  71.199  1.00  0.00    -0.301 C  
HETATM   22  N   UNL     1     -12.772   8.261  70.947  1.00  0.00    -0.500 N  
HETATM   23  O   UNL     1     -13.404  10.349  71.650  1.00  0.00    -0.376 OA 
HETATM   24  C   UNL     1     -11.694   7.492  70.617  1.00  0.00    -0.215 C  
HETATM   25  H   UNL     1     -13.705   7.853  71.003  1.00  0.00     0.000 HD 
HETATM   26  O   UNL     1     -11.771   6.299  70.352  1.00  0.00    -0.367 OA 
ENDBRANCH  18  19
ENDBRANCH  15  18
ENDBRANCH  11  12
ENDBRANCH  10  11
ENDBRANCH   9  10
ENDBRANCH   2   9
TORSDOF 7
ENDMDL
MODEL       55
REMARK 921   NORMALIZED FREE ENERGY PREDICTED BY IDOCK:   -5.73 KCAL/MOL
REMARK 922        TOTAL FREE ENERGY PREDICTED BY IDOCK:   -8.93 KCAL/MOL
REMARK 923 INTER-LIGAND FREE ENERGY PREDICTED BY IDOCK:   -8.05 KCAL/MOL
REMARK 924 INTRA-LIGAND FREE ENERGY PREDICTED BY IDOCK:   -0.88 KCAL/MOL
REMARK 927      BINDING AFFINITY PREDICTED BY RF-SCORE:    0.00 PKD
ROOT
HETATM    1  C   UNL     1     -10.618  14.384  64.856  1.00  0.00    -0.434 C  
HETATM    2  N   UNL     1     -11.328  13.106  64.803  1.00  0.00    -0.313 NA 
ENDROOT
BRANCH   2   3
HETATM    3  C   UNL     1     -10.503  12.049  64.366  1.00  0.00    -0.312 A  
HETATM    4  C   UNL     1      -9.222  11.013  62.728  1.00  0.00    -0.351 A  
HETATM    5  C   UNL     1      -8.937   9.921  63.527  1.00  0.00    -0.277 A  
HETATM    6  C   UNL     1     -10.253  10.978  65.226  1.00  0.00    -0.344 A  
HETATM    7  C   UNL     1      -9.469   9.905  64.805  1.00  0.00    -0.356 A  
HETATM    8  N   UNL     1      -9.985  12.060  63.117  1.00  0.00    -0.375 NA 
ENDBRANCH   2   3
BRANCH   2   9
HETATM    9  C   UNL     1     -12.100  12.786  66.022  1.00  0.00    -0.395 C  
BRANCH   9  10
HETATM   10  C   UNL     1     -11.790  13.757  67.171  1.00  0.00    -0.406 C  
BRANCH  10  11
HETATM   11  O   UNL     1     -10.632  13.358  67.917  1.00  0.00    -0.236 OA 
BRANCH  11  12
HETATM   12  C   UNL     1     -10.830  12.302  68.775  1.00  0.00    -0.229 A  
HETATM   13  C   UNL     1     -10.426  10.070  69.633  1.00  0.00    -0.275 A  
HETATM   14  C   UNL     1     -10.098  11.115  68.769  1.00  0.00    -0.211 A  
HETATM   15  C   UNL     1     -11.487  10.196  70.537  1.00  0.00    -0.417 A  
HETATM   16  C   UNL     1     -12.188  11.409  70.583  1.00  0.00    -0.484 A  
HETATM   17  C   UNL     1     -11.864  12.455  69.708  1.00  0.00    -0.387 A  
BRANCH  15  18
HETATM   18  C   UNL     1     -11.907   9.014  71.371  1.00  0.00    -0.395 C  
BRANCH  18  19
HETATM   19  C   UNL     1     -10.903   7.882  71.571  1.00  0.00    -0.229 C  
HETATM   20  S   UNL     1     -10.506   7.398  73.282  1.00  0.00    -0.375 SA 
HETATM   21  C   UNL     1     -10.287   5.727  72.818  1.00  0.00    -0.192 C  
HETATM   22  N   UNL     1     -10.816   5.511  71.590  1.00  0.00    -0.233 N  
HETATM   23  O   UNL     1      -9.720   4.896  73.507  1.00  0.00    -0.134 OA 
HETATM   24  C   UNL     1     -11.253   6.586  70.871  1.00  0.00    -0.311 C  
HETATM   25  H   UNL     1     -10.886   4.567  71.211  1.00  0.00     0.000 HD 
HETATM   26  O   UNL     1     -11.764   6.494  69.762  1.00  0.00    -0.382 OA 
ENDBRANCH  18  19
ENDBRANCH  15  18
ENDBRANCH  11  12
ENDBRANCH  10  11
ENDBRANCH   9  10
ENDBRANCH   2   9
TORSDOF 7
ENDMDL
MODEL       56
REMARK 921   NORMALIZED FREE ENERGY PREDICTED BY IDOCK:   -5.72 KCAL/MOL
REMARK 922        TOTAL FREE ENERGY PREDICTED BY IDOCK:   -8.92 KCAL/MOL
REMARK 923 INTER-LIGAND FREE ENERGY PREDICTED BY IDOCK:   -8.11 KCAL/MOL
REMARK 924 INTRA-LIGAND FREE ENERGY PREDICTED BY IDOCK:   -0.81 KCAL/MOL
REMARK 927      BINDING AFFINITY PREDICTED BY RF-SCORE:    0.00 PKD
ROOT
HETATM    1  C   UNL     1      -9.320  11.142  68.858  1.00  0.00    -0.106 C  
HETATM    2  N   UNL     1     -10.286  10.048  68.745  1.00  0.00    -0.188 NA 
ENDROOT
BRANCH   2   3
HETATM    3  C   UNL     1     -11.130   9.957  69.871  1.00  0.00    -0.275 A  
HETATM    4  C   UNL     1     -12.135   8.725  71.564  1.00  0.00    -0.329 A  
HETATM    5  C   UNL     1     -12.848   9.809  72.041  1.00  0.00    -0.491 A  
HETATM    6  C   UNL     1     -11.818  11.093  70.301  1.00  0.00    -0.455 A  
HETATM    7  C   UNL     1     -12.685  11.020  71.391  1.00  0.00    -0.534 A  
HETATM    8  N   UNL     1     -11.295   8.775  70.506  1.00  0.00    -0.253 NA 
ENDBRANCH   2   3
BRANCH   2   9
HETATM    9  C   UNL     1     -11.011  10.006  67.458  1.00  0.00    -0.212 C  
BRANCH   9  10
HETATM   10  C   UNL     1     -10.816  11.293  66.644  1.00  0.00    -0.273 C  
BRANCH  10  11
HETATM   11  O   UNL     1     -11.900  12.215  66.826  1.00  0.00    -0.561 OA 
BRANCH  11  12
HETATM   12  C   UNL     1     -11.526  13.484  67.202  1.00  0.00    -0.338 A  
HETATM   13  C   UNL     1     -11.444  15.391  68.696  1.00  0.00    -0.357 A  
HETATM   14  C   UNL     1     -11.802  14.068  68.438  1.00  0.00    -0.397 A  
HETATM   15  C   UNL     1     -10.786  16.157  67.728  1.00  0.00    -0.318 A  
HETATM   16  C   UNL     1     -10.458  15.553  66.506  1.00  0.00    -0.301 A  
HETATM   17  C   UNL     1     -10.826  14.227  66.243  1.00  0.00    -0.310 A  
BRANCH  15  18
HETATM   18  C   UNL     1     -10.522  17.619  67.977  1.00  0.00    -0.395 C  
BRANCH  18  19
HETATM   19  C   UNL     1      -9.116  18.150  67.714  1.00  0.00    -0.263 C  
HETATM   20  S   UNL     1      -8.893  19.958  67.659  1.00  0.00    -0.332 SA 
HETATM   21  C   UNL     1      -7.285  19.837  68.334  1.00  0.00    -0.317 C  
HETATM   22  N   UNL     1      -7.099  18.609  68.875  1.00  0.00    -0.293 N  
HETATM   23  O   UNL     1      -6.459  20.733  68.296  1.00  0.00    -0.304 OA 
HETATM   24  C   UNL     1      -8.056  17.657  68.675  1.00  0.00    -0.269 C  
HETATM   25  H   UNL     1      -6.263  18.401  69.420  1.00  0.00     0.000 HD 
HETATM   26  O   UNL     1      -7.990  16.526  69.139  1.00  0.00    -0.240 OA 
ENDBRANCH  18  19
ENDBRANCH  15  18
ENDBRANCH  11  12
ENDBRANCH  10  11
ENDBRANCH   9  10
ENDBRANCH   2   9
TORSDOF 7
ENDMDL
MODEL       57
REMARK 921   NORMALIZED FREE ENERGY PREDICTED BY IDOCK:   -5.72 KCAL/MOL
REMARK 922        TOTAL FREE ENERGY PREDICTED BY IDOCK:   -8.91 KCAL/MOL
REMARK 923 INTER-LIGAND FREE ENERGY PREDICTED BY IDOCK:   -8.34 KCAL/MOL
REMARK 924 INTRA-LIGAND FREE ENERGY PREDICTED BY IDOCK:   -0.57 KCAL/MOL
REMARK 927      BINDING AFFINITY PREDICTED BY RF-SCORE:    0.00 PKD
ROOT
HETATM    1  C   UNL     1     -12.113  14.076  68.783  1.00  0.00    -0.303 C  
HETATM    2  N   UNL     1     -12.092  15.449  69.289  1.00  0.00    -0.293 NA 
ENDROOT
BRANCH   2   3
HETATM    3  C   UNL     1     -12.530  15.538  70.627  1.00  0.00    -0.435 A  
HETATM    4  C   UNL     1     -14.170  15.280  72.251  1.00  0.00    -0.547 A  
HETATM    5  C   UNL     1     -13.369  15.787  73.257  1.00  0.00    -0.649 A  
HETATM    6  C   UNL     1     -11.666  16.057  71.593  1.00  0.00    -0.583 A  
HETATM    7  C   UNL     1     -12.087  16.186  72.916  1.00  0.00    -0.643 A  
HETATM    8  N   UNL     1     -13.781  15.152  70.962  1.00  0.00    -0.417 NA 
ENDBRANCH   2   3
BRANCH   2   9
HETATM    9  C   UNL     1     -10.831  16.175  69.031  1.00  0.00    -0.299 C  
BRANCH   9  10
HETATM   10  C   UNL     1     -10.595  16.406  67.531  1.00  0.00    -0.309 C  
BRANCH  10  11
HETATM   11  O   UNL     1      -9.358  15.833  67.086  1.00  0.00    -0.207 OA 
BRANCH  11  12
HETATM   12  C   UNL     1      -9.452  14.545  66.613  1.00  0.00    -0.283 A  
HETATM   13  C   UNL     1     -10.383  12.780  65.236  1.00  0.00    -0.313 A  
HETATM   14  C   UNL     1     -10.308  14.126  65.595  1.00  0.00    -0.348 A  
HETATM   15  C   UNL     1      -9.591  11.823  65.879  1.00  0.00    -0.249 A  
HETATM   16  C   UNL     1      -8.689  12.251  66.864  1.00  0.00    -0.197 A  
HETATM   17  C   UNL     1      -8.621  13.602  67.230  1.00  0.00    -0.220 A  
BRANCH  15  18
HETATM   18  C   UNL     1      -9.778  10.360  65.568  1.00  0.00    -0.307 C  
BRANCH  18  19
HETATM   19  C   UNL     1     -10.140   9.422  66.716  1.00  0.00    -0.256 C  
HETATM   20  S   UNL     1      -8.772   8.613  67.607  1.00  0.00    -0.136 SA 
HETATM   21  C   UNL     1      -9.658   8.646  69.114  1.00  0.00    -0.163 C  
HETATM   22  N   UNL     1     -10.704   9.501  69.019  1.00  0.00    -0.276 N  
HETATM   23  O   UNL     1      -9.371   7.974  70.089  1.00  0.00    -0.155 OA 
HETATM   24  C   UNL     1     -10.998  10.039  67.799  1.00  0.00    -0.249 C  
HETATM   25  H   UNL     1     -11.260   9.738  69.841  1.00  0.00     0.000 HD 
HETATM   26  O   UNL     1     -11.909  10.836  67.615  1.00  0.00    -0.505 OA 
ENDBRANCH  18  19
ENDBRANCH  15  18
ENDBRANCH  11  12
ENDBRANCH  10  11
ENDBRANCH   9  10
ENDBRANCH   2   9
TORSDOF 7
ENDMDL
MODEL       58
REMARK 921   NORMALIZED FREE ENERGY PREDICTED BY IDOCK:   -5.70 KCAL/MOL
REMARK 922        TOTAL FREE ENERGY PREDICTED BY IDOCK:   -8.89 KCAL/MOL
REMARK 923 INTER-LIGAND FREE ENERGY PREDICTED BY IDOCK:   -7.68 KCAL/MOL
REMARK 924 INTRA-LIGAND FREE ENERGY PREDICTED BY IDOCK:   -1.21 KCAL/MOL
REMARK 927      BINDING AFFINITY PREDICTED BY RF-SCORE:    0.00 PKD
ROOT
HETATM    1  C   UNL     1     -11.308  15.084  64.942  1.00  0.00    -0.417 C  
HETATM    2  N   UNL     1     -11.261  13.935  65.847  1.00  0.00    -0.295 NA 
ENDROOT
BRANCH   2   3
HETATM    3  C   UNL     1     -11.537  14.292  67.184  1.00  0.00    -0.380 A  
HETATM    4  C   UNL     1     -11.754  15.884  68.860  1.00  0.00    -0.370 A  
HETATM    5  C   UNL     1     -12.024  14.941  69.834  1.00  0.00    -0.376 A  
HETATM    6  C   UNL     1     -11.805  13.287  68.115  1.00  0.00    -0.388 A  
HETATM    7  C   UNL     1     -12.047  13.611  69.450  1.00  0.00    -0.364 A  
HETATM    8  N   UNL     1     -11.512  15.589  67.563  1.00  0.00    -0.249 NA 
ENDBRANCH   2   3
BRANCH   2   9
HETATM    9  C   UNL     1     -12.025  12.760  65.380  1.00  0.00    -0.436 C  
BRANCH   9  10
HETATM   10  C   UNL     1     -11.138  11.761  64.622  1.00  0.00    -0.303 C  
BRANCH  10  11
HETATM   11  O   UNL     1      -9.830  11.656  65.200  1.00  0.00    -0.243 OA 
BRANCH  11  12
HETATM   12  C   UNL     1      -9.754  10.869  66.325  1.00  0.00    -0.204 A  
HETATM   13  C   UNL     1      -8.940  10.271  68.529  1.00  0.00    -0.134 A  
HETATM   14  C   UNL     1      -9.013  11.172  67.467  1.00  0.00    -0.139 A  
HETATM   15  C   UNL     1      -9.621   9.050  68.480  1.00  0.00    -0.161 A  
HETATM   16  C   UNL     1     -10.411   8.768  67.356  1.00  0.00    -0.349 A  
HETATM   17  C   UNL     1     -10.476   9.670  66.285  1.00  0.00    -0.149 A  
BRANCH  15  18
HETATM   18  C   UNL     1      -9.428   8.036  69.578  1.00  0.00    -0.160 C  
BRANCH  18  19
HETATM   19  C   UNL     1     -10.471   7.975  70.690  1.00  0.00    -0.210 C  
HETATM   20  S   UNL     1     -11.203   9.547  71.248  1.00  0.00    -0.385 SA 
HETATM   21  C   UNL     1     -12.738   8.780  71.582  1.00  0.00    -0.348 C  
HETATM   22  N   UNL     1     -12.788   7.563  70.989  1.00  0.00    -0.563 N  
HETATM   23  O   UNL     1     -13.615   9.277  72.267  1.00  0.00    -0.438 OA 
HETATM   24  C   UNL     1     -11.654   7.074  70.409  1.00  0.00    -0.295 C  
HETATM   25  H   UNL     1     -13.654   7.025  70.977  1.00  0.00     0.000 HD 
HETATM   26  O   UNL     1     -11.603   5.995  69.831  1.00  0.00    -0.326 OA 
ENDBRANCH  18  19
ENDBRANCH  15  18
ENDBRANCH  11  12
ENDBRANCH  10  11
ENDBRANCH   9  10
ENDBRANCH   2   9
TORSDOF 7
ENDMDL
MODEL       59
REMARK 921   NORMALIZED FREE ENERGY PREDICTED BY IDOCK:   -5.70 KCAL/MOL
REMARK 922        TOTAL FREE ENERGY PREDICTED BY IDOCK:   -8.89 KCAL/MOL
REMARK 923 INTER-LIGAND FREE ENERGY PREDICTED BY IDOCK:   -8.04 KCAL/MOL
REMARK 924 INTRA-LIGAND FREE ENERGY PREDICTED BY IDOCK:   -0.85 KCAL/MOL
REMARK 927      BINDING AFFINITY PREDICTED BY RF-SCORE:    0.00 PKD
ROOT
HETATM    1  C   UNL     1     -11.734  12.558  69.957  1.00  0.00    -0.221 C  
HETATM    2  N   UNL     1     -12.252  13.902  69.699  1.00  0.00    -0.338 NA 
ENDROOT
BRANCH   2   3
HETATM    3  C   UNL     1     -12.612  14.577  70.884  1.00  0.00    -0.344 A  
HETATM    4  C   UNL     1     -14.215  15.375  72.362  1.00  0.00    -0.492 A  
HETATM    5  C   UNL     1     -13.277  15.966  73.188  1.00  0.00    -0.692 A  
HETATM    6  C   UNL     1     -11.612  15.148  71.673  1.00  0.00    -0.463 A  
HETATM    7  C   UNL     1     -11.945  15.849  72.831  1.00  0.00    -0.609 A  
HETATM    8  N   UNL     1     -13.912  14.696  71.233  1.00  0.00    -0.375 NA 
ENDBRANCH   2   3
BRANCH   2   9
HETATM    9  C   UNL     1     -11.419  14.713  68.787  1.00  0.00    -0.296 C  
BRANCH   9  10
HETATM   10  C   UNL     1     -11.751  14.446  67.312  1.00  0.00    -0.404 C  
BRANCH  10  11
HETATM   11  O   UNL     1     -10.597  14.035  66.565  1.00  0.00    -0.276 OA 
BRANCH  11  12
HETATM   12  C   UNL     1     -10.218  12.727  66.756  1.00  0.00    -0.239 A  
HETATM   13  C   UNL     1      -8.636  10.951  67.225  1.00  0.00    -0.128 A  
HETATM   14  C   UNL     1      -8.942  12.309  67.130  1.00  0.00    -0.192 A  
HETATM   15  C   UNL     1      -9.608   9.979  66.961  1.00  0.00    -0.212 A  
HETATM   16  C   UNL     1     -10.906  10.399  66.640  1.00  0.00    -0.140 A  
HETATM   17  C   UNL     1     -11.210  11.763  66.536  1.00  0.00    -0.380 A  
BRANCH  15  18
HETATM   18  C   UNL     1      -9.227   8.521  66.944  1.00  0.00    -0.197 C  
BRANCH  18  19
HETATM   19  C   UNL     1      -9.609   7.664  68.147  1.00  0.00    -0.149 C  
HETATM   20  S   UNL     1      -9.843   8.509  69.745  1.00  0.00    -0.190 SA 
HETATM   21  C   UNL     1     -11.090   7.381  70.223  1.00  0.00    -0.258 C  
HETATM   22  N   UNL     1     -11.524   6.684  69.146  1.00  0.00    -0.618 N  
HETATM   23  O   UNL     1     -11.483   7.243  71.369  1.00  0.00    -0.252 OA 
HETATM   24  C   UNL     1     -10.856   6.825  67.965  1.00  0.00    -0.235 C  
HETATM   25  H   UNL     1     -12.333   6.067  69.217  1.00  0.00     0.000 HD 
HETATM   26  O   UNL     1     -11.182   6.255  66.932  1.00  0.00    -0.335 OA 
ENDBRANCH  18  19
ENDBRANCH  15  18
ENDBRANCH  11  12
ENDBRANCH  10  11
ENDBRANCH   9  10
ENDBRANCH   2   9
TORSDOF 7
ENDMDL
MODEL       60
REMARK 921   NORMALIZED FREE ENERGY PREDICTED BY IDOCK:   -5.69 KCAL/MOL
REMARK 922        TOTAL FREE ENERGY PREDICTED BY IDOCK:   -8.87 KCAL/MOL
REMARK 923 INTER-LIGAND FREE ENERGY PREDICTED BY IDOCK:   -8.39 KCAL/MOL
REMARK 924 INTRA-LIGAND FREE ENERGY PREDICTED BY IDOCK:   -0.48 KCAL/MOL
REMARK 927      BINDING AFFINITY PREDICTED BY RF-SCORE:    0.00 PKD
ROOT
HETATM    1  C   UNL     1     -10.181  15.229  66.597  1.00  0.00    -0.271 C  
HETATM    2  N   UNL     1     -11.475  14.559  66.462  1.00  0.00    -0.354 NA 
ENDROOT
BRANCH   2   3
HETATM    3  C   UNL     1     -11.499  13.647  65.386  1.00  0.00    -0.311 A  
HETATM    4  C   UNL     1     -12.656  12.299  63.889  1.00  0.00    -0.440 A  
HETATM    5  C   UNL     1     -11.500  11.808  63.312  1.00  0.00    -0.332 A  
HETATM    6  C   UNL     1     -10.293  13.195  64.848  1.00  0.00    -0.352 A  
HETATM    7  C   UNL     1     -10.291  12.268  63.807  1.00  0.00    -0.464 A  
HETATM    8  N   UNL     1     -12.678  13.194  64.903  1.00  0.00    -0.697 NA 
ENDBRANCH   2   3
BRANCH   2   9
HETATM    9  C   UNL     1     -12.006  14.000  67.722  1.00  0.00    -0.357 C  
BRANCH   9  10
HETATM   10  C   UNL     1     -11.294  12.699  68.121  1.00  0.00    -0.290 C  
BRANCH  10  11
HETATM   11  O   UNL     1     -12.221  11.671  68.499  1.00  0.00    -0.485 OA 
BRANCH  11  12
HETATM   12  C   UNL     1     -11.803  10.865  69.532  1.00  0.00    -0.332 A  
HETATM   13  C   UNL     1     -10.208   9.483  70.724  1.00  0.00    -0.363 A  
HETATM   14  C   UNL     1     -10.514  10.355  69.679  1.00  0.00    -0.279 A  
HETATM   15  C   UNL     1     -11.183   9.112  71.656  1.00  0.00    -0.447 A  
HETATM   16  C   UNL     1     -12.465   9.668  71.541  1.00  0.00    -0.476 A  
HETATM   17  C   UNL     1     -12.774  10.537  70.486  1.00  0.00    -0.385 A  
BRANCH  15  18
HETATM   18  C   UNL     1     -10.869   8.072  72.700  1.00  0.00    -0.436 C  
BRANCH  18  19
HETATM   19  C   UNL     1     -10.586   6.647  72.232  1.00  0.00    -0.214 C  
HETATM   20  S   UNL     1     -11.254   6.141  70.614  1.00  0.00    -0.288 SA 
HETATM   21  C   UNL     1      -9.886   5.096  70.311  1.00  0.00    -0.225 C  
HETATM   22  N   UNL     1      -8.878   5.389  71.168  1.00  0.00    -0.135 N  
HETATM   23  O   UNL     1      -9.869   4.223  69.461  1.00  0.00    -0.208 OA 
HETATM   24  C   UNL     1      -9.120   6.271  72.182  1.00  0.00    -0.141 C  
HETATM   25  H   UNL     1      -7.960   4.961  71.057  1.00  0.00     0.000 HD 
HETATM   26  O   UNL     1      -8.271   6.616  72.993  1.00  0.00    -0.113 OA 
ENDBRANCH  18  19
ENDBRANCH  15  18
ENDBRANCH  11  12
ENDBRANCH  10  11
ENDBRANCH   9  10
ENDBRANCH   2   9
TORSDOF 7
ENDMDL
MODEL       61
REMARK 921   NORMALIZED FREE ENERGY PREDICTED BY IDOCK:   -5.68 KCAL/MOL
REMARK 922        TOTAL FREE ENERGY PREDICTED BY IDOCK:   -8.87 KCAL/MOL
REMARK 923 INTER-LIGAND FREE ENERGY PREDICTED BY IDOCK:   -7.89 KCAL/MOL
REMARK 924 INTRA-LIGAND FREE ENERGY PREDICTED BY IDOCK:   -0.97 KCAL/MOL
REMARK 927      BINDING AFFINITY PREDICTED BY RF-SCORE:    0.00 PKD
ROOT
HETATM    1  C   UNL     1     -11.372   6.333  69.921  1.00  0.00    -0.434 C  
HETATM    2  N   UNL     1     -11.194   6.244  71.371  1.00  0.00    -0.283 NA 
ENDROOT
BRANCH   2   3
HETATM    3  C   UNL     1     -10.013   6.880  71.808  1.00  0.00    -0.173 A  
HETATM    4  C   UNL     1      -7.834   7.596  71.442  1.00  0.00    -0.089 A  
HETATM    5  C   UNL     1      -7.691   8.080  72.729  1.00  0.00    -0.169 A  
HETATM    6  C   UNL     1      -9.938   7.348  73.121  1.00  0.00    -0.318 A  
HETATM    7  C   UNL     1      -8.770   7.949  73.587  1.00  0.00    -0.329 A  
HETATM    8  N   UNL     1      -8.957   7.005  70.974  1.00  0.00    -0.150 NA 
ENDBRANCH   2   3
BRANCH   2   9
HETATM    9  C   UNL     1     -12.389   6.614  72.156  1.00  0.00    -0.200 C  
BRANCH   9  10
HETATM   10  C   UNL     1     -13.117   7.828  71.560  1.00  0.00    -0.320 C  
BRANCH  10  11
HETATM   11  O   UNL     1     -12.860   9.028  72.303  1.00  0.00    -0.385 OA 
BRANCH  11  12
HETATM   12  C   UNL     1     -12.513  10.119  71.541  1.00  0.00    -0.427 A  
HETATM   13  C   UNL     1     -12.647  12.438  70.846  1.00  0.00    -0.337 A  
HETATM   14  C   UNL     1     -13.004  11.411  71.721  1.00  0.00    -0.519 A  
HETATM   15  C   UNL     1     -11.777  12.197  69.777  1.00  0.00    -0.381 A  
HETATM   16  C   UNL     1     -11.239  10.910  69.628  1.00  0.00    -0.348 A  
HETATM   17  C   UNL     1     -11.606   9.878  70.502  1.00  0.00    -0.386 A  
BRANCH  15  18
HETATM   18  C   UNL     1     -11.505  13.284  68.770  1.00  0.00    -0.346 C  
BRANCH  18  19
HETATM   19  C   UNL     1     -10.763  12.908  67.491  1.00  0.00    -0.226 C  
HETATM   20  S   UNL     1     -11.763  12.454  66.037  1.00  0.00    -0.381 SA 
HETATM   21  C   UNL     1     -10.585  13.138  64.942  1.00  0.00    -0.349 C  
HETATM   22  N   UNL     1      -9.727  13.937  65.621  1.00  0.00    -0.510 N  
HETATM   23  O   UNL     1     -10.546  12.901  63.747  1.00  0.00    -0.390 OA 
HETATM   24  C   UNL     1      -9.793  13.954  66.984  1.00  0.00    -0.257 C  
HETATM   25  H   UNL     1      -9.049  14.514  65.124  1.00  0.00     0.000 HD 
HETATM   26  O   UNL     1      -9.076  14.657  67.685  1.00  0.00    -0.184 OA 
ENDBRANCH  18  19
ENDBRANCH  15  18
ENDBRANCH  11  12
ENDBRANCH  10  11
ENDBRANCH   9  10
ENDBRANCH   2   9
TORSDOF 7
ENDMDL
MODEL       62
REMARK 921   NORMALIZED FREE ENERGY PREDICTED BY IDOCK:   -5.65 KCAL/MOL
REMARK 922        TOTAL FREE ENERGY PREDICTED BY IDOCK:   -8.82 KCAL/MOL
REMARK 923 INTER-LIGAND FREE ENERGY PREDICTED BY IDOCK:   -8.01 KCAL/MOL
REMARK 924 INTRA-LIGAND FREE ENERGY PREDICTED BY IDOCK:   -0.80 KCAL/MOL
REMARK 927      BINDING AFFINITY PREDICTED BY RF-SCORE:    0.00 PKD
ROOT
HETATM    1  C   UNL     1      -9.104   9.826  69.794  1.00  0.00    -0.225 C  
HETATM    2  N   UNL     1     -10.101   8.778  69.571  1.00  0.00    -0.196 NA 
ENDROOT
BRANCH   2   3
HETATM    3  C   UNL     1     -11.185   8.865  70.470  1.00  0.00    -0.252 A  
HETATM    4  C   UNL     1     -12.718  10.112  71.691  1.00  0.00    -0.447 A  
HETATM    5  C   UNL     1     -13.273   8.995  72.287  1.00  0.00    -0.519 A  
HETATM    6  C   UNL     1     -11.700   7.696  71.032  1.00  0.00    -0.306 A  
HETATM    7  C   UNL     1     -12.748   7.759  71.948  1.00  0.00    -0.328 A  
HETATM    8  N   UNL     1     -11.697  10.071  70.804  1.00  0.00    -0.323 NA 
ENDBRANCH   2   3
BRANCH   2   9
HETATM    9  C   UNL     1     -10.514   8.618  68.162  1.00  0.00    -0.187 C  
BRANCH   9  10
HETATM   10  C   UNL     1     -10.375   9.926  67.369  1.00  0.00    -0.246 C  
BRANCH  10  11
HETATM   11  O   UNL     1     -11.564  10.726  67.436  1.00  0.00    -0.485 OA 
BRANCH  11  12
HETATM   12  C   UNL     1     -11.348  12.081  67.522  1.00  0.00    -0.319 A  
HETATM   13  C   UNL     1     -10.561  14.111  68.591  1.00  0.00    -0.253 A  
HETATM   14  C   UNL     1     -10.663  12.719  68.555  1.00  0.00    -0.275 A  
HETATM   15  C   UNL     1     -11.131  14.895  67.582  1.00  0.00    -0.315 A  
HETATM   16  C   UNL     1     -11.771  14.251  66.513  1.00  0.00    -0.409 A  
HETATM   17  C   UNL     1     -11.881  12.855  66.484  1.00  0.00    -0.473 A  
BRANCH  15  18
HETATM   18  C   UNL     1     -11.122  16.397  67.703  1.00  0.00    -0.150 C  
BRANCH  18  19
HETATM   19  C   UNL     1      -9.787  17.121  67.556  1.00  0.00    -0.266 C  
HETATM   20  S   UNL     1      -8.602  16.468  66.335  1.00  0.00    -0.330 SA 
HETATM   21  C   UNL     1      -7.998  18.070  65.980  1.00  0.00    -0.121 C  
HETATM   22  N   UNL     1      -8.853  19.006  66.458  1.00  0.00    -0.318 N  
HETATM   23  O   UNL     1      -6.948  18.291  65.402  1.00  0.00    -0.523 OA 
HETATM   24  C   UNL     1      -9.893  18.599  67.243  1.00  0.00    -0.318 C  
HETATM   25  H   UNL     1      -8.722  19.992  66.237  1.00  0.00     0.000 HD 
HETATM   26  O   UNL     1     -10.729  19.364  67.705  1.00  0.00    -0.428 OA 
ENDBRANCH  18  19
ENDBRANCH  15  18
ENDBRANCH  11  12
ENDBRANCH  10  11
ENDBRANCH   9  10
ENDBRANCH   2   9
TORSDOF 7
ENDMDL
MODEL       63
REMARK 921   NORMALIZED FREE ENERGY PREDICTED BY IDOCK:   -5.64 KCAL/MOL
REMARK 922        TOTAL FREE ENERGY PREDICTED BY IDOCK:   -8.80 KCAL/MOL
REMARK 923 INTER-LIGAND FREE ENERGY PREDICTED BY IDOCK:   -8.37 KCAL/MOL
REMARK 924 INTRA-LIGAND FREE ENERGY PREDICTED BY IDOCK:   -0.43 KCAL/MOL
REMARK 927      BINDING AFFINITY PREDICTED BY RF-SCORE:    0.00 PKD
ROOT
HETATM    1  C   UNL     1     -10.091  19.529  66.400  1.00  0.00    -0.455 C  
HETATM    2  N   UNL     1      -9.355  18.821  67.447  1.00  0.00    -0.284 NA 
ENDROOT
BRANCH   2   3
HETATM    3  C   UNL     1      -8.164  19.485  67.811  1.00  0.00    -0.298 A  
HETATM    4  C   UNL     1      -6.460  19.918  69.329  1.00  0.00    -0.345 A  
HETATM    5  C   UNL     1      -5.860  20.857  68.511  1.00  0.00    -0.384 A  
HETATM    6  C   UNL     1      -7.610  20.420  66.935  1.00  0.00    -0.345 A  
HETATM    7  C   UNL     1      -6.453  21.113  67.286  1.00  0.00    -0.428 A  
HETATM    8  N   UNL     1      -7.585  19.239  69.008  1.00  0.00    -0.346 NA 
ENDBRANCH   2   3
BRANCH   2   9
HETATM    9  C   UNL     1     -10.180  18.413  68.603  1.00  0.00    -0.339 C  
BRANCH   9  10
HETATM   10  C   UNL     1     -10.163  16.892  68.815  1.00  0.00    -0.311 C  
BRANCH  10  11
HETATM   11  O   UNL     1     -11.455  16.305  68.606  1.00  0.00    -0.367 OA 
BRANCH  11  12
HETATM   12  C   UNL     1     -11.437  15.038  68.071  1.00  0.00    -0.342 A  
HETATM   13  C   UNL     1     -10.949  12.663  68.080  1.00  0.00    -0.266 A  
HETATM   14  C   UNL     1     -10.999  13.893  68.736  1.00  0.00    -0.286 A  
HETATM   15  C   UNL     1     -11.352  12.547  66.745  1.00  0.00    -0.390 A  
HETATM   16  C   UNL     1     -11.846  13.686  66.093  1.00  0.00    -0.424 A  
HETATM   17  C   UNL     1     -11.887  14.923  66.750  1.00  0.00    -0.187 A  
BRANCH  15  18
HETATM   18  C   UNL     1     -11.172  11.241  66.016  1.00  0.00    -0.108 C  
BRANCH  18  19
HETATM   19  C   UNL     1     -10.115  11.171  64.918  1.00  0.00    -0.289 C  
HETATM   20  S   UNL     1      -9.124   9.647  64.795  1.00  0.00    -0.220 SA 
HETATM   21  C   UNL     1      -9.010   9.793  63.057  1.00  0.00    -0.254 C  
HETATM   22  N   UNL     1      -9.926  10.683  62.604  1.00  0.00    -0.741 N  
HETATM   23  O   UNL     1      -8.204   9.188  62.372  1.00  0.00    -0.139 OA 
HETATM   24  C   UNL     1     -10.632  11.413  63.516  1.00  0.00    -0.402 C  
HETATM   25  H   UNL     1     -10.084  10.804  61.604  1.00  0.00     0.000 HD 
HETATM   26  O   UNL     1     -11.494  12.226  63.208  1.00  0.00    -0.417 OA 
ENDBRANCH  18  19
ENDBRANCH  15  18
ENDBRANCH  11  12
ENDBRANCH  10  11
ENDBRANCH   9  10
ENDBRANCH   2   9
TORSDOF 7
ENDMDL
MODEL       64
REMARK 921   NORMALIZED FREE ENERGY PREDICTED BY IDOCK:   -5.63 KCAL/MOL
REMARK 922        TOTAL FREE ENERGY PREDICTED BY IDOCK:   -8.79 KCAL/MOL
REMARK 923 INTER-LIGAND FREE ENERGY PREDICTED BY IDOCK:   -7.76 KCAL/MOL
REMARK 924 INTRA-LIGAND FREE ENERGY PREDICTED BY IDOCK:   -1.03 KCAL/MOL
REMARK 927      BINDING AFFINITY PREDICTED BY RF-SCORE:    0.00 PKD
ROOT
HETATM    1  C   UNL     1      -8.852   9.820  69.339  1.00  0.00    -0.182 C  
HETATM    2  N   UNL     1     -10.185   9.221  69.278  1.00  0.00    -0.199 NA 
ENDROOT
BRANCH   2   3
HETATM    3  C   UNL     1     -11.132   9.935  70.042  1.00  0.00    -0.285 A  
HETATM    4  C   UNL     1     -12.731  10.032  71.723  1.00  0.00    -0.428 A  
HETATM    5  C   UNL     1     -13.029  11.359  71.475  1.00  0.00    -0.505 A  
HETATM    6  C   UNL     1     -11.381  11.275  69.739  1.00  0.00    -0.348 A  
HETATM    7  C   UNL     1     -12.337  11.992  70.457  1.00  0.00    -0.369 A  
HETATM    8  N   UNL     1     -11.812   9.319  71.034  1.00  0.00    -0.295 NA 
ENDBRANCH   2   3
BRANCH   2   9
HETATM    9  C   UNL     1     -10.648   8.901  67.912  1.00  0.00    -0.183 C  
BRANCH   9  10
HETATM   10  C   UNL     1      -9.604   9.272  66.848  1.00  0.00    -0.174 C  
BRANCH  10  11
HETATM   11  O   UNL     1     -10.202   9.893  65.701  1.00  0.00    -0.269 OA 
BRANCH  11  12
HETATM   12  C   UNL     1     -10.147  11.267  65.690  1.00  0.00    -0.247 A  
HETATM   13  C   UNL     1      -9.461  13.438  66.523  1.00  0.00    -0.252 A  
HETATM   14  C   UNL     1      -9.391  12.045  66.566  1.00  0.00    -0.226 A  
HETATM   15  C   UNL     1     -10.280  14.085  65.591  1.00  0.00    -0.351 A  
HETATM   16  C   UNL     1     -10.997  13.304  64.673  1.00  0.00    -0.384 A  
HETATM   17  C   UNL     1     -10.933  11.905  64.723  1.00  0.00    -0.366 A  
BRANCH  15  18
HETATM   18  C   UNL     1     -10.441  15.582  65.643  1.00  0.00    -0.393 C  
BRANCH  18  19
HETATM   19  C   UNL     1      -9.941  16.316  66.883  1.00  0.00    -0.260 C  
HETATM   20  S   UNL     1      -9.308  18.010  66.664  1.00  0.00    -0.294 SA 
HETATM   21  C   UNL     1      -9.888  18.493  68.240  1.00  0.00    -0.363 C  
HETATM   22  N   UNL     1     -10.775  17.581  68.708  1.00  0.00    -0.317 N  
HETATM   23  O   UNL     1      -9.522  19.497  68.826  1.00  0.00    -0.379 OA 
HETATM   24  C   UNL     1     -10.942  16.418  68.013  1.00  0.00    -0.327 C  
HETATM   25  H   UNL     1     -11.307  17.761  69.560  1.00  0.00     0.000 HD 
HETATM   26  O   UNL     1     -11.733  15.543  68.342  1.00  0.00    -0.365 OA 
ENDBRANCH  18  19
ENDBRANCH  15  18
ENDBRANCH  11  12
ENDBRANCH  10  11
ENDBRANCH   9  10
ENDBRANCH   2   9
TORSDOF 7
ENDMDL
MODEL       65
REMARK 921   NORMALIZED FREE ENERGY PREDICTED BY IDOCK:   -5.62 KCAL/MOL
REMARK 922        TOTAL FREE ENERGY PREDICTED BY IDOCK:   -8.78 KCAL/MOL
REMARK 923 INTER-LIGAND FREE ENERGY PREDICTED BY IDOCK:   -7.67 KCAL/MOL
REMARK 924 INTRA-LIGAND FREE ENERGY PREDICTED BY IDOCK:   -1.11 KCAL/MOL
REMARK 927      BINDING AFFINITY PREDICTED BY RF-SCORE:    0.00 PKD
ROOT
HETATM    1  C   UNL     1     -10.875  15.700  66.797  1.00  0.00    -0.277 C  
HETATM    2  N   UNL     1     -11.309  14.377  67.249  1.00  0.00    -0.327 NA 
ENDROOT
BRANCH   2   3
HETATM    3  C   UNL     1     -11.784  14.391  68.577  1.00  0.00    -0.335 A  
HETATM    4  C   UNL     1     -12.453  15.534  70.485  1.00  0.00    -0.427 A  
HETATM    5  C   UNL     1     -12.656  14.373  71.208  1.00  0.00    -0.421 A  
HETATM    6  C   UNL     1     -11.970  13.181  69.247  1.00  0.00    -0.344 A  
HETATM    7  C   UNL     1     -12.406  13.170  70.571  1.00  0.00    -0.380 A  
HETATM    8  N   UNL     1     -12.026  15.565  69.202  1.00  0.00    -0.339 NA 
ENDBRANCH   2   3
BRANCH   2   9
HETATM    9  C   UNL     1     -12.207  13.675  66.309  1.00  0.00    -0.436 C  
BRANCH   9  10
HETATM   10  C   UNL     1     -11.519  12.475  65.643  1.00  0.00    -0.359 C  
BRANCH  10  11
HETATM   11  O   UNL     1     -10.158  12.327  66.073  1.00  0.00    -0.237 OA 
BRANCH  11  12
HETATM   12  C   UNL     1      -9.972  11.451  67.117  1.00  0.00    -0.192 A  
HETATM   13  C   UNL     1     -10.600   9.627  68.585  1.00  0.00    -0.246 A  
HETATM   14  C   UNL     1     -10.840  10.416  67.459  1.00  0.00    -0.358 A  
HETATM   15  C   UNL     1      -9.475   9.847  69.386  1.00  0.00    -0.226 A  
HETATM   16  C   UNL     1      -8.571  10.852  69.010  1.00  0.00    -0.110 A  
HETATM   17  C   UNL     1      -8.818  11.649  67.885  1.00  0.00    -0.155 A  
BRANCH  15  18
HETATM   18  C   UNL     1      -9.300   9.072  70.666  1.00  0.00    -0.283 C  
BRANCH  18  19
HETATM   19  C   UNL     1     -10.344   8.016  71.015  1.00  0.00    -0.201 C  
HETATM   20  S   UNL     1      -9.750   6.427  71.678  1.00  0.00    -0.159 SA 
HETATM   21  C   UNL     1     -11.168   6.251  72.684  1.00  0.00    -0.267 C  
HETATM   22  N   UNL     1     -11.823   7.433  72.776  1.00  0.00    -0.565 N  
HETATM   23  O   UNL     1     -11.512   5.203  73.203  1.00  0.00    -0.323 OA 
HETATM   24  C   UNL     1     -11.411   8.469  71.988  1.00  0.00    -0.355 C  
HETATM   25  H   UNL     1     -12.605   7.547  73.420  1.00  0.00     0.000 HD 
HETATM   26  O   UNL     1     -11.924   9.581  72.013  1.00  0.00    -0.348 OA 
ENDBRANCH  18  19
ENDBRANCH  15  18
ENDBRANCH  11  12
ENDBRANCH  10  11
ENDBRANCH   9  10
ENDBRANCH   2   9
TORSDOF 7
ENDMDL
MODEL       66
REMARK 921   NORMALIZED FREE ENERGY PREDICTED BY IDOCK:   -5.62 KCAL/MOL
REMARK 922        TOTAL FREE ENERGY PREDICTED BY IDOCK:   -8.78 KCAL/MOL
REMARK 923 INTER-LIGAND FREE ENERGY PREDICTED BY IDOCK:   -8.03 KCAL/MOL
REMARK 924 INTRA-LIGAND FREE ENERGY PREDICTED BY IDOCK:   -0.74 KCAL/MOL
REMARK 927      BINDING AFFINITY PREDICTED BY RF-SCORE:    0.00 PKD
ROOT
HETATM    1  C   UNL     1     -10.081  15.409  68.277  1.00  0.00    -0.218 C  
HETATM    2  N   UNL     1     -10.867  16.140  67.282  1.00  0.00    -0.281 NA 
ENDROOT
BRANCH   2   3
HETATM    3  C   UNL     1     -10.518  17.505  67.217  1.00  0.00    -0.327 A  
HETATM    4  C   UNL     1     -10.246  19.480  66.025  1.00  0.00    -0.478 A  
HETATM    5  C   UNL     1      -9.762  20.170  67.121  1.00  0.00    -0.576 A  
HETATM    6  C   UNL     1     -10.038  18.141  68.364  1.00  0.00    -0.401 A  
HETATM    7  C   UNL     1      -9.655  19.481  68.317  1.00  0.00    -0.464 A  
HETATM    8  N   UNL     1     -10.618  18.179  66.050  1.00  0.00    -0.413 NA 
ENDBRANCH   2   3
BRANCH   2   9
HETATM    9  C   UNL     1     -10.937  15.485  65.960  1.00  0.00    -0.251 C  
BRANCH   9  10
HETATM   10  C   UNL     1     -11.968  14.347  65.934  1.00  0.00    -0.359 C  
BRANCH  10  11
HETATM   11  O   UNL     1     -11.493  13.205  65.208  1.00  0.00    -0.293 OA 
BRANCH  11  12
HETATM   12  C   UNL     1     -11.120  12.136  65.988  1.00  0.00    -0.313 A  
HETATM   13  C   UNL     1     -10.002  10.030  66.428  1.00  0.00    -0.300 A  
HETATM   14  C   UNL     1     -10.260  11.113  65.588  1.00  0.00    -0.310 A  
HETATM   15  C   UNL     1     -10.587   9.953  67.696  1.00  0.00    -0.325 A  
HETATM   16  C   UNL     1     -11.406  11.008  68.122  1.00  0.00    -0.374 A  
HETATM   17  C   UNL     1     -11.673  12.091  67.274  1.00  0.00    -0.339 A  
BRANCH  15  18
HETATM   18  C   UNL     1     -10.399   8.717  68.537  1.00  0.00    -0.228 C  
BRANCH  18  19
HETATM   19  C   UNL     1     -10.712   8.807  70.028  1.00  0.00    -0.228 C  
HETATM   20  S   UNL     1     -11.480   7.357  70.819  1.00  0.00    -0.280 SA 
HETATM   21  C   UNL     1     -10.655   7.671  72.327  1.00  0.00    -0.246 C  
HETATM   22  N   UNL     1      -9.642   8.548  72.130  1.00  0.00    -0.290 N  
HETATM   23  O   UNL     1     -10.973   7.177  73.395  1.00  0.00    -0.332 OA 
HETATM   24  C   UNL     1      -9.531   9.150  70.910  1.00  0.00    -0.276 C  
HETATM   25  H   UNL     1      -8.978   8.754  72.875  1.00  0.00     0.000 HD 
HETATM   26  O   UNL     1      -8.639   9.941  70.627  1.00  0.00    -0.130 OA 
ENDBRANCH  18  19
ENDBRANCH  15  18
ENDBRANCH  11  12
ENDBRANCH  10  11
ENDBRANCH   9  10
ENDBRANCH   2   9
TORSDOF 7
ENDMDL
MODEL       67
REMARK 921   NORMALIZED FREE ENERGY PREDICTED BY IDOCK:   -5.61 KCAL/MOL
REMARK 922        TOTAL FREE ENERGY PREDICTED BY IDOCK:   -8.76 KCAL/MOL
REMARK 923 INTER-LIGAND FREE ENERGY PREDICTED BY IDOCK:   -7.69 KCAL/MOL
REMARK 924 INTRA-LIGAND FREE ENERGY PREDICTED BY IDOCK:   -1.06 KCAL/MOL
REMARK 927      BINDING AFFINITY PREDICTED BY RF-SCORE:    0.00 PKD
ROOT
HETATM    1  C   UNL     1      -9.921   4.800  71.439  1.00  0.00    -0.197 C  
HETATM    2  N   UNL     1     -10.183   6.232  71.292  1.00  0.00    -0.196 NA 
ENDROOT
BRANCH   2   3
HETATM    3  C   UNL     1     -10.139   6.652  69.947  1.00  0.00    -0.176 A  
HETATM    4  C   UNL     1      -9.176   7.892  68.235  1.00  0.00    -0.137 A  
HETATM    5  C   UNL     1     -10.126   7.504  67.309  1.00  0.00    -0.300 A  
HETATM    6  C   UNL     1     -11.129   6.219  69.064  1.00  0.00    -0.446 A  
HETATM    7  C   UNL     1     -11.126   6.648  67.738  1.00  0.00    -0.332 A  
HETATM    8  N   UNL     1      -9.165   7.491  69.527  1.00  0.00    -0.147 NA 
ENDBRANCH   2   3
BRANCH   2   9
HETATM    9  C   UNL     1     -11.376   6.711  72.022  1.00  0.00    -0.280 C  
BRANCH   9  10
HETATM   10  C   UNL     1     -11.280   8.205  72.365  1.00  0.00    -0.386 C  
BRANCH  10  11
HETATM   11  O   UNL     1     -12.507   8.898  72.101  1.00  0.00    -0.358 OA 
BRANCH  11  12
HETATM   12  C   UNL     1     -12.367  10.094  71.437  1.00  0.00    -0.416 A  
HETATM   13  C   UNL     1     -12.898  12.412  70.962  1.00  0.00    -0.245 A  
HETATM   14  C   UNL     1     -13.055  11.267  71.745  1.00  0.00    -0.527 A  
HETATM   15  C   UNL     1     -12.036  12.412  69.860  1.00  0.00    -0.369 A  
HETATM   16  C   UNL     1     -11.301  11.250  69.584  1.00  0.00    -0.359 A  
HETATM   17  C   UNL     1     -11.466  10.098  70.365  1.00  0.00    -0.400 A  
BRANCH  15  18
HETATM   18  C   UNL     1     -11.976  13.613  68.953  1.00  0.00    -0.392 C  
BRANCH  18  19
HETATM   19  C   UNL     1     -10.868  14.636  69.187  1.00  0.00    -0.259 C  
HETATM   20  S   UNL     1      -9.924  15.205  67.737  1.00  0.00    -0.225 SA 
HETATM   21  C   UNL     1      -9.719  16.799  68.424  1.00  0.00    -0.247 C  
HETATM   22  N   UNL     1     -10.581  16.976  69.454  1.00  0.00    -0.326 N  
HETATM   23  O   UNL     1      -8.899  17.612  68.031  1.00  0.00    -0.244 OA 
HETATM   24  C   UNL     1     -11.307  15.904  69.887  1.00  0.00    -0.348 C  
HETATM   25  H   UNL     1     -10.685  17.889  69.895  1.00  0.00     0.000 HD 
HETATM   26  O   UNL     1     -12.125  15.967  70.796  1.00  0.00    -0.380 OA 
ENDBRANCH  18  19
ENDBRANCH  15  18
ENDBRANCH  11  12
ENDBRANCH  10  11
ENDBRANCH   9  10
ENDBRANCH   2   9
TORSDOF 7
ENDMDL
MODEL       68
REMARK 921   NORMALIZED FREE ENERGY PREDICTED BY IDOCK:   -5.60 KCAL/MOL
REMARK 922        TOTAL FREE ENERGY PREDICTED BY IDOCK:   -8.75 KCAL/MOL
REMARK 923 INTER-LIGAND FREE ENERGY PREDICTED BY IDOCK:   -8.17 KCAL/MOL
REMARK 924 INTRA-LIGAND FREE ENERGY PREDICTED BY IDOCK:   -0.57 KCAL/MOL
REMARK 927      BINDING AFFINITY PREDICTED BY RF-SCORE:    0.00 PKD
ROOT
HETATM    1  C   UNL     1     -12.890   7.119  71.345  1.00  0.00    -0.384 C  
HETATM    2  N   UNL     1     -11.748   7.036  72.256  1.00  0.00    -0.273 NA 
ENDROOT
BRANCH   2   3
HETATM    3  C   UNL     1     -11.198   5.739  72.313  1.00  0.00    -0.278 A  
HETATM    4  C   UNL     1     -10.960   3.675  73.352  1.00  0.00    -0.215 A  
HETATM    5  C   UNL     1     -10.044   3.221  72.421  1.00  0.00    -0.226 A  
HETATM    6  C   UNL     1     -10.280   5.344  71.337  1.00  0.00    -0.279 A  
HETATM    7  C   UNL     1      -9.697   4.079  71.392  1.00  0.00    -0.253 A  
HETATM    8  N   UNL     1     -11.532   4.900  73.319  1.00  0.00    -0.333 NA 
ENDBRANCH   2   3
BRANCH   2   9
HETATM    9  C   UNL     1     -10.738   8.098  72.066  1.00  0.00    -0.278 C  
BRANCH   9  10
HETATM   10  C   UNL     1     -11.262   9.240  71.184  1.00  0.00    -0.343 C  
BRANCH  10  11
HETATM   11  O   UNL     1     -10.604   9.281  69.909  1.00  0.00    -0.208 OA 
BRANCH  11  12
HETATM   12  C   UNL     1     -10.950  10.347  69.112  1.00  0.00    -0.241 A  
HETATM   13  C   UNL     1     -11.059  11.576  67.025  1.00  0.00    -0.365 A  
HETATM   14  C   UNL     1     -10.741  10.418  67.735  1.00  0.00    -0.327 A  
HETATM   15  C   UNL     1     -11.610  12.685  67.676  1.00  0.00    -0.414 A  
HETATM   16  C   UNL     1     -11.873  12.594  69.050  1.00  0.00    -0.341 A  
HETATM   17  C   UNL     1     -11.544  11.434  69.764  1.00  0.00    -0.407 A  
BRANCH  15  18
HETATM   18  C   UNL     1     -11.828  13.970  66.918  1.00  0.00    -0.458 C  
BRANCH  18  19
HETATM   19  C   UNL     1     -10.770  15.062  67.036  1.00  0.00    -0.304 C  
HETATM   20  S   UNL     1     -10.312  15.962  65.520  1.00  0.00    -0.382 SA 
HETATM   21  C   UNL     1     -10.029  17.438  66.413  1.00  0.00    -0.316 C  
HETATM   22  N   UNL     1     -10.576  17.346  67.648  1.00  0.00    -0.365 N  
HETATM   23  O   UNL     1      -9.409  18.392  65.976  1.00  0.00    -0.502 OA 
HETATM   24  C   UNL     1     -11.078  16.142  68.051  1.00  0.00    -0.317 C  
HETATM   25  H   UNL     1     -10.612  18.159  68.264  1.00  0.00     0.000 HD 
HETATM   26  O   UNL     1     -11.610  15.963  69.139  1.00  0.00    -0.362 OA 
ENDBRANCH  18  19
ENDBRANCH  15  18
ENDBRANCH  11  12
ENDBRANCH  10  11
ENDBRANCH   9  10
ENDBRANCH   2   9
TORSDOF 7
ENDMDL
MODEL       69
REMARK 921   NORMALIZED FREE ENERGY PREDICTED BY IDOCK:   -5.57 KCAL/MOL
REMARK 922        TOTAL FREE ENERGY PREDICTED BY IDOCK:   -8.70 KCAL/MOL
REMARK 923 INTER-LIGAND FREE ENERGY PREDICTED BY IDOCK:   -8.12 KCAL/MOL
REMARK 924 INTRA-LIGAND FREE ENERGY PREDICTED BY IDOCK:   -0.59 KCAL/MOL
REMARK 927      BINDING AFFINITY PREDICTED BY RF-SCORE:    0.00 PKD
ROOT
HETATM    1  C   UNL     1     -12.718  12.678  64.786  1.00  0.00    -0.379 C  
HETATM    2  N   UNL     1     -11.943  12.017  65.836  1.00  0.00    -0.519 NA 
ENDROOT
BRANCH   2   3
HETATM    3  C   UNL     1     -10.802  11.359  65.332  1.00  0.00    -0.229 A  
HETATM    4  C   UNL     1      -8.770  10.279  65.649  1.00  0.00    -0.162 A  
HETATM    5  C   UNL     1      -8.547  10.128  64.294  1.00  0.00    -0.200 A  
HETATM    6  C   UNL     1     -10.641  11.237  63.950  1.00  0.00    -0.455 A  
HETATM    7  C   UNL     1      -9.506  10.621  63.426  1.00  0.00    -0.352 A  
HETATM    8  N   UNL     1      -9.862  10.879  66.176  1.00  0.00    -0.214 NA 
ENDBRANCH   2   3
BRANCH   2   9
HETATM    9  C   UNL     1     -11.662  12.866  67.012  1.00  0.00    -0.385 C  
BRANCH   9  10
HETATM   10  C   UNL     1     -11.902  14.355  66.719  1.00  0.00    -0.410 C  
BRANCH  10  11
HETATM   11  O   UNL     1     -11.341  15.201  67.733  1.00  0.00    -0.315 OA 
BRANCH  11  12
HETATM   12  C   UNL     1     -10.394  16.092  67.286  1.00  0.00    -0.295 A  
HETATM   13  C   UNL     1      -8.214  16.729  66.437  1.00  0.00    -0.349 A  
HETATM   14  C   UNL     1      -9.135  15.744  66.797  1.00  0.00    -0.276 A  
HETATM   15  C   UNL     1      -8.538  18.085  66.546  1.00  0.00    -0.280 A  
HETATM   16  C   UNL     1      -9.823  18.435  66.984  1.00  0.00    -0.335 A  
HETATM   17  C   UNL     1     -10.744  17.446  67.354  1.00  0.00    -0.251 A  
BRANCH  15  18
HETATM   18  C   UNL     1      -7.488  19.132  66.275  1.00  0.00    -0.286 C  
BRANCH  18  19
HETATM   19  C   UNL     1      -7.161  20.125  67.386  1.00  0.00    -0.276 C  
HETATM   20  S   UNL     1      -7.012  19.476  69.082  1.00  0.00    -0.345 SA 
HETATM   21  C   UNL     1      -5.783  20.652  69.486  1.00  0.00    -0.364 C  
HETATM   22  N   UNL     1      -5.292  21.217  68.357  1.00  0.00    -0.445 N  
HETATM   23  O   UNL     1      -5.447  20.924  70.625  1.00  0.00    -0.527 OA 
HETATM   24  C   UNL     1      -5.902  20.937  67.168  1.00  0.00    -0.234 C  
HETATM   25  H   UNL     1      -4.484  21.838  68.394  1.00  0.00     0.000 HD 
HETATM   26  O   UNL     1      -5.521  21.381  66.093  1.00  0.00    -0.234 OA 
ENDBRANCH  18  19
ENDBRANCH  15  18
ENDBRANCH  11  12
ENDBRANCH  10  11
ENDBRANCH   9  10
ENDBRANCH   2   9
TORSDOF 7
ENDMDL
MODEL       70
REMARK 921   NORMALIZED FREE ENERGY PREDICTED BY IDOCK:   -5.57 KCAL/MOL
REMARK 922        TOTAL FREE ENERGY PREDICTED BY IDOCK:   -8.70 KCAL/MOL
REMARK 923 INTER-LIGAND FREE ENERGY PREDICTED BY IDOCK:   -8.02 KCAL/MOL
REMARK 924 INTRA-LIGAND FREE ENERGY PREDICTED BY IDOCK:   -0.68 KCAL/MOL
REMARK 927      BINDING AFFINITY PREDICTED BY RF-SCORE:    0.00 PKD
ROOT
HETATM    1  C   UNL     1     -12.849  12.972  64.998  1.00  0.00    -0.295 C  
HETATM    2  N   UNL     1     -11.545  13.609  64.810  1.00  0.00    -0.341 NA 
ENDROOT
BRANCH   2   3
HETATM    3  C   UNL     1     -11.251  14.543  65.825  1.00  0.00    -0.334 A  
HETATM    4  C   UNL     1     -11.578  15.395  67.961  1.00  0.00    -0.292 A  
HETATM    5  C   UNL     1     -10.689  16.437  67.769  1.00  0.00    -0.328 A  
HETATM    6  C   UNL     1     -10.340  15.569  65.564  1.00  0.00    -0.419 A  
HETATM    7  C   UNL     1     -10.059  16.524  66.540  1.00  0.00    -0.307 A  
HETATM    8  N   UNL     1     -11.868  14.463  67.025  1.00  0.00    -0.406 NA 
ENDBRANCH   2   3
BRANCH   2   9
HETATM    9  C   UNL     1     -10.440  12.667  64.536  1.00  0.00    -0.355 C  
BRANCH   9  10
HETATM   10  C   UNL     1      -9.925  11.994  65.817  1.00  0.00    -0.241 C  
BRANCH  10  11
HETATM   11  O   UNL     1     -10.496  10.692  66.008  1.00  0.00    -0.239 OA 
BRANCH  11  12
HETATM   12  C   UNL     1     -10.731  10.348  67.318  1.00  0.00    -0.273 A  
HETATM   13  C   UNL     1     -11.431  10.767  69.602  1.00  0.00    -0.376 A  
HETATM   14  C   UNL     1     -11.303  11.184  68.276  1.00  0.00    -0.365 A  
HETATM   15  C   UNL     1     -11.003   9.495  69.995  1.00  0.00    -0.284 A  
HETATM   16  C   UNL     1     -10.480   8.632  69.022  1.00  0.00    -0.216 A  
HETATM   17  C   UNL     1     -10.343   9.056  67.693  1.00  0.00    -0.317 A  
BRANCH  15  18
HETATM   18  C   UNL     1     -11.032   9.109  71.452  1.00  0.00    -0.414 C  
BRANCH  18  19
HETATM   19  C   UNL     1     -10.787   7.647  71.813  1.00  0.00    -0.229 C  
HETATM   20  S   UNL     1      -9.977   7.296  73.407  1.00  0.00    -0.327 SA 
HETATM   21  C   UNL     1     -10.881   5.812  73.604  1.00  0.00    -0.193 C  
HETATM   22  N   UNL     1     -11.929   5.789  72.746  1.00  0.00    -0.539 N  
HETATM   23  O   UNL     1     -10.583   4.930  74.391  1.00  0.00    -0.281 OA 
HETATM   24  C   UNL     1     -12.021   6.771  71.802  1.00  0.00    -0.339 C  
HETATM   25  H   UNL     1     -12.634   5.054  72.805  1.00  0.00     0.000 HD 
HETATM   26  O   UNL     1     -12.939   6.848  70.996  1.00  0.00    -0.305 OA 
ENDBRANCH  18  19
ENDBRANCH  15  18
ENDBRANCH  11  12
ENDBRANCH  10  11
ENDBRANCH   9  10
ENDBRANCH   2   9
TORSDOF 7
ENDMDL
MODEL       71
REMARK 921   NORMALIZED FREE ENERGY PREDICTED BY IDOCK:   -5.53 KCAL/MOL
REMARK 922        TOTAL FREE ENERGY PREDICTED BY IDOCK:   -8.65 KCAL/MOL
REMARK 923 INTER-LIGAND FREE ENERGY PREDICTED BY IDOCK:   -7.50 KCAL/MOL
REMARK 924 INTRA-LIGAND FREE ENERGY PREDICTED BY IDOCK:   -1.14 KCAL/MOL
REMARK 927      BINDING AFFINITY PREDICTED BY RF-SCORE:    0.00 PKD
ROOT
HETATM    1  C   UNL     1     -10.914   6.049  68.014  1.00  0.00    -0.245 C  
HETATM    2  N   UNL     1     -10.405   7.298  68.580  1.00  0.00    -0.189 NA 
ENDROOT
BRANCH   2   3
HETATM    3  C   UNL     1     -11.013   7.619  69.812  1.00  0.00    -0.170 A  
HETATM    4  C   UNL     1     -12.292   7.035  71.661  1.00  0.00    -0.368 A  
HETATM    5  C   UNL     1     -12.244   8.308  72.197  1.00  0.00    -0.418 A  
HETATM    6  C   UNL     1     -10.922   8.924  70.297  1.00  0.00    -0.266 A  
HETATM    7  C   UNL     1     -11.544   9.274  71.495  1.00  0.00    -0.452 A  
HETATM    8  N   UNL     1     -11.701   6.678  70.498  1.00  0.00    -0.391 NA 
ENDBRANCH   2   3
BRANCH   2   9
HETATM    9  C   UNL     1      -8.931   7.400  68.605  1.00  0.00    -0.131 C  
BRANCH   9  10
HETATM   10  C   UNL     1      -8.357   7.797  67.237  1.00  0.00    -0.118 C  
BRANCH  10  11
HETATM   11  O   UNL     1      -7.799   9.118  67.249  1.00  0.00    -0.098 OA 
BRANCH  11  12
HETATM   12  C   UNL     1      -8.713  10.132  67.412  1.00  0.00    -0.125 A  
HETATM   13  C   UNL     1      -9.668  12.063  68.525  1.00  0.00    -0.165 A  
HETATM   14  C   UNL     1      -8.649  11.118  68.396  1.00  0.00    -0.152 A  
HETATM   15  C   UNL     1     -10.768  12.051  67.662  1.00  0.00    -0.252 A  
HETATM   16  C   UNL     1     -10.806  11.095  66.636  1.00  0.00    -0.308 A  
HETATM   17  C   UNL     1      -9.787  10.141  66.513  1.00  0.00    -0.268 A  
BRANCH  15  18
HETATM   18  C   UNL     1     -11.918  12.996  67.896  1.00  0.00    -0.338 C  
BRANCH  18  19
HETATM   19  C   UNL     1     -11.893  14.348  67.189  1.00  0.00    -0.410 C  
HETATM   20  S   UNL     1     -10.420  15.394  67.421  1.00  0.00    -0.283 SA 
HETATM   21  C   UNL     1     -10.556  16.044  65.804  1.00  0.00    -0.353 C  
HETATM   22  N   UNL     1     -11.395  15.279  65.064  1.00  0.00    -0.374 N  
HETATM   23  O   UNL     1      -9.987  17.052  65.422  1.00  0.00    -0.556 OA 
HETATM   24  C   UNL     1     -12.096  14.289  65.690  1.00  0.00    -0.393 C  
HETATM   25  H   UNL     1     -11.500  15.439  64.063  1.00  0.00     0.000 HD 
HETATM   26  O   UNL     1     -12.862  13.532  65.107  1.00  0.00    -0.681 OA 
ENDBRANCH  18  19
ENDBRANCH  15  18
ENDBRANCH  11  12
ENDBRANCH  10  11
ENDBRANCH   9  10
ENDBRANCH   2   9
TORSDOF 7
ENDMDL
MODEL       72
REMARK 921   NORMALIZED FREE ENERGY PREDICTED BY IDOCK:   -5.52 KCAL/MOL
REMARK 922        TOTAL FREE ENERGY PREDICTED BY IDOCK:   -8.64 KCAL/MOL
REMARK 923 INTER-LIGAND FREE ENERGY PREDICTED BY IDOCK:   -7.84 KCAL/MOL
REMARK 924 INTRA-LIGAND FREE ENERGY PREDICTED BY IDOCK:   -0.80 KCAL/MOL
REMARK 927      BINDING AFFINITY PREDICTED BY RF-SCORE:    0.00 PKD
ROOT
HETATM    1  C   UNL     1      -6.692  20.057  69.434  1.00  0.00    -0.280 C  
HETATM    2  N   UNL     1      -7.167  18.872  68.719  1.00  0.00    -0.309 NA 
ENDROOT
BRANCH   2   3
HETATM    3  C   UNL     1      -8.293  19.145  67.913  1.00  0.00    -0.298 A  
HETATM    4  C   UNL     1      -9.238  19.834  65.907  1.00  0.00    -0.153 A  
HETATM    5  C   UNL     1     -10.531  19.729  66.387  1.00  0.00    -0.618 A  
HETATM    6  C   UNL     1      -9.570  19.015  68.461  1.00  0.00    -0.442 A  
HETATM    7  C   UNL     1     -10.697  19.311  67.696  1.00  0.00    -0.533 A  
HETATM    8  N   UNL     1      -8.133  19.556  66.636  1.00  0.00    -0.289 NA 
ENDBRANCH   2   3
BRANCH   2   9
HETATM    9  C   UNL     1      -6.108  18.118  68.017  1.00  0.00    -0.172 C  
BRANCH   9  10
HETATM   10  C   UNL     1      -6.225  16.605  68.252  1.00  0.00    -0.124 C  
BRANCH  10  11
HETATM   11  O   UNL     1      -7.355  16.273  69.071  1.00  0.00    -0.189 OA 
BRANCH  11  12
HETATM   12  C   UNL     1      -8.402  15.683  68.402  1.00  0.00    -0.162 A  
HETATM   13  C   UNL     1      -9.534  14.800  66.448  1.00  0.00    -0.328 A  
HETATM   14  C   UNL     1      -8.393  15.327  67.054  1.00  0.00    -0.267 A  
HETATM   15  C   UNL     1     -10.708  14.603  67.184  1.00  0.00    -0.292 A  
HETATM   16  C   UNL     1     -10.701  14.908  68.552  1.00  0.00    -0.245 A  
HETATM   17  C   UNL     1      -9.557  15.446  69.157  1.00  0.00    -0.253 A  
BRANCH  15  18
HETATM   18  C   UNL     1     -11.966  14.155  66.485  1.00  0.00    -0.466 C  
BRANCH  18  19
HETATM   19  C   UNL     1     -11.905  12.886  65.641  1.00  0.00    -0.417 C  
HETATM   20  S   UNL     1     -10.963  12.952  64.083  1.00  0.00    -0.420 SA 
HETATM   21  C   UNL     1     -10.475  11.281  64.240  1.00  0.00    -0.357 C  
HETATM   22  N   UNL     1     -10.696  10.849  65.504  1.00  0.00    -0.167 N  
HETATM   23  O   UNL     1     -10.023  10.613  63.326  1.00  0.00    -0.321 OA 
HETATM   24  C   UNL     1     -11.378  11.663  66.362  1.00  0.00    -0.245 C  
HETATM   25  H   UNL     1     -10.360   9.936  65.809  1.00  0.00     0.000 HD 
HETATM   26  O   UNL     1     -11.610  11.372  67.528  1.00  0.00    -0.497 OA 
ENDBRANCH  18  19
ENDBRANCH  15  18
ENDBRANCH  11  12
ENDBRANCH  10  11
ENDBRANCH   9  10
ENDBRANCH   2   9
TORSDOF 7
ENDMDL
MODEL       73
REMARK 921   NORMALIZED FREE ENERGY PREDICTED BY IDOCK:   -5.49 KCAL/MOL
REMARK 922        TOTAL FREE ENERGY PREDICTED BY IDOCK:   -8.60 KCAL/MOL
REMARK 923 INTER-LIGAND FREE ENERGY PREDICTED BY IDOCK:   -8.25 KCAL/MOL
REMARK 924 INTRA-LIGAND FREE ENERGY PREDICTED BY IDOCK:   -0.34 KCAL/MOL
REMARK 927      BINDING AFFINITY PREDICTED BY RF-SCORE:    0.00 PKD
ROOT
HETATM    1  C   UNL     1     -11.451   5.438  72.719  1.00  0.00    -0.268 C  
HETATM    2  N   UNL     1     -11.280   6.490  71.717  1.00  0.00    -0.256 NA 
ENDROOT
BRANCH   2   3
HETATM    3  C   UNL     1     -10.932   5.975  70.450  1.00  0.00    -0.328 A  
HETATM    4  C   UNL     1      -9.724   4.511  69.112  1.00  0.00    -0.179 A  
HETATM    5  C   UNL     1     -10.231   5.037  67.939  1.00  0.00    -0.147 A  
HETATM    6  C   UNL     1     -11.485   6.553  69.305  1.00  0.00    -0.307 A  
HETATM    7  C   UNL     1     -11.131   6.084  68.041  1.00  0.00    -0.233 A  
HETATM    8  N   UNL     1     -10.051   4.955  70.347  1.00  0.00    -0.247 NA 
ENDBRANCH   2   3
BRANCH   2   9
HETATM    9  C   UNL     1     -12.380   7.475  71.672  1.00  0.00    -0.333 C  
BRANCH   9  10
HETATM   10  C   UNL     1     -11.981   8.814  72.310  1.00  0.00    -0.345 C  
BRANCH  10  11
HETATM   11  O   UNL     1     -13.055   9.765  72.283  1.00  0.00    -0.416 OA 
BRANCH  11  12
HETATM   12  C   UNL     1     -12.801  10.907  71.560  1.00  0.00    -0.454 A  
HETATM   13  C   UNL     1     -11.799  12.181  69.757  1.00  0.00    -0.397 A  
HETATM   14  C   UNL     1     -12.066  10.960  70.377  1.00  0.00    -0.453 A  
HETATM   15  C   UNL     1     -12.276  13.378  70.301  1.00  0.00    -0.405 A  
HETATM   16  C   UNL     1     -13.063  13.321  71.460  1.00  0.00    -0.414 A  
HETATM   17  C   UNL     1     -13.323  12.095  72.087  1.00  0.00    -0.438 A  
BRANCH  15  18
HETATM   18  C   UNL     1     -11.872  14.695  69.691  1.00  0.00    -0.367 C  
BRANCH  18  19
HETATM   19  C   UNL     1     -11.074  14.669  68.391  1.00  0.00    -0.257 C  
HETATM   20  S   UNL     1     -11.884  13.969  66.917  1.00  0.00    -0.446 SA 
HETATM   21  C   UNL     1     -11.044  15.077  65.857  1.00  0.00    -0.334 C  
HETATM   22  N   UNL     1     -10.506  16.090  66.577  1.00  0.00    -0.302 N  
HETATM   23  O   UNL     1     -10.952  14.931  64.651  1.00  0.00    -0.370 OA 
HETATM   24  C   UNL     1     -10.542  16.013  67.940  1.00  0.00    -0.301 C  
HETATM   25  H   UNL     1     -10.083  16.893  66.112  1.00  0.00     0.000 HD 
HETATM   26  O   UNL     1     -10.101  16.886  68.677  1.00  0.00    -0.257 OA 
ENDBRANCH  18  19
ENDBRANCH  15  18
ENDBRANCH  11  12
ENDBRANCH  10  11
ENDBRANCH   9  10
ENDBRANCH   2   9
TORSDOF 7
ENDMDL
MODEL       74
REMARK 921   NORMALIZED FREE ENERGY PREDICTED BY IDOCK:   -5.49 KCAL/MOL
REMARK 922        TOTAL FREE ENERGY PREDICTED BY IDOCK:   -8.59 KCAL/MOL
REMARK 923 INTER-LIGAND FREE ENERGY PREDICTED BY IDOCK:   -7.60 KCAL/MOL
REMARK 924 INTRA-LIGAND FREE ENERGY PREDICTED BY IDOCK:   -0.99 KCAL/MOL
REMARK 927      BINDING AFFINITY PREDICTED BY RF-SCORE:    0.00 PKD
ROOT
HETATM    1  C   UNL     1     -11.007  15.828  65.029  1.00  0.00    -0.417 C  
HETATM    2  N   UNL     1     -11.324  14.749  65.965  1.00  0.00    -0.343 NA 
ENDROOT
BRANCH   2   3
HETATM    3  C   UNL     1     -11.307  15.178  67.308  1.00  0.00    -0.303 A  
HETATM    4  C   UNL     1     -10.740  16.731  68.940  1.00  0.00    -0.333 A  
HETATM    5  C   UNL     1     -11.239  15.954  69.968  1.00  0.00    -0.354 A  
HETATM    6  C   UNL     1     -11.831  14.343  68.297  1.00  0.00    -0.361 A  
HETATM    7  C   UNL     1     -11.795  14.730  69.636  1.00  0.00    -0.362 A  
HETATM    8  N   UNL     1     -10.762  16.371  67.636  1.00  0.00    -0.326 NA 
ENDBRANCH   2   3
BRANCH   2   9
HETATM    9  C   UNL     1     -12.528  13.969  65.610  1.00  0.00    -0.504 C  
BRANCH   9  10
HETATM   10  C   UNL     1     -12.171  12.605  64.999  1.00  0.00    -0.476 C  
BRANCH  10  11
HETATM   11  O   UNL     1     -10.793  12.265  65.209  1.00  0.00    -0.276 OA 
BRANCH  11  12
HETATM   12  C   UNL     1     -10.584  11.109  65.923  1.00  0.00    -0.234 A  
HETATM   13  C   UNL     1      -9.805   8.833  66.227  1.00  0.00    -0.342 A  
HETATM   14  C   UNL     1      -9.900   9.989  65.452  1.00  0.00    -0.384 A  
HETATM   15  C   UNL     1     -10.380   8.777  67.501  1.00  0.00    -0.334 A  
HETATM   16  C   UNL     1     -11.019   9.922  67.998  1.00  0.00    -0.269 A  
HETATM   17  C   UNL     1     -11.123  11.079  67.215  1.00  0.00    -0.359 A  
BRANCH  15  18
HETATM   18  C   UNL     1     -10.378   7.482  68.271  1.00  0.00    -0.233 C  
BRANCH  18  19
HETATM   19  C   UNL     1      -9.562   7.412  69.558  1.00  0.00    -0.155 C  
HETATM   20  S   UNL     1      -7.975   8.306  69.600  1.00  0.00    -0.113 SA 
HETATM   21  C   UNL     1      -8.155   8.661  71.302  1.00  0.00    -0.147 C  
HETATM   22  N   UNL     1      -9.435   8.447  71.689  1.00  0.00    -0.191 N  
HETATM   23  O   UNL     1      -7.244   9.029  72.023  1.00  0.00    -0.315 OA 
HETATM   24  C   UNL     1     -10.294   7.861  70.804  1.00  0.00    -0.203 C  
HETATM   25  H   UNL     1      -9.751   8.718  72.620  1.00  0.00     0.000 HD 
HETATM   26  O   UNL     1     -11.473   7.644  71.052  1.00  0.00    -0.269 OA 
ENDBRANCH  18  19
ENDBRANCH  15  18
ENDBRANCH  11  12
ENDBRANCH  10  11
ENDBRANCH   9  10
ENDBRANCH   2   9
TORSDOF 7
ENDMDL
MODEL       75
REMARK 921   NORMALIZED FREE ENERGY PREDICTED BY IDOCK:   -5.49 KCAL/MOL
REMARK 922        TOTAL FREE ENERGY PREDICTED BY IDOCK:   -8.59 KCAL/MOL
REMARK 923 INTER-LIGAND FREE ENERGY PREDICTED BY IDOCK:   -8.12 KCAL/MOL
REMARK 924 INTRA-LIGAND FREE ENERGY PREDICTED BY IDOCK:   -0.47 KCAL/MOL
REMARK 927      BINDING AFFINITY PREDICTED BY RF-SCORE:    0.00 PKD
ROOT
HETATM    1  C   UNL     1     -10.211  15.452  69.742  1.00  0.00    -0.268 C  
HETATM    2  N   UNL     1     -11.193  14.411  69.437  1.00  0.00    -0.273 NA 
ENDROOT
BRANCH   2   3
HETATM    3  C   UNL     1     -12.192  14.306  70.427  1.00  0.00    -0.342 A  
HETATM    4  C   UNL     1     -13.498  13.039  71.871  1.00  0.00    -0.408 A  
HETATM    5  C   UNL     1     -14.204  14.137  72.326  1.00  0.00    -0.598 A  
HETATM    6  C   UNL     1     -12.863  15.457  70.844  1.00  0.00    -0.536 A  
HETATM    7  C   UNL     1     -13.877  15.374  71.796  1.00  0.00    -0.620 A  
HETATM    8  N   UNL     1     -12.515  13.099  70.944  1.00  0.00    -0.359 NA 
ENDBRANCH   2   3
BRANCH   2   9
HETATM    9  C   UNL     1     -11.729  14.463  68.061  1.00  0.00    -0.340 C  
BRANCH   9  10
HETATM   10  C   UNL     1     -11.315  13.237  67.234  1.00  0.00    -0.314 C  
BRANCH  10  11
HETATM   11  O   UNL     1     -12.011  12.051  67.643  1.00  0.00    -0.547 OA 
BRANCH  11  12
HETATM   12  C   UNL     1     -11.207  10.969  67.912  1.00  0.00    -0.310 A  
HETATM   13  C   UNL     1      -9.988   8.951  67.345  1.00  0.00    -0.267 A  
HETATM   14  C   UNL     1     -10.739  10.062  66.961  1.00  0.00    -0.248 A  
HETATM   15  C   UNL     1      -9.674   8.730  68.690  1.00  0.00    -0.170 A  
HETATM   16  C   UNL     1     -10.095   9.671  69.640  1.00  0.00    -0.242 A  
HETATM   17  C   UNL     1     -10.858  10.782  69.255  1.00  0.00    -0.287 A  
BRANCH  15  18
HETATM   18  C   UNL     1      -8.973   7.461  69.099  1.00  0.00    -0.135 C  
BRANCH  18  19
HETATM   19  C   UNL     1      -9.422   6.775  70.386  1.00  0.00    -0.166 C  
HETATM   20  S   UNL     1      -8.966   7.560  71.965  1.00  0.00    -0.128 SA 
HETATM   21  C   UNL     1     -10.442   7.016  72.728  1.00  0.00    -0.238 C  
HETATM   22  N   UNL     1     -11.329   6.611  71.788  1.00  0.00    -0.265 N  
HETATM   23  O   UNL     1     -10.619   6.993  73.934  1.00  0.00    -0.371 OA 
HETATM   24  C   UNL     1     -10.912   6.527  70.491  1.00  0.00    -0.294 C  
HETATM   25  H   UNL     1     -12.288   6.375  72.044  1.00  0.00     0.000 HD 
HETATM   26  O   UNL     1     -11.643   6.192  69.568  1.00  0.00    -0.396 OA 
ENDBRANCH  18  19
ENDBRANCH  15  18
ENDBRANCH  11  12
ENDBRANCH  10  11
ENDBRANCH   9  10
ENDBRANCH   2   9
TORSDOF 7
ENDMDL
MODEL       76
REMARK 921   NORMALIZED FREE ENERGY PREDICTED BY IDOCK:   -5.48 KCAL/MOL
REMARK 922        TOTAL FREE ENERGY PREDICTED BY IDOCK:   -8.57 KCAL/MOL
REMARK 923 INTER-LIGAND FREE ENERGY PREDICTED BY IDOCK:   -8.02 KCAL/MOL
REMARK 924 INTRA-LIGAND FREE ENERGY PREDICTED BY IDOCK:   -0.55 KCAL/MOL
REMARK 927      BINDING AFFINITY PREDICTED BY RF-SCORE:    0.00 PKD
ROOT
HETATM    1  C   UNL     1      -9.394  10.315  69.378  1.00  0.00    -0.199 C  
HETATM    2  N   UNL     1     -10.822  10.275  69.064  1.00  0.00    -0.218 NA 
ENDROOT
BRANCH   2   3
HETATM    3  C   UNL     1     -11.592  11.053  69.954  1.00  0.00    -0.337 A  
HETATM    4  C   UNL     1     -12.997  11.245  71.793  1.00  0.00    -0.414 A  
HETATM    5  C   UNL     1     -13.142  12.611  71.642  1.00  0.00    -0.421 A  
HETATM    6  C   UNL     1     -11.692  12.430  69.744  1.00  0.00    -0.361 A  
HETATM    7  C   UNL     1     -12.475  13.215  70.590  1.00  0.00    -0.363 A  
HETATM    8  N   UNL     1     -12.248  10.466  70.980  1.00  0.00    -0.358 NA 
ENDBRANCH   2   3
BRANCH   2   9
HETATM    9  C   UNL     1     -11.141  10.518  67.641  1.00  0.00    -0.309 C  
BRANCH   9  10
HETATM   10  C   UNL     1     -10.124  11.456  66.975  1.00  0.00    -0.208 C  
BRANCH  10  11
HETATM   11  O   UNL     1     -10.727  12.270  65.959  1.00  0.00    -0.249 OA 
BRANCH  11  12
HETATM   12  C   UNL     1     -10.492  13.619  66.082  1.00  0.00    -0.297 A  
HETATM   13  C   UNL     1      -9.774  15.621  67.248  1.00  0.00    -0.219 A  
HETATM   14  C   UNL     1      -9.902  14.232  67.187  1.00  0.00    -0.252 A  
HETATM   15  C   UNL     1     -10.221  16.427  66.196  1.00  0.00    -0.363 A  
HETATM   16  C   UNL     1     -10.763  15.808  65.060  1.00  0.00    -0.443 A  
HETATM   17  C   UNL     1     -10.900  14.414  65.004  1.00  0.00    -0.420 A  
BRANCH  15  18
HETATM   18  C   UNL     1     -10.192  17.927  66.333  1.00  0.00    -0.372 C  
BRANCH  18  19
HETATM   19  C   UNL     1      -8.927  18.573  66.890  1.00  0.00    -0.280 C  
HETATM   20  S   UNL     1      -7.337  18.109  66.129  1.00  0.00    -0.260 SA 
HETATM   21  C   UNL     1      -6.676  19.704  66.402  1.00  0.00    -0.201 C  
HETATM   22  N   UNL     1      -7.671  20.576  66.695  1.00  0.00    -0.493 N  
HETATM   23  O   UNL     1      -5.487  19.969  66.352  1.00  0.00    -0.171 OA 
HETATM   24  C   UNL     1      -8.930  20.087  66.893  1.00  0.00    -0.353 C  
HETATM   25  H   UNL     1      -7.483  21.576  66.765  1.00  0.00     0.000 HD 
HETATM   26  O   UNL     1      -9.897  20.794  67.141  1.00  0.00    -0.463 OA 
ENDBRANCH  18  19
ENDBRANCH  15  18
ENDBRANCH  11  12
ENDBRANCH  10  11
ENDBRANCH   9  10
ENDBRANCH   2   9
TORSDOF 7
ENDMDL
MODEL       77
REMARK 921   NORMALIZED FREE ENERGY PREDICTED BY IDOCK:   -5.45 KCAL/MOL
REMARK 922        TOTAL FREE ENERGY PREDICTED BY IDOCK:   -8.53 KCAL/MOL
REMARK 923 INTER-LIGAND FREE ENERGY PREDICTED BY IDOCK:   -6.63 KCAL/MOL
REMARK 924 INTRA-LIGAND FREE ENERGY PREDICTED BY IDOCK:   -1.90 KCAL/MOL
REMARK 927      BINDING AFFINITY PREDICTED BY RF-SCORE:    0.00 PKD
ROOT
HETATM    1  C   UNL     1      -8.829   6.955  74.018  1.00  0.00    -0.170 C  
HETATM    2  N   UNL     1     -10.251   6.869  73.685  1.00  0.00    -0.304 NA 
ENDROOT
BRANCH   2   3
HETATM    3  C   UNL     1     -10.649   7.860  72.764  1.00  0.00    -0.353 A  
HETATM    4  C   UNL     1     -10.149   9.578  71.283  1.00  0.00    -0.126 A  
HETATM    5  C   UNL     1     -11.479   9.838  71.008  1.00  0.00    -0.458 A  
HETATM    6  C   UNL     1     -12.010   8.067  72.531  1.00  0.00    -0.384 A  
HETATM    7  C   UNL     1     -12.430   9.063  71.650  1.00  0.00    -0.418 A  
HETATM    8  N   UNL     1      -9.723   8.621  72.138  1.00  0.00    -0.314 NA 
ENDBRANCH   2   3
BRANCH   2   9
HETATM    9  C   UNL     1     -10.714   5.512  73.329  1.00  0.00    -0.274 C  
BRANCH   9  10
HETATM   10  C   UNL     1      -9.817   4.857  72.268  1.00  0.00    -0.169 C  
BRANCH  10  11
HETATM   11  O   UNL     1     -10.465   4.776  70.991  1.00  0.00    -0.162 OA 
BRANCH  11  12
HETATM   12  C   UNL     1     -10.046   5.705  70.068  1.00  0.00    -0.228 A  
HETATM   13  C   UNL     1      -8.400   7.081  68.936  1.00  0.00    -0.125 A  
HETATM   14  C   UNL     1      -8.719   6.071  69.846  1.00  0.00    -0.131 A  
HETATM   15  C   UNL     1      -9.404   7.737  68.216  1.00  0.00    -0.143 A  
HETATM   16  C   UNL     1     -10.734   7.331  68.398  1.00  0.00    -0.165 A  
HETATM   17  C   UNL     1     -11.053   6.324  69.318  1.00  0.00    -0.461 A  
BRANCH  15  18
HETATM   18  C   UNL     1      -9.054   8.909  67.336  1.00  0.00    -0.147 C  
BRANCH  18  19
HETATM   19  C   UNL     1     -10.177   9.578  66.551  1.00  0.00    -0.237 C  
HETATM   20  S   UNL     1     -10.992  11.022  67.307  1.00  0.00    -0.289 SA 
HETATM   21  C   UNL     1     -11.256  11.763  65.746  1.00  0.00    -0.281 C  
HETATM   22  N   UNL     1     -10.487  11.159  64.808  1.00  0.00    -0.320 N  
HETATM   23  O   UNL     1     -12.037  12.677  65.546  1.00  0.00    -0.436 OA 
HETATM   24  C   UNL     1      -9.801  10.030  65.156  1.00  0.00    -0.318 C  
HETATM   25  H   UNL     1     -10.421  11.538  63.864  1.00  0.00     0.000 HD 
HETATM   26  O   UNL     1      -9.065   9.425  64.388  1.00  0.00    -0.217 OA 
ENDBRANCH  18  19
ENDBRANCH  15  18
ENDBRANCH  11  12
ENDBRANCH  10  11
ENDBRANCH   9  10
ENDBRANCH   2   9
TORSDOF 7
ENDMDL
MODEL       78
REMARK 921   NORMALIZED FREE ENERGY PREDICTED BY IDOCK:   -5.44 KCAL/MOL
REMARK 922        TOTAL FREE ENERGY PREDICTED BY IDOCK:   -8.52 KCAL/MOL
REMARK 923 INTER-LIGAND FREE ENERGY PREDICTED BY IDOCK:   -7.87 KCAL/MOL
REMARK 924 INTRA-LIGAND FREE ENERGY PREDICTED BY IDOCK:   -0.64 KCAL/MOL
REMARK 927      BINDING AFFINITY PREDICTED BY RF-SCORE:    0.00 PKD
ROOT
HETATM    1  C   UNL     1     -10.461  19.784  66.104  1.00  0.00    -0.509 C  
HETATM    2  N   UNL     1      -9.244  18.974  66.042  1.00  0.00    -0.460 NA 
ENDROOT
BRANCH   2   3
HETATM    3  C   UNL     1      -8.073  19.750  66.168  1.00  0.00    -0.342 A  
HETATM    4  C   UNL     1      -6.063  20.550  65.323  1.00  0.00    -0.244 A  
HETATM    5  C   UNL     1      -5.755  21.237  66.482  1.00  0.00    -0.338 A  
HETATM    6  C   UNL     1      -7.827  20.422  67.367  1.00  0.00    -0.360 A  
HETATM    7  C   UNL     1      -6.660  21.168  67.528  1.00  0.00    -0.428 A  
HETATM    8  N   UNL     1      -7.186  19.817  65.150  1.00  0.00    -0.349 NA 
ENDBRANCH   2   3
BRANCH   2   9
HETATM    9  C   UNL     1      -9.259  17.782  66.915  1.00  0.00    -0.258 C  
BRANCH   9  10
HETATM   10  C   UNL     1      -8.488  16.606  66.299  1.00  0.00    -0.320 C  
BRANCH  10  11
HETATM   11  O   UNL     1      -9.305  15.835  65.406  1.00  0.00    -0.290 OA 
BRANCH  11  12
HETATM   12  C   UNL     1      -9.949  14.767  65.986  1.00  0.00    -0.313 A  
HETATM   13  C   UNL     1     -11.802  13.236  66.303  1.00  0.00    -0.444 A  
HETATM   14  C   UNL     1     -11.197  14.280  65.602  1.00  0.00    -0.314 A  
HETATM   15  C   UNL     1     -11.162  12.645  67.398  1.00  0.00    -0.337 A  
HETATM   16  C   UNL     1      -9.882  13.097  67.750  1.00  0.00    -0.228 A  
HETATM   17  C   UNL     1      -9.280  14.151  67.051  1.00  0.00    -0.249 A  
BRANCH  15  18
HETATM   18  C   UNL     1     -11.883  11.608  68.220  1.00  0.00    -0.335 C  
BRANCH  18  19
HETATM   19  C   UNL     1     -11.066  10.777  69.205  1.00  0.00    -0.249 C  
HETATM   20  S   UNL     1     -11.735  10.559  70.885  1.00  0.00    -0.287 SA 
HETATM   21  C   UNL     1     -11.050   8.956  71.013  1.00  0.00    -0.276 C  
HETATM   22  N   UNL     1     -10.681   8.509  69.788  1.00  0.00    -0.250 N  
HETATM   23  O   UNL     1     -10.914   8.353  72.063  1.00  0.00    -0.276 OA 
HETATM   24  C   UNL     1     -10.732   9.377  68.735  1.00  0.00    -0.171 C  
HETATM   25  H   UNL     1     -10.373   7.546  69.655  1.00  0.00     0.000 HD 
HETATM   26  O   UNL     1     -10.439   9.064  67.588  1.00  0.00    -0.245 OA 
ENDBRANCH  18  19
ENDBRANCH  15  18
ENDBRANCH  11  12
ENDBRANCH  10  11
ENDBRANCH   9  10
ENDBRANCH   2   9
TORSDOF 7
ENDMDL
MODEL       79
REMARK 921   NORMALIZED FREE ENERGY PREDICTED BY IDOCK:   -5.42 KCAL/MOL
REMARK 922        TOTAL FREE ENERGY PREDICTED BY IDOCK:   -8.49 KCAL/MOL
REMARK 923 INTER-LIGAND FREE ENERGY PREDICTED BY IDOCK:   -7.41 KCAL/MOL
REMARK 924 INTRA-LIGAND FREE ENERGY PREDICTED BY IDOCK:   -1.08 KCAL/MOL
REMARK 927      BINDING AFFINITY PREDICTED BY RF-SCORE:    0.00 PKD
ROOT
HETATM    1  C   UNL     1      -8.459   8.948  69.002  1.00  0.00    -0.133 C  
HETATM    2  N   UNL     1      -9.810   8.395  68.902  1.00  0.00    -0.175 NA 
ENDROOT
BRANCH   2   3
HETATM    3  C   UNL     1     -10.732   9.074  69.726  1.00  0.00    -0.225 A  
HETATM    4  C   UNL     1     -11.893  10.995  70.325  1.00  0.00    -0.367 A  
HETATM    5  C   UNL     1     -12.503  10.386  71.406  1.00  0.00    -0.521 A  
HETATM    6  C   UNL     1     -11.314   8.397  70.799  1.00  0.00    -0.290 A  
HETATM    7  C   UNL     1     -12.203   9.057  71.648  1.00  0.00    -0.418 A  
HETATM    8  N   UNL     1     -11.025  10.373  69.494  1.00  0.00    -0.244 NA 
ENDBRANCH   2   3
BRANCH   2   9
HETATM    9  C   UNL     1     -10.288   8.198  67.518  1.00  0.00    -0.261 C  
BRANCH   9  10
HETATM   10  C   UNL     1      -9.355   8.852  66.488  1.00  0.00    -0.195 C  
BRANCH  10  11
HETATM   11  O   UNL     1     -10.076   9.643  65.534  1.00  0.00    -0.290 OA 
BRANCH  11  12
HETATM   12  C   UNL     1     -10.223  10.968  65.871  1.00  0.00    -0.254 A  
HETATM   13  C   UNL     1     -11.392  13.090  65.958  1.00  0.00    -0.343 A  
HETATM   14  C   UNL     1     -11.368  11.730  65.646  1.00  0.00    -0.293 A  
HETATM   15  C   UNL     1     -10.273  13.716  66.517  1.00  0.00    -0.284 A  
HETATM   16  C   UNL     1      -9.141  12.938  66.797  1.00  0.00    -0.211 A  
HETATM   17  C   UNL     1      -9.114  11.574  66.474  1.00  0.00    -0.199 A  
BRANCH  15  18
HETATM   18  C   UNL     1     -10.273  15.208  66.728  1.00  0.00    -0.265 C  
BRANCH  18  19
HETATM   19  C   UNL     1     -11.084  15.768  67.893  1.00  0.00    -0.326 C  
HETATM   20  S   UNL     1     -11.317  14.701  69.351  1.00  0.00    -0.298 SA 
HETATM   21  C   UNL     1     -11.306  16.076  70.430  1.00  0.00    -0.391 C  
HETATM   22  N   UNL     1     -10.813  17.164  69.792  1.00  0.00    -0.293 N  
HETATM   23  O   UNL     1     -11.706  16.044  71.581  1.00  0.00    -0.444 OA 
HETATM   24  C   UNL     1     -10.579  17.082  68.449  1.00  0.00    -0.375 C  
HETATM   25  H   UNL     1     -10.621  18.026  70.303  1.00  0.00     0.000 HD 
HETATM   26  O   UNL     1     -10.116  18.003  67.788  1.00  0.00    -0.319 OA 
ENDBRANCH  18  19
ENDBRANCH  15  18
ENDBRANCH  11  12
ENDBRANCH  10  11
ENDBRANCH   9  10
ENDBRANCH   2   9
TORSDOF 7
ENDMDL
MODEL       80
REMARK 921   NORMALIZED FREE ENERGY PREDICTED BY IDOCK:   -5.42 KCAL/MOL
REMARK 922        TOTAL FREE ENERGY PREDICTED BY IDOCK:   -8.49 KCAL/MOL
REMARK 923 INTER-LIGAND FREE ENERGY PREDICTED BY IDOCK:   -7.79 KCAL/MOL
REMARK 924 INTRA-LIGAND FREE ENERGY PREDICTED BY IDOCK:   -0.70 KCAL/MOL
REMARK 927      BINDING AFFINITY PREDICTED BY RF-SCORE:    0.00 PKD
ROOT
HETATM    1  C   UNL     1     -10.173  16.239  69.249  1.00  0.00    -0.269 C  
HETATM    2  N   UNL     1     -11.113  15.125  69.380  1.00  0.00    -0.260 NA 
ENDROOT
BRANCH   2   3
HETATM    3  C   UNL     1     -11.949  15.255  70.508  1.00  0.00    -0.344 A  
HETATM    4  C   UNL     1     -14.032  15.100  71.524  1.00  0.00    -0.522 A  
HETATM    5  C   UNL     1     -13.569  15.587  72.732  1.00  0.00    -0.653 A  
HETATM    6  C   UNL     1     -11.415  15.752  71.699  1.00  0.00    -0.495 A  
HETATM    7  C   UNL     1     -12.229  15.922  72.818  1.00  0.00    -0.604 A  
HETATM    8  N   UNL     1     -13.259  14.933  70.427  1.00  0.00    -0.182 NA 
ENDBRANCH   2   3
BRANCH   2   9
HETATM    9  C   UNL     1     -11.844  14.794  68.139  1.00  0.00    -0.287 C  
BRANCH   9  10
HETATM   10  C   UNL     1     -11.813  13.289  67.836  1.00  0.00    -0.349 C  
BRANCH  10  11
HETATM   11  O   UNL     1     -10.761  12.618  68.543  1.00  0.00    -0.236 OA 
BRANCH  11  12
HETATM   12  C   UNL     1     -11.148  11.489  69.225  1.00  0.00    -0.246 A  
HETATM   13  C   UNL     1     -12.398  10.265  70.904  1.00  0.00    -0.471 A  
HETATM   14  C   UNL     1     -12.129  11.448  70.215  1.00  0.00    -0.459 A  
HETATM   15  C   UNL     1     -11.701   9.089  70.606  1.00  0.00    -0.237 A  
HETATM   16  C   UNL     1     -10.754   9.116  69.572  1.00  0.00    -0.226 A  
HETATM   17  C   UNL     1     -10.477  10.307  68.888  1.00  0.00    -0.231 A  
BRANCH  15  18
HETATM   18  C   UNL     1     -11.914   7.856  71.444  1.00  0.00    -0.331 C  
BRANCH  18  19
HETATM   19  C   UNL     1     -10.683   7.101  71.937  1.00  0.00    -0.216 C  
HETATM   20  S   UNL     1      -9.287   8.085  72.572  1.00  0.00    -0.253 SA 
HETATM   21  C   UNL     1      -8.871   6.849  73.737  1.00  0.00    -0.153 C  
HETATM   22  N   UNL     1      -9.895   5.972  73.870  1.00  0.00    -0.178 N  
HETATM   23  O   UNL     1      -7.802   6.792  74.319  1.00  0.00    -0.106 OA 
HETATM   24  C   UNL     1     -10.953   6.070  73.012  1.00  0.00    -0.257 C  
HETATM   25  H   UNL     1      -9.876   5.255  74.594  1.00  0.00     0.000 HD 
HETATM   26  O   UNL     1     -11.934   5.339  73.064  1.00  0.00    -0.220 OA 
ENDBRANCH  18  19
ENDBRANCH  15  18
ENDBRANCH  11  12
ENDBRANCH  10  11
ENDBRANCH   9  10
ENDBRANCH   2   9
TORSDOF 7
ENDMDL
MODEL       81
REMARK 921   NORMALIZED FREE ENERGY PREDICTED BY IDOCK:   -5.40 KCAL/MOL
REMARK 922        TOTAL FREE ENERGY PREDICTED BY IDOCK:   -8.46 KCAL/MOL
REMARK 923 INTER-LIGAND FREE ENERGY PREDICTED BY IDOCK:   -6.51 KCAL/MOL
REMARK 924 INTRA-LIGAND FREE ENERGY PREDICTED BY IDOCK:   -1.95 KCAL/MOL
REMARK 927      BINDING AFFINITY PREDICTED BY RF-SCORE:    0.00 PKD
ROOT
HETATM    1  C   UNL     1      -7.899   8.280  63.517  1.00  0.00    -0.152 C  
HETATM    2  N   UNL     1      -7.385   9.271  64.464  1.00  0.00    -0.099 NA 
ENDROOT
BRANCH   2   3
HETATM    3  C   UNL     1      -8.361  10.221  64.831  1.00  0.00    -0.172 A  
HETATM    4  C   UNL     1      -9.098  11.959  66.184  1.00  0.00    -0.161 A  
HETATM    5  C   UNL     1     -10.329  12.030  65.561  1.00  0.00    -0.298 A  
HETATM    6  C   UNL     1      -9.583  10.239  64.157  1.00  0.00    -0.376 A  
HETATM    7  C   UNL     1     -10.576  11.146  64.525  1.00  0.00    -0.397 A  
HETATM    8  N   UNL     1      -8.124  11.083  65.846  1.00  0.00    -0.121 NA 
ENDBRANCH   2   3
BRANCH   2   9
HETATM    9  C   UNL     1      -6.659   8.696  65.614  1.00  0.00    -0.060 C  
BRANCH   9  10
HETATM   10  C   UNL     1      -7.351   7.440  66.164  1.00  0.00    -0.082 C  
BRANCH  10  11
HETATM   11  O   UNL     1      -7.601   7.536  67.574  1.00  0.00    -0.107 OA 
BRANCH  11  12
HETATM   12  C   UNL     1      -8.707   8.277  67.918  1.00  0.00    -0.135 A  
HETATM   13  C   UNL     1     -11.001   9.027  67.684  1.00  0.00     0.008 A  
HETATM   14  C   UNL     1      -9.959   8.176  67.313  1.00  0.00    -0.283 A  
HETATM   15  C   UNL     1     -10.816   9.989  68.682  1.00  0.00    -0.265 A  
HETATM   16  C   UNL     1      -9.575  10.054  69.331  1.00  0.00    -0.237 A  
HETATM   17  C   UNL     1      -8.526   9.205  68.950  1.00  0.00    -0.129 A  
BRANCH  15  18
HETATM   18  C   UNL     1     -11.910  10.982  68.980  1.00  0.00    -0.399 C  
BRANCH  18  19
HETATM   19  C   UNL     1     -11.984  11.569  70.387  1.00  0.00    -0.368 C  
HETATM   20  S   UNL     1     -12.398  13.337  70.543  1.00  0.00    -0.261 SA 
HETATM   21  C   UNL     1     -13.244  13.064  72.048  1.00  0.00    -0.444 C  
HETATM   22  N   UNL     1     -13.494  11.742  72.208  1.00  0.00    -0.547 N  
HETATM   23  O   UNL     1     -13.540  13.947  72.835  1.00  0.00    -0.680 OA 
HETATM   24  C   UNL     1     -12.937  10.862  71.326  1.00  0.00    -0.392 C  
HETATM   25  H   UNL     1     -14.085  11.412  72.971  1.00  0.00     0.000 HD 
HETATM   26  O   UNL     1     -13.119   9.652  71.374  1.00  0.00    -0.352 OA 
ENDBRANCH  18  19
ENDBRANCH  15  18
ENDBRANCH  11  12
ENDBRANCH  10  11
ENDBRANCH   9  10
ENDBRANCH   2   9
TORSDOF 7
ENDMDL
MODEL       82
REMARK 921   NORMALIZED FREE ENERGY PREDICTED BY IDOCK:   -5.39 KCAL/MOL
REMARK 922        TOTAL FREE ENERGY PREDICTED BY IDOCK:   -8.46 KCAL/MOL
REMARK 923 INTER-LIGAND FREE ENERGY PREDICTED BY IDOCK:   -6.96 KCAL/MOL
REMARK 924 INTRA-LIGAND FREE ENERGY PREDICTED BY IDOCK:   -1.50 KCAL/MOL
REMARK 927      BINDING AFFINITY PREDICTED BY RF-SCORE:    0.00 PKD
ROOT
HETATM    1  C   UNL     1      -9.825   7.491  73.216  1.00  0.00    -0.288 C  
HETATM    2  N   UNL     1     -11.229   7.279  72.862  1.00  0.00    -0.309 NA 
ENDROOT
BRANCH   2   3
HETATM    3  C   UNL     1     -11.792   8.390  72.200  1.00  0.00    -0.375 A  
HETATM    4  C   UNL     1     -13.629   9.657  71.556  1.00  0.00    -0.300 A  
HETATM    5  C   UNL     1     -12.861  10.550  70.832  1.00  0.00    -0.485 A  
HETATM    6  C   UNL     1     -10.957   9.254  71.490  1.00  0.00    -0.446 A  
HETATM    7  C   UNL     1     -11.493  10.340  70.799  1.00  0.00    -0.438 A  
HETATM    8  N   UNL     1     -13.128   8.596  72.228  1.00  0.00    -0.373 NA 
ENDBRANCH   2   3
BRANCH   2   9
HETATM    9  C   UNL     1     -11.500   5.991  72.190  1.00  0.00    -0.302 C  
BRANCH   9  10
HETATM   10  C   UNL     1     -10.411   5.634  71.168  1.00  0.00    -0.241 C  
BRANCH  10  11
HETATM   11  O   UNL     1     -10.914   5.632  69.824  1.00  0.00    -0.345 OA 
BRANCH  11  12
HETATM   12  C   UNL     1     -10.317   6.539  68.980  1.00  0.00    -0.195 A  
HETATM   13  C   UNL     1      -8.628   8.158  68.345  1.00  0.00    -0.130 A  
HETATM   14  C   UNL     1      -9.114   7.197  69.232  1.00  0.00    -0.137 A  
HETATM   15  C   UNL     1      -9.329   8.472  67.176  1.00  0.00    -0.191 A  
HETATM   16  C   UNL     1     -10.510   7.771  66.894  1.00  0.00    -0.388 A  
HETATM   17  C   UNL     1     -11.003   6.813  67.790  1.00  0.00    -0.321 A  
BRANCH  15  18
HETATM   18  C   UNL     1      -8.857   9.601  66.296  1.00  0.00    -0.172 C  
BRANCH  18  19
HETATM   19  C   UNL     1      -9.305  11.017  66.643  1.00  0.00    -0.177 C  
HETATM   20  S   UNL     1     -11.063  11.270  67.050  1.00  0.00    -0.254 SA 
HETATM   21  C   UNL     1     -10.676  12.540  68.187  1.00  0.00    -0.227 C  
HETATM   22  N   UNL     1      -9.355  12.509  68.487  1.00  0.00    -0.375 N  
HETATM   23  O   UNL     1     -11.487  13.340  68.621  1.00  0.00    -0.260 OA 
HETATM   24  C   UNL     1      -8.545  11.669  67.778  1.00  0.00    -0.144 C  
HETATM   25  H   UNL     1      -8.974  13.100  69.225  1.00  0.00     0.000 HD 
HETATM   26  O   UNL     1      -7.344  11.554  67.987  1.00  0.00    -0.083 OA 
ENDBRANCH  18  19
ENDBRANCH  15  18
ENDBRANCH  11  12
ENDBRANCH  10  11
ENDBRANCH   9  10
ENDBRANCH   2   9
TORSDOF 7
ENDMDL
MODEL       83
REMARK 921   NORMALIZED FREE ENERGY PREDICTED BY IDOCK:   -5.39 KCAL/MOL
REMARK 922        TOTAL FREE ENERGY PREDICTED BY IDOCK:   -8.45 KCAL/MOL
REMARK 923 INTER-LIGAND FREE ENERGY PREDICTED BY IDOCK:   -7.95 KCAL/MOL
REMARK 924 INTRA-LIGAND FREE ENERGY PREDICTED BY IDOCK:   -0.50 KCAL/MOL
REMARK 927      BINDING AFFINITY PREDICTED BY RF-SCORE:    0.00 PKD
ROOT
HETATM    1  C   UNL     1      -9.452  13.742  67.364  1.00  0.00    -0.224 C  
HETATM    2  N   UNL     1     -10.839  13.817  66.905  1.00  0.00    -0.283 NA 
ENDROOT
BRANCH   2   3
HETATM    3  C   UNL     1     -11.047  13.119  65.698  1.00  0.00    -0.275 A  
HETATM    4  C   UNL     1     -10.581  11.350  64.267  1.00  0.00    -0.355 A  
HETATM    5  C   UNL     1     -11.438  11.812  63.285  1.00  0.00    -0.332 A  
HETATM    6  C   UNL     1     -11.930  13.642  64.751  1.00  0.00    -0.426 A  
HETATM    7  C   UNL     1     -12.125  12.987  63.536  1.00  0.00    -0.617 A  
HETATM    8  N   UNL     1     -10.374  11.973  65.449  1.00  0.00    -0.256 NA 
ENDBRANCH   2   3
BRANCH   2   9
HETATM    9  C   UNL     1     -11.843  13.509  67.945  1.00  0.00    -0.362 C  
BRANCH   9  10
HETATM   10  C   UNL     1     -11.281  12.581  69.032  1.00  0.00    -0.268 C  
BRANCH  10  11
HETATM   11  O   UNL     1     -12.293  12.159  69.956  1.00  0.00    -0.202 OA 
BRANCH  11  12
HETATM   12  C   UNL     1     -12.036  10.968  70.594  1.00  0.00    -0.373 A  
HETATM   13  C   UNL     1     -12.519   9.160  72.136  1.00  0.00    -0.436 A  
HETATM   14  C   UNL     1     -12.903  10.330  71.481  1.00  0.00    -0.557 A  
HETATM   15  C   UNL     1     -11.261   8.591  71.906  1.00  0.00    -0.397 A  
HETATM   16  C   UNL     1     -10.411   9.201  70.972  1.00  0.00    -0.368 A  
HETATM   17  C   UNL     1     -10.794  10.381  70.322  1.00  0.00    -0.308 A  
BRANCH  15  18
HETATM   18  C   UNL     1     -10.815   7.402  72.716  1.00  0.00    -0.374 C  
BRANCH  18  19
HETATM   19  C   UNL     1     -10.997   6.013  72.112  1.00  0.00    -0.267 C  
HETATM   20  S   UNL     1     -10.070   5.624  70.593  1.00  0.00    -0.225 SA 
HETATM   21  C   UNL     1      -9.901   3.947  71.057  1.00  0.00    -0.149 C  
HETATM   22  N   UNL     1     -10.190   3.797  72.372  1.00  0.00    -0.168 N  
HETATM   23  O   UNL     1      -9.586   3.054  70.290  1.00  0.00    -0.159 OA 
HETATM   24  C   UNL     1     -10.703   4.863  73.053  1.00  0.00    -0.244 C  
HETATM   25  H   UNL     1     -10.028   2.907  72.843  1.00  0.00     0.000 HD 
HETATM   26  O   UNL     1     -10.977   4.834  74.245  1.00  0.00    -0.328 OA 
ENDBRANCH  18  19
ENDBRANCH  15  18
ENDBRANCH  11  12
ENDBRANCH  10  11
ENDBRANCH   9  10
ENDBRANCH   2   9
TORSDOF 7
ENDMDL
MODEL       84
REMARK 921   NORMALIZED FREE ENERGY PREDICTED BY IDOCK:   -5.37 KCAL/MOL
REMARK 922        TOTAL FREE ENERGY PREDICTED BY IDOCK:   -8.42 KCAL/MOL
REMARK 923 INTER-LIGAND FREE ENERGY PREDICTED BY IDOCK:   -7.71 KCAL/MOL
REMARK 924 INTRA-LIGAND FREE ENERGY PREDICTED BY IDOCK:   -0.71 KCAL/MOL
REMARK 927      BINDING AFFINITY PREDICTED BY RF-SCORE:    0.00 PKD
ROOT
HETATM    1  C   UNL     1     -13.030  13.863  65.301  1.00  0.00    -0.297 C  
HETATM    2  N   UNL     1     -11.958  14.297  64.405  1.00  0.00    -0.456 NA 
ENDROOT
BRANCH   2   3
HETATM    3  C   UNL     1     -10.992  15.086  65.062  1.00  0.00    -0.423 A  
HETATM    4  C   UNL     1      -9.066  15.295  66.344  1.00  0.00    -0.312 A  
HETATM    5  C   UNL     1      -9.152  16.674  66.395  1.00  0.00    -0.325 A  
HETATM    6  C   UNL     1     -11.138  16.475  65.071  1.00  0.00    -0.174 A  
HETATM    7  C   UNL     1     -10.215  17.275  65.744  1.00  0.00    -0.212 A  
HETATM    8  N   UNL     1      -9.954  14.502  65.702  1.00  0.00    -0.346 NA 
ENDBRANCH   2   3
BRANCH   2   9
HETATM    9  C   UNL     1     -11.376  13.216  63.582  1.00  0.00    -0.257 C  
BRANCH   9  10
HETATM   10  C   UNL     1     -11.630  11.829  64.190  1.00  0.00    -0.307 C  
BRANCH  10  11
HETATM   11  O   UNL     1     -10.434  11.253  64.736  1.00  0.00    -0.292 OA 
BRANCH  11  12
HETATM   12  C   UNL     1     -10.529  10.854  66.048  1.00  0.00    -0.225 A  
HETATM   13  C   UNL     1     -11.169  11.105  68.374  1.00  0.00    -0.325 A  
HETATM   14  C   UNL     1     -11.193  11.556  67.054  1.00  0.00    -0.365 A  
HETATM   15  C   UNL     1     -10.492   9.929  68.715  1.00  0.00    -0.234 A  
HETATM   16  C   UNL     1      -9.872   9.192  67.696  1.00  0.00    -0.217 A  
HETATM   17  C   UNL     1      -9.889   9.651  66.372  1.00  0.00    -0.309 A  
BRANCH  15  18
HETATM   18  C   UNL     1     -10.369   9.526  70.162  1.00  0.00    -0.300 C  
BRANCH  18  19
HETATM   19  C   UNL     1     -11.249   8.387  70.668  1.00  0.00    -0.255 C  
HETATM   20  S   UNL     1     -10.429   6.825  71.125  1.00  0.00    -0.216 SA 
HETATM   21  C   UNL     1     -11.596   6.516  72.389  1.00  0.00    -0.255 C  
HETATM   22  N   UNL     1     -12.293   7.644  72.665  1.00  0.00    -0.555 N  
HETATM   23  O   UNL     1     -11.757   5.430  72.919  1.00  0.00    -0.297 OA 
HETATM   24  C   UNL     1     -12.120   8.731  71.857  1.00  0.00    -0.363 C  
HETATM   25  H   UNL     1     -12.933   7.681  73.458  1.00  0.00     0.000 HD 
HETATM   26  O   UNL     1     -12.688   9.801  72.035  1.00  0.00    -0.388 OA 
ENDBRANCH  18  19
ENDBRANCH  15  18
ENDBRANCH  11  12
ENDBRANCH  10  11
ENDBRANCH   9  10
ENDBRANCH   2   9
TORSDOF 7
ENDMDL
MODEL       85
REMARK 921   NORMALIZED FREE ENERGY PREDICTED BY IDOCK:   -5.36 KCAL/MOL
REMARK 922        TOTAL FREE ENERGY PREDICTED BY IDOCK:   -8.42 KCAL/MOL
REMARK 923 INTER-LIGAND FREE ENERGY PREDICTED BY IDOCK:   -8.00 KCAL/MOL
REMARK 924 INTRA-LIGAND FREE ENERGY PREDICTED BY IDOCK:   -0.42 KCAL/MOL
REMARK 927      BINDING AFFINITY PREDICTED BY RF-SCORE:    0.00 PKD
ROOT
HETATM    1  C   UNL     1     -10.835  16.120  69.157  1.00  0.00    -0.298 C  
HETATM    2  N   UNL     1     -10.967  16.559  67.768  1.00  0.00    -0.298 NA 
ENDROOT
BRANCH   2   3
HETATM    3  C   UNL     1     -10.551  17.894  67.583  1.00  0.00    -0.387 A  
HETATM    4  C   UNL     1     -10.195  19.743  66.222  1.00  0.00    -0.509 A  
HETATM    5  C   UNL     1      -9.665  20.499  67.251  1.00  0.00    -0.600 A  
HETATM    6  C   UNL     1     -10.029  18.602  68.667  1.00  0.00    -0.431 A  
HETATM    7  C   UNL     1      -9.580  19.911  68.501  1.00  0.00    -0.377 A  
HETATM    8  N   UNL     1     -10.631  18.470  66.362  1.00  0.00    -0.376 NA 
ENDBRANCH   2   3
BRANCH   2   9
HETATM    9  C   UNL     1     -10.400  15.622  66.776  1.00  0.00    -0.287 C  
BRANCH   9  10
HETATM   10  C   UNL     1     -10.827  14.171  67.044  1.00  0.00    -0.295 C  
BRANCH  10  11
HETATM   11  O   UNL     1      -9.930  13.226  66.444  1.00  0.00    -0.274 OA 
BRANCH  11  12
HETATM   12  C   UNL     1      -9.906  11.988  67.043  1.00  0.00    -0.194 A  
HETATM   13  C   UNL     1     -10.688   9.726  67.429  1.00  0.00    -0.314 A  
HETATM   14  C   UNL     1     -10.739  10.921  66.710  1.00  0.00    -0.309 A  
HETATM   15  C   UNL     1      -9.790   9.567  68.490  1.00  0.00    -0.172 A  
HETATM   16  C   UNL     1      -8.913  10.619  68.789  1.00  0.00    -0.172 A  
HETATM   17  C   UNL     1      -8.972  11.822  68.073  1.00  0.00    -0.176 A  
BRANCH  15  18
HETATM   18  C   UNL     1      -9.838   8.320  69.335  1.00  0.00    -0.185 C  
BRANCH  18  19
HETATM   19  C   UNL     1     -10.752   8.314  70.556  1.00  0.00    -0.225 C  
HETATM   20  S   UNL     1     -11.927   9.695  70.737  1.00  0.00    -0.254 SA 
HETATM   21  C   UNL     1     -13.114   8.660  71.497  1.00  0.00    -0.305 C  
HETATM   22  N   UNL     1     -12.794   7.359  71.294  1.00  0.00    -0.489 N  
HETATM   23  O   UNL     1     -14.072   9.069  72.130  1.00  0.00    -0.425 OA 
HETATM   24  C   UNL     1     -11.591   7.065  70.721  1.00  0.00    -0.338 C  
HETATM   25  H   UNL     1     -13.439   6.616  71.563  1.00  0.00     0.000 HD 
HETATM   26  O   UNL     1     -11.220   5.924  70.478  1.00  0.00    -0.305 OA 
ENDBRANCH  18  19
ENDBRANCH  15  18
ENDBRANCH  11  12
ENDBRANCH  10  11
ENDBRANCH   9  10
ENDBRANCH   2   9
TORSDOF 7
ENDMDL
MODEL       86
REMARK 921   NORMALIZED FREE ENERGY PREDICTED BY IDOCK:   -5.36 KCAL/MOL
REMARK 922        TOTAL FREE ENERGY PREDICTED BY IDOCK:   -8.40 KCAL/MOL
REMARK 923 INTER-LIGAND FREE ENERGY PREDICTED BY IDOCK:   -7.74 KCAL/MOL
REMARK 924 INTRA-LIGAND FREE ENERGY PREDICTED BY IDOCK:   -0.66 KCAL/MOL
REMARK 927      BINDING AFFINITY PREDICTED BY RF-SCORE:    0.00 PKD
ROOT
HETATM    1  C   UNL     1     -10.243   7.312  73.690  1.00  0.00    -0.346 C  
HETATM    2  N   UNL     1     -10.446   7.871  72.353  1.00  0.00    -0.252 NA 
ENDROOT
BRANCH   2   3
HETATM    3  C   UNL     1      -9.977   7.015  71.334  1.00  0.00    -0.184 A  
HETATM    4  C   UNL     1      -8.352   6.375  69.804  1.00  0.00    -0.127 A  
HETATM    5  C   UNL     1      -9.123   5.348  69.291  1.00  0.00    -0.133 A  
HETATM    6  C   UNL     1     -10.808   5.996  70.866  1.00  0.00    -0.349 A  
HETATM    7  C   UNL     1     -10.381   5.158  69.836  1.00  0.00    -0.347 A  
HETATM    8  N   UNL     1      -8.751   7.201  70.798  1.00  0.00    -0.146 NA 
ENDBRANCH   2   3
BRANCH   2   9
HETATM    9  C   UNL     1     -11.807   8.390  72.109  1.00  0.00    -0.375 C  
BRANCH   9  10
HETATM   10  C   UNL     1     -11.787   9.791  71.481  1.00  0.00    -0.399 C  
BRANCH  10  11
HETATM   11  O   UNL     1     -11.640   9.741  70.055  1.00  0.00    -0.218 OA 
BRANCH  11  12
HETATM   12  C   UNL     1     -11.709  10.959  69.421  1.00  0.00    -0.325 A  
HETATM   13  C   UNL     1     -11.587  12.443  67.507  1.00  0.00    -0.431 A  
HETATM   14  C   UNL     1     -11.577  11.156  68.047  1.00  0.00    -0.337 A  
HETATM   15  C   UNL     1     -11.745  13.562  68.330  1.00  0.00    -0.393 A  
HETATM   16  C   UNL     1     -11.934  13.362  69.705  1.00  0.00    -0.396 A  
HETATM   17  C   UNL     1     -11.914  12.070  70.248  1.00  0.00    -0.398 A  
BRANCH  15  18
HETATM   18  C   UNL     1     -11.626  14.947  67.747  1.00  0.00    -0.358 C  
BRANCH  18  19
HETATM   19  C   UNL     1     -10.232  15.555  67.621  1.00  0.00    -0.255 C  
HETATM   20  S   UNL     1      -9.555  15.773  65.943  1.00  0.00    -0.332 SA 
HETATM   21  C   UNL     1      -8.695  17.219  66.416  1.00  0.00    -0.250 C  
HETATM   22  N   UNL     1      -9.169  17.676  67.600  1.00  0.00    -0.243 N  
HETATM   23  O   UNL     1      -7.790  17.718  65.770  1.00  0.00    -0.541 OA 
HETATM   24  C   UNL     1     -10.060  16.903  68.287  1.00  0.00    -0.302 C  
HETATM   25  H   UNL     1      -8.867  18.577  67.969  1.00  0.00     0.000 HD 
HETATM   26  O   UNL     1     -10.561  17.237  69.354  1.00  0.00    -0.300 OA 
ENDBRANCH  18  19
ENDBRANCH  15  18
ENDBRANCH  11  12
ENDBRANCH  10  11
ENDBRANCH   9  10
ENDBRANCH   2   9
TORSDOF 7
ENDMDL
MODEL       87
REMARK 921   NORMALIZED FREE ENERGY PREDICTED BY IDOCK:   -5.35 KCAL/MOL
REMARK 922        TOTAL FREE ENERGY PREDICTED BY IDOCK:   -8.40 KCAL/MOL
REMARK 923 INTER-LIGAND FREE ENERGY PREDICTED BY IDOCK:   -7.85 KCAL/MOL
REMARK 924 INTRA-LIGAND FREE ENERGY PREDICTED BY IDOCK:   -0.55 KCAL/MOL
REMARK 927      BINDING AFFINITY PREDICTED BY RF-SCORE:    0.00 PKD
ROOT
HETATM    1  C   UNL     1     -13.035   7.629  71.559  1.00  0.00    -0.341 C  
HETATM    2  N   UNL     1     -11.860   7.992  72.353  1.00  0.00    -0.366 NA 
ENDROOT
BRANCH   2   3
HETATM    3  C   UNL     1     -11.048   6.879  72.653  1.00  0.00    -0.270 A  
HETATM    4  C   UNL     1     -10.155   4.806  72.104  1.00  0.00    -0.191 A  
HETATM    5  C   UNL     1      -9.493   4.681  73.311  1.00  0.00    -0.136 A  
HETATM    6  C   UNL     1     -10.405   6.819  73.891  1.00  0.00    -0.397 A  
HETATM    7  C   UNL     1      -9.624   5.712  74.225  1.00  0.00    -0.162 A  
HETATM    8  N   UNL     1     -10.921   5.868  71.764  1.00  0.00    -0.263 NA 
ENDBRANCH   2   3
BRANCH   2   9
HETATM    9  C   UNL     1     -11.105   9.149  71.829  1.00  0.00    -0.367 C  
BRANCH   9  10
HETATM   10  C   UNL     1     -11.877   9.892  70.729  1.00  0.00    -0.330 C  
BRANCH  10  11
HETATM   11  O   UNL     1     -12.397  11.147  71.190  1.00  0.00    -0.365 OA 
BRANCH  11  12
HETATM   12  C   UNL     1     -12.161  12.215  70.356  1.00  0.00    -0.309 A  
HETATM   13  C   UNL     1     -11.369  13.273  68.323  1.00  0.00    -0.335 A  
HETATM   14  C   UNL     1     -11.644  12.123  69.064  1.00  0.00    -0.374 A  
HETATM   15  C   UNL     1     -11.620  14.542  68.854  1.00  0.00    -0.341 A  
HETATM   16  C   UNL     1     -12.191  14.634  70.131  1.00  0.00    -0.391 A  
HETATM   17  C   UNL     1     -12.458  13.479  70.878  1.00  0.00    -0.448 A  
BRANCH  15  18
HETATM   18  C   UNL     1     -11.198  15.772  68.091  1.00  0.00    -0.344 C  
BRANCH  18  19
HETATM   19  C   UNL     1     -10.168  16.697  68.733  1.00  0.00    -0.288 C  
HETATM   20  S   UNL     1      -8.476  16.057  68.946  1.00  0.00    -0.244 SA 
HETATM   21  C   UNL     1      -7.783  17.642  68.695  1.00  0.00    -0.281 C  
HETATM   22  N   UNL     1      -8.705  18.471  68.150  1.00  0.00    -0.301 N  
HETATM   23  O   UNL     1      -6.640  17.943  68.993  1.00  0.00    -0.230 OA 
HETATM   24  C   UNL     1      -9.994  18.034  68.046  1.00  0.00    -0.343 C  
HETATM   25  H   UNL     1      -8.442  19.401  67.824  1.00  0.00     0.000 HD 
HETATM   26  O   UNL     1     -10.894  18.700  67.550  1.00  0.00    -0.435 OA 
ENDBRANCH  18  19
ENDBRANCH  15  18
ENDBRANCH  11  12
ENDBRANCH  10  11
ENDBRANCH   9  10
ENDBRANCH   2   9
TORSDOF 7
ENDMDL
MODEL       88
REMARK 921   NORMALIZED FREE ENERGY PREDICTED BY IDOCK:   -5.33 KCAL/MOL
REMARK 922        TOTAL FREE ENERGY PREDICTED BY IDOCK:   -8.37 KCAL/MOL
REMARK 923 INTER-LIGAND FREE ENERGY PREDICTED BY IDOCK:   -7.85 KCAL/MOL
REMARK 924 INTRA-LIGAND FREE ENERGY PREDICTED BY IDOCK:   -0.52 KCAL/MOL
REMARK 927      BINDING AFFINITY PREDICTED BY RF-SCORE:    0.00 PKD
ROOT
HETATM    1  C   UNL     1     -10.396  15.976  65.746  1.00  0.00    -0.378 C  
HETATM    2  N   UNL     1     -11.167  14.824  66.214  1.00  0.00    -0.342 NA 
ENDROOT
BRANCH   2   3
HETATM    3  C   UNL     1     -11.163  13.761  65.286  1.00  0.00    -0.307 A  
HETATM    4  C   UNL     1     -10.125  11.941  64.283  1.00  0.00    -0.295 A  
HETATM    5  C   UNL     1     -11.172  11.724  63.406  1.00  0.00    -0.440 A  
HETATM    6  C   UNL     1     -12.256  13.598  64.432  1.00  0.00    -0.436 A  
HETATM    7  C   UNL     1     -12.260  12.576  63.484  1.00  0.00    -0.652 A  
HETATM    8  N   UNL     1     -10.100  12.930  65.206  1.00  0.00    -0.269 NA 
ENDBRANCH   2   3
BRANCH   2   9
HETATM    9  C   UNL     1     -10.857  14.402  67.596  1.00  0.00    -0.273 C  
BRANCH   9  10
HETATM   10  C   UNL     1     -12.049  13.705  68.267  1.00  0.00    -0.271 C  
BRANCH  10  11
HETATM   11  O   UNL     1     -12.150  12.325  67.887  1.00  0.00    -0.466 OA 
BRANCH  11  12
HETATM   12  C   UNL     1     -11.491  11.446  68.713  1.00  0.00    -0.290 A  
HETATM   13  C   UNL     1     -11.182  10.163  70.748  1.00  0.00    -0.414 A  
HETATM   14  C   UNL     1     -11.962  10.999  69.947  1.00  0.00    -0.427 A  
HETATM   15  C   UNL     1      -9.917   9.743  70.324  1.00  0.00    -0.309 A  
HETATM   16  C   UNL     1      -9.466  10.146  69.059  1.00  0.00    -0.195 A  
HETATM   17  C   UNL     1     -10.246  10.993  68.260  1.00  0.00    -0.192 A  
BRANCH  15  18
HETATM   18  C   UNL     1      -9.039   8.947  71.254  1.00  0.00    -0.323 C  
BRANCH  18  19
HETATM   19  C   UNL     1      -9.505   7.553  71.665  1.00  0.00    -0.149 C  
HETATM   20  S   UNL     1     -10.755   7.436  72.985  1.00  0.00    -0.388 SA 
HETATM   21  C   UNL     1     -11.468   6.013  72.262  1.00  0.00    -0.312 C  
HETATM   22  N   UNL     1     -11.038   5.875  70.985  1.00  0.00    -0.273 N  
HETATM   23  O   UNL     1     -12.224   5.256  72.846  1.00  0.00    -0.118 OA 
HETATM   24  C   UNL     1     -10.050   6.703  70.537  1.00  0.00    -0.187 C  
HETATM   25  H   UNL     1     -11.444   5.168  70.372  1.00  0.00     0.000 HD 
HETATM   26  O   UNL     1      -9.609   6.671  69.395  1.00  0.00    -0.146 OA 
ENDBRANCH  18  19
ENDBRANCH  15  18
ENDBRANCH  11  12
ENDBRANCH  10  11
ENDBRANCH   9  10
ENDBRANCH   2   9
TORSDOF 7
ENDMDL
MODEL       89
REMARK 921   NORMALIZED FREE ENERGY PREDICTED BY IDOCK:   -5.33 KCAL/MOL
REMARK 922        TOTAL FREE ENERGY PREDICTED BY IDOCK:   -8.36 KCAL/MOL
REMARK 923 INTER-LIGAND FREE ENERGY PREDICTED BY IDOCK:   -7.48 KCAL/MOL
REMARK 924 INTRA-LIGAND FREE ENERGY PREDICTED BY IDOCK:   -0.89 KCAL/MOL
REMARK 927      BINDING AFFINITY PREDICTED BY RF-SCORE:    0.00 PKD
ROOT
HETATM    1  C   UNL     1      -9.791   4.203  72.162  1.00  0.00    -0.169 C  
HETATM    2  N   UNL     1     -10.152   5.486  71.557  1.00  0.00    -0.198 NA 
ENDROOT
BRANCH   2   3
HETATM    3  C   UNL     1     -10.167   5.432  70.148  1.00  0.00    -0.272 A  
HETATM    4  C   UNL     1      -9.379   4.577  68.137  1.00  0.00    -0.140 A  
HETATM    5  C   UNL     1     -10.185   5.403  67.376  1.00  0.00    -0.247 A  
HETATM    6  C   UNL     1     -11.009   6.293  69.441  1.00  0.00    -0.440 A  
HETATM    7  C   UNL     1     -11.017   6.282  68.047  1.00  0.00    -0.418 A  
HETATM    8  N   UNL     1      -9.353   4.577  69.489  1.00  0.00    -0.136 NA 
ENDBRANCH   2   3
BRANCH   2   9
HETATM    9  C   UNL     1     -11.356   6.117  72.136  1.00  0.00    -0.299 C  
BRANCH   9  10
HETATM   10  C   UNL     1     -11.033   7.450  72.827  1.00  0.00    -0.339 C  
BRANCH  10  11
HETATM   11  O   UNL     1     -11.965   8.480  72.472  1.00  0.00    -0.389 OA 
BRANCH  11  12
HETATM   12  C   UNL     1     -11.579   9.275  71.418  1.00  0.00    -0.367 A  
HETATM   13  C   UNL     1      -9.982  10.215  69.854  1.00  0.00    -0.250 A  
HETATM   14  C   UNL     1     -10.294   9.318  70.877  1.00  0.00    -0.367 A  
HETATM   15  C   UNL     1     -10.954  11.079  69.340  1.00  0.00    -0.301 A  
HETATM   16  C   UNL     1     -12.259  10.997  69.845  1.00  0.00    -0.408 A  
HETATM   17  C   UNL     1     -12.570  10.103  70.878  1.00  0.00    -0.454 A  
BRANCH  15  18
HETATM   18  C   UNL     1     -10.568  12.127  68.327  1.00  0.00    -0.236 C  
BRANCH  18  19
HETATM   19  C   UNL     1     -11.121  13.537  68.507  1.00  0.00    -0.272 C  
HETATM   20  S   UNL     1      -9.991  14.811  69.154  1.00  0.00    -0.136 SA 
HETATM   21  C   UNL     1     -10.763  16.060  68.206  1.00  0.00    -0.298 C  
HETATM   22  N   UNL     1     -11.535  15.502  67.243  1.00  0.00    -0.182 N  
HETATM   23  O   UNL     1     -10.629  17.254  68.410  1.00  0.00    -0.360 OA 
HETATM   24  C   UNL     1     -11.725  14.150  67.261  1.00  0.00    -0.392 C  
HETATM   25  H   UNL     1     -11.965  16.079  66.521  1.00  0.00     0.000 HD 
HETATM   26  O   UNL     1     -12.388  13.550  66.425  1.00  0.00    -0.407 OA 
ENDBRANCH  18  19
ENDBRANCH  15  18
ENDBRANCH  11  12
ENDBRANCH  10  11
ENDBRANCH   9  10
ENDBRANCH   2   9
TORSDOF 7
ENDMDL
MODEL       90
REMARK 921   NORMALIZED FREE ENERGY PREDICTED BY IDOCK:   -5.29 KCAL/MOL
REMARK 922        TOTAL FREE ENERGY PREDICTED BY IDOCK:   -8.31 KCAL/MOL
REMARK 923 INTER-LIGAND FREE ENERGY PREDICTED BY IDOCK:   -6.98 KCAL/MOL
REMARK 924 INTRA-LIGAND FREE ENERGY PREDICTED BY IDOCK:   -1.33 KCAL/MOL
REMARK 927      BINDING AFFINITY PREDICTED BY RF-SCORE:    0.00 PKD
ROOT
HETATM    1  C   UNL     1      -8.117   7.909  65.350  1.00  0.00    -0.130 C  
HETATM    2  N   UNL     1      -8.738   9.098  65.935  1.00  0.00    -0.149 NA 
ENDROOT
BRANCH   2   3
HETATM    3  C   UNL     1      -9.255   9.972  64.956  1.00  0.00    -0.225 A  
HETATM    4  C   UNL     1      -9.187  10.921  62.837  1.00  0.00    -0.332 A  
HETATM    5  C   UNL     1     -10.264  11.750  63.085  1.00  0.00    -0.376 A  
HETATM    6  C   UNL     1     -10.349  10.780  65.274  1.00  0.00    -0.327 A  
HETATM    7  C   UNL     1     -10.856  11.677  64.335  1.00  0.00    -0.399 A  
HETATM    8  N   UNL     1      -8.677  10.048  63.737  1.00  0.00    -0.197 NA 
ENDBRANCH   2   3
BRANCH   2   9
HETATM    9  C   UNL     1      -9.687   8.812  67.031  1.00  0.00    -0.198 C  
BRANCH   9  10
HETATM   10  C   UNL     1      -9.093   9.145  68.408  1.00  0.00    -0.132 C  
BRANCH  10  11
HETATM   11  O   UNL     1     -10.033   9.830  69.249  1.00  0.00    -0.172 OA 
BRANCH  11  12
HETATM   12  C   UNL     1     -10.369  11.096  68.832  1.00  0.00    -0.201 A  
HETATM   13  C   UNL     1     -11.910  12.857  68.196  1.00  0.00    -0.380 A  
HETATM   14  C   UNL     1     -11.671  11.577  68.699  1.00  0.00    -0.389 A  
HETATM   15  C   UNL     1     -10.849  13.691  67.828  1.00  0.00    -0.266 A  
HETATM   16  C   UNL     1      -9.538  13.229  68.014  1.00  0.00    -0.220 A  
HETATM   17  C   UNL     1      -9.299  11.940  68.511  1.00  0.00    -0.142 A  
BRANCH  15  18
HETATM   18  C   UNL     1     -11.129  15.016  67.169  1.00  0.00    -0.332 C  
BRANCH  18  19
HETATM   19  C   UNL     1     -10.308  16.225  67.609  1.00  0.00    -0.284 C  
HETATM   20  S   UNL     1     -10.227  17.649  66.476  1.00  0.00    -0.345 SA 
HETATM   21  C   UNL     1     -10.144  18.778  67.808  1.00  0.00    -0.368 C  
HETATM   22  N   UNL     1     -10.510  18.165  68.959  1.00  0.00    -0.410 N  
HETATM   23  O   UNL     1      -9.788  19.938  67.698  1.00  0.00    -0.349 OA 
HETATM   24  C   UNL     1     -10.705  16.814  68.946  1.00  0.00    -0.333 C  
HETATM   25  H   UNL     1     -10.636  18.702  69.817  1.00  0.00     0.000 HD 
HETATM   26  O   UNL     1     -11.055  16.173  69.928  1.00  0.00    -0.318 OA 
ENDBRANCH  18  19
ENDBRANCH  15  18
ENDBRANCH  11  12
ENDBRANCH  10  11
ENDBRANCH   9  10
ENDBRANCH   2   9
TORSDOF 7
ENDMDL
MODEL       91
REMARK 921   NORMALIZED FREE ENERGY PREDICTED BY IDOCK:   -5.28 KCAL/MOL
REMARK 922        TOTAL FREE ENERGY PREDICTED BY IDOCK:   -8.30 KCAL/MOL
REMARK 923 INTER-LIGAND FREE ENERGY PREDICTED BY IDOCK:   -7.53 KCAL/MOL
REMARK 924 INTRA-LIGAND FREE ENERGY PREDICTED BY IDOCK:   -0.77 KCAL/MOL
REMARK 927      BINDING AFFINITY PREDICTED BY RF-SCORE:    0.00 PKD
ROOT
HETATM    1  C   UNL     1      -8.455   8.058  68.893  1.00  0.00    -0.131 C  
HETATM    2  N   UNL     1      -9.731   7.348  68.807  1.00  0.00    -0.148 NA 
ENDROOT
BRANCH   2   3
HETATM    3  C   UNL     1     -10.619   7.709  69.842  1.00  0.00    -0.235 A  
HETATM    4  C   UNL     1     -11.317   9.175  71.503  1.00  0.00    -0.368 A  
HETATM    5  C   UNL     1     -12.349   8.350  71.910  1.00  0.00    -0.395 A  
HETATM    6  C   UNL     1     -11.643   6.829  70.200  1.00  0.00    -0.397 A  
HETATM    7  C   UNL     1     -12.512   7.148  71.242  1.00  0.00    -0.425 A  
HETATM    8  N   UNL     1     -10.461   8.880  70.499  1.00  0.00    -0.203 NA 
ENDBRANCH   2   3
BRANCH   2   9
HETATM    9  C   UNL     1     -10.350   7.366  67.466  1.00  0.00    -0.251 C  
BRANCH   9  10
HETATM   10  C   UNL     1     -10.211   8.735  66.785  1.00  0.00    -0.284 C  
BRANCH  10  11
HETATM   11  O   UNL     1     -11.139   9.694  67.311  1.00  0.00    -0.151 OA 
BRANCH  11  12
HETATM   12  C   UNL     1     -10.759  11.008  67.168  1.00  0.00    -0.265 A  
HETATM   13  C   UNL     1     -10.008  12.948  65.922  1.00  0.00    -0.273 A  
HETATM   14  C   UNL     1     -10.458  11.627  65.955  1.00  0.00    -0.294 A  
HETATM   15  C   UNL     1      -9.864  13.685  67.102  1.00  0.00    -0.242 A  
HETATM   16  C   UNL     1     -10.221  13.081  68.317  1.00  0.00    -0.246 A  
HETATM   17  C   UNL     1     -10.663  11.752  68.350  1.00  0.00    -0.249 A  
BRANCH  15  18
HETATM   18  C   UNL     1      -9.257  15.063  67.059  1.00  0.00    -0.246 C  
BRANCH  18  19
HETATM   19  C   UNL     1     -10.197  16.264  67.114  1.00  0.00    -0.276 C  
HETATM   20  S   UNL     1      -9.760  17.627  68.242  1.00  0.00    -0.332 SA 
HETATM   21  C   UNL     1     -10.452  18.817  67.164  1.00  0.00    -0.427 C  
HETATM   22  N   UNL     1     -10.650  18.274  65.938  1.00  0.00    -0.364 N  
HETATM   23  O   UNL     1     -10.727  19.958  67.492  1.00  0.00    -0.388 OA 
HETATM   24  C   UNL     1     -10.461  16.931  65.781  1.00  0.00    -0.268 C  
HETATM   25  H   UNL     1     -10.934  18.856  65.150  1.00  0.00     0.000 HD 
HETATM   26  O   UNL     1     -10.594  16.352  64.711  1.00  0.00    -0.676 OA 
ENDBRANCH  18  19
ENDBRANCH  15  18
ENDBRANCH  11  12
ENDBRANCH  10  11
ENDBRANCH   9  10
ENDBRANCH   2   9
TORSDOF 7
ENDMDL
MODEL       92
REMARK 921   NORMALIZED FREE ENERGY PREDICTED BY IDOCK:   -5.27 KCAL/MOL
REMARK 922        TOTAL FREE ENERGY PREDICTED BY IDOCK:   -8.28 KCAL/MOL
REMARK 923 INTER-LIGAND FREE ENERGY PREDICTED BY IDOCK:   -6.70 KCAL/MOL
REMARK 924 INTRA-LIGAND FREE ENERGY PREDICTED BY IDOCK:   -1.58 KCAL/MOL
REMARK 927      BINDING AFFINITY PREDICTED BY RF-SCORE:    0.00 PKD
ROOT
HETATM    1  C   UNL     1     -12.175  12.568  65.534  1.00  0.00    -0.377 C  
HETATM    2  N   UNL     1     -11.959  13.421  66.703  1.00  0.00    -0.397 NA 
ENDROOT
BRANCH   2   3
HETATM    3  C   UNL     1     -11.949  12.690  67.910  1.00  0.00    -0.249 A  
HETATM    4  C   UNL     1     -11.955  10.676  69.066  1.00  0.00    -0.114 A  
HETATM    5  C   UNL     1     -11.995  11.293  70.303  1.00  0.00    -0.466 A  
HETATM    6  C   UNL     1     -11.988  13.378  69.124  1.00  0.00    -0.363 A  
HETATM    7  C   UNL     1     -12.014  12.677  70.329  1.00  0.00    -0.363 A  
HETATM    8  N   UNL     1     -11.934  11.338  67.887  1.00  0.00    -0.640 NA 
ENDBRANCH   2   3
BRANCH   2   9
HETATM    9  C   UNL     1     -10.824  14.359  66.573  1.00  0.00    -0.310 C  
BRANCH   9  10
HETATM   10  C   UNL     1      -9.571  13.672  66.009  1.00  0.00    -0.166 C  
BRANCH  10  11
HETATM   11  O   UNL     1      -8.648  13.302  67.043  1.00  0.00    -0.208 OA 
BRANCH  11  12
HETATM   12  C   UNL     1      -8.587  11.955  67.312  1.00  0.00    -0.170 A  
HETATM   13  C   UNL     1      -8.203  10.017  68.718  1.00  0.00    -0.115 A  
HETATM   14  C   UNL     1      -8.318  11.399  68.562  1.00  0.00    -0.153 A  
HETATM   15  C   UNL     1      -8.371   9.158  67.626  1.00  0.00    -0.116 A  
HETATM   16  C   UNL     1      -8.697   9.713  66.381  1.00  0.00    -0.148 A  
HETATM   17  C   UNL     1      -8.803  11.102  66.223  1.00  0.00    -0.190 A  
BRANCH  15  18
HETATM   18  C   UNL     1      -8.118   7.682  67.786  1.00  0.00    -0.118 C  
BRANCH  18  19
HETATM   19  C   UNL     1      -9.175   6.845  68.501  1.00  0.00    -0.129 C  
HETATM   20  S   UNL     1      -9.370   7.087  70.296  1.00  0.00    -0.158 SA 
HETATM   21  C   UNL     1     -11.087   6.769  70.210  1.00  0.00    -0.310 C  
HETATM   22  N   UNL     1     -11.509   6.840  68.925  1.00  0.00    -0.578 N  
HETATM   23  O   UNL     1     -11.782   6.503  71.176  1.00  0.00    -0.318 OA 
HETATM   24  C   UNL     1     -10.575   6.966  67.938  1.00  0.00    -0.231 C  
HETATM   25  H   UNL     1     -12.503   6.801  68.700  1.00  0.00     0.000 HD 
HETATM   26  O   UNL     1     -10.856   7.059  66.750  1.00  0.00    -0.318 OA 
ENDBRANCH  18  19
ENDBRANCH  15  18
ENDBRANCH  11  12
ENDBRANCH  10  11
ENDBRANCH   9  10
ENDBRANCH   2   9
TORSDOF 7
ENDMDL
MODEL       93
REMARK 921   NORMALIZED FREE ENERGY PREDICTED BY IDOCK:   -5.27 KCAL/MOL
REMARK 922        TOTAL FREE ENERGY PREDICTED BY IDOCK:   -8.28 KCAL/MOL
REMARK 923 INTER-LIGAND FREE ENERGY PREDICTED BY IDOCK:   -7.71 KCAL/MOL
REMARK 924 INTRA-LIGAND FREE ENERGY PREDICTED BY IDOCK:   -0.58 KCAL/MOL
REMARK 927      BINDING AFFINITY PREDICTED BY RF-SCORE:    0.00 PKD
ROOT
HETATM    1  C   UNL     1     -11.197  16.030  64.698  1.00  0.00    -0.330 C  
HETATM    2  N   UNL     1     -10.348  16.166  65.882  1.00  0.00    -0.350 NA 
ENDROOT
BRANCH   2   3
HETATM    3  C   UNL     1     -10.263  17.500  66.333  1.00  0.00    -0.354 A  
HETATM    4  C   UNL     1     -10.358  19.788  65.945  1.00  0.00    -0.483 A  
HETATM    5  C   UNL     1     -10.024  20.105  67.248  1.00  0.00    -0.583 A  
HETATM    6  C   UNL     1      -9.924  17.748  67.664  1.00  0.00    -0.322 A  
HETATM    7  C   UNL     1      -9.800  19.058  68.126  1.00  0.00    -0.430 A  
HETATM    8  N   UNL     1     -10.478  18.524  65.477  1.00  0.00    -0.554 NA 
ENDBRANCH   2   3
BRANCH   2   9
HETATM    9  C   UNL     1     -10.642  15.197  66.957  1.00  0.00    -0.300 C  
BRANCH   9  10
HETATM   10  C   UNL     1     -11.731  14.194  66.548  1.00  0.00    -0.397 C  
BRANCH  10  11
HETATM   11  O   UNL     1     -12.149  13.373  67.648  1.00  0.00    -0.342 OA 
BRANCH  11  12
HETATM   12  C   UNL     1     -11.590  12.117  67.679  1.00  0.00    -0.343 A  
HETATM   13  C   UNL     1     -10.495  10.182  66.712  1.00  0.00    -0.270 A  
HETATM   14  C   UNL     1     -10.966  11.491  66.601  1.00  0.00    -0.349 A  
HETATM   15  C   UNL     1     -10.625   9.475  67.912  1.00  0.00    -0.299 A  
HETATM   16  C   UNL     1     -11.202  10.123  69.013  1.00  0.00    -0.223 A  
HETATM   17  C   UNL     1     -11.683  11.434  68.898  1.00  0.00    -0.409 A  
BRANCH  15  18
HETATM   18  C   UNL     1     -10.228   8.022  67.975  1.00  0.00    -0.260 C  
BRANCH  18  19
HETATM   19  C   UNL     1      -9.764   7.462  69.316  1.00  0.00    -0.165 C  
HETATM   20  S   UNL     1     -10.670   6.034  69.994  1.00  0.00    -0.341 SA 
HETATM   21  C   UNL     1      -9.221   5.390  70.729  1.00  0.00    -0.149 C  
HETATM   22  N   UNL     1      -8.127   5.993  70.205  1.00  0.00    -0.109 N  
HETATM   23  O   UNL     1      -9.218   4.537  71.599  1.00  0.00    -0.127 OA 
HETATM   24  C   UNL     1      -8.306   7.059  69.371  1.00  0.00    -0.133 C  
HETATM   25  H   UNL     1      -7.190   5.658  70.429  1.00  0.00     0.000 HD 
HETATM   26  O   UNL     1      -7.384   7.657  68.833  1.00  0.00    -0.086 OA 
ENDBRANCH  18  19
ENDBRANCH  15  18
ENDBRANCH  11  12
ENDBRANCH  10  11
ENDBRANCH   9  10
ENDBRANCH   2   9
TORSDOF 7
ENDMDL
MODEL       94
REMARK 921   NORMALIZED FREE ENERGY PREDICTED BY IDOCK:   -5.26 KCAL/MOL
REMARK 922        TOTAL FREE ENERGY PREDICTED BY IDOCK:   -8.27 KCAL/MOL
REMARK 923 INTER-LIGAND FREE ENERGY PREDICTED BY IDOCK:   -8.28 KCAL/MOL
REMARK 924 INTRA-LIGAND FREE ENERGY PREDICTED BY IDOCK:    0.01 KCAL/MOL
REMARK 927      BINDING AFFINITY PREDICTED BY RF-SCORE:    0.00 PKD
ROOT
HETATM    1  C   UNL     1     -11.916  15.389  64.165  1.00  0.00    -0.097 C  
HETATM    2  N   UNL     1     -10.645  15.420  64.889  1.00  0.00    -0.402 NA 
ENDROOT
BRANCH   2   3
HETATM    3  C   UNL     1     -10.503  16.580  65.678  1.00  0.00    -0.324 A  
HETATM    4  C   UNL     1     -10.701  18.875  65.974  1.00  0.00    -0.301 A  
HETATM    5  C   UNL     1     -10.147  18.842  67.240  1.00  0.00    -0.401 A  
HETATM    6  C   UNL     1      -9.937  16.473  66.951  1.00  0.00    -0.273 A  
HETATM    7  C   UNL     1      -9.754  17.611  67.736  1.00  0.00    -0.280 A  
HETATM    8  N   UNL     1     -10.882  17.784  65.195  1.00  0.00    -0.653 NA 
ENDBRANCH   2   3
BRANCH   2   9
HETATM    9  C   UNL     1     -10.325  14.171  65.612  1.00  0.00    -0.333 C  
BRANCH   9  10
HETATM   10  C   UNL     1     -11.582  13.491  66.172  1.00  0.00    -0.343 C  
BRANCH  10  11
HETATM   11  O   UNL     1     -11.557  12.069  65.980  1.00  0.00    -0.371 OA 
BRANCH  11  12
HETATM   12  C   UNL     1     -11.048  11.350  67.036  1.00  0.00    -0.303 A  
HETATM   13  C   UNL     1     -10.197   9.356  68.121  1.00  0.00    -0.239 A  
HETATM   14  C   UNL     1     -10.629  10.022  66.973  1.00  0.00    -0.279 A  
HETATM   15  C   UNL     1     -10.161  10.010  69.357  1.00  0.00    -0.239 A  
HETATM   16  C   UNL     1     -10.529  11.362  69.411  1.00  0.00    -0.040 A  
HETATM   17  C   UNL     1     -10.972  12.027  68.260  1.00  0.00    -0.275 A  
BRANCH  15  18
HETATM   18  C   UNL     1      -9.815   9.240  70.605  1.00  0.00    -0.332 C  
BRANCH  18  19
HETATM   19  C   UNL     1     -10.840   9.204  71.734  1.00  0.00    -0.345 C  
HETATM   20  S   UNL     1     -12.458   9.985  71.431  1.00  0.00    -0.444 SA 
HETATM   21  C   UNL     1     -13.276   8.813  72.438  1.00  0.00    -0.394 C  
HETATM   22  N   UNL     1     -12.468   7.751  72.667  1.00  0.00    -0.560 N  
HETATM   23  O   UNL     1     -14.404   8.959  72.877  1.00  0.00    -0.548 OA 
HETATM   24  C   UNL     1     -11.167   7.821  72.257  1.00  0.00    -0.312 C  
HETATM   25  H   UNL     1     -12.822   6.917  73.135  1.00  0.00     0.000 HD 
HETATM   26  O   UNL     1     -10.365   6.908  72.399  1.00  0.00    -0.196 OA 
ENDBRANCH  18  19
ENDBRANCH  15  18
ENDBRANCH  11  12
ENDBRANCH  10  11
ENDBRANCH   9  10
ENDBRANCH   2   9
TORSDOF 7
ENDMDL
MODEL       95
REMARK 921   NORMALIZED FREE ENERGY PREDICTED BY IDOCK:   -5.25 KCAL/MOL
REMARK 922        TOTAL FREE ENERGY PREDICTED BY IDOCK:   -8.26 KCAL/MOL
REMARK 923 INTER-LIGAND FREE ENERGY PREDICTED BY IDOCK:   -7.66 KCAL/MOL
REMARK 924 INTRA-LIGAND FREE ENERGY PREDICTED BY IDOCK:   -0.60 KCAL/MOL
REMARK 927      BINDING AFFINITY PREDICTED BY RF-SCORE:    0.00 PKD
ROOT
HETATM    1  C   UNL     1     -10.400   8.083  69.125  1.00  0.00    -0.220 C  
HETATM    2  N   UNL     1     -11.212   8.404  70.299  1.00  0.00    -0.218 NA 
ENDROOT
BRANCH   2   3
HETATM    3  C   UNL     1     -10.999   7.504  71.364  1.00  0.00    -0.231 A  
HETATM    4  C   UNL     1     -10.538   7.070  73.599  1.00  0.00    -0.345 A  
HETATM    5  C   UNL     1     -10.524   5.700  73.415  1.00  0.00    -0.267 A  
HETATM    6  C   UNL     1     -11.001   6.131  71.107  1.00  0.00    -0.343 A  
HETATM    7  C   UNL     1     -10.759   5.223  72.137  1.00  0.00    -0.271 A  
HETATM    8  N   UNL     1     -10.766   7.967  72.612  1.00  0.00    -0.334 NA 
ENDBRANCH   2   3
BRANCH   2   9
HETATM    9  C   UNL     1     -11.161   9.823  70.707  1.00  0.00    -0.345 C  
BRANCH   9  10
HETATM   10  C   UNL     1     -12.429  10.587  70.297  1.00  0.00    -0.271 C  
BRANCH  10  11
HETATM   11  O   UNL     1     -12.327  11.128  68.972  1.00  0.00    -0.479 OA 
BRANCH  11  12
HETATM   12  C   UNL     1     -11.952  12.450  68.913  1.00  0.00    -0.241 A  
HETATM   13  C   UNL     1     -11.726  14.704  69.779  1.00  0.00    -0.361 A  
HETATM   14  C   UNL     1     -12.065  13.362  69.962  1.00  0.00    -0.404 A  
HETATM   15  C   UNL     1     -11.252  15.160  68.545  1.00  0.00    -0.301 A  
HETATM   16  C   UNL     1     -11.085  14.232  67.507  1.00  0.00    -0.309 A  
HETATM   17  C   UNL     1     -11.434  12.887  67.688  1.00  0.00    -0.383 A  
BRANCH  15  18
HETATM   18  C   UNL     1     -11.013  16.632  68.329  1.00  0.00    -0.341 C  
BRANCH  18  19
HETATM   19  C   UNL     1      -9.985  17.046  67.280  1.00  0.00    -0.275 C  
HETATM   20  S   UNL     1     -10.189  18.679  66.497  1.00  0.00    -0.431 SA 
HETATM   21  C   UNL     1      -8.460  18.888  66.349  1.00  0.00    -0.293 C  
HETATM   22  N   UNL     1      -7.815  17.993  67.136  1.00  0.00    -0.213 N  
HETATM   23  O   UNL     1      -7.931  19.711  65.623  1.00  0.00    -0.405 OA 
HETATM   24  C   UNL     1      -8.546  17.017  67.748  1.00  0.00    -0.213 C  
HETATM   25  H   UNL     1      -6.805  18.049  67.268  1.00  0.00     0.000 HD 
HETATM   26  O   UNL     1      -8.059  16.176  68.493  1.00  0.00    -0.163 OA 
ENDBRANCH  18  19
ENDBRANCH  15  18
ENDBRANCH  11  12
ENDBRANCH  10  11
ENDBRANCH   9  10
ENDBRANCH   2   9
TORSDOF 7
ENDMDL
MODEL       96
REMARK 921   NORMALIZED FREE ENERGY PREDICTED BY IDOCK:   -5.25 KCAL/MOL
REMARK 922        TOTAL FREE ENERGY PREDICTED BY IDOCK:   -8.25 KCAL/MOL
REMARK 923 INTER-LIGAND FREE ENERGY PREDICTED BY IDOCK:   -8.04 KCAL/MOL
REMARK 924 INTRA-LIGAND FREE ENERGY PREDICTED BY IDOCK:   -0.21 KCAL/MOL
REMARK 927      BINDING AFFINITY PREDICTED BY RF-SCORE:    0.00 PKD
ROOT
HETATM    1  C   UNL     1     -13.477   8.869  72.375  1.00  0.00    -0.450 C  
HETATM    2  N   UNL     1     -12.034   8.966  72.150  1.00  0.00    -0.361 NA 
ENDROOT
BRANCH   2   3
HETATM    3  C   UNL     1     -11.398   7.708  72.181  1.00  0.00    -0.293 A  
HETATM    4  C   UNL     1     -10.895   5.659  71.209  1.00  0.00    -0.219 A  
HETATM    5  C   UNL     1     -10.184   5.220  72.310  1.00  0.00    -0.250 A  
HETATM    6  C   UNL     1     -10.693   7.329  73.325  1.00  0.00    -0.428 A  
HETATM    7  C   UNL     1     -10.084   6.076  73.393  1.00  0.00    -0.205 A  
HETATM    8  N   UNL     1     -11.497   6.868  71.126  1.00  0.00    -0.287 NA 
ENDBRANCH   2   3
BRANCH   2   9
HETATM    9  C   UNL     1     -11.654   9.791  70.984  1.00  0.00    -0.376 C  
BRANCH   9  10
HETATM   10  C   UNL     1     -12.748  10.803  70.612  1.00  0.00    -0.331 C  
BRANCH  10  11
HETATM   11  O   UNL     1     -12.383  12.145  70.965  1.00  0.00    -0.351 OA 
BRANCH  11  12
HETATM   12  C   UNL     1     -11.972  12.930  69.913  1.00  0.00    -0.307 A  
HETATM   13  C   UNL     1     -11.943  14.943  68.562  1.00  0.00    -0.275 A  
HETATM   14  C   UNL     1     -12.355  14.254  69.703  1.00  0.00    -0.312 A  
HETATM   15  C   UNL     1     -11.124  14.326  67.611  1.00  0.00    -0.305 A  
HETATM   16  C   UNL     1     -10.692  13.014  67.848  1.00  0.00    -0.249 A  
HETATM   17  C   UNL     1     -11.115  12.319  68.990  1.00  0.00    -0.289 A  
BRANCH  15  18
HETATM   18  C   UNL     1     -10.795  15.041  66.326  1.00  0.00    -0.333 C  
BRANCH  18  19
HETATM   19  C   UNL     1     -11.237  14.401  65.014  1.00  0.00    -0.375 C  
HETATM   20  S   UNL     1     -10.249  13.007  64.380  1.00  0.00    -0.228 SA 
HETATM   21  C   UNL     1     -11.662  12.244  63.690  1.00  0.00    -0.504 C  
HETATM   22  N   UNL     1     -12.787  12.797  64.205  1.00  0.00    -0.720 N  
HETATM   23  O   UNL     1     -11.621  11.358  62.854  1.00  0.00     0.135 OA 
HETATM   24  C   UNL     1     -12.667  13.904  64.995  1.00  0.00    -0.336 C  
HETATM   25  H   UNL     1     -13.703  12.395  64.007  1.00  0.00     0.000 HD 
HETATM   26  O   UNL     1     -13.619  14.463  65.522  1.00  0.00    -0.390 OA 
ENDBRANCH  18  19
ENDBRANCH  15  18
ENDBRANCH  11  12
ENDBRANCH  10  11
ENDBRANCH   9  10
ENDBRANCH   2   9
TORSDOF 7
ENDMDL
MODEL       97
REMARK 921   NORMALIZED FREE ENERGY PREDICTED BY IDOCK:   -5.24 KCAL/MOL
REMARK 922        TOTAL FREE ENERGY PREDICTED BY IDOCK:   -8.24 KCAL/MOL
REMARK 923 INTER-LIGAND FREE ENERGY PREDICTED BY IDOCK:   -7.39 KCAL/MOL
REMARK 924 INTRA-LIGAND FREE ENERGY PREDICTED BY IDOCK:   -0.85 KCAL/MOL
REMARK 927      BINDING AFFINITY PREDICTED BY RF-SCORE:    0.00 PKD
ROOT
HETATM    1  C   UNL     1     -13.009  13.749  65.269  1.00  0.00    -0.278 C  
HETATM    2  N   UNL     1     -11.733  14.279  64.785  1.00  0.00    -0.393 NA 
ENDROOT
BRANCH   2   3
HETATM    3  C   UNL     1     -11.222  15.295  65.618  1.00  0.00    -0.256 A  
HETATM    4  C   UNL     1     -10.253  17.386  65.915  1.00  0.00    -0.256 A  
HETATM    5  C   UNL     1     -10.166  17.240  67.287  1.00  0.00    -0.320 A  
HETATM    6  C   UNL     1     -11.166  15.083  66.997  1.00  0.00    -0.328 A  
HETATM    7  C   UNL     1     -10.633  16.059  67.838  1.00  0.00    -0.301 A  
HETATM    8  N   UNL     1     -10.762  16.448  65.083  1.00  0.00    -0.628 NA 
ENDBRANCH   2   3
BRANCH   2   9
HETATM    9  C   UNL     1     -10.738  13.245  64.435  1.00  0.00    -0.415 C  
BRANCH   9  10
HETATM   10  C   UNL     1     -10.957  11.944  65.222  1.00  0.00    -0.302 C  
BRANCH  10  11
HETATM   11  O   UNL     1      -9.928  11.724  66.197  1.00  0.00    -0.214 OA 
BRANCH  11  12
HETATM   12  C   UNL     1     -10.367  11.222  67.400  1.00  0.00    -0.200 A  
HETATM   13  C   UNL     1     -11.984  10.889  69.175  1.00  0.00    -0.359 A  
HETATM   14  C   UNL     1     -11.657  11.372  67.908  1.00  0.00    -0.337 A  
HETATM   15  C   UNL     1     -11.030  10.231  69.958  1.00  0.00    -0.371 A  
HETATM   16  C   UNL     1      -9.749  10.030  69.425  1.00  0.00    -0.240 A  
HETATM   17  C   UNL     1      -9.418  10.524  68.156  1.00  0.00    -0.157 A  
BRANCH  15  18
HETATM   18  C   UNL     1     -11.364   9.830  71.372  1.00  0.00    -0.407 C  
BRANCH  18  19
HETATM   19  C   UNL     1     -11.225   8.359  71.754  1.00  0.00    -0.293 C  
HETATM   20  S   UNL     1     -11.552   7.117  70.462  1.00  0.00    -0.263 SA 
HETATM   21  C   UNL     1     -10.354   6.030  71.124  1.00  0.00    -0.214 C  
HETATM   22  N   UNL     1      -9.553   6.693  71.991  1.00  0.00    -0.150 N  
HETATM   23  O   UNL     1     -10.280   4.845  70.847  1.00  0.00    -0.227 OA 
HETATM   24  C   UNL     1      -9.880   7.974  72.332  1.00  0.00    -0.247 C  
HETATM   25  H   UNL     1      -8.724   6.246  72.381  1.00  0.00     0.000 HD 
HETATM   26  O   UNL     1      -9.210   8.663  73.091  1.00  0.00    -0.235 OA 
ENDBRANCH  18  19
ENDBRANCH  15  18
ENDBRANCH  11  12
ENDBRANCH  10  11
ENDBRANCH   9  10
ENDBRANCH   2   9
TORSDOF 7
ENDMDL
MODEL       98
REMARK 921   NORMALIZED FREE ENERGY PREDICTED BY IDOCK:   -5.24 KCAL/MOL
REMARK 922        TOTAL FREE ENERGY PREDICTED BY IDOCK:   -8.24 KCAL/MOL
REMARK 923 INTER-LIGAND FREE ENERGY PREDICTED BY IDOCK:   -7.88 KCAL/MOL
REMARK 924 INTRA-LIGAND FREE ENERGY PREDICTED BY IDOCK:   -0.36 KCAL/MOL
REMARK 927      BINDING AFFINITY PREDICTED BY RF-SCORE:    0.00 PKD
ROOT
HETATM    1  C   UNL     1     -13.093   9.523  72.053  1.00  0.00    -0.438 C  
HETATM    2  N   UNL     1     -11.665   9.315  71.811  1.00  0.00    -0.380 NA 
ENDROOT
BRANCH   2   3
HETATM    3  C   UNL     1     -11.303   7.953  71.858  1.00  0.00    -0.276 A  
HETATM    4  C   UNL     1     -11.019   5.888  70.833  1.00  0.00    -0.265 A  
HETATM    5  C   UNL     1     -10.644   5.265  72.009  1.00  0.00    -0.279 A  
HETATM    6  C   UNL     1     -10.930   7.389  73.080  1.00  0.00    -0.422 A  
HETATM    7  C   UNL     1     -10.601   6.036  73.158  1.00  0.00    -0.268 A  
HETATM    8  N   UNL     1     -11.347   7.197  70.739  1.00  0.00    -0.278 NA 
ENDBRANCH   2   3
BRANCH   2   9
HETATM    9  C   UNL     1     -11.137  10.026  70.628  1.00  0.00    -0.335 C  
BRANCH   9  10
HETATM   10  C   UNL     1     -12.224  10.840  69.912  1.00  0.00    -0.313 C  
BRANCH  10  11
HETATM   11  O   UNL     1     -12.122  12.242  70.196  1.00  0.00    -0.327 OA 
BRANCH  11  12
HETATM   12  C   UNL     1     -11.843  13.036  69.108  1.00  0.00    -0.310 A  
HETATM   13  C   UNL     1     -11.116  13.458  66.834  1.00  0.00    -0.309 A  
HETATM   14  C   UNL     1     -11.451  12.567  67.854  1.00  0.00    -0.369 A  
HETATM   15  C   UNL     1     -11.180  14.840  67.041  1.00  0.00    -0.347 A  
HETATM   16  C   UNL     1     -11.628  15.312  68.283  1.00  0.00    -0.357 A  
HETATM   17  C   UNL     1     -11.955  14.417  69.310  1.00  0.00    -0.362 A  
BRANCH  15  18
HETATM   18  C   UNL     1     -10.693  15.784  65.971  1.00  0.00    -0.311 C  
BRANCH  18  19
HETATM   19  C   UNL     1      -9.656  16.833  66.358  1.00  0.00    -0.281 C  
HETATM   20  S   UNL     1     -10.218  18.248  67.358  1.00  0.00    -0.388 SA 
HETATM   21  C   UNL     1      -8.681  18.347  68.186  1.00  0.00    -0.302 C  
HETATM   22  N   UNL     1      -7.971  17.211  67.985  1.00  0.00    -0.205 N  
HETATM   23  O   UNL     1      -8.312  19.315  68.828  1.00  0.00    -0.361 OA 
HETATM   24  C   UNL     1      -8.445  16.295  67.091  1.00  0.00    -0.187 C  
HETATM   25  H   UNL     1      -7.102  17.044  68.491  1.00  0.00     0.000 HD 
HETATM   26  O   UNL     1      -7.888  15.231  66.855  1.00  0.00    -0.209 OA 
ENDBRANCH  18  19
ENDBRANCH  15  18
ENDBRANCH  11  12
ENDBRANCH  10  11
ENDBRANCH   9  10
ENDBRANCH   2   9
TORSDOF 7
ENDMDL
MODEL       99
REMARK 921   NORMALIZED FREE ENERGY PREDICTED BY IDOCK:   -5.23 KCAL/MOL
REMARK 922        TOTAL FREE ENERGY PREDICTED BY IDOCK:   -8.23 KCAL/MOL
REMARK 923 INTER-LIGAND FREE ENERGY PREDICTED BY IDOCK:   -7.13 KCAL/MOL
REMARK 924 INTRA-LIGAND FREE ENERGY PREDICTED BY IDOCK:   -1.11 KCAL/MOL
REMARK 927      BINDING AFFINITY PREDICTED BY RF-SCORE:    0.00 PKD
ROOT
HETATM    1  C   UNL     1     -11.595   5.339  72.928  1.00  0.00    -0.219 C  
HETATM    2  N   UNL     1     -11.659   6.321  71.845  1.00  0.00    -0.310 NA 
ENDROOT
BRANCH   2   3
HETATM    3  C   UNL     1     -11.016   5.873  70.673  1.00  0.00    -0.287 A  
HETATM    4  C   UNL     1     -10.775   5.862  68.363  1.00  0.00    -0.250 A  
HETATM    5  C   UNL     1      -9.766   4.918  68.391  1.00  0.00    -0.212 A  
HETATM    6  C   UNL     1     -10.001   4.919  70.774  1.00  0.00    -0.292 A  
HETATM    7  C   UNL     1      -9.373   4.435  69.627  1.00  0.00    -0.228 A  
HETATM    8  N   UNL     1     -11.400   6.339  69.464  1.00  0.00    -0.430 NA 
ENDBRANCH   2   3
BRANCH   2   9
HETATM    9  C   UNL     1     -13.007   6.875  71.604  1.00  0.00    -0.307 C  
BRANCH   9  10
HETATM   10  C   UNL     1     -13.105   8.352  72.011  1.00  0.00    -0.352 C  
BRANCH  10  11
HETATM   11  O   UNL     1     -11.813   8.937  72.232  1.00  0.00    -0.353 OA 
BRANCH  11  12
HETATM   12  C   UNL     1     -11.281   9.594  71.148  1.00  0.00    -0.384 A  
HETATM   13  C   UNL     1     -11.366  11.047  69.208  1.00  0.00    -0.350 A  
HETATM   14  C   UNL     1     -11.975  10.487  70.332  1.00  0.00    -0.425 A  
HETATM   15  C   UNL     1     -10.042  10.737  68.884  1.00  0.00    -0.217 A  
HETATM   16  C   UNL     1      -9.325   9.884  69.734  1.00  0.00    -0.248 A  
HETATM   17  C   UNL     1      -9.940   9.314  70.857  1.00  0.00    -0.367 A  
BRANCH  15  18
HETATM   18  C   UNL     1      -9.443  11.250  67.599  1.00  0.00    -0.173 C  
BRANCH  18  19
HETATM   19  C   UNL     1      -9.925  10.637  66.288  1.00  0.00    -0.222 C  
HETATM   20  S   UNL     1     -10.086  11.743  64.848  1.00  0.00    -0.261 SA 
HETATM   21  C   UNL     1      -9.641  10.463  63.743  1.00  0.00    -0.310 C  
HETATM   22  N   UNL     1      -9.081   9.434  64.424  1.00  0.00    -0.403 N  
HETATM   23  O   UNL     1      -9.833  10.502  62.541  1.00  0.00    -0.217 OA 
HETATM   24  C   UNL     1      -9.104   9.467  65.789  1.00  0.00    -0.200 C  
HETATM   25  H   UNL     1      -8.653   8.653  63.929  1.00  0.00     0.000 HD 
HETATM   26  O   UNL     1      -8.608   8.597  66.493  1.00  0.00    -0.110 OA 
ENDBRANCH  18  19
ENDBRANCH  15  18
ENDBRANCH  11  12
ENDBRANCH  10  11
ENDBRANCH   9  10
ENDBRANCH   2   9
TORSDOF 7
ENDMDL
MODEL      100
REMARK 921   NORMALIZED FREE ENERGY PREDICTED BY IDOCK:   -5.22 KCAL/MOL
REMARK 922        TOTAL FREE ENERGY PREDICTED BY IDOCK:   -8.22 KCAL/MOL
REMARK 923 INTER-LIGAND FREE ENERGY PREDICTED BY IDOCK:   -7.42 KCAL/MOL
REMARK 924 INTRA-LIGAND FREE ENERGY PREDICTED BY IDOCK:   -0.79 KCAL/MOL
REMARK 927      BINDING AFFINITY PREDICTED BY RF-SCORE:    0.00 PKD
ROOT
HETATM    1  C   UNL     1     -11.458  10.984  68.248  1.00  0.00    -0.304 C  
HETATM    2  N   UNL     1     -10.685  10.842  67.013  1.00  0.00    -0.261 NA 
ENDROOT
BRANCH   2   3
HETATM    3  C   UNL     1     -11.178  11.656  65.972  1.00  0.00    -0.240 A  
HETATM    4  C   UNL     1     -12.644  13.272  65.176  1.00  0.00    -0.453 A  
HETATM    5  C   UNL     1     -12.160  13.191  63.884  1.00  0.00    -0.536 A  
HETATM    6  C   UNL     1     -10.641  11.524  64.691  1.00  0.00    -0.369 A  
HETATM    7  C   UNL     1     -11.135  12.293  63.638  1.00  0.00    -0.537 A  
HETATM    8  N   UNL     1     -12.181  12.531  66.208  1.00  0.00    -0.584 NA 
ENDBRANCH   2   3
BRANCH   2   9
HETATM    9  C   UNL     1      -9.222  10.940  67.195  1.00  0.00    -0.148 C  
BRANCH   9  10
HETATM   10  C   UNL     1      -8.821  12.200  67.976  1.00  0.00    -0.181 C  
BRANCH  10  11
HETATM   11  O   UNL     1      -8.129  13.148  67.151  1.00  0.00    -0.168 OA 
BRANCH  11  12
HETATM   12  C   UNL     1      -8.017  14.410  67.685  1.00  0.00    -0.179 A  
HETATM   13  C   UNL     1      -8.798  16.340  68.928  1.00  0.00    -0.253 A  
HETATM   14  C   UNL     1      -8.971  15.024  68.496  1.00  0.00    -0.186 A  
HETATM   15  C   UNL     1      -7.658  17.066  68.570  1.00  0.00    -0.231 A  
HETATM   16  C   UNL     1      -6.672  16.431  67.802  1.00  0.00    -0.156 A  
HETATM   17  C   UNL     1      -6.850  15.113  67.360  1.00  0.00    -0.166 A  
BRANCH  15  18
HETATM   18  C   UNL     1      -7.548  18.523  68.938  1.00  0.00    -0.261 C  
BRANCH  18  19
HETATM   19  C   UNL     1      -8.339  19.534  68.113  1.00  0.00    -0.324 C  
HETATM   20  S   UNL     1      -8.408  19.282  66.310  1.00  0.00    -0.286 SA 
HETATM   21  C   UNL     1     -10.024  19.942  66.221  1.00  0.00    -0.486 C  
HETATM   22  N   UNL     1     -10.572  19.997  67.459  1.00  0.00    -0.340 N  
HETATM   23  O   UNL     1     -10.555  20.313  65.188  1.00  0.00    -0.135 OA 
HETATM   24  C   UNL     1      -9.782  19.715  68.535  1.00  0.00    -0.402 C  
HETATM   25  H   UNL     1     -11.554  20.243  67.583  1.00  0.00     0.000 HD 
HETATM   26  O   UNL     1     -10.188  19.718  69.690  1.00  0.00    -0.239 OA 
ENDBRANCH  18  19
ENDBRANCH  15  18
ENDBRANCH  11  12
ENDBRANCH  10  11
ENDBRANCH   9  10
ENDBRANCH   2   9
TORSDOF 7
ENDMDL
MODEL      101
REMARK 921   NORMALIZED FREE ENERGY PREDICTED BY IDOCK:   -5.22 KCAL/MOL
REMARK 922        TOTAL FREE ENERGY PREDICTED BY IDOCK:   -8.21 KCAL/MOL
REMARK 923 INTER-LIGAND FREE ENERGY PREDICTED BY IDOCK:   -8.20 KCAL/MOL
REMARK 924 INTRA-LIGAND FREE ENERGY PREDICTED BY IDOCK:   -0.01 KCAL/MOL
REMARK 927      BINDING AFFINITY PREDICTED BY RF-SCORE:    0.00 PKD
ROOT
HETATM    1  C   UNL     1      -9.719  14.906  66.657  1.00  0.00    -0.261 C  
HETATM    2  N   UNL     1     -11.125  14.618  66.371  1.00  0.00    -0.329 NA 
ENDROOT
BRANCH   2   3
HETATM    3  C   UNL     1     -11.281  13.643  65.364  1.00  0.00    -0.298 A  
HETATM    4  C   UNL     1     -10.421  12.342  63.643  1.00  0.00    -0.426 A  
HETATM    5  C   UNL     1     -11.646  11.771  63.354  1.00  0.00    -0.419 A  
HETATM    6  C   UNL     1     -12.548  13.105  65.127  1.00  0.00    -0.525 A  
HETATM    7  C   UNL     1     -12.734  12.165  64.114  1.00  0.00    -0.416 A  
HETATM    8  N   UNL     1     -10.222  13.259  64.617  1.00  0.00    -0.350 NA 
ENDBRANCH   2   3
BRANCH   2   9
HETATM    9  C   UNL     1     -11.952  14.366  67.570  1.00  0.00    -0.354 C  
BRANCH   9  10
HETATM   10  C   UNL     1     -11.400  13.210  68.418  1.00  0.00    -0.289 C  
BRANCH  10  11
HETATM   11  O   UNL     1     -11.957  13.199  69.740  1.00  0.00    -0.313 OA 
BRANCH  11  12
HETATM   12  C   UNL     1     -12.136  11.948  70.283  1.00  0.00    -0.325 A  
HETATM   13  C   UNL     1     -13.024  10.365  71.890  1.00  0.00    -0.555 A  
HETATM   14  C   UNL     1     -12.967  11.656  71.364  1.00  0.00    -0.426 A  
HETATM   15  C   UNL     1     -12.261   9.332  71.336  1.00  0.00    -0.426 A  
HETATM   16  C   UNL     1     -11.468   9.612  70.214  1.00  0.00    -0.288 A  
HETATM   17  C   UNL     1     -11.404  10.911  69.692  1.00  0.00    -0.362 A  
BRANCH  15  18
HETATM   18  C   UNL     1     -12.238   7.977  71.995  1.00  0.00    -0.374 C  
BRANCH  18  19
HETATM   19  C   UNL     1     -11.167   6.983  71.556  1.00  0.00    -0.249 C  
HETATM   20  S   UNL     1     -11.244   6.359  69.846  1.00  0.00    -0.437 SA 
HETATM   21  C   UNL     1      -9.503   6.249  69.747  1.00  0.00    -0.151 C  
HETATM   22  N   UNL     1      -8.934   6.952  70.755  1.00  0.00    -0.150 N  
HETATM   23  O   UNL     1      -8.906   5.610  68.897  1.00  0.00    -0.109 OA 
HETATM   24  C   UNL     1      -9.741   7.461  71.732  1.00  0.00    -0.153 C  
HETATM   25  H   UNL     1      -7.925   7.098  70.784  1.00  0.00     0.000 HD 
HETATM   26  O   UNL     1      -9.326   8.126  72.672  1.00  0.00    -0.217 OA 
ENDBRANCH  18  19
ENDBRANCH  15  18
ENDBRANCH  11  12
ENDBRANCH  10  11
ENDBRANCH   9  10
ENDBRANCH   2   9
TORSDOF 7
ENDMDL
MODEL      102
REMARK 921   NORMALIZED FREE ENERGY PREDICTED BY IDOCK:   -5.22 KCAL/MOL
REMARK 922        TOTAL FREE ENERGY PREDICTED BY IDOCK:   -8.21 KCAL/MOL
REMARK 923 INTER-LIGAND FREE ENERGY PREDICTED BY IDOCK:   -7.64 KCAL/MOL
REMARK 924 INTRA-LIGAND FREE ENERGY PREDICTED BY IDOCK:   -0.56 KCAL/MOL
REMARK 927      BINDING AFFINITY PREDICTED BY RF-SCORE:    0.00 PKD
ROOT
HETATM    1  C   UNL     1     -11.166   7.032  69.901  1.00  0.00    -0.246 C  
HETATM    2  N   UNL     1     -11.822   6.623  71.143  1.00  0.00    -0.348 NA 
ENDROOT
BRANCH   2   3
HETATM    3  C   UNL     1     -10.903   6.183  72.118  1.00  0.00    -0.247 A  
HETATM    4  C   UNL     1      -8.753   6.097  72.993  1.00  0.00    -0.121 A  
HETATM    5  C   UNL     1      -9.117   5.245  74.019  1.00  0.00    -0.118 A  
HETATM    6  C   UNL     1     -11.340   5.325  73.129  1.00  0.00    -0.358 A  
HETATM    7  C   UNL     1     -10.442   4.850  74.085  1.00  0.00    -0.335 A  
HETATM    8  N   UNL     1      -9.607   6.564  72.055  1.00  0.00    -0.151 NA 
ENDBRANCH   2   3
BRANCH   2   9
HETATM    9  C   UNL     1     -12.810   7.593  71.659  1.00  0.00    -0.349 C  
BRANCH   9  10
HETATM   10  C   UNL     1     -12.165   8.941  72.013  1.00  0.00    -0.377 C  
BRANCH  10  11
HETATM   11  O   UNL     1     -13.140   9.984  72.152  1.00  0.00    -0.433 OA 
BRANCH  11  12
HETATM   12  C   UNL     1     -12.792  11.183  71.574  1.00  0.00    -0.437 A  
HETATM   13  C   UNL     1     -12.784  13.600  71.378  1.00  0.00    -0.437 A  
HETATM   14  C   UNL     1     -13.119  12.441  72.079  1.00  0.00    -0.470 A  
HETATM   15  C   UNL     1     -12.100  13.526  70.160  1.00  0.00    -0.425 A  
HETATM   16  C   UNL     1     -11.722  12.265  69.679  1.00  0.00    -0.386 A  
HETATM   17  C   UNL     1     -12.067  11.101  70.379  1.00  0.00    -0.475 A  
BRANCH  15  18
HETATM   18  C   UNL     1     -11.860  14.778  69.356  1.00  0.00    -0.360 C  
BRANCH  18  19
HETATM   19  C   UNL     1     -10.432  15.089  68.920  1.00  0.00    -0.241 C  
HETATM   20  S   UNL     1      -9.882  14.443  67.307  1.00  0.00    -0.251 SA 
HETATM   21  C   UNL     1      -8.853  15.830  67.038  1.00  0.00    -0.216 C  
HETATM   22  N   UNL     1      -9.180  16.826  67.897  1.00  0.00    -0.222 N  
HETATM   23  O   UNL     1      -7.963  15.870  66.206  1.00  0.00    -0.200 OA 
HETATM   24  C   UNL     1     -10.079  16.560  68.890  1.00  0.00    -0.266 C  
HETATM   25  H   UNL     1      -8.765  17.752  67.803  1.00  0.00     0.000 HD 
HETATM   26  O   UNL     1     -10.454  17.397  69.702  1.00  0.00    -0.176 OA 
ENDBRANCH  18  19
ENDBRANCH  15  18
ENDBRANCH  11  12
ENDBRANCH  10  11
ENDBRANCH   9  10
ENDBRANCH   2   9
TORSDOF 7
ENDMDL
MODEL      103
REMARK 921   NORMALIZED FREE ENERGY PREDICTED BY IDOCK:   -5.22 KCAL/MOL
REMARK 922        TOTAL FREE ENERGY PREDICTED BY IDOCK:   -8.21 KCAL/MOL
REMARK 923 INTER-LIGAND FREE ENERGY PREDICTED BY IDOCK:   -6.74 KCAL/MOL
REMARK 924 INTRA-LIGAND FREE ENERGY PREDICTED BY IDOCK:   -1.47 KCAL/MOL
REMARK 927      BINDING AFFINITY PREDICTED BY RF-SCORE:    0.00 PKD
ROOT
HETATM    1  C   UNL     1      -8.245   7.777  68.566  1.00  0.00    -0.128 C  
HETATM    2  N   UNL     1      -9.691   7.673  68.366  1.00  0.00    -0.155 NA 
ENDROOT
BRANCH   2   3
HETATM    3  C   UNL     1     -10.416   8.533  69.218  1.00  0.00    -0.215 A  
HETATM    4  C   UNL     1     -11.645   8.918  71.151  1.00  0.00    -0.300 A  
HETATM    5  C   UNL     1     -11.886  10.241  70.830  1.00  0.00    -0.473 A  
HETATM    6  C   UNL     1     -10.620   9.859  68.833  1.00  0.00    -0.239 A  
HETATM    7  C   UNL     1     -11.362  10.719  69.642  1.00  0.00    -0.362 A  
HETATM    8  N   UNL     1     -10.932   8.068  70.377  1.00  0.00    -0.249 NA 
ENDBRANCH   2   3
BRANCH   2   9
HETATM    9  C   UNL     1     -10.119   7.743  66.954  1.00  0.00    -0.286 C  
BRANCH   9  10
HETATM   10  C   UNL     1      -8.925   7.721  65.988  1.00  0.00    -0.145 C  
BRANCH  10  11
HETATM   11  O   UNL     1      -9.035   8.728  64.973  1.00  0.00    -0.165 OA 
BRANCH  11  12
HETATM   12  C   UNL     1      -9.017  10.023  65.435  1.00  0.00    -0.180 A  
HETATM   13  C   UNL     1      -8.136  11.876  66.727  1.00  0.00    -0.108 A  
HETATM   14  C   UNL     1      -8.025  10.571  66.247  1.00  0.00    -0.144 A  
HETATM   15  C   UNL     1      -9.237  12.670  66.391  1.00  0.00    -0.162 A  
HETATM   16  C   UNL     1     -10.208  12.140  65.528  1.00  0.00    -0.294 A  
HETATM   17  C   UNL     1     -10.100  10.826  65.055  1.00  0.00    -0.377 A  
BRANCH  15  18
HETATM   18  C   UNL     1      -9.404  14.030  67.019  1.00  0.00    -0.256 C  
BRANCH  18  19
HETATM   19  C   UNL     1     -10.305  14.149  68.245  1.00  0.00    -0.245 C  
HETATM   20  S   UNL     1      -9.807  15.321  69.548  1.00  0.00    -0.192 SA 
HETATM   21  C   UNL     1     -11.472  15.686  69.936  1.00  0.00    -0.338 C  
HETATM   22  N   UNL     1     -12.286  15.250  68.945  1.00  0.00    -0.604 N  
HETATM   23  O   UNL     1     -11.829  16.236  70.963  1.00  0.00    -0.373 OA 
HETATM   24  C   UNL     1     -11.749  14.490  67.946  1.00  0.00    -0.351 C  
HETATM   25  H   UNL     1     -13.278  15.484  68.945  1.00  0.00     0.000 HD 
HETATM   26  O   UNL     1     -12.397  14.067  66.998  1.00  0.00    -0.397 OA 
ENDBRANCH  18  19
ENDBRANCH  15  18
ENDBRANCH  11  12
ENDBRANCH  10  11
ENDBRANCH   9  10
ENDBRANCH   2   9
TORSDOF 7
ENDMDL
MODEL      104
REMARK 921   NORMALIZED FREE ENERGY PREDICTED BY IDOCK:   -5.20 KCAL/MOL
REMARK 922        TOTAL FREE ENERGY PREDICTED BY IDOCK:   -8.19 KCAL/MOL
REMARK 923 INTER-LIGAND FREE ENERGY PREDICTED BY IDOCK:   -7.58 KCAL/MOL
REMARK 924 INTRA-LIGAND FREE ENERGY PREDICTED BY IDOCK:   -0.61 KCAL/MOL
REMARK 927      BINDING AFFINITY PREDICTED BY RF-SCORE:    0.00 PKD
ROOT
HETATM    1  C   UNL     1     -11.026  15.333  66.961  1.00  0.00    -0.324 C  
HETATM    2  N   UNL     1     -11.473  13.948  67.113  1.00  0.00    -0.329 NA 
ENDROOT
BRANCH   2   3
HETATM    3  C   UNL     1     -11.405  13.224  65.904  1.00  0.00    -0.311 A  
HETATM    4  C   UNL     1     -12.263  12.660  63.821  1.00  0.00    -0.514 A  
HETATM    5  C   UNL     1     -11.267  11.734  63.571  1.00  0.00    -0.494 A  
HETATM    6  C   UNL     1     -10.369  12.307  65.717  1.00  0.00    -0.287 A  
HETATM    7  C   UNL     1     -10.300  11.555  64.545  1.00  0.00    -0.354 A  
HETATM    8  N   UNL     1     -12.351  13.395  64.953  1.00  0.00    -0.461 NA 
ENDBRANCH   2   3
BRANCH   2   9
HETATM    9  C   UNL     1     -10.875  13.237  68.262  1.00  0.00    -0.256 C  
BRANCH   9  10
HETATM   10  C   UNL     1     -11.877  12.290  68.938  1.00  0.00    -0.303 C  
BRANCH  10  11
HETATM   11  O   UNL     1     -11.553  10.911  68.710  1.00  0.00    -0.279 OA 
BRANCH  11  12
HETATM   12  C   UNL     1     -11.227  10.197  69.839  1.00  0.00    -0.287 A  
HETATM   13  C   UNL     1      -9.746   8.913  71.267  1.00  0.00    -0.359 A  
HETATM   14  C   UNL     1      -9.960   9.692  70.128  1.00  0.00    -0.309 A  
HETATM   15  C   UNL     1     -10.794   8.636  72.151  1.00  0.00    -0.424 A  
HETATM   16  C   UNL     1     -12.055   9.190  71.890  1.00  0.00    -0.448 A  
HETATM   17  C   UNL     1     -12.271   9.964  70.741  1.00  0.00    -0.380 A  
BRANCH  15  18
HETATM   18  C   UNL     1     -10.575   7.691  73.303  1.00  0.00    -0.411 C  
BRANCH  18  19
HETATM   19  C   UNL     1      -9.896   6.355  73.018  1.00  0.00    -0.165 C  
HETATM   20  S   UNL     1      -8.296   6.031  73.827  1.00  0.00    -0.113 SA 
HETATM   21  C   UNL     1      -8.637   4.321  73.946  1.00  0.00    -0.098 C  
HETATM   22  N   UNL     1      -9.956   4.094  73.735  1.00  0.00    -0.123 N  
HETATM   23  O   UNL     1      -7.794   3.470  74.169  1.00  0.00    -0.065 OA 
HETATM   24  C   UNL     1     -10.737   5.133  73.317  1.00  0.00    -0.266 C  
HETATM   25  H   UNL     1     -10.356   3.168  73.884  1.00  0.00     0.000 HD 
HETATM   26  O   UNL     1     -11.941   5.034  73.118  1.00  0.00    -0.222 OA 
ENDBRANCH  18  19
ENDBRANCH  15  18
ENDBRANCH  11  12
ENDBRANCH  10  11
ENDBRANCH   9  10
ENDBRANCH   2   9
TORSDOF 7
ENDMDL
MODEL      105
REMARK 921   NORMALIZED FREE ENERGY PREDICTED BY IDOCK:   -5.19 KCAL/MOL
REMARK 922        TOTAL FREE ENERGY PREDICTED BY IDOCK:   -8.18 KCAL/MOL
REMARK 923 INTER-LIGAND FREE ENERGY PREDICTED BY IDOCK:   -7.62 KCAL/MOL
REMARK 924 INTRA-LIGAND FREE ENERGY PREDICTED BY IDOCK:   -0.55 KCAL/MOL
REMARK 927      BINDING AFFINITY PREDICTED BY RF-SCORE:    0.00 PKD
ROOT
HETATM    1  C   UNL     1     -13.040   7.322  71.586  1.00  0.00    -0.369 C  
HETATM    2  N   UNL     1     -11.783   7.499  72.314  1.00  0.00    -0.303 NA 
ENDROOT
BRANCH   2   3
HETATM    3  C   UNL     1     -11.077   6.288  72.471  1.00  0.00    -0.272 A  
HETATM    4  C   UNL     1     -10.961   4.079  73.179  1.00  0.00    -0.166 A  
HETATM    5  C   UNL     1      -9.633   3.948  72.819  1.00  0.00    -0.176 A  
HETATM    6  C   UNL     1      -9.737   6.224  72.083  1.00  0.00    -0.164 A  
HETATM    7  C   UNL     1      -9.009   5.049  72.260  1.00  0.00    -0.142 A  
HETATM    8  N   UNL     1     -11.683   5.212  73.020  1.00  0.00    -0.247 NA 
ENDBRANCH   2   3
BRANCH   2   9
HETATM    9  C   UNL     1     -10.945   8.611  71.821  1.00  0.00    -0.326 C  
BRANCH   9  10
HETATM   10  C   UNL     1     -11.583   9.326  70.621  1.00  0.00    -0.252 C  
BRANCH  10  11
HETATM   11  O   UNL     1     -12.110  10.612  70.979  1.00  0.00    -0.340 OA 
BRANCH  11  12
HETATM   12  C   UNL     1     -12.012  11.572  69.999  1.00  0.00    -0.357 A  
HETATM   13  C   UNL     1     -11.610  12.368  67.744  1.00  0.00    -0.413 A  
HETATM   14  C   UNL     1     -11.767  11.318  68.650  1.00  0.00    -0.391 A  
HETATM   15  C   UNL     1     -11.711  13.697  68.166  1.00  0.00    -0.392 A  
HETATM   16  C   UNL     1     -12.014  13.953  69.511  1.00  0.00    -0.396 A  
HETATM   17  C   UNL     1     -12.161  12.898  70.422  1.00  0.00    -0.381 A  
BRANCH  15  18
HETATM   18  C   UNL     1     -11.413  14.817  67.202  1.00  0.00    -0.375 C  
BRANCH  18  19
HETATM   19  C   UNL     1     -10.113  15.595  67.385  1.00  0.00    -0.251 C  
HETATM   20  S   UNL     1      -8.603  14.642  67.746  1.00  0.00    -0.184 SA 
HETATM   21  C   UNL     1      -7.607  15.779  66.867  1.00  0.00    -0.200 C  
HETATM   22  N   UNL     1      -8.382  16.572  66.090  1.00  0.00    -0.321 N  
HETATM   23  O   UNL     1      -6.394  15.846  66.969  1.00  0.00    -0.309 OA 
HETATM   24  C   UNL     1      -9.738  16.494  66.226  1.00  0.00    -0.305 C  
HETATM   25  H   UNL     1      -7.962  17.213  65.417  1.00  0.00     0.000 HD 
HETATM   26  O   UNL     1     -10.523  17.152  65.556  1.00  0.00    -0.593 OA 
ENDBRANCH  18  19
ENDBRANCH  15  18
ENDBRANCH  11  12
ENDBRANCH  10  11
ENDBRANCH   9  10
ENDBRANCH   2   9
TORSDOF 7
ENDMDL
MODEL      106
REMARK 921   NORMALIZED FREE ENERGY PREDICTED BY IDOCK:   -5.16 KCAL/MOL
REMARK 922        TOTAL FREE ENERGY PREDICTED BY IDOCK:   -8.13 KCAL/MOL
REMARK 923 INTER-LIGAND FREE ENERGY PREDICTED BY IDOCK:   -7.50 KCAL/MOL
REMARK 924 INTRA-LIGAND FREE ENERGY PREDICTED BY IDOCK:   -0.63 KCAL/MOL
REMARK 927      BINDING AFFINITY PREDICTED BY RF-SCORE:    0.00 PKD
ROOT
HETATM    1  C   UNL     1      -8.980   5.327  67.895  1.00  0.00    -0.109 C  
HETATM    2  N   UNL     1     -10.385   5.479  68.274  1.00  0.00    -0.184 NA 
ENDROOT
BRANCH   2   3
HETATM    3  C   UNL     1     -10.553   5.647  69.664  1.00  0.00    -0.331 A  
HETATM    4  C   UNL     1      -9.931   5.199  71.856  1.00  0.00    -0.184 A  
HETATM    5  C   UNL     1     -10.958   5.956  72.388  1.00  0.00    -0.310 A  
HETATM    6  C   UNL     1     -11.611   6.429  70.133  1.00  0.00    -0.449 A  
HETATM    7  C   UNL     1     -11.818   6.583  71.503  1.00  0.00    -0.386 A  
HETATM    8  N   UNL     1      -9.717   5.034  70.531  1.00  0.00    -0.187 NA 
ENDBRANCH   2   3
BRANCH   2   9
HETATM    9  C   UNL     1     -11.131   6.465  67.465  1.00  0.00    -0.306 C  
BRANCH   9  10
HETATM   10  C   UNL     1     -10.241   7.631  67.012  1.00  0.00    -0.300 C  
BRANCH  10  11
HETATM   11  O   UNL     1      -9.997   8.566  68.072  1.00  0.00    -0.167 OA 
BRANCH  11  12
HETATM   12  C   UNL     1     -10.388   9.857  67.808  1.00  0.00    -0.221 A  
HETATM   13  C   UNL     1     -11.621  11.902  68.229  1.00  0.00    -0.390 A  
HETATM   14  C   UNL     1     -11.221  10.624  68.622  1.00  0.00    -0.337 A  
HETATM   15  C   UNL     1     -11.184  12.448  67.018  1.00  0.00    -0.358 A  
HETATM   16  C   UNL     1     -10.302  11.700  66.225  1.00  0.00    -0.273 A  
HETATM   17  C   UNL     1      -9.907  10.413  66.616  1.00  0.00    -0.251 A  
BRANCH  15  18
HETATM   18  C   UNL     1     -11.728  13.773  66.551  1.00  0.00    -0.412 C  
BRANCH  18  19
HETATM   19  C   UNL     1     -10.824  14.998  66.659  1.00  0.00    -0.318 C  
HETATM   20  S   UNL     1     -10.677  16.071  65.193  1.00  0.00    -0.333 SA 
HETATM   21  C   UNL     1     -10.498  17.499  66.185  1.00  0.00    -0.288 C  
HETATM   22  N   UNL     1     -10.877  17.231  67.458  1.00  0.00    -0.269 N  
HETATM   23  O   UNL     1     -10.072  18.565  65.776  1.00  0.00    -0.537 OA 
HETATM   24  C   UNL     1     -11.157  15.939  67.797  1.00  0.00    -0.288 C  
HETATM   25  H   UNL     1     -10.953  17.979  68.147  1.00  0.00     0.000 HD 
HETATM   26  O   UNL     1     -11.527  15.599  68.914  1.00  0.00    -0.316 OA 
ENDBRANCH  18  19
ENDBRANCH  15  18
ENDBRANCH  11  12
ENDBRANCH  10  11
ENDBRANCH   9  10
ENDBRANCH   2   9
TORSDOF 7
ENDMDL
MODEL      107
REMARK 921   NORMALIZED FREE ENERGY PREDICTED BY IDOCK:   -5.16 KCAL/MOL
REMARK 922        TOTAL FREE ENERGY PREDICTED BY IDOCK:   -8.13 KCAL/MOL
REMARK 923 INTER-LIGAND FREE ENERGY PREDICTED BY IDOCK:   -7.02 KCAL/MOL
REMARK 924 INTRA-LIGAND FREE ENERGY PREDICTED BY IDOCK:   -1.11 KCAL/MOL
REMARK 927      BINDING AFFINITY PREDICTED BY RF-SCORE:    0.00 PKD
ROOT
HETATM    1  C   UNL     1      -9.964   4.734  71.408  1.00  0.00    -0.197 C  
HETATM    2  N   UNL     1     -10.054   6.175  71.168  1.00  0.00    -0.187 NA 
ENDROOT
BRANCH   2   3
HETATM    3  C   UNL     1      -9.996   6.497  69.796  1.00  0.00    -0.166 A  
HETATM    4  C   UNL     1      -8.938   7.496  67.986  1.00  0.00    -0.129 A  
HETATM    5  C   UNL     1      -9.952   7.164  67.106  1.00  0.00    -0.270 A  
HETATM    6  C   UNL     1     -11.053   6.127  68.964  1.00  0.00    -0.437 A  
HETATM    7  C   UNL     1     -11.035   6.464  67.611  1.00  0.00    -0.441 A  
HETATM    8  N   UNL     1      -8.941   7.183  69.301  1.00  0.00    -0.139 NA 
ENDBRANCH   2   3
BRANCH   2   9
HETATM    9  C   UNL     1     -11.159   6.844  71.885  1.00  0.00    -0.246 C  
BRANCH   9  10
HETATM   10  C   UNL     1     -10.833   8.310  72.206  1.00  0.00    -0.338 C  
BRANCH  10  11
HETATM   11  O   UNL     1     -11.983   9.158  72.079  1.00  0.00    -0.367 OA 
BRANCH  11  12
HETATM   12  C   UNL     1     -11.884  10.128  71.109  1.00  0.00    -0.381 A  
HETATM   13  C   UNL     1     -12.349  12.292  70.119  1.00  0.00    -0.212 A  
HETATM   14  C   UNL     1     -12.441  11.403  71.191  1.00  0.00    -0.465 A  
HETATM   15  C   UNL     1     -11.682  11.929  68.945  1.00  0.00    -0.381 A  
HETATM   16  C   UNL     1     -11.073  10.668  68.882  1.00  0.00    -0.314 A  
HETATM   17  C   UNL     1     -11.174   9.773  69.955  1.00  0.00    -0.297 A  
BRANCH  15  18
HETATM   18  C   UNL     1     -11.703  12.851  67.753  1.00  0.00    -0.412 C  
BRANCH  18  19
HETATM   19  C   UNL     1     -10.367  13.290  67.161  1.00  0.00    -0.248 C  
HETATM   20  S   UNL     1      -9.079  13.863  68.316  1.00  0.00    -0.184 SA 
HETATM   21  C   UNL     1      -7.806  13.222  67.305  1.00  0.00    -0.108 C  
HETATM   22  N   UNL     1      -8.323  12.358  66.398  1.00  0.00    -0.396 N  
HETATM   23  O   UNL     1      -6.632  13.534  67.404  1.00  0.00    -0.224 OA 
HETATM   24  C   UNL     1      -9.680  12.254  66.296  1.00  0.00    -0.244 C  
HETATM   25  H   UNL     1      -7.711  11.797  65.805  1.00  0.00     0.000 HD 
HETATM   26  O   UNL     1     -10.242  11.489  65.524  1.00  0.00    -0.237 OA 
ENDBRANCH  18  19
ENDBRANCH  15  18
ENDBRANCH  11  12
ENDBRANCH  10  11
ENDBRANCH   9  10
ENDBRANCH   2   9
TORSDOF 7
ENDMDL
MODEL      108
REMARK 921   NORMALIZED FREE ENERGY PREDICTED BY IDOCK:   -5.14 KCAL/MOL
REMARK 922        TOTAL FREE ENERGY PREDICTED BY IDOCK:   -8.10 KCAL/MOL
REMARK 923 INTER-LIGAND FREE ENERGY PREDICTED BY IDOCK:   -7.42 KCAL/MOL
REMARK 924 INTRA-LIGAND FREE ENERGY PREDICTED BY IDOCK:   -0.69 KCAL/MOL
REMARK 927      BINDING AFFINITY PREDICTED BY RF-SCORE:    0.00 PKD
ROOT
HETATM    1  C   UNL     1      -8.538   6.932  69.292  1.00  0.00    -0.132 C  
HETATM    2  N   UNL     1      -9.989   6.830  69.133  1.00  0.00    -0.157 NA 
ENDROOT
BRANCH   2   3
HETATM    3  C   UNL     1     -10.689   7.289  70.268  1.00  0.00    -0.236 A  
HETATM    4  C   UNL     1     -10.798   8.542  72.221  1.00  0.00    -0.348 A  
HETATM    5  C   UNL     1     -12.080   8.118  72.518  1.00  0.00    -0.377 A  
HETATM    6  C   UNL     1     -11.984   6.822  70.505  1.00  0.00    -0.385 A  
HETATM    7  C   UNL     1     -12.683   7.235  71.638  1.00  0.00    -0.410 A  
HETATM    8  N   UNL     1     -10.101   8.148  71.130  1.00  0.00    -0.181 NA 
ENDBRANCH   2   3
BRANCH   2   9
HETATM    9  C   UNL     1     -10.503   7.377  67.860  1.00  0.00    -0.205 C  
BRANCH   9  10
HETATM   10  C   UNL     1      -9.809   8.692  67.477  1.00  0.00    -0.180 C  
BRANCH  10  11
HETATM   11  O   UNL     1     -10.352   9.257  66.275  1.00  0.00    -0.240 OA 
BRANCH  11  12
HETATM   12  C   UNL     1     -10.809  10.549  66.396  1.00  0.00    -0.024 A  
HETATM   13  C   UNL     1     -11.237  12.803  65.613  1.00  0.00    -0.335 A  
HETATM   14  C   UNL     1     -10.822  11.493  65.370  1.00  0.00    -0.318 A  
HETATM   15  C   UNL     1     -11.662  13.194  66.887  1.00  0.00    -0.441 A  
HETATM   16  C   UNL     1     -11.702  12.231  67.905  1.00  0.00    -0.410 A  
HETATM   17  C   UNL     1     -11.277  10.918  67.663  1.00  0.00    -0.379 A  
BRANCH  15  18
HETATM   18  C   UNL     1     -11.984  14.641  67.161  1.00  0.00    -0.310 C  
BRANCH  18  19
HETATM   19  C   UNL     1     -10.954  15.475  67.916  1.00  0.00    -0.316 C  
HETATM   20  S   UNL     1     -10.265  16.934  67.071  1.00  0.00    -0.297 SA 
HETATM   21  C   UNL     1     -10.119  17.809  68.577  1.00  0.00    -0.377 C  
HETATM   22  N   UNL     1     -10.851  17.201  69.541  1.00  0.00    -0.345 N  
HETATM   23  O   UNL     1      -9.437  18.809  68.723  1.00  0.00    -0.344 OA 
HETATM   24  C   UNL     1     -11.412  15.987  69.265  1.00  0.00    -0.350 C  
HETATM   25  H   UNL     1     -10.979  17.640  70.452  1.00  0.00     0.000 HD 
HETATM   26  O   UNL     1     -12.106  15.368  70.061  1.00  0.00    -0.321 OA 
ENDBRANCH  18  19
ENDBRANCH  15  18
ENDBRANCH  11  12
ENDBRANCH  10  11
ENDBRANCH   9  10
ENDBRANCH   2   9
TORSDOF 7
ENDMDL
MODEL      109
REMARK 921   NORMALIZED FREE ENERGY PREDICTED BY IDOCK:   -5.14 KCAL/MOL
REMARK 922        TOTAL FREE ENERGY PREDICTED BY IDOCK:   -8.10 KCAL/MOL
REMARK 923 INTER-LIGAND FREE ENERGY PREDICTED BY IDOCK:   -7.33 KCAL/MOL
REMARK 924 INTRA-LIGAND FREE ENERGY PREDICTED BY IDOCK:   -0.76 KCAL/MOL
REMARK 927      BINDING AFFINITY PREDICTED BY RF-SCORE:    0.00 PKD
ROOT
HETATM    1  C   UNL     1     -10.365  15.133  69.209  1.00  0.00    -0.257 C  
HETATM    2  N   UNL     1     -11.366  14.065  69.211  1.00  0.00    -0.261 NA 
ENDROOT
BRANCH   2   3
HETATM    3  C   UNL     1     -12.291  14.196  70.267  1.00  0.00    -0.356 A  
HETATM    4  C   UNL     1     -13.704  15.486  71.586  1.00  0.00    -0.466 A  
HETATM    5  C   UNL     1     -14.056  14.420  72.393  1.00  0.00    -0.544 A  
HETATM    6  C   UNL     1     -12.605  13.077  71.041  1.00  0.00    -0.386 A  
HETATM    7  C   UNL     1     -13.490  13.189  72.113  1.00  0.00    -0.653 A  
HETATM    8  N   UNL     1     -12.843  15.398  70.546  1.00  0.00    -0.413 NA 
ENDBRANCH   2   3
BRANCH   2   9
HETATM    9  C   UNL     1     -12.000  13.822  67.898  1.00  0.00    -0.356 C  
BRANCH   9  10
HETATM   10  C   UNL     1     -11.478  12.538  67.236  1.00  0.00    -0.353 C  
BRANCH  10  11
HETATM   11  O   UNL     1     -12.092  11.362  67.780  1.00  0.00    -0.637 OA 
BRANCH  11  12
HETATM   12  C   UNL     1     -11.218  10.443  68.310  1.00  0.00    -0.267 A  
HETATM   13  C   UNL     1      -9.661   8.587  68.205  1.00  0.00    -0.156 A  
HETATM   14  C   UNL     1     -10.466   9.532  67.568  1.00  0.00    -0.336 A  
HETATM   15  C   UNL     1      -9.578   8.542  69.601  1.00  0.00    -0.170 A  
HETATM   16  C   UNL     1     -10.289   9.493  70.345  1.00  0.00    -0.334 A  
HETATM   17  C   UNL     1     -11.105  10.436  69.706  1.00  0.00    -0.352 A  
BRANCH  15  18
HETATM   18  C   UNL     1      -8.806   7.436  70.272  1.00  0.00    -0.147 C  
BRANCH  18  19
HETATM   19  C   UNL     1      -9.023   6.007  69.781  1.00  0.00    -0.133 C  
HETATM   20  S   UNL     1      -7.546   4.990  69.464  1.00  0.00    -0.057 SA 
HETATM   21  C   UNL     1      -8.373   3.532  69.960  1.00  0.00    -0.052 C  
HETATM   22  N   UNL     1      -9.506   3.846  70.632  1.00  0.00    -0.159 N  
HETATM   23  O   UNL     1      -7.981   2.405  69.709  1.00  0.00    -0.042 OA 
HETATM   24  C   UNL     1      -9.901   5.152  70.671  1.00  0.00    -0.205 C  
HETATM   25  H   UNL     1     -10.052   3.123  71.100  1.00  0.00     0.000 HD 
HETATM   26  O   UNL     1     -10.896   5.539  71.269  1.00  0.00    -0.242 OA 
ENDBRANCH  18  19
ENDBRANCH  15  18
ENDBRANCH  11  12
ENDBRANCH  10  11
ENDBRANCH   9  10
ENDBRANCH   2   9
TORSDOF 7
ENDMDL
MODEL      110
REMARK 921   NORMALIZED FREE ENERGY PREDICTED BY IDOCK:   -5.13 KCAL/MOL
REMARK 922        TOTAL FREE ENERGY PREDICTED BY IDOCK:   -8.08 KCAL/MOL
REMARK 923 INTER-LIGAND FREE ENERGY PREDICTED BY IDOCK:   -7.43 KCAL/MOL
REMARK 924 INTRA-LIGAND FREE ENERGY PREDICTED BY IDOCK:   -0.64 KCAL/MOL
REMARK 927      BINDING AFFINITY PREDICTED BY RF-SCORE:    0.00 PKD
ROOT
HETATM    1  C   UNL     1      -9.706   8.511  66.994  1.00  0.00    -0.204 C  
HETATM    2  N   UNL     1     -10.534   8.868  68.146  1.00  0.00    -0.219 NA 
ENDROOT
BRANCH   2   3
HETATM    3  C   UNL     1     -10.488   7.893  69.164  1.00  0.00    -0.209 A  
HETATM    4  C   UNL     1     -10.950   5.759  69.959  1.00  0.00    -0.311 A  
HETATM    5  C   UNL     1     -10.435   6.027  71.213  1.00  0.00    -0.283 A  
HETATM    6  C   UNL     1      -9.951   8.230  70.407  1.00  0.00    -0.196 A  
HETATM    7  C   UNL     1      -9.926   7.294  71.440  1.00  0.00    -0.193 A  
HETATM    8  N   UNL     1     -10.988   6.656  68.946  1.00  0.00    -0.272 NA 
ENDBRANCH   2   3
BRANCH   2   9
HETATM    9  C   UNL     1     -10.332  10.246  68.639  1.00  0.00    -0.184 C  
BRANCH   9  10
HETATM   10  C   UNL     1     -11.618  11.081  68.558  1.00  0.00    -0.310 C  
BRANCH  10  11
HETATM   11  O   UNL     1     -11.968  11.401  67.203  1.00  0.00    -0.532 OA 
BRANCH  11  12
HETATM   12  C   UNL     1     -11.588  12.655  66.787  1.00  0.00    -0.374 A  
HETATM   13  C   UNL     1     -10.321  14.228  65.446  1.00  0.00    -0.391 A  
HETATM   14  C   UNL     1     -10.701  12.919  65.744  1.00  0.00    -0.293 A  
HETATM   15  C   UNL     1     -10.832  15.306  66.177  1.00  0.00    -0.320 A  
HETATM   16  C   UNL     1     -11.767  15.046  67.189  1.00  0.00    -0.227 A  
HETATM   17  C   UNL     1     -12.141  13.730  67.494  1.00  0.00    -0.366 A  
BRANCH  15  18
HETATM   18  C   UNL     1     -10.313  16.698  65.926  1.00  0.00    -0.355 C  
BRANCH  18  19
HETATM   19  C   UNL     1      -9.808  17.503  67.120  1.00  0.00    -0.297 C  
HETATM   20  S   UNL     1      -8.224  17.002  67.867  1.00  0.00    -0.204 SA 
HETATM   21  C   UNL     1      -7.829  18.655  68.277  1.00  0.00    -0.307 C  
HETATM   22  N   UNL     1      -8.632  19.508  67.595  1.00  0.00    -0.307 N  
HETATM   23  O   UNL     1      -6.967  18.973  69.077  1.00  0.00    -0.303 OA 
HETATM   24  C   UNL     1      -9.671  18.990  66.876  1.00  0.00    -0.324 C  
HETATM   25  H   UNL     1      -8.464  20.513  67.619  1.00  0.00     0.000 HD 
HETATM   26  O   UNL     1     -10.438  19.675  66.212  1.00  0.00    -0.454 OA 
ENDBRANCH  18  19
ENDBRANCH  15  18
ENDBRANCH  11  12
ENDBRANCH  10  11
ENDBRANCH   9  10
ENDBRANCH   2   9
TORSDOF 7
ENDMDL
MODEL      111
REMARK 921   NORMALIZED FREE ENERGY PREDICTED BY IDOCK:   -5.12 KCAL/MOL
REMARK 922        TOTAL FREE ENERGY PREDICTED BY IDOCK:   -8.07 KCAL/MOL
REMARK 923 INTER-LIGAND FREE ENERGY PREDICTED BY IDOCK:   -7.42 KCAL/MOL
REMARK 924 INTRA-LIGAND FREE ENERGY PREDICTED BY IDOCK:   -0.65 KCAL/MOL
REMARK 927      BINDING AFFINITY PREDICTED BY RF-SCORE:    0.00 PKD
ROOT
HETATM    1  C   UNL     1     -10.639  11.102  66.413  1.00  0.00    -0.261 C  
HETATM    2  N   UNL     1     -11.558  11.479  67.487  1.00  0.00    -0.544 NA 
ENDROOT
BRANCH   2   3
HETATM    3  C   UNL     1     -11.311  10.769  68.681  1.00  0.00    -0.291 A  
HETATM    4  C   UNL     1     -10.209   9.103  69.865  1.00  0.00    -0.205 A  
HETATM    5  C   UNL     1     -10.904   9.359  71.032  1.00  0.00    -0.406 A  
HETATM    6  C   UNL     1     -12.048  11.083  69.825  1.00  0.00    -0.424 A  
HETATM    7  C   UNL     1     -11.847  10.373  71.008  1.00  0.00    -0.458 A  
HETATM    8  N   UNL     1     -10.394   9.777  68.707  1.00  0.00    -0.200 NA 
ENDBRANCH   2   3
BRANCH   2   9
HETATM    9  C   UNL     1     -11.698  12.936  67.685  1.00  0.00    -0.370 C  
BRANCH   9  10
HETATM   10  C   UNL     1     -10.359  13.672  67.526  1.00  0.00    -0.241 C  
BRANCH  10  11
HETATM   11  O   UNL     1      -9.828  14.104  68.787  1.00  0.00    -0.224 OA 
BRANCH  11  12
HETATM   12  C   UNL     1      -9.222  15.338  68.769  1.00  0.00    -0.203 A  
HETATM   13  C   UNL     1      -7.361  16.869  69.035  1.00  0.00    -0.231 A  
HETATM   14  C   UNL     1      -7.867  15.569  69.001  1.00  0.00    -0.201 A  
HETATM   15  C   UNL     1      -8.198  17.968  68.822  1.00  0.00    -0.229 A  
HETATM   16  C   UNL     1      -9.550  17.735  68.532  1.00  0.00    -0.322 A  
HETATM   17  C   UNL     1     -10.060  16.429  68.508  1.00  0.00    -0.248 A  
BRANCH  15  18
HETATM   18  C   UNL     1      -7.661  19.366  68.988  1.00  0.00    -0.350 C  
BRANCH  18  19
HETATM   19  C   UNL     1      -7.216  20.118  67.738  1.00  0.00    -0.294 C  
HETATM   20  S   UNL     1      -5.927  19.350  66.705  1.00  0.00    -0.163 SA 
HETATM   21  C   UNL     1      -6.619  20.016  65.244  1.00  0.00    -0.294 C  
HETATM   22  N   UNL     1      -7.879  20.453  65.485  1.00  0.00    -0.467 N  
HETATM   23  O   UNL     1      -6.031  20.086  64.179  1.00  0.00    -0.254 OA 
HETATM   24  C   UNL     1      -8.328  20.470  66.774  1.00  0.00    -0.137 C  
HETATM   25  H   UNL     1      -8.478  20.761  64.720  1.00  0.00     0.000 HD 
HETATM   26  O   UNL     1      -9.456  20.827  67.090  1.00  0.00    -0.405 OA 
ENDBRANCH  18  19
ENDBRANCH  15  18
ENDBRANCH  11  12
ENDBRANCH  10  11
ENDBRANCH   9  10
ENDBRANCH   2   9
TORSDOF 7
ENDMDL
MODEL      112
REMARK 921   NORMALIZED FREE ENERGY PREDICTED BY IDOCK:   -5.11 KCAL/MOL
REMARK 922        TOTAL FREE ENERGY PREDICTED BY IDOCK:   -8.05 KCAL/MOL
REMARK 923 INTER-LIGAND FREE ENERGY PREDICTED BY IDOCK:   -7.28 KCAL/MOL
REMARK 924 INTRA-LIGAND FREE ENERGY PREDICTED BY IDOCK:   -0.77 KCAL/MOL
REMARK 927      BINDING AFFINITY PREDICTED BY RF-SCORE:    0.00 PKD
ROOT
HETATM    1  C   UNL     1     -12.727  14.080  65.288  1.00  0.00    -0.439 C  
HETATM    2  N   UNL     1     -11.658  13.620  66.174  1.00  0.00    -0.334 NA 
ENDROOT
BRANCH   2   3
HETATM    3  C   UNL     1     -11.685  14.262  67.430  1.00  0.00    -0.394 A  
HETATM    4  C   UNL     1     -11.410  16.149  68.755  1.00  0.00    -0.359 A  
HETATM    5  C   UNL     1     -11.689  15.468  69.925  1.00  0.00    -0.368 A  
HETATM    6  C   UNL     1     -11.978  13.513  68.572  1.00  0.00    -0.379 A  
HETATM    7  C   UNL     1     -11.978  14.118  69.828  1.00  0.00    -0.396 A  
HETATM    8  N   UNL     1     -11.400  15.579  67.529  1.00  0.00    -0.282 NA 
ENDBRANCH   2   3
BRANCH   2   9
HETATM    9  C   UNL     1     -11.531  12.150  66.265  1.00  0.00    -0.374 C  
BRANCH   9  10
HETATM   10  C   UNL     1     -10.180  11.654  65.728  1.00  0.00    -0.240 C  
BRANCH  10  11
HETATM   11  O   UNL     1      -9.315  11.205  66.781  1.00  0.00    -0.172 OA 
BRANCH  11  12
HETATM   12  C   UNL     1      -9.677  10.012  67.361  1.00  0.00    -0.161 A  
HETATM   13  C   UNL     1     -10.441   7.711  67.344  1.00  0.00    -0.367 A  
HETATM   14  C   UNL     1     -10.013   8.852  66.664  1.00  0.00    -0.346 A  
HETATM   15  C   UNL     1     -10.527   7.701  68.740  1.00  0.00    -0.208 A  
HETATM   16  C   UNL     1     -10.135   8.848  69.444  1.00  0.00    -0.202 A  
HETATM   17  C   UNL     1      -9.715   9.997  68.760  1.00  0.00    -0.174 A  
BRANCH  15  18
HETATM   18  C   UNL     1     -11.111   6.505  69.448  1.00  0.00    -0.407 C  
BRANCH  18  19
HETATM   19  C   UNL     1     -10.542   6.132  70.814  1.00  0.00    -0.242 C  
HETATM   20  S   UNL     1     -11.622   6.348  72.266  1.00  0.00    -0.281 SA 
HETATM   21  C   UNL     1     -10.912   4.968  73.071  1.00  0.00    -0.295 C  
HETATM   22  N   UNL     1     -10.209   4.223  72.184  1.00  0.00    -0.183 N  
HETATM   23  O   UNL     1     -11.029   4.737  74.262  1.00  0.00    -0.328 OA 
HETATM   24  C   UNL     1     -10.023   4.714  70.924  1.00  0.00    -0.203 C  
HETATM   25  H   UNL     1      -9.827   3.317  72.452  1.00  0.00     0.000 HD 
HETATM   26  O   UNL     1      -9.420   4.109  70.046  1.00  0.00    -0.153 OA 
ENDBRANCH  18  19
ENDBRANCH  15  18
ENDBRANCH  11  12
ENDBRANCH  10  11
ENDBRANCH   9  10
ENDBRANCH   2   9
TORSDOF 7
ENDMDL
MODEL      113
REMARK 921   NORMALIZED FREE ENERGY PREDICTED BY IDOCK:   -5.09 KCAL/MOL
REMARK 922        TOTAL FREE ENERGY PREDICTED BY IDOCK:   -8.03 KCAL/MOL
REMARK 923 INTER-LIGAND FREE ENERGY PREDICTED BY IDOCK:   -7.45 KCAL/MOL
REMARK 924 INTRA-LIGAND FREE ENERGY PREDICTED BY IDOCK:   -0.58 KCAL/MOL
REMARK 927      BINDING AFFINITY PREDICTED BY RF-SCORE:    0.00 PKD
ROOT
HETATM    1  C   UNL     1      -9.233  15.722  69.006  1.00  0.00    -0.243 C  
HETATM    2  N   UNL     1     -10.384  16.184  68.230  1.00  0.00    -0.257 NA 
ENDROOT
BRANCH   2   3
HETATM    3  C   UNL     1     -10.288  17.548  67.884  1.00  0.00    -0.371 A  
HETATM    4  C   UNL     1     -10.051  19.233  66.303  1.00  0.00    -0.442 A  
HETATM    5  C   UNL     1     -10.039  20.236  67.255  1.00  0.00    -0.545 A  
HETATM    6  C   UNL     1     -10.285  18.509  68.897  1.00  0.00    -0.269 A  
HETATM    7  C   UNL     1     -10.157  19.861  68.582  1.00  0.00    -0.518 A  
HETATM    8  N   UNL     1     -10.169  17.916  66.589  1.00  0.00    -0.356 NA 
ENDBRANCH   2   3
BRANCH   2   9
HETATM    9  C   UNL     1     -10.743  15.311  67.093  1.00  0.00    -0.316 C  
BRANCH   9  10
HETATM   10  C   UNL     1     -11.971  14.441  67.400  1.00  0.00    -0.373 C  
BRANCH  10  11
HETATM   11  O   UNL     1     -12.132  13.381  66.446  1.00  0.00    -0.404 OA 
BRANCH  11  12
HETATM   12  C   UNL     1     -11.631  12.163  66.842  1.00  0.00    -0.341 A  
HETATM   13  C   UNL     1     -11.097  10.434  68.456  1.00  0.00    -0.318 A  
HETATM   14  C   UNL     1     -11.703  11.650  68.136  1.00  0.00    -0.365 A  
HETATM   15  C   UNL     1     -10.417   9.697  67.481  1.00  0.00    -0.321 A  
HETATM   16  C   UNL     1     -10.392  10.185  66.167  1.00  0.00    -0.237 A  
HETATM   17  C   UNL     1     -10.993  11.410  65.849  1.00  0.00    -0.268 A  
BRANCH  15  18
HETATM   18  C   UNL     1      -9.661   8.453  67.871  1.00  0.00    -0.189 C  
BRANCH  18  19
HETATM   19  C   UNL     1      -9.989   7.154  67.140  1.00  0.00    -0.209 C  
HETATM   20  S   UNL     1      -8.634   6.318  66.255  1.00  0.00    -0.143 SA 
HETATM   21  C   UNL     1      -9.306   4.741  66.596  1.00  0.00    -0.143 C  
HETATM   22  N   UNL     1     -10.237   4.835  67.576  1.00  0.00    -0.106 N  
HETATM   23  O   UNL     1      -8.985   3.721  66.012  1.00  0.00    -0.124 OA 
HETATM   24  C   UNL     1     -10.614   6.077  68.001  1.00  0.00    -0.262 C  
HETATM   25  H   UNL     1     -10.646   3.997  67.988  1.00  0.00     0.000 HD 
HETATM   26  O   UNL     1     -11.430   6.266  68.893  1.00  0.00    -0.331 OA 
ENDBRANCH  18  19
ENDBRANCH  15  18
ENDBRANCH  11  12
ENDBRANCH  10  11
ENDBRANCH   9  10
ENDBRANCH   2   9
TORSDOF 7
ENDMDL
MODEL      114
REMARK 921   NORMALIZED FREE ENERGY PREDICTED BY IDOCK:   -5.09 KCAL/MOL
REMARK 922        TOTAL FREE ENERGY PREDICTED BY IDOCK:   -8.02 KCAL/MOL
REMARK 923 INTER-LIGAND FREE ENERGY PREDICTED BY IDOCK:   -7.45 KCAL/MOL
REMARK 924 INTRA-LIGAND FREE ENERGY PREDICTED BY IDOCK:   -0.57 KCAL/MOL
REMARK 927      BINDING AFFINITY PREDICTED BY RF-SCORE:    0.00 PKD
ROOT
HETATM    1  C   UNL     1     -11.123  15.970  64.845  1.00  0.00    -0.370 C  
HETATM    2  N   UNL     1     -10.258  16.099  66.019  1.00  0.00    -0.336 NA 
ENDROOT
BRANCH   2   3
HETATM    3  C   UNL     1     -10.195  17.424  66.499  1.00  0.00    -0.329 A  
HETATM    4  C   UNL     1     -10.128  19.717  66.135  1.00  0.00    -0.499 A  
HETATM    5  C   UNL     1     -10.006  20.009  67.481  1.00  0.00    -0.565 A  
HETATM    6  C   UNL     1     -10.077  17.646  67.872  1.00  0.00    -0.345 A  
HETATM    7  C   UNL     1      -9.978  18.946  68.368  1.00  0.00    -0.447 A  
HETATM    8  N   UNL     1     -10.219  18.464  65.635  1.00  0.00    -0.538 NA 
ENDBRANCH   2   3
BRANCH   2   9
HETATM    9  C   UNL     1     -10.513  15.100  67.076  1.00  0.00    -0.282 C  
BRANCH   9  10
HETATM   10  C   UNL     1     -11.748  14.239  66.771  1.00  0.00    -0.405 C  
BRANCH  10  11
HETATM   11  O   UNL     1     -12.156  13.461  67.905  1.00  0.00    -0.338 OA 
BRANCH  11  12
HETATM   12  C   UNL     1     -11.633  12.191  67.956  1.00  0.00    -0.348 A  
HETATM   13  C   UNL     1     -10.665  10.181  67.005  1.00  0.00    -0.264 A  
HETATM   14  C   UNL     1     -11.105  11.498  66.867  1.00  0.00    -0.366 A  
HETATM   15  C   UNL     1     -10.731   9.531  68.243  1.00  0.00    -0.241 A  
HETATM   16  C   UNL     1     -11.209  10.246  69.350  1.00  0.00    -0.292 A  
HETATM   17  C   UNL     1     -11.659  11.565  69.208  1.00  0.00    -0.388 A  
BRANCH  15  18
HETATM   18  C   UNL     1     -10.372   8.071  68.345  1.00  0.00    -0.236 C  
BRANCH  18  19
HETATM   19  C   UNL     1      -9.368   7.506  67.345  1.00  0.00    -0.140 C  
HETATM   20  S   UNL     1      -7.597   7.703  67.723  1.00  0.00    -0.119 SA 
HETATM   21  C   UNL     1      -7.206   6.181  66.958  1.00  0.00    -0.074 C  
HETATM   22  N   UNL     1      -8.332   5.450  66.773  1.00  0.00    -0.108 N  
HETATM   23  O   UNL     1      -6.080   5.852  66.628  1.00  0.00    -0.024 OA 
HETATM   24  C   UNL     1      -9.538   6.035  67.030  1.00  0.00    -0.133 C  
HETATM   25  H   UNL     1      -8.279   4.485  66.449  1.00  0.00     0.000 HD 
HETATM   26  O   UNL     1     -10.609   5.453  66.914  1.00  0.00    -0.264 OA 
ENDBRANCH  18  19
ENDBRANCH  15  18
ENDBRANCH  11  12
ENDBRANCH  10  11
ENDBRANCH   9  10
ENDBRANCH   2   9
TORSDOF 7
ENDMDL
MODEL      115
REMARK 921   NORMALIZED FREE ENERGY PREDICTED BY IDOCK:   -5.08 KCAL/MOL
REMARK 922        TOTAL FREE ENERGY PREDICTED BY IDOCK:   -8.01 KCAL/MOL
REMARK 923 INTER-LIGAND FREE ENERGY PREDICTED BY IDOCK:   -7.26 KCAL/MOL
REMARK 924 INTRA-LIGAND FREE ENERGY PREDICTED BY IDOCK:   -0.76 KCAL/MOL
REMARK 927      BINDING AFFINITY PREDICTED BY RF-SCORE:    0.00 PKD
ROOT
HETATM    1  C   UNL     1     -11.708  12.965  69.391  1.00  0.00    -0.321 C  
HETATM    2  N   UNL     1     -11.999  14.397  69.463  1.00  0.00    -0.315 NA 
ENDROOT
BRANCH   2   3
HETATM    3  C   UNL     1     -12.421  14.797  70.748  1.00  0.00    -0.337 A  
HETATM    4  C   UNL     1     -13.852  14.610  72.568  1.00  0.00    -0.458 A  
HETATM    5  C   UNL     1     -13.257  15.658  73.247  1.00  0.00    -0.666 A  
HETATM    6  C   UNL     1     -11.772  15.861  71.378  1.00  0.00    -0.530 A  
HETATM    7  C   UNL     1     -12.193  16.298  72.633  1.00  0.00    -0.581 A  
HETATM    8  N   UNL     1     -13.461  14.177  71.348  1.00  0.00    -0.338 NA 
ENDBRANCH   2   3
BRANCH   2   9
HETATM    9  C   UNL     1     -10.946  15.262  68.892  1.00  0.00    -0.261 C  
BRANCH   9  10
HETATM   10  C   UNL     1     -11.280  15.706  67.460  1.00  0.00    -0.245 C  
BRANCH  10  11
HETATM   11  O   UNL     1     -10.274  15.299  66.521  1.00  0.00    -0.260 OA 
BRANCH  11  12
HETATM   12  C   UNL     1     -10.155  13.940  66.352  1.00  0.00    -0.295 A  
HETATM   13  C   UNL     1      -8.982  11.818  66.412  1.00  0.00    -0.201 A  
HETATM   14  C   UNL     1      -9.034  13.184  66.693  1.00  0.00    -0.135 A  
HETATM   15  C   UNL     1     -10.059  11.174  65.794  1.00  0.00    -0.299 A  
HETATM   16  C   UNL     1     -11.209  11.921  65.501  1.00  0.00    -0.353 A  
HETATM   17  C   UNL     1     -11.257  13.294  65.776  1.00  0.00    -0.313 A  
BRANCH  15  18
HETATM   18  C   UNL     1      -9.935   9.730  65.382  1.00  0.00    -0.302 C  
BRANCH  18  19
HETATM   19  C   UNL     1      -9.355   8.743  66.390  1.00  0.00    -0.204 C  
HETATM   20  S   UNL     1     -10.526   7.731  67.351  1.00  0.00    -0.286 SA 
HETATM   21  C   UNL     1      -9.415   6.382  67.393  1.00  0.00    -0.116 C  
HETATM   22  N   UNL     1      -8.436   6.557  66.473  1.00  0.00    -0.116 N  
HETATM   23  O   UNL     1      -9.513   5.440  68.161  1.00  0.00    -0.111 OA 
HETATM   24  C   UNL     1      -8.364   7.752  65.818  1.00  0.00    -0.137 C  
HETATM   25  H   UNL     1      -7.769   5.812  66.275  1.00  0.00     0.000 HD 
HETATM   26  O   UNL     1      -7.530   7.999  64.956  1.00  0.00    -0.078 OA 
ENDBRANCH  18  19
ENDBRANCH  15  18
ENDBRANCH  11  12
ENDBRANCH  10  11
ENDBRANCH   9  10
ENDBRANCH   2   9
TORSDOF 7
ENDMDL
MODEL      116
REMARK 921   NORMALIZED FREE ENERGY PREDICTED BY IDOCK:   -5.06 KCAL/MOL
REMARK 922        TOTAL FREE ENERGY PREDICTED BY IDOCK:   -7.98 KCAL/MOL
REMARK 923 INTER-LIGAND FREE ENERGY PREDICTED BY IDOCK:   -7.46 KCAL/MOL
REMARK 924 INTRA-LIGAND FREE ENERGY PREDICTED BY IDOCK:   -0.52 KCAL/MOL
REMARK 927      BINDING AFFINITY PREDICTED BY RF-SCORE:    0.00 PKD
ROOT
HETATM    1  C   UNL     1     -11.981  13.037  63.384  1.00  0.00    -0.520 C  
HETATM    2  N   UNL     1     -11.893  12.009  64.421  1.00  0.00    -0.336 NA 
ENDROOT
BRANCH   2   3
HETATM    3  C   UNL     1     -10.760  11.182  64.266  1.00  0.00    -0.333 A  
HETATM    4  C   UNL     1      -9.164  10.151  62.931  1.00  0.00    -0.296 A  
HETATM    5  C   UNL     1      -8.573   9.501  63.998  1.00  0.00    -0.222 A  
HETATM    6  C   UNL     1     -10.212  10.559  65.388  1.00  0.00    -0.340 A  
HETATM    7  C   UNL     1      -9.114   9.710  65.255  1.00  0.00    -0.269 A  
HETATM    8  N   UNL     1     -10.232  10.973  63.039  1.00  0.00    -0.257 NA 
ENDBRANCH   2   3
BRANCH   2   9
HETATM    9  C   UNL     1     -12.069  12.514  65.798  1.00  0.00    -0.378 C  
BRANCH   9  10
HETATM   10  C   UNL     1     -12.168  14.046  65.841  1.00  0.00    -0.456 C  
BRANCH  10  11
HETATM   11  O   UNL     1     -12.069  14.555  67.179  1.00  0.00    -0.397 OA 
BRANCH  11  12
HETATM   12  C   UNL     1     -10.818  14.998  67.540  1.00  0.00    -0.297 A  
HETATM   13  C   UNL     1      -9.128  15.751  69.108  1.00  0.00    -0.262 A  
HETATM   14  C   UNL     1     -10.396  15.229  68.849  1.00  0.00    -0.243 A  
HETATM   15  C   UNL     1      -8.246  16.039  68.061  1.00  0.00    -0.151 A  
HETATM   16  C   UNL     1      -8.648  15.754  66.748  1.00  0.00    -0.306 A  
HETATM   17  C   UNL     1      -9.925  15.239  66.488  1.00  0.00    -0.278 A  
BRANCH  15  18
HETATM   18  C   UNL     1      -6.933  16.720  68.350  1.00  0.00    -0.170 C  
BRANCH  18  19
HETATM   19  C   UNL     1      -6.676  18.084  67.717  1.00  0.00    -0.199 C  
HETATM   20  S   UNL     1      -6.200  18.122  65.959  1.00  0.00    -0.253 SA 
HETATM   21  C   UNL     1      -7.027  19.641  65.708  1.00  0.00    -0.293 C  
HETATM   22  N   UNL     1      -7.868  19.889  66.741  1.00  0.00    -0.289 N  
HETATM   23  O   UNL     1      -6.846  20.368  64.746  1.00  0.00    -0.285 OA 
HETATM   24  C   UNL     1      -7.822  19.067  67.831  1.00  0.00    -0.271 C  
HETATM   25  H   UNL     1      -8.521  20.671  66.706  1.00  0.00     0.000 HD 
HETATM   26  O   UNL     1      -8.553  19.195  68.804  1.00  0.00    -0.359 OA 
ENDBRANCH  18  19
ENDBRANCH  15  18
ENDBRANCH  11  12
ENDBRANCH  10  11
ENDBRANCH   9  10
ENDBRANCH   2   9
TORSDOF 7
ENDMDL
MODEL      117
REMARK 921   NORMALIZED FREE ENERGY PREDICTED BY IDOCK:   -5.06 KCAL/MOL
REMARK 922        TOTAL FREE ENERGY PREDICTED BY IDOCK:   -7.98 KCAL/MOL
REMARK 923 INTER-LIGAND FREE ENERGY PREDICTED BY IDOCK:   -7.38 KCAL/MOL
REMARK 924 INTRA-LIGAND FREE ENERGY PREDICTED BY IDOCK:   -0.60 KCAL/MOL
REMARK 927      BINDING AFFINITY PREDICTED BY RF-SCORE:    0.00 PKD
ROOT
HETATM    1  C   UNL     1     -10.707  15.843  66.194  1.00  0.00    -0.271 C  
HETATM    2  N   UNL     1     -11.391  14.610  66.584  1.00  0.00    -0.350 NA 
ENDROOT
BRANCH   2   3
HETATM    3  C   UNL     1     -11.593  13.737  65.494  1.00  0.00    -0.326 A  
HETATM    4  C   UNL     1     -12.994  12.622  64.015  1.00  0.00    -0.036 A  
HETATM    5  C   UNL     1     -11.948  11.968  63.390  1.00  0.00    -0.571 A  
HETATM    6  C   UNL     1     -10.490  13.113  64.908  1.00  0.00    -0.369 A  
HETATM    7  C   UNL     1     -10.667  12.221  63.852  1.00  0.00    -0.463 A  
HETATM    8  N   UNL     1     -12.843  13.486  65.044  1.00  0.00    -0.727 NA 
ENDBRANCH   2   3
BRANCH   2   9
HETATM    9  C   UNL     1     -10.820  13.945  67.774  1.00  0.00    -0.250 C  
BRANCH   9  10
HETATM   10  C   UNL     1     -11.902  13.294  68.646  1.00  0.00    -0.345 C  
BRANCH  10  11
HETATM   11  O   UNL     1     -12.395  12.075  68.073  1.00  0.00    -0.329 OA 
BRANCH  11  12
HETATM   12  C   UNL     1     -11.671  10.950  68.392  1.00  0.00    -0.218 A  
HETATM   13  C   UNL     1     -10.203   9.081  67.912  1.00  0.00    -0.272 A  
HETATM   14  C   UNL     1     -10.838  10.258  67.514  1.00  0.00    -0.355 A  
HETATM   15  C   UNL     1     -10.376   8.577  69.206  1.00  0.00    -0.227 A  
HETATM   16  C   UNL     1     -11.169   9.302  70.107  1.00  0.00    -0.237 A  
HETATM   17  C   UNL     1     -11.814  10.479  69.703  1.00  0.00    -0.306 A  
BRANCH  15  18
HETATM   18  C   UNL     1      -9.787   7.241  69.577  1.00  0.00    -0.163 C  
BRANCH  18  19
HETATM   19  C   UNL     1      -9.206   7.077  70.979  1.00  0.00    -0.155 C  
HETATM   20  S   UNL     1      -8.090   8.381  71.588  1.00  0.00    -0.153 SA 
HETATM   21  C   UNL     1      -8.643   8.165  73.232  1.00  0.00    -0.242 C  
HETATM   22  N   UNL     1      -9.795   7.453  73.246  1.00  0.00    -0.243 N  
HETATM   23  O   UNL     1      -8.052   8.586  74.212  1.00  0.00    -0.337 OA 
HETATM   24  C   UNL     1     -10.231   6.897  72.078  1.00  0.00    -0.187 C  
HETATM   25  H   UNL     1     -10.324   7.335  74.109  1.00  0.00     0.000 HD 
HETATM   26  O   UNL     1     -11.269   6.254  71.983  1.00  0.00    -0.252 OA 
ENDBRANCH  18  19
ENDBRANCH  15  18
ENDBRANCH  11  12
ENDBRANCH  10  11
ENDBRANCH   9  10
ENDBRANCH   2   9
TORSDOF 7
ENDMDL
MODEL      118
REMARK 921   NORMALIZED FREE ENERGY PREDICTED BY IDOCK:   -5.06 KCAL/MOL
REMARK 922        TOTAL FREE ENERGY PREDICTED BY IDOCK:   -7.98 KCAL/MOL
REMARK 923 INTER-LIGAND FREE ENERGY PREDICTED BY IDOCK:   -7.18 KCAL/MOL
REMARK 924 INTRA-LIGAND FREE ENERGY PREDICTED BY IDOCK:   -0.80 KCAL/MOL
REMARK 927      BINDING AFFINITY PREDICTED BY RF-SCORE:    0.00 PKD
ROOT
HETATM    1  C   UNL     1      -7.970   9.340  69.843  1.00  0.00    -0.113 C  
HETATM    2  N   UNL     1      -8.536   7.998  69.704  1.00  0.00    -0.134 NA 
ENDROOT
BRANCH   2   3
HETATM    3  C   UNL     1      -9.722   7.834  70.450  1.00  0.00    -0.179 A  
HETATM    4  C   UNL     1     -11.116   8.429  72.211  1.00  0.00    -0.368 A  
HETATM    5  C   UNL     1     -12.033   7.435  71.927  1.00  0.00    -0.337 A  
HETATM    6  C   UNL     1     -10.607   6.810  70.107  1.00  0.00    -0.254 A  
HETATM    7  C   UNL     1     -11.769   6.606  70.850  1.00  0.00    -0.431 A  
HETATM    8  N   UNL     1      -9.981   8.639  71.505  1.00  0.00    -0.245 NA 
ENDBRANCH   2   3
BRANCH   2   9
HETATM    9  C   UNL     1      -8.646   7.524  68.309  1.00  0.00    -0.124 C  
BRANCH   9  10
HETATM   10  C   UNL     1      -9.083   8.643  67.353  1.00  0.00    -0.133 C  
BRANCH  10  11
HETATM   11  O   UNL     1     -10.491   8.901  67.432  1.00  0.00    -0.258 OA 
BRANCH  11  12
HETATM   12  C   UNL     1     -10.831  10.224  67.596  1.00  0.00    -0.307 A  
HETATM   13  C   UNL     1     -11.847  12.098  68.752  1.00  0.00    -0.356 A  
HETATM   14  C   UNL     1     -11.477  10.753  68.712  1.00  0.00    -0.364 A  
HETATM   15  C   UNL     1     -11.563  12.949  67.678  1.00  0.00    -0.406 A  
HETATM   16  C   UNL     1     -10.862  12.431  66.580  1.00  0.00    -0.284 A  
HETATM   17  C   UNL     1     -10.500  11.078  66.537  1.00  0.00    -0.309 A  
BRANCH  15  18
HETATM   18  C   UNL     1     -12.081  14.364  67.684  1.00  0.00    -0.312 C  
BRANCH  18  19
HETATM   19  C   UNL     1     -11.870  15.201  68.942  1.00  0.00    -0.310 C  
HETATM   20  S   UNL     1     -12.887  14.804  70.400  1.00  0.00    -0.210 SA 
HETATM   21  C   UNL     1     -11.597  15.250  71.493  1.00  0.00    -0.396 C  
HETATM   22  N   UNL     1     -10.424  15.331  70.819  1.00  0.00    -0.462 N  
HETATM   23  O   UNL     1     -11.753  15.470  72.681  1.00  0.00    -0.433 OA 
HETATM   24  C   UNL     1     -10.447  15.234  69.457  1.00  0.00    -0.260 C  
HETATM   25  H   UNL     1      -9.544  15.461  71.317  1.00  0.00     0.000 HD 
HETATM   26  O   UNL     1      -9.441  15.274  68.761  1.00  0.00    -0.193 OA 
ENDBRANCH  18  19
ENDBRANCH  15  18
ENDBRANCH  11  12
ENDBRANCH  10  11
ENDBRANCH   9  10
ENDBRANCH   2   9
TORSDOF 7
ENDMDL
MODEL      119
REMARK 921   NORMALIZED FREE ENERGY PREDICTED BY IDOCK:   -5.06 KCAL/MOL
REMARK 922        TOTAL FREE ENERGY PREDICTED BY IDOCK:   -7.98 KCAL/MOL
REMARK 923 INTER-LIGAND FREE ENERGY PREDICTED BY IDOCK:   -7.06 KCAL/MOL
REMARK 924 INTRA-LIGAND FREE ENERGY PREDICTED BY IDOCK:   -0.92 KCAL/MOL
REMARK 927      BINDING AFFINITY PREDICTED BY RF-SCORE:    0.00 PKD
ROOT
HETATM    1  C   UNL     1      -9.385  14.556  67.174  1.00  0.00    -0.218 C  
HETATM    2  N   UNL     1     -10.752  14.549  66.653  1.00  0.00    -0.300 NA 
ENDROOT
BRANCH   2   3
HETATM    3  C   UNL     1     -10.947  13.562  65.664  1.00  0.00    -0.289 A  
HETATM    4  C   UNL     1     -10.360  11.556  64.650  1.00  0.00    -0.297 A  
HETATM    5  C   UNL     1     -11.324  11.678  63.667  1.00  0.00    -0.485 A  
HETATM    6  C   UNL     1     -11.942  13.747  64.703  1.00  0.00    -0.445 A  
HETATM    7  C   UNL     1     -12.131  12.803  63.695  1.00  0.00    -0.624 A  
HETATM    8  N   UNL     1     -10.158  12.465  65.632  1.00  0.00    -0.256 NA 
ENDBRANCH   2   3
BRANCH   2   9
HETATM    9  C   UNL     1     -11.801  14.557  67.694  1.00  0.00    -0.364 C  
BRANCH   9  10
HETATM   10  C   UNL     1     -11.394  13.739  68.928  1.00  0.00    -0.288 C  
BRANCH  10  11
HETATM   11  O   UNL     1     -12.301  12.657  69.180  1.00  0.00    -0.086 OA 
BRANCH  11  12
HETATM   12  C   UNL     1     -11.725  11.529  69.717  1.00  0.00    -0.353 A  
HETATM   13  C   UNL     1     -11.514   9.734  71.333  1.00  0.00    -0.435 A  
HETATM   14  C   UNL     1     -12.214  10.825  70.816  1.00  0.00    -0.480 A  
HETATM   15  C   UNL     1     -10.314   9.313  70.750  1.00  0.00    -0.348 A  
HETATM   16  C   UNL     1      -9.851   9.986  69.610  1.00  0.00    -0.261 A  
HETATM   17  C   UNL     1     -10.549  11.087  69.098  1.00  0.00    -0.253 A  
BRANCH  15  18
HETATM   18  C   UNL     1      -9.508   8.216  71.397  1.00  0.00    -0.211 C  
BRANCH  18  19
HETATM   19  C   UNL     1      -9.415   6.874  70.677  1.00  0.00    -0.165 C  
HETATM   20  S   UNL     1     -10.854   6.340  69.695  1.00  0.00    -0.376 SA 
HETATM   21  C   UNL     1      -9.831   5.532  68.530  1.00  0.00    -0.146 C  
HETATM   22  N   UNL     1      -8.548   5.941  68.675  1.00  0.00    -0.111 N  
HETATM   23  O   UNL     1     -10.231   4.709  67.725  1.00  0.00    -0.078 OA 
HETATM   24  C   UNL     1      -8.232   6.731  69.743  1.00  0.00    -0.127 C  
HETATM   25  H   UNL     1      -7.834   5.665  68.002  1.00  0.00     0.000 HD 
HETATM   26  O   UNL     1      -7.107   7.168  69.950  1.00  0.00    -0.069 OA 
ENDBRANCH  18  19
ENDBRANCH  15  18
ENDBRANCH  11  12
ENDBRANCH  10  11
ENDBRANCH   9  10
ENDBRANCH   2   9
TORSDOF 7
ENDMDL
MODEL      120
REMARK 921   NORMALIZED FREE ENERGY PREDICTED BY IDOCK:   -5.04 KCAL/MOL
REMARK 922        TOTAL FREE ENERGY PREDICTED BY IDOCK:   -7.96 KCAL/MOL
REMARK 923 INTER-LIGAND FREE ENERGY PREDICTED BY IDOCK:   -7.32 KCAL/MOL
REMARK 924 INTRA-LIGAND FREE ENERGY PREDICTED BY IDOCK:   -0.64 KCAL/MOL
REMARK 927      BINDING AFFINITY PREDICTED BY RF-SCORE:    0.00 PKD
ROOT
HETATM    1  C   UNL     1     -10.254  14.657  69.072  1.00  0.00    -0.220 C  
HETATM    2  N   UNL     1     -11.297  13.631  69.110  1.00  0.00    -0.273 NA 
ENDROOT
BRANCH   2   3
HETATM    3  C   UNL     1     -12.165  13.786  70.210  1.00  0.00    -0.359 A  
HETATM    4  C   UNL     1     -13.404  12.899  71.963  1.00  0.00    -0.482 A  
HETATM    5  C   UNL     1     -13.923  14.128  72.326  1.00  0.00    -0.646 A  
HETATM    6  C   UNL     1     -12.649  15.058  70.523  1.00  0.00    -0.420 A  
HETATM    7  C   UNL     1     -13.536  15.231  71.585  1.00  0.00    -0.586 A  
HETATM    8  N   UNL     1     -12.548  12.710  70.934  1.00  0.00    -0.309 NA 
ENDBRANCH   2   3
BRANCH   2   9
HETATM    9  C   UNL     1     -12.000  13.429  67.827  1.00  0.00    -0.324 C  
BRANCH   9  10
HETATM   10  C   UNL     1     -11.412  12.259  67.024  1.00  0.00    -0.354 C  
BRANCH  10  11
HETATM   11  O   UNL     1     -11.764  10.988  67.588  1.00  0.00    -0.576 OA 
BRANCH  11  12
HETATM   12  C   UNL     1     -10.805  10.011  67.462  1.00  0.00    -0.265 A  
HETATM   13  C   UNL     1      -9.228   8.634  66.239  1.00  0.00    -0.257 A  
HETATM   14  C   UNL     1     -10.133   9.696  66.282  1.00  0.00    -0.322 A  
HETATM   15  C   UNL     1      -8.963   7.874  67.382  1.00  0.00    -0.133 A  
HETATM   16  C   UNL     1      -9.595   8.226  68.583  1.00  0.00    -0.152 A  
HETATM   17  C   UNL     1     -10.511   9.286  68.623  1.00  0.00    -0.236 A  
BRANCH  15  18
HETATM   18  C   UNL     1      -8.082   6.655  67.287  1.00  0.00    -0.121 C  
BRANCH  18  19
HETATM   19  C   UNL     1      -8.594   5.459  66.489  1.00  0.00    -0.116 C  
HETATM   20  S   UNL     1     -10.382   5.113  66.542  1.00  0.00    -0.292 SA 
HETATM   21  C   UNL     1     -10.373   4.517  64.898  1.00  0.00    -0.012 C  
HETATM   22  N   UNL     1      -9.228   4.888  64.275  1.00  0.00    -0.345 N  
HETATM   23  O   UNL     1     -11.267   3.849  64.409  1.00  0.00    -0.328 OA 
HETATM   24  C   UNL     1      -8.244   5.477  65.016  1.00  0.00    -0.139 C  
HETATM   25  H   UNL     1      -9.105   4.731  63.276  1.00  0.00     0.000 HD 
HETATM   26  O   UNL     1      -7.184   5.865  64.543  1.00  0.00    -0.058 OA 
ENDBRANCH  18  19
ENDBRANCH  15  18
ENDBRANCH  11  12
ENDBRANCH  10  11
ENDBRANCH   9  10
ENDBRANCH   2   9
TORSDOF 7
ENDMDL
MODEL      121
REMARK 921   NORMALIZED FREE ENERGY PREDICTED BY IDOCK:   -5.04 KCAL/MOL
REMARK 922        TOTAL FREE ENERGY PREDICTED BY IDOCK:   -7.96 KCAL/MOL
REMARK 923 INTER-LIGAND FREE ENERGY PREDICTED BY IDOCK:   -7.16 KCAL/MOL
REMARK 924 INTRA-LIGAND FREE ENERGY PREDICTED BY IDOCK:   -0.81 KCAL/MOL
REMARK 927      BINDING AFFINITY PREDICTED BY RF-SCORE:    0.00 PKD
ROOT
HETATM    1  C   UNL     1     -10.021  15.731  66.057  1.00  0.00    -0.332 C  
HETATM    2  N   UNL     1     -10.827  14.609  66.540  1.00  0.00    -0.309 NA 
ENDROOT
BRANCH   2   3
HETATM    3  C   UNL     1     -11.225  14.770  67.883  1.00  0.00    -0.306 A  
HETATM    4  C   UNL     1     -11.201  15.950  69.884  1.00  0.00    -0.348 A  
HETATM    5  C   UNL     1     -11.981  15.015  70.539  1.00  0.00    -0.358 A  
HETATM    6  C   UNL     1     -12.017  13.788  68.482  1.00  0.00    -0.402 A  
HETATM    7  C   UNL     1     -12.395  13.908  69.818  1.00  0.00    -0.330 A  
HETATM    8  N   UNL     1     -10.819  15.848  68.590  1.00  0.00    -0.274 NA 
ENDBRANCH   2   3
BRANCH   2   9
HETATM    9  C   UNL     1     -11.931  14.219  65.639  1.00  0.00    -0.386 C  
BRANCH   9  10
HETATM   10  C   UNL     1     -11.797  12.767  65.157  1.00  0.00    -0.391 C  
BRANCH  10  11
HETATM   11  O   UNL     1     -10.439  12.308  65.204  1.00  0.00    -0.271 OA 
BRANCH  11  12
HETATM   12  C   UNL     1     -10.267  11.060  65.756  1.00  0.00    -0.260 A  
HETATM   13  C   UNL     1      -9.516   8.755  65.771  1.00  0.00    -0.239 A  
HETATM   14  C   UNL     1      -9.570  10.009  65.162  1.00  0.00    -0.356 A  
HETATM   15  C   UNL     1     -10.147   8.528  66.999  1.00  0.00    -0.347 A  
HETATM   16  C   UNL     1     -10.800   9.600  67.624  1.00  0.00    -0.276 A  
HETATM   17  C   UNL     1     -10.862  10.856  67.007  1.00  0.00    -0.323 A  
BRANCH  15  18
HETATM   18  C   UNL     1     -10.186   7.138  67.578  1.00  0.00    -0.272 C  
BRANCH  18  19
HETATM   19  C   UNL     1     -10.010   6.983  69.086  1.00  0.00    -0.165 C  
HETATM   20  S   UNL     1     -11.472   6.503  70.061  1.00  0.00    -0.376 SA 
HETATM   21  C   UNL     1     -10.492   5.601  71.193  1.00  0.00    -0.241 C  
HETATM   22  N   UNL     1      -9.259   5.388  70.674  1.00  0.00    -0.145 N  
HETATM   23  O   UNL     1     -10.874   5.241  72.293  1.00  0.00    -0.224 OA 
HETATM   24  C   UNL     1      -8.926   6.013  69.506  1.00  0.00    -0.131 C  
HETATM   25  H   UNL     1      -8.593   4.775  71.145  1.00  0.00     0.000 HD 
HETATM   26  O   UNL     1      -7.847   5.869  68.948  1.00  0.00    -0.092 OA 
ENDBRANCH  18  19
ENDBRANCH  15  18
ENDBRANCH  11  12
ENDBRANCH  10  11
ENDBRANCH   9  10
ENDBRANCH   2   9
TORSDOF 7
ENDMDL
MODEL      122
REMARK 921   NORMALIZED FREE ENERGY PREDICTED BY IDOCK:   -5.02 KCAL/MOL
REMARK 922        TOTAL FREE ENERGY PREDICTED BY IDOCK:   -7.93 KCAL/MOL
REMARK 923 INTER-LIGAND FREE ENERGY PREDICTED BY IDOCK:   -7.05 KCAL/MOL
REMARK 924 INTRA-LIGAND FREE ENERGY PREDICTED BY IDOCK:   -0.88 KCAL/MOL
REMARK 927      BINDING AFFINITY PREDICTED BY RF-SCORE:    0.00 PKD
ROOT
HETATM    1  C   UNL     1     -10.706  18.975  67.144  1.00  0.00    -0.456 C  
HETATM    2  N   UNL     1     -10.118  17.705  67.573  1.00  0.00    -0.323 NA 
ENDROOT
BRANCH   2   3
HETATM    3  C   UNL     1      -8.708  17.744  67.594  1.00  0.00    -0.244 A  
HETATM    4  C   UNL     1      -6.708  18.476  68.522  1.00  0.00    -0.255 A  
HETATM    5  C   UNL     1      -5.939  17.845  67.562  1.00  0.00    -0.165 A  
HETATM    6  C   UNL     1      -7.993  17.081  66.595  1.00  0.00    -0.302 A  
HETATM    7  C   UNL     1      -6.600  17.134  66.575  1.00  0.00    -0.277 A  
HETATM    8  N   UNL     1      -8.060  18.441  68.554  1.00  0.00    -0.316 NA 
ENDBRANCH   2   3
BRANCH   2   9
HETATM    9  C   UNL     1     -10.712  17.144  68.804  1.00  0.00    -0.289 C  
BRANCH   9  10
HETATM   10  C   UNL     1     -11.566  15.900  68.516  1.00  0.00    -0.349 C  
BRANCH  10  11
HETATM   11  O   UNL     1     -11.286  15.341  67.225  1.00  0.00    -0.335 OA 
BRANCH  11  12
HETATM   12  C   UNL     1     -10.813  14.050  67.242  1.00  0.00    -0.284 A  
HETATM   13  C   UNL     1      -9.088  12.350  67.361  1.00  0.00    -0.183 A  
HETATM   14  C   UNL     1      -9.481  13.687  67.436  1.00  0.00    -0.225 A  
HETATM   15  C   UNL     1     -10.024  11.343  67.105  1.00  0.00    -0.217 A  
HETATM   16  C   UNL     1     -11.373  11.701  66.966  1.00  0.00    -0.373 A  
HETATM   17  C   UNL     1     -11.765  13.045  67.032  1.00  0.00    -0.441 A  
BRANCH  15  18
HETATM   18  C   UNL     1      -9.563   9.923  66.901  1.00  0.00    -0.225 C  
BRANCH  18  19
HETATM   19  C   UNL     1      -9.615   8.973  68.093  1.00  0.00    -0.148 C  
HETATM   20  S   UNL     1      -9.910   9.698  69.739  1.00  0.00    -0.243 SA 
HETATM   21  C   UNL     1     -10.793   8.284  70.266  1.00  0.00    -0.240 C  
HETATM   22  N   UNL     1     -11.134   7.523  69.199  1.00  0.00    -0.435 N  
HETATM   23  O   UNL     1     -11.038   8.028  71.433  1.00  0.00    -0.234 OA 
HETATM   24  C   UNL     1     -10.626   7.853  67.975  1.00  0.00    -0.132 C  
HETATM   25  H   UNL     1     -11.756   6.722  69.307  1.00  0.00     0.000 HD 
HETATM   26  O   UNL     1     -10.891   7.241  66.948  1.00  0.00    -0.355 OA 
ENDBRANCH  18  19
ENDBRANCH  15  18
ENDBRANCH  11  12
ENDBRANCH  10  11
ENDBRANCH   9  10
ENDBRANCH   2   9
TORSDOF 7
ENDMDL
MODEL      123
REMARK 921   NORMALIZED FREE ENERGY PREDICTED BY IDOCK:   -5.01 KCAL/MOL
REMARK 922        TOTAL FREE ENERGY PREDICTED BY IDOCK:   -7.91 KCAL/MOL
REMARK 923 INTER-LIGAND FREE ENERGY PREDICTED BY IDOCK:   -7.59 KCAL/MOL
REMARK 924 INTRA-LIGAND FREE ENERGY PREDICTED BY IDOCK:   -0.32 KCAL/MOL
REMARK 927      BINDING AFFINITY PREDICTED BY RF-SCORE:    0.00 PKD
ROOT
HETATM    1  C   UNL     1     -11.434  14.942  64.834  1.00  0.00    -0.407 C  
HETATM    2  N   UNL     1     -10.430  14.994  65.898  1.00  0.00    -0.309 NA 
ENDROOT
BRANCH   2   3
HETATM    3  C   UNL     1     -10.430  16.229  66.579  1.00  0.00    -0.290 A  
HETATM    4  C   UNL     1     -10.430  17.467  68.544  1.00  0.00    -0.370 A  
HETATM    5  C   UNL     1     -10.495  18.676  67.878  1.00  0.00    -0.431 A  
HETATM    6  C   UNL     1     -10.494  17.413  65.843  1.00  0.00    -0.256 A  
HETATM    7  C   UNL     1     -10.530  18.645  66.494  1.00  0.00    -0.465 A  
HETATM    8  N   UNL     1     -10.400  16.262  67.930  1.00  0.00    -0.276 NA 
ENDBRANCH   2   3
BRANCH   2   9
HETATM    9  C   UNL     1     -10.435  13.823  66.799  1.00  0.00    -0.270 C  
BRANCH   9  10
HETATM   10  C   UNL     1     -11.861  13.354  67.127  1.00  0.00    -0.382 C  
BRANCH  10  11
HETATM   11  O   UNL     1     -12.006  11.934  66.990  1.00  0.00    -0.615 OA 
BRANCH  11  12
HETATM   12  C   UNL     1     -11.629  11.203  68.092  1.00  0.00    -0.280 A  
HETATM   13  C   UNL     1     -11.604  10.657  70.455  1.00  0.00    -0.441 A  
HETATM   14  C   UNL     1     -12.105  11.404  69.387  1.00  0.00    -0.358 A  
HETATM   15  C   UNL     1     -10.625   9.680  70.246  1.00  0.00    -0.333 A  
HETATM   16  C   UNL     1     -10.187   9.438  68.936  1.00  0.00    -0.215 A  
HETATM   17  C   UNL     1     -10.684  10.195  67.867  1.00  0.00    -0.317 A  
BRANCH  15  18
HETATM   18  C   UNL     1     -10.005   8.974  71.424  1.00  0.00    -0.388 C  
BRANCH  18  19
HETATM   19  C   UNL     1      -9.769   7.471  71.318  1.00  0.00    -0.164 C  
HETATM   20  S   UNL     1     -10.977   6.491  70.369  1.00  0.00    -0.326 SA 
HETATM   21  C   UNL     1      -9.739   5.381  69.829  1.00  0.00    -0.184 C  
HETATM   22  N   UNL     1      -8.512   5.913  70.044  1.00  0.00    -0.124 N  
HETATM   23  O   UNL     1      -9.968   4.284  69.350  1.00  0.00    -0.183 OA 
HETATM   24  C   UNL     1      -8.420   7.073  70.757  1.00  0.00    -0.135 C  
HETATM   25  H   UNL     1      -7.676   5.457  69.681  1.00  0.00     0.000 HD 
HETATM   26  O   UNL     1      -7.360   7.642  70.986  1.00  0.00    -0.068 OA 
ENDBRANCH  18  19
ENDBRANCH  15  18
ENDBRANCH  11  12
ENDBRANCH  10  11
ENDBRANCH   9  10
ENDBRANCH   2   9
TORSDOF 7
ENDMDL
MODEL      124
REMARK 921   NORMALIZED FREE ENERGY PREDICTED BY IDOCK:   -5.00 KCAL/MOL
REMARK 922        TOTAL FREE ENERGY PREDICTED BY IDOCK:   -7.90 KCAL/MOL
REMARK 923 INTER-LIGAND FREE ENERGY PREDICTED BY IDOCK:   -7.00 KCAL/MOL
REMARK 924 INTRA-LIGAND FREE ENERGY PREDICTED BY IDOCK:   -0.90 KCAL/MOL
REMARK 927      BINDING AFFINITY PREDICTED BY RF-SCORE:    0.00 PKD
ROOT
HETATM    1  C   UNL     1     -10.785  10.256  67.624  1.00  0.00    -0.288 C  
HETATM    2  N   UNL     1     -10.317  10.233  66.238  1.00  0.00    -0.215 NA 
ENDROOT
BRANCH   2   3
HETATM    3  C   UNL     1     -10.876  11.269  65.463  1.00  0.00    -0.179 A  
HETATM    4  C   UNL     1     -12.379  13.019  65.188  1.00  0.00    -0.484 A  
HETATM    5  C   UNL     1     -11.992  13.254  63.882  1.00  0.00    -0.541 A  
HETATM    6  C   UNL     1     -10.435  11.453  64.151  1.00  0.00    -0.421 A  
HETATM    7  C   UNL     1     -10.997  12.449  63.353  1.00  0.00    -0.442 A  
HETATM    8  N   UNL     1     -11.850  12.055  65.975  1.00  0.00    -0.531 NA 
ENDBRANCH   2   3
BRANCH   2   9
HETATM    9  C   UNL     1      -8.851  10.111  66.092  1.00  0.00    -0.145 C  
BRANCH   9  10
HETATM   10  C   UNL     1      -8.395   8.645  66.059  1.00  0.00    -0.131 C  
BRANCH  10  11
HETATM   11  O   UNL     1      -7.427   8.360  67.078  1.00  0.00    -0.086 OA 
BRANCH  11  12
HETATM   12  C   UNL     1      -7.928   8.313  68.358  1.00  0.00    -0.119 A  
HETATM   13  C   UNL     1      -8.153   9.069  70.651  1.00  0.00    -0.184 A  
HETATM   14  C   UNL     1      -7.656   9.245  69.359  1.00  0.00    -0.080 A  
HETATM   15  C   UNL     1      -8.949   7.962  70.966  1.00  0.00    -0.152 A  
HETATM   16  C   UNL     1      -9.269   7.055  69.947  1.00  0.00    -0.144 A  
HETATM   17  C   UNL     1      -8.761   7.227  68.652  1.00  0.00    -0.127 A  
BRANCH  15  18
HETATM   18  C   UNL     1      -9.370   7.722  72.393  1.00  0.00    -0.224 C  
BRANCH  18  19
HETATM   19  C   UNL     1     -10.856   7.807  72.727  1.00  0.00    -0.379 C  
HETATM   20  S   UNL     1     -11.824   9.133  71.936  1.00  0.00    -0.348 SA 
HETATM   21  C   UNL     1     -13.255   8.130  71.873  1.00  0.00    -0.325 C  
HETATM   22  N   UNL     1     -12.923   6.834  72.087  1.00  0.00    -0.555 N  
HETATM   23  O   UNL     1     -14.380   8.556  71.684  1.00  0.00    -0.427 OA 
HETATM   24  C   UNL     1     -11.644   6.542  72.466  1.00  0.00    -0.208 C  
HETATM   25  H   UNL     1     -13.613   6.093  71.966  1.00  0.00     0.000 HD 
HETATM   26  O   UNL     1     -11.243   5.402  72.662  1.00  0.00    -0.265 OA 
ENDBRANCH  18  19
ENDBRANCH  15  18
ENDBRANCH  11  12
ENDBRANCH  10  11
ENDBRANCH   9  10
ENDBRANCH   2   9
TORSDOF 7
ENDMDL
MODEL      125
REMARK 921   NORMALIZED FREE ENERGY PREDICTED BY IDOCK:   -5.00 KCAL/MOL
REMARK 922        TOTAL FREE ENERGY PREDICTED BY IDOCK:   -7.90 KCAL/MOL
REMARK 923 INTER-LIGAND FREE ENERGY PREDICTED BY IDOCK:   -7.50 KCAL/MOL
REMARK 924 INTRA-LIGAND FREE ENERGY PREDICTED BY IDOCK:   -0.40 KCAL/MOL
REMARK 927      BINDING AFFINITY PREDICTED BY RF-SCORE:    0.00 PKD
ROOT
HETATM    1  C   UNL     1      -9.957   4.613  71.476  1.00  0.00    -0.195 C  
HETATM    2  N   UNL     1      -9.846   5.429  70.266  1.00  0.00    -0.190 NA 
ENDROOT
BRANCH   2   3
HETATM    3  C   UNL     1      -9.417   4.681  69.150  1.00  0.00    -0.157 A  
HETATM    4  C   UNL     1      -8.656   4.552  66.959  1.00  0.00    -0.104 A  
HETATM    5  C   UNL     1      -8.642   3.170  66.960  1.00  0.00    -0.121 A  
HETATM    6  C   UNL     1      -9.425   3.286  69.221  1.00  0.00    -0.199 A  
HETATM    7  C   UNL     1      -9.038   2.524  68.119  1.00  0.00    -0.229 A  
HETATM    8  N   UNL     1      -9.033   5.308  68.016  1.00  0.00    -0.109 NA 
ENDBRANCH   2   3
BRANCH   2   9
HETATM    9  C   UNL     1     -11.025   6.276  69.992  1.00  0.00    -0.358 C  
BRANCH   9  10
HETATM   10  C   UNL     1     -10.842   7.706  70.521  1.00  0.00    -0.241 C  
BRANCH  10  11
HETATM   11  O   UNL     1     -12.025   8.196  71.169  1.00  0.00    -0.292 OA 
BRANCH  11  12
HETATM   12  C   UNL     1     -12.242   9.547  71.036  1.00  0.00    -0.304 A  
HETATM   13  C   UNL     1     -11.862  11.744  70.082  1.00  0.00    -0.408 A  
HETATM   14  C   UNL     1     -11.632  10.367  70.088  1.00  0.00    -0.392 A  
HETATM   15  C   UNL     1     -12.722  12.329  71.018  1.00  0.00    -0.319 A  
HETATM   16  C   UNL     1     -13.380  11.497  71.935  1.00  0.00    -0.408 A  
HETATM   17  C   UNL     1     -13.141  10.117  71.946  1.00  0.00    -0.571 A  
BRANCH  15  18
HETATM   18  C   UNL     1     -12.859  13.828  71.078  1.00  0.00    -0.376 C  
BRANCH  18  19
HETATM   19  C   UNL     1     -11.732  14.676  70.496  1.00  0.00    -0.285 C  
HETATM   20  S   UNL     1     -11.762  15.005  68.704  1.00  0.00    -0.318 SA 
HETATM   21  C   UNL     1     -11.046  16.584  68.924  1.00  0.00    -0.300 C  
HETATM   22  N   UNL     1     -11.124  16.953  70.225  1.00  0.00    -0.313 N  
HETATM   23  O   UNL     1     -10.537  17.235  68.027  1.00  0.00    -0.368 OA 
HETATM   24  C   UNL     1     -11.558  16.036  71.138  1.00  0.00    -0.443 C  
HETATM   25  H   UNL     1     -10.865  17.896  70.516  1.00  0.00     0.000 HD 
HETATM   26  O   UNL     1     -11.683  16.279  72.331  1.00  0.00    -0.495 OA 
ENDBRANCH  18  19
ENDBRANCH  15  18
ENDBRANCH  11  12
ENDBRANCH  10  11
ENDBRANCH   9  10
ENDBRANCH   2   9
TORSDOF 7
ENDMDL
MODEL      126
REMARK 921   NORMALIZED FREE ENERGY PREDICTED BY IDOCK:   -4.99 KCAL/MOL
REMARK 922        TOTAL FREE ENERGY PREDICTED BY IDOCK:   -7.89 KCAL/MOL
REMARK 923 INTER-LIGAND FREE ENERGY PREDICTED BY IDOCK:   -7.38 KCAL/MOL
REMARK 924 INTRA-LIGAND FREE ENERGY PREDICTED BY IDOCK:   -0.51 KCAL/MOL
REMARK 927      BINDING AFFINITY PREDICTED BY RF-SCORE:    0.00 PKD
ROOT
HETATM    1  C   UNL     1     -11.663  14.420  64.305  1.00  0.00    -0.310 C  
HETATM    2  N   UNL     1     -11.285  14.294  65.713  1.00  0.00    -0.312 NA 
ENDROOT
BRANCH   2   3
HETATM    3  C   UNL     1     -10.951  15.535  66.294  1.00  0.00    -0.242 A  
HETATM    4  C   UNL     1     -10.071  17.679  66.144  1.00  0.00    -0.301 A  
HETATM    5  C   UNL     1     -10.253  17.936  67.490  1.00  0.00    -0.366 A  
HETATM    6  C   UNL     1     -11.165  15.728  67.660  1.00  0.00    -0.246 A  
HETATM    7  C   UNL     1     -10.811  16.934  68.264  1.00  0.00    -0.357 A  
HETATM    8  N   UNL     1     -10.402  16.515  65.541  1.00  0.00    -0.572 NA 
ENDBRANCH   2   3
BRANCH   2   9
HETATM    9  C   UNL     1     -12.224  13.495  66.527  1.00  0.00    -0.380 C  
BRANCH   9  10
HETATM   10  C   UNL     1     -11.539  12.280  67.170  1.00  0.00    -0.353 C  
BRANCH  10  11
HETATM   11  O   UNL     1     -12.087  11.972  68.459  1.00  0.00    -0.367 OA 
BRANCH  11  12
HETATM   12  C   UNL     1     -11.602  10.822  69.036  1.00  0.00    -0.299 A  
HETATM   13  C   UNL     1     -10.359   8.740  69.063  1.00  0.00    -0.227 A  
HETATM   14  C   UNL     1     -10.736   9.920  68.420  1.00  0.00    -0.271 A  
HETATM   15  C   UNL     1     -10.830   8.444  70.347  1.00  0.00    -0.246 A  
HETATM   16  C   UNL     1     -11.656   9.377  70.990  1.00  0.00    -0.400 A  
HETATM   17  C   UNL     1     -12.042  10.556  70.339  1.00  0.00    -0.418 A  
BRANCH  15  18
HETATM   18  C   UNL     1     -10.516   7.109  70.973  1.00  0.00    -0.230 C  
BRANCH  18  19
HETATM   19  C   UNL     1      -9.363   7.037  71.969  1.00  0.00    -0.139 C  
HETATM   20  S   UNL     1      -7.874   8.023  71.609  1.00  0.00    -0.112 SA 
HETATM   21  C   UNL     1      -7.574   8.297  73.309  1.00  0.00    -0.119 C  
HETATM   22  N   UNL     1      -8.679   7.990  74.031  1.00  0.00    -0.340 N  
HETATM   23  O   UNL     1      -6.513   8.689  73.761  1.00  0.00    -0.179 OA 
HETATM   24  C   UNL     1      -9.727   7.389  73.395  1.00  0.00    -0.269 C  
HETATM   25  H   UNL     1      -8.726   8.202  75.027  1.00  0.00     0.000 HD 
HETATM   26  O   UNL     1     -10.775   7.091  73.955  1.00  0.00    -0.324 OA 
ENDBRANCH  18  19
ENDBRANCH  15  18
ENDBRANCH  11  12
ENDBRANCH  10  11
ENDBRANCH   9  10
ENDBRANCH   2   9
TORSDOF 7
ENDMDL
MODEL      127
REMARK 921   NORMALIZED FREE ENERGY PREDICTED BY IDOCK:   -4.99 KCAL/MOL
REMARK 922        TOTAL FREE ENERGY PREDICTED BY IDOCK:   -7.88 KCAL/MOL
REMARK 923 INTER-LIGAND FREE ENERGY PREDICTED BY IDOCK:   -7.34 KCAL/MOL
REMARK 924 INTRA-LIGAND FREE ENERGY PREDICTED BY IDOCK:   -0.55 KCAL/MOL
REMARK 927      BINDING AFFINITY PREDICTED BY RF-SCORE:    0.00 PKD
ROOT
HETATM    1  C   UNL     1     -10.525  20.032  66.993  1.00  0.00    -0.380 C  
HETATM    2  N   UNL     1      -9.566  18.977  67.323  1.00  0.00    -0.308 NA 
ENDROOT
BRANCH   2   3
HETATM    3  C   UNL     1      -8.345  19.491  67.806  1.00  0.00    -0.310 A  
HETATM    4  C   UNL     1      -6.662  19.570  69.405  1.00  0.00    -0.337 A  
HETATM    5  C   UNL     1      -5.974  20.574  68.749  1.00  0.00    -0.372 A  
HETATM    6  C   UNL     1      -7.701  20.503  67.091  1.00  0.00    -0.368 A  
HETATM    7  C   UNL     1      -6.511  21.051  67.565  1.00  0.00    -0.420 A  
HETATM    8  N   UNL     1      -7.821  19.030  68.964  1.00  0.00    -0.283 NA 
ENDBRANCH   2   3
BRANCH   2   9
HETATM    9  C   UNL     1     -10.120  17.890  68.157  1.00  0.00    -0.366 C  
BRANCH   9  10
HETATM   10  C   UNL     1     -10.584  16.695  67.312  1.00  0.00    -0.281 C  
BRANCH  10  11
HETATM   11  O   UNL     1     -11.393  15.782  68.068  1.00  0.00    -0.348 OA 
BRANCH  11  12
HETATM   12  C   UNL     1     -10.956  14.479  68.062  1.00  0.00    -0.260 A  
HETATM   13  C   UNL     1      -9.304  12.720  68.310  1.00  0.00    -0.194 A  
HETATM   14  C   UNL     1      -9.675  14.061  68.421  1.00  0.00    -0.223 A  
HETATM   15  C   UNL     1     -10.215  11.763  67.851  1.00  0.00    -0.203 A  
HETATM   16  C   UNL     1     -11.520  12.172  67.543  1.00  0.00    -0.410 A  
HETATM   17  C   UNL     1     -11.888  13.520  67.646  1.00  0.00    -0.399 A  
BRANCH  15  18
HETATM   18  C   UNL     1      -9.760  10.345  67.616  1.00  0.00    -0.191 C  
BRANCH  18  19
HETATM   19  C   UNL     1     -10.535   9.221  68.297  1.00  0.00    -0.215 C  
HETATM   20  S   UNL     1     -10.454   7.564  67.543  1.00  0.00    -0.272 SA 
HETATM   21  C   UNL     1     -10.559   6.786  69.105  1.00  0.00    -0.232 C  
HETATM   22  N   UNL     1     -10.309   7.683  70.089  1.00  0.00    -0.212 N  
HETATM   23  O   UNL     1     -10.837   5.610  69.265  1.00  0.00    -0.303 OA 
HETATM   24  C   UNL     1     -10.195   9.002  69.755  1.00  0.00    -0.205 C  
HETATM   25  H   UNL     1     -10.209   7.380  71.057  1.00  0.00     0.000 HD 
HETATM   26  O   UNL     1      -9.950   9.884  70.568  1.00  0.00    -0.244 OA 
ENDBRANCH  18  19
ENDBRANCH  15  18
ENDBRANCH  11  12
ENDBRANCH  10  11
ENDBRANCH   9  10
ENDBRANCH   2   9
TORSDOF 7
ENDMDL
MODEL      128
REMARK 921   NORMALIZED FREE ENERGY PREDICTED BY IDOCK:   -4.98 KCAL/MOL
REMARK 922        TOTAL FREE ENERGY PREDICTED BY IDOCK:   -7.88 KCAL/MOL
REMARK 923 INTER-LIGAND FREE ENERGY PREDICTED BY IDOCK:   -8.09 KCAL/MOL
REMARK 924 INTRA-LIGAND FREE ENERGY PREDICTED BY IDOCK:    0.21 KCAL/MOL
REMARK 927      BINDING AFFINITY PREDICTED BY RF-SCORE:    0.00 PKD
ROOT
HETATM    1  C   UNL     1     -12.104   6.677  71.007  1.00  0.00    -0.327 C  
HETATM    2  N   UNL     1     -11.396   6.713  72.287  1.00  0.00    -0.264 NA 
ENDROOT
BRANCH   2   3
HETATM    3  C   UNL     1     -10.736   5.499  72.571  1.00  0.00    -0.240 A  
HETATM    4  C   UNL     1      -8.973   4.020  72.252  1.00  0.00    -0.110 A  
HETATM    5  C   UNL     1      -9.504   3.076  73.110  1.00  0.00    -0.124 A  
HETATM    6  C   UNL     1     -11.327   4.591  73.451  1.00  0.00    -0.376 A  
HETATM    7  C   UNL     1     -10.711   3.370  73.721  1.00  0.00    -0.299 A  
HETATM    8  N   UNL     1      -9.559   5.207  71.973  1.00  0.00    -0.148 NA 
ENDBRANCH   2   3
BRANCH   2   9
HETATM    9  C   UNL     1     -10.547   7.906  72.482  1.00  0.00    -0.315 C  
BRANCH   9  10
HETATM   10  C   UNL     1     -11.014   9.092  71.624  1.00  0.00    -0.365 C  
BRANCH  10  11
HETATM   11  O   UNL     1     -10.112   9.362  70.542  1.00  0.00    -0.235 OA 
BRANCH  11  12
HETATM   12  C   UNL     1     -10.629  10.146  69.538  1.00  0.00    -0.245 A  
HETATM   13  C   UNL     1     -11.063  10.744  67.228  1.00  0.00    -0.339 A  
HETATM   14  C   UNL     1     -10.574   9.845  68.178  1.00  0.00    -0.270 A  
HETATM   15  C   UNL     1     -11.631  11.960  67.621  1.00  0.00    -0.382 A  
HETATM   16  C   UNL     1     -11.737  12.239  68.991  1.00  0.00    -0.376 A  
HETATM   17  C   UNL     1     -11.238  11.340  69.943  1.00  0.00    -0.264 A  
BRANCH  15  18
HETATM   18  C   UNL     1     -12.035  12.971  66.580  1.00  0.00    -0.457 C  
BRANCH  18  19
HETATM   19  C   UNL     1     -11.372  12.894  65.208  1.00  0.00    -0.300 C  
HETATM   20  S   UNL     1      -9.673  12.242  65.127  1.00  0.00    -0.008 SA 
HETATM   21  C   UNL     1      -9.960  11.530  63.557  1.00  0.00    -0.399 C  
HETATM   22  N   UNL     1     -11.290  11.480  63.305  1.00  0.00    -0.831 N  
HETATM   23  O   UNL     1      -9.077  11.156  62.804  1.00  0.00    -0.303 OA 
HETATM   24  C   UNL     1     -12.141  12.106  64.169  1.00  0.00    -0.409 C  
HETATM   25  H   UNL     1     -11.648  10.986  62.488  1.00  0.00     0.000 HD 
HETATM   26  O   UNL     1     -13.359  12.101  64.040  1.00  0.00    -0.706 OA 
ENDBRANCH  18  19
ENDBRANCH  15  18
ENDBRANCH  11  12
ENDBRANCH  10  11
ENDBRANCH   9  10
ENDBRANCH   2   9
TORSDOF 7
ENDMDL
MODEL      129
REMARK 921   NORMALIZED FREE ENERGY PREDICTED BY IDOCK:   -4.97 KCAL/MOL
REMARK 922        TOTAL FREE ENERGY PREDICTED BY IDOCK:   -7.86 KCAL/MOL
REMARK 923 INTER-LIGAND FREE ENERGY PREDICTED BY IDOCK:   -7.53 KCAL/MOL
REMARK 924 INTRA-LIGAND FREE ENERGY PREDICTED BY IDOCK:   -0.32 KCAL/MOL
REMARK 927      BINDING AFFINITY PREDICTED BY RF-SCORE:    0.00 PKD
ROOT
HETATM    1  C   UNL     1     -12.182  14.068  66.119  1.00  0.00    -0.465 C  
HETATM    2  N   UNL     1     -11.428  14.367  67.337  1.00  0.00    -0.340 NA 
ENDROOT
BRANCH   2   3
HETATM    3  C   UNL     1     -10.481  15.394  67.146  1.00  0.00    -0.290 A  
HETATM    4  C   UNL     1      -9.807  17.606  67.369  1.00  0.00    -0.305 A  
HETATM    5  C   UNL     1      -8.619  17.397  66.694  1.00  0.00    -0.283 A  
HETATM    6  C   UNL     1      -9.299  15.112  66.458  1.00  0.00    -0.308 A  
HETATM    7  C   UNL     1      -8.363  16.119  66.227  1.00  0.00    -0.322 A  
HETATM    8  N   UNL     1     -10.730  16.644  67.598  1.00  0.00    -0.328 NA 
ENDBRANCH   2   3
BRANCH   2   9
HETATM    9  C   UNL     1     -12.264  14.551  68.542  1.00  0.00    -0.128 C  
BRANCH   9  10
HETATM   10  C   UNL     1     -12.034  13.440  69.577  1.00  0.00    -0.319 C  
BRANCH  10  11
HETATM   11  O   UNL     1     -11.880  12.153  68.962  1.00  0.00    -0.303 OA 
BRANCH  11  12
HETATM   12  C   UNL     1     -11.588  11.127  69.829  1.00  0.00    -0.334 A  
HETATM   13  C   UNL     1     -10.222   9.331  70.717  1.00  0.00    -0.353 A  
HETATM   14  C   UNL     1     -10.394  10.407  69.845  1.00  0.00    -0.231 A  
HETATM   15  C   UNL     1     -11.238   8.960  71.605  1.00  0.00    -0.415 A  
HETATM   16  C   UNL     1     -12.417   9.719  71.629  1.00  0.00    -0.500 A  
HETATM   17  C   UNL     1     -12.592  10.793  70.747  1.00  0.00    -0.476 A  
BRANCH  15  18
HETATM   18  C   UNL     1     -11.085   7.720  72.447  1.00  0.00    -0.379 C  
BRANCH  18  19
HETATM   19  C   UNL     1     -10.918   6.383  71.732  1.00  0.00    -0.255 C  
HETATM   20  S   UNL     1     -11.263   6.332  69.944  1.00  0.00    -0.428 SA 
HETATM   21  C   UNL     1     -10.035   5.116  69.683  1.00  0.00    -0.243 C  
HETATM   22  N   UNL     1      -9.220   5.039  70.763  1.00  0.00    -0.140 N  
HETATM   23  O   UNL     1      -9.953   4.433  68.677  1.00  0.00    -0.113 OA 
HETATM   24  C   UNL     1      -9.554   5.743  71.883  1.00  0.00    -0.151 C  
HETATM   25  H   UNL     1      -8.375   4.469  70.738  1.00  0.00     0.000 HD 
HETATM   26  O   UNL     1      -8.873   5.756  72.901  1.00  0.00    -0.125 OA 
ENDBRANCH  18  19
ENDBRANCH  15  18
ENDBRANCH  11  12
ENDBRANCH  10  11
ENDBRANCH   9  10
ENDBRANCH   2   9
TORSDOF 7
ENDMDL
MODEL      130
REMARK 921   NORMALIZED FREE ENERGY PREDICTED BY IDOCK:   -4.97 KCAL/MOL
REMARK 922        TOTAL FREE ENERGY PREDICTED BY IDOCK:   -7.86 KCAL/MOL
REMARK 923 INTER-LIGAND FREE ENERGY PREDICTED BY IDOCK:   -6.67 KCAL/MOL
REMARK 924 INTRA-LIGAND FREE ENERGY PREDICTED BY IDOCK:   -1.19 KCAL/MOL
REMARK 927      BINDING AFFINITY PREDICTED BY RF-SCORE:    0.00 PKD
ROOT
HETATM    1  C   UNL     1      -9.413   7.429  72.371  1.00  0.00    -0.152 C  
HETATM    2  N   UNL     1     -10.649   6.707  72.065  1.00  0.00    -0.209 NA 
ENDROOT
BRANCH   2   3
HETATM    3  C   UNL     1     -11.761   7.567  71.951  1.00  0.00    -0.284 A  
HETATM    4  C   UNL     1     -14.023   7.926  71.567  1.00  0.00    -0.367 A  
HETATM    5  C   UNL     1     -13.907   9.299  71.672  1.00  0.00    -0.366 A  
HETATM    6  C   UNL     1     -11.571   8.945  72.071  1.00  0.00    -0.435 A  
HETATM    7  C   UNL     1     -12.649   9.818  71.928  1.00  0.00    -0.479 A  
HETATM    8  N   UNL     1     -12.989   7.064  71.697  1.00  0.00    -0.381 NA 
ENDBRANCH   2   3
BRANCH   2   9
HETATM    9  C   UNL     1     -10.532   5.743  70.951  1.00  0.00    -0.252 C  
BRANCH   9  10
HETATM   10  C   UNL     1      -9.741   6.322  69.769  1.00  0.00    -0.160 C  
BRANCH  10  11
HETATM   11  O   UNL     1     -10.595   6.977  68.820  1.00  0.00    -0.206 OA 
BRANCH  11  12
HETATM   12  C   UNL     1     -10.154   8.209  68.398  1.00  0.00    -0.200 A  
HETATM   13  C   UNL     1      -9.000  10.327  68.649  1.00  0.00    -0.144 A  
HETATM   14  C   UNL     1      -9.332   9.061  69.134  1.00  0.00    -0.148 A  
HETATM   15  C   UNL     1      -9.474  10.764  67.407  1.00  0.00    -0.171 A  
HETATM   16  C   UNL     1     -10.254   9.886  66.641  1.00  0.00    -0.293 A  
HETATM   17  C   UNL     1     -10.594   8.619  67.133  1.00  0.00    -0.304 A  
BRANCH  15  18
HETATM   18  C   UNL     1      -9.212  12.178  66.958  1.00  0.00    -0.202 C  
BRANCH  18  19
HETATM   19  C   UNL     1     -10.116  13.282  67.498  1.00  0.00    -0.223 C  
HETATM   20  S   UNL     1     -11.700  12.785  68.249  1.00  0.00    -0.336 SA 
HETATM   21  C   UNL     1     -11.637  14.104  69.394  1.00  0.00    -0.304 C  
HETATM   22  N   UNL     1     -10.387  14.625  69.435  1.00  0.00    -0.381 N  
HETATM   23  O   UNL     1     -12.595  14.496  70.038  1.00  0.00    -0.318 OA 
HETATM   24  C   UNL     1      -9.471  14.194  68.520  1.00  0.00    -0.202 C  
HETATM   25  H   UNL     1     -10.136  15.323  70.135  1.00  0.00     0.000 HD 
HETATM   26  O   UNL     1      -8.312  14.588  68.488  1.00  0.00    -0.149 OA 
ENDBRANCH  18  19
ENDBRANCH  15  18
ENDBRANCH  11  12
ENDBRANCH  10  11
ENDBRANCH   9  10
ENDBRANCH   2   9
TORSDOF 7
ENDMDL
MODEL      131
REMARK 921   NORMALIZED FREE ENERGY PREDICTED BY IDOCK:   -4.96 KCAL/MOL
REMARK 922        TOTAL FREE ENERGY PREDICTED BY IDOCK:   -7.85 KCAL/MOL
REMARK 923 INTER-LIGAND FREE ENERGY PREDICTED BY IDOCK:   -6.94 KCAL/MOL
REMARK 924 INTRA-LIGAND FREE ENERGY PREDICTED BY IDOCK:   -0.91 KCAL/MOL
REMARK 927      BINDING AFFINITY PREDICTED BY RF-SCORE:    0.00 PKD
ROOT
HETATM    1  C   UNL     1      -9.261   8.005  72.877  1.00  0.00    -0.265 C  
HETATM    2  N   UNL     1      -9.718   8.960  71.866  1.00  0.00    -0.313 NA 
ENDROOT
BRANCH   2   3
HETATM    3  C   UNL     1      -8.875   8.993  70.736  1.00  0.00    -0.234 A  
HETATM    4  C   UNL     1      -7.285  10.053  69.416  1.00  0.00    -0.087 A  
HETATM    5  C   UNL     1      -7.281   9.046  68.469  1.00  0.00    -0.073 A  
HETATM    6  C   UNL     1      -8.920   7.940  69.821  1.00  0.00    -0.146 A  
HETATM    7  C   UNL     1      -8.122   7.966  68.678  1.00  0.00    -0.126 A  
HETATM    8  N   UNL     1      -8.056  10.048  70.527  1.00  0.00    -0.124 NA 
ENDBRANCH   2   3
BRANCH   2   9
HETATM    9  C   UNL     1     -11.153   8.851  71.530  1.00  0.00    -0.326 C  
BRANCH   9  10
HETATM   10  C   UNL     1     -11.770  10.216  71.192  1.00  0.00    -0.366 C  
BRANCH  10  11
HETATM   11  O   UNL     1     -12.031  10.357  69.788  1.00  0.00    -0.238 OA 
BRANCH  11  12
HETATM   12  C   UNL     1     -11.952  11.644  69.310  1.00  0.00    -0.317 A  
HETATM   13  C   UNL     1     -11.630  13.327  67.595  1.00  0.00    -0.386 A  
HETATM   14  C   UNL     1     -11.773  11.991  67.972  1.00  0.00    -0.398 A  
HETATM   15  C   UNL     1     -11.678  14.348  68.550  1.00  0.00    -0.370 A  
HETATM   16  C   UNL     1     -11.914  14.004  69.888  1.00  0.00    -0.399 A  
HETATM   17  C   UNL     1     -12.048  12.661  70.267  1.00  0.00    -0.372 A  
BRANCH  15  18
HETATM   18  C   UNL     1     -11.394  15.771  68.143  1.00  0.00    -0.337 C  
BRANCH  18  19
HETATM   19  C   UNL     1      -9.957  16.145  67.792  1.00  0.00    -0.237 C  
HETATM   20  S   UNL     1      -8.620  15.274  68.670  1.00  0.00    -0.186 SA 
HETATM   21  C   UNL     1      -7.576  15.345  67.270  1.00  0.00    -0.212 C  
HETATM   22  N   UNL     1      -8.298  15.660  66.167  1.00  0.00    -0.311 N  
HETATM   23  O   UNL     1      -6.372  15.156  67.304  1.00  0.00    -0.312 OA 
HETATM   24  C   UNL     1      -9.605  16.021  66.325  1.00  0.00    -0.307 C  
HETATM   25  H   UNL     1      -7.874  15.627  65.240  1.00  0.00     0.000 HD 
HETATM   26  O   UNL     1     -10.344  16.302  65.391  1.00  0.00    -0.499 OA 
ENDBRANCH  18  19
ENDBRANCH  15  18
ENDBRANCH  11  12
ENDBRANCH  10  11
ENDBRANCH   9  10
ENDBRANCH   2   9
TORSDOF 7
ENDMDL
MODEL      132
REMARK 921   NORMALIZED FREE ENERGY PREDICTED BY IDOCK:   -4.94 KCAL/MOL
REMARK 922        TOTAL FREE ENERGY PREDICTED BY IDOCK:   -7.81 KCAL/MOL
REMARK 923 INTER-LIGAND FREE ENERGY PREDICTED BY IDOCK:   -7.27 KCAL/MOL
REMARK 924 INTRA-LIGAND FREE ENERGY PREDICTED BY IDOCK:   -0.54 KCAL/MOL
REMARK 927      BINDING AFFINITY PREDICTED BY RF-SCORE:    0.00 PKD
ROOT
HETATM    1  C   UNL     1      -8.598   7.424  69.731  1.00  0.00    -0.140 C  
HETATM    2  N   UNL     1      -9.972   7.075  69.365  1.00  0.00    -0.160 NA 
ENDROOT
BRANCH   2   3
HETATM    3  C   UNL     1     -10.923   7.649  70.233  1.00  0.00    -0.252 A  
HETATM    4  C   UNL     1     -12.801   7.479  71.589  1.00  0.00    -0.358 A  
HETATM    5  C   UNL     1     -12.810   8.830  71.885  1.00  0.00    -0.423 A  
HETATM    6  C   UNL     1     -10.871   9.020  70.491  1.00  0.00    -0.296 A  
HETATM    7  C   UNL     1     -11.821   9.616  71.319  1.00  0.00    -0.460 A  
HETATM    8  N   UNL     1     -11.892   6.884  70.784  1.00  0.00    -0.367 NA 
ENDBRANCH   2   3
BRANCH   2   9
HETATM    9  C   UNL     1     -10.288   7.265  67.934  1.00  0.00    -0.201 C  
BRANCH   9  10
HETATM   10  C   UNL     1      -9.230   8.117  67.218  1.00  0.00    -0.138 C  
BRANCH  10  11
HETATM   11  O   UNL     1      -9.765   8.782  66.065  1.00  0.00    -0.254 OA 
BRANCH  11  12
HETATM   12  C   UNL     1     -10.270  10.039  66.303  1.00  0.00    -0.215 A  
HETATM   13  C   UNL     1     -11.051  11.857  67.704  1.00  0.00    -0.314 A  
HETATM   14  C   UNL     1     -10.461  10.600  67.565  1.00  0.00    -0.272 A  
HETATM   15  C   UNL     1     -11.449  12.589  66.581  1.00  0.00    -0.417 A  
HETATM   16  C   UNL     1     -11.206  12.050  65.309  1.00  0.00    -0.374 A  
HETATM   17  C   UNL     1     -10.622  10.784  65.170  1.00  0.00    -0.239 A  
BRANCH  15  18
HETATM   18  C   UNL     1     -12.199  13.885  66.754  1.00  0.00    -0.438 C  
BRANCH  18  19
HETATM   19  C   UNL     1     -11.403  15.130  67.134  1.00  0.00    -0.290 C  
HETATM   20  S   UNL     1     -10.369  15.046  68.632  1.00  0.00    -0.243 SA 
HETATM   21  C   UNL     1      -9.174  16.116  67.937  1.00  0.00    -0.200 C  
HETATM   22  N   UNL     1      -9.363  16.217  66.599  1.00  0.00    -0.225 N  
HETATM   23  O   UNL     1      -8.316  16.693  68.581  1.00  0.00    -0.224 OA 
HETATM   24  C   UNL     1     -10.480  15.653  66.054  1.00  0.00    -0.331 C  
HETATM   25  H   UNL     1      -8.685  16.703  66.012  1.00  0.00     0.000 HD 
HETATM   26  O   UNL     1     -10.730  15.672  64.855  1.00  0.00    -0.434 OA 
ENDBRANCH  18  19
ENDBRANCH  15  18
ENDBRANCH  11  12
ENDBRANCH  10  11
ENDBRANCH   9  10
ENDBRANCH   2   9
TORSDOF 7
ENDMDL
MODEL      133
REMARK 921   NORMALIZED FREE ENERGY PREDICTED BY IDOCK:   -4.93 KCAL/MOL
REMARK 922        TOTAL FREE ENERGY PREDICTED BY IDOCK:   -7.81 KCAL/MOL
REMARK 923 INTER-LIGAND FREE ENERGY PREDICTED BY IDOCK:   -7.08 KCAL/MOL
REMARK 924 INTRA-LIGAND FREE ENERGY PREDICTED BY IDOCK:   -0.73 KCAL/MOL
REMARK 927      BINDING AFFINITY PREDICTED BY RF-SCORE:    0.00 PKD
ROOT
HETATM    1  C   UNL     1     -11.619  12.201  69.556  1.00  0.00    -0.315 C  
HETATM    2  N   UNL     1     -12.117  13.560  69.338  1.00  0.00    -0.313 NA 
ENDROOT
BRANCH   2   3
HETATM    3  C   UNL     1     -12.379  14.238  70.546  1.00  0.00    -0.360 A  
HETATM    4  C   UNL     1     -12.001  15.999  72.013  1.00  0.00    -0.537 A  
HETATM    5  C   UNL     1     -12.879  15.505  72.960  1.00  0.00    -0.582 A  
HETATM    6  C   UNL     1     -13.281  13.684  71.457  1.00  0.00    -0.409 A  
HETATM    7  C   UNL     1     -13.531  14.318  72.673  1.00  0.00    -0.623 A  
HETATM    8  N   UNL     1     -11.741  15.395  70.831  1.00  0.00    -0.318 NA 
ENDBRANCH   2   3
BRANCH   2   9
HETATM    9  C   UNL     1     -11.324  14.353  68.376  1.00  0.00    -0.287 C  
BRANCH   9  10
HETATM   10  C   UNL     1     -11.619  13.958  66.921  1.00  0.00    -0.378 C  
BRANCH  10  11
HETATM   11  O   UNL     1     -10.437  13.533  66.228  1.00  0.00    -0.281 OA 
BRANCH  11  12
HETATM   12  C   UNL     1     -10.006  12.265  66.538  1.00  0.00    -0.220 A  
HETATM   13  C   UNL     1      -8.400  10.630  67.331  1.00  0.00    -0.119 A  
HETATM   14  C   UNL     1      -8.778  11.957  67.123  1.00  0.00    -0.176 A  
HETATM   15  C   UNL     1      -9.251   9.580  66.971  1.00  0.00    -0.166 A  
HETATM   16  C   UNL     1     -10.509   9.890  66.436  1.00  0.00    -0.197 A  
HETATM   17  C   UNL     1     -10.884  11.223  66.219  1.00  0.00    -0.296 A  
BRANCH  15  18
HETATM   18  C   UNL     1      -8.775   8.154  67.085  1.00  0.00    -0.130 C  
BRANCH  18  19
HETATM   19  C   UNL     1      -9.446   7.102  66.207  1.00  0.00    -0.067 C  
HETATM   20  S   UNL     1      -8.368   5.926  65.326  1.00  0.00    -0.138 SA 
HETATM   21  C   UNL     1      -9.552   4.648  65.464  1.00  0.00    -0.179 C  
HETATM   22  N   UNL     1     -10.486   4.977  66.389  1.00  0.00    -0.300 N  
HETATM   23  O   UNL     1      -9.535   3.626  64.801  1.00  0.00    -0.142 OA 
HETATM   24  C   UNL     1     -10.468   6.238  66.913  1.00  0.00    -0.272 C  
HETATM   25  H   UNL     1     -11.186   4.298  66.687  1.00  0.00     0.000 HD 
HETATM   26  O   UNL     1     -11.255   6.624  67.768  1.00  0.00    -0.274 OA 
ENDBRANCH  18  19
ENDBRANCH  15  18
ENDBRANCH  11  12
ENDBRANCH  10  11
ENDBRANCH   9  10
ENDBRANCH   2   9
TORSDOF 7
ENDMDL
MODEL      134
REMARK 921   NORMALIZED FREE ENERGY PREDICTED BY IDOCK:   -4.93 KCAL/MOL
REMARK 922        TOTAL FREE ENERGY PREDICTED BY IDOCK:   -7.80 KCAL/MOL
REMARK 923 INTER-LIGAND FREE ENERGY PREDICTED BY IDOCK:   -6.83 KCAL/MOL
REMARK 924 INTRA-LIGAND FREE ENERGY PREDICTED BY IDOCK:   -0.98 KCAL/MOL
REMARK 927      BINDING AFFINITY PREDICTED BY RF-SCORE:    0.00 PKD
ROOT
HETATM    1  C   UNL     1      -6.468  20.195  69.878  1.00  0.00    -0.291 C  
HETATM    2  N   UNL     1      -6.878  19.098  69.000  1.00  0.00    -0.316 NA 
ENDROOT
BRANCH   2   3
HETATM    3  C   UNL     1      -8.068  19.384  68.299  1.00  0.00    -0.336 A  
HETATM    4  C   UNL     1     -10.374  19.659  68.236  1.00  0.00    -0.420 A  
HETATM    5  C   UNL     1     -10.390  19.888  66.872  1.00  0.00    -0.596 A  
HETATM    6  C   UNL     1      -8.012  19.609  66.923  1.00  0.00    -0.310 A  
HETATM    7  C   UNL     1      -9.179  19.859  66.203  1.00  0.00    -0.414 A  
HETATM    8  N   UNL     1      -9.253  19.409  68.950  1.00  0.00    -0.375 NA 
ENDBRANCH   2   3
BRANCH   2   9
HETATM    9  C   UNL     1      -5.799  18.570  68.139  1.00  0.00    -0.188 C  
BRANCH   9  10
HETATM   10  C   UNL     1      -5.604  17.058  68.320  1.00  0.00    -0.123 C  
BRANCH  10  11
HETATM   11  O   UNL     1      -6.683  16.460  69.052  1.00  0.00    -0.166 OA 
BRANCH  11  12
HETATM   12  C   UNL     1      -7.435  15.555  68.341  1.00  0.00    -0.115 A  
HETATM   13  C   UNL     1      -9.043  14.890  66.652  1.00  0.00    -0.309 A  
HETATM   14  C   UNL     1      -8.260  15.871  67.262  1.00  0.00    -0.211 A  
HETATM   15  C   UNL     1      -9.007  13.566  67.100  1.00  0.00    -0.230 A  
HETATM   16  C   UNL     1      -8.136  13.236  68.148  1.00  0.00    -0.159 A  
HETATM   17  C   UNL     1      -7.357  14.223  68.766  1.00  0.00    -0.131 A  
BRANCH  15  18
HETATM   18  C   UNL     1      -9.952  12.548  66.515  1.00  0.00    -0.252 C  
BRANCH  18  19
HETATM   19  C   UNL     1      -9.629  11.070  66.712  1.00  0.00    -0.190 C  
HETATM   20  S   UNL     1     -10.730  10.102  67.793  1.00  0.00    -0.290 SA 
HETATM   21  C   UNL     1     -10.498   8.659  66.834  1.00  0.00    -0.258 C  
HETATM   22  N   UNL     1      -9.950   8.980  65.637  1.00  0.00    -0.413 N  
HETATM   23  O   UNL     1     -10.776   7.535  67.213  1.00  0.00    -0.307 OA 
HETATM   24  C   UNL     1      -9.528  10.262  65.436  1.00  0.00    -0.232 C  
HETATM   25  H   UNL     1      -9.856   8.279  64.903  1.00  0.00     0.000 HD 
HETATM   26  O   UNL     1      -9.040  10.655  64.383  1.00  0.00    -0.196 OA 
ENDBRANCH  18  19
ENDBRANCH  15  18
ENDBRANCH  11  12
ENDBRANCH  10  11
ENDBRANCH   9  10
ENDBRANCH   2   9
TORSDOF 7
ENDMDL
MODEL      135
REMARK 921   NORMALIZED FREE ENERGY PREDICTED BY IDOCK:   -4.92 KCAL/MOL
REMARK 922        TOTAL FREE ENERGY PREDICTED BY IDOCK:   -7.78 KCAL/MOL
REMARK 923 INTER-LIGAND FREE ENERGY PREDICTED BY IDOCK:   -5.77 KCAL/MOL
REMARK 924 INTRA-LIGAND FREE ENERGY PREDICTED BY IDOCK:   -2.01 KCAL/MOL
REMARK 927      BINDING AFFINITY PREDICTED BY RF-SCORE:    0.00 PKD
ROOT
HETATM    1  C   UNL     1      -6.455   4.556  64.587  1.00  0.00    -0.039 C  
HETATM    2  N   UNL     1      -7.569   4.970  65.440  1.00  0.00    -0.084 NA 
ENDROOT
BRANCH   2   3
HETATM    3  C   UNL     1      -7.401   6.275  65.949  1.00  0.00    -0.080 A  
HETATM    4  C   UNL     1      -7.354   8.580  65.662  1.00  0.00    -0.084 A  
HETATM    5  C   UNL     1      -7.000   8.818  66.976  1.00  0.00    -0.074 A  
HETATM    6  C   UNL     1      -7.046   6.444  67.289  1.00  0.00    -0.073 A  
HETATM    7  C   UNL     1      -6.841   7.722  67.807  1.00  0.00    -0.069 A  
HETATM    8  N   UNL     1      -7.552   7.347  65.140  1.00  0.00    -0.096 NA 
ENDBRANCH   2   3
BRANCH   2   9
HETATM    9  C   UNL     1      -8.905   4.732  64.857  1.00  0.00    -0.153 C  
BRANCH   9  10
HETATM   10  C   UNL     1      -9.943   4.359  65.927  1.00  0.00    -0.240 C  
BRANCH  10  11
HETATM   11  O   UNL     1     -10.982   5.342  66.034  1.00  0.00    -0.171 OA 
BRANCH  11  12
HETATM   12  C   UNL     1     -10.798   6.275  67.027  1.00  0.00    -0.383 A  
HETATM   13  C   UNL     1     -10.515   8.521  67.897  1.00  0.00    -0.262 A  
HETATM   14  C   UNL     1     -10.785   7.656  66.836  1.00  0.00    -0.271 A  
HETATM   15  C   UNL     1     -10.266   8.022  69.180  1.00  0.00    -0.221 A  
HETATM   16  C   UNL     1     -10.334   6.636  69.385  1.00  0.00    -0.228 A  
HETATM   17  C   UNL     1     -10.596   5.769  68.316  1.00  0.00    -0.286 A  
BRANCH  15  18
HETATM   18  C   UNL     1      -9.850   8.960  70.284  1.00  0.00    -0.211 C  
BRANCH  18  19
HETATM   19  C   UNL     1     -10.864   9.272  71.381  1.00  0.00    -0.364 C  
HETATM   20  S   UNL     1     -12.518   9.835  70.866  1.00  0.00    -0.246 SA 
HETATM   21  C   UNL     1     -13.274   9.048  72.231  1.00  0.00    -0.460 C  
HETATM   22  N   UNL     1     -12.416   8.162  72.791  1.00  0.00    -0.610 N  
HETATM   23  O   UNL     1     -14.404   9.290  72.620  1.00  0.00    -0.497 OA 
HETATM   24  C   UNL     1     -11.123   8.140  72.352  1.00  0.00    -0.369 C  
HETATM   25  H   UNL     1     -12.728   7.526  73.524  1.00  0.00     0.000 HD 
HETATM   26  O   UNL     1     -10.279   7.364  72.780  1.00  0.00    -0.198 OA 
ENDBRANCH  18  19
ENDBRANCH  15  18
ENDBRANCH  11  12
ENDBRANCH  10  11
ENDBRANCH   9  10
ENDBRANCH   2   9
TORSDOF 7
ENDMDL
MODEL      136
REMARK 921   NORMALIZED FREE ENERGY PREDICTED BY IDOCK:   -4.91 KCAL/MOL
REMARK 922        TOTAL FREE ENERGY PREDICTED BY IDOCK:   -7.77 KCAL/MOL
REMARK 923 INTER-LIGAND FREE ENERGY PREDICTED BY IDOCK:   -7.07 KCAL/MOL
REMARK 924 INTRA-LIGAND FREE ENERGY PREDICTED BY IDOCK:   -0.71 KCAL/MOL
REMARK 927      BINDING AFFINITY PREDICTED BY RF-SCORE:    0.00 PKD
ROOT
HETATM    1  C   UNL     1     -14.350  15.361  71.548  1.00  0.00    -0.462 C  
HETATM    2  N   UNL     1     -13.493  14.264  71.098  1.00  0.00    -0.315 NA 
ENDROOT
BRANCH   2   3
HETATM    3  C   UNL     1     -12.517  14.688  70.173  1.00  0.00    -0.317 A  
HETATM    4  C   UNL     1     -11.229  14.338  68.271  1.00  0.00    -0.276 A  
HETATM    5  C   UNL     1     -10.548  15.532  68.414  1.00  0.00    -0.252 A  
HETATM    6  C   UNL     1     -11.870  15.908  70.376  1.00  0.00    -0.358 A  
HETATM    7  C   UNL     1     -10.877  16.333  69.494  1.00  0.00    -0.342 A  
HETATM    8  N   UNL     1     -12.191  13.906  69.119  1.00  0.00    -0.332 NA 
ENDBRANCH   2   3
BRANCH   2   9
HETATM    9  C   UNL     1     -12.949  13.428  72.188  1.00  0.00    -0.302 C  
BRANCH   9  10
HETATM   10  C   UNL     1     -13.527  12.005  72.166  1.00  0.00    -0.233 C  
BRANCH  10  11
HETATM   11  O   UNL     1     -13.078  11.258  71.027  1.00  0.00    -0.263 OA 
BRANCH  11  12
HETATM   12  C   UNL     1     -12.173  10.262  71.306  1.00  0.00    -0.395 A  
HETATM   13  C   UNL     1     -10.051   9.108  71.096  1.00  0.00    -0.384 A  
HETATM   14  C   UNL     1     -10.870  10.202  70.815  1.00  0.00    -0.241 A  
HETATM   15  C   UNL     1     -10.514   8.054  71.891  1.00  0.00    -0.296 A  
HETATM   16  C   UNL     1     -11.805   8.139  72.432  1.00  0.00    -0.448 A  
HETATM   17  C   UNL     1     -12.630   9.234  72.140  1.00  0.00    -0.443 A  
BRANCH  15  18
HETATM   18  C   UNL     1      -9.664   6.824  72.079  1.00  0.00    -0.159 C  
BRANCH  18  19
HETATM   19  C   UNL     1     -10.325   5.460  71.906  1.00  0.00    -0.212 C  
HETATM   20  S   UNL     1      -9.469   4.232  70.868  1.00  0.00    -0.183 SA 
HETATM   21  C   UNL     1     -10.051   2.909  71.851  1.00  0.00    -0.084 C  
HETATM   22  N   UNL     1     -10.525   3.380  73.030  1.00  0.00    -0.163 N  
HETATM   23  O   UNL     1     -10.041   1.742  71.502  1.00  0.00    -0.142 OA 
HETATM   24  C   UNL     1     -10.634   4.731  73.196  1.00  0.00    -0.217 C  
HETATM   25  H   UNL     1     -10.794   2.740  73.777  1.00  0.00     0.000 HD 
HETATM   26  O   UNL     1     -11.031   5.254  74.229  1.00  0.00    -0.246 OA 
ENDBRANCH  18  19
ENDBRANCH  15  18
ENDBRANCH  11  12
ENDBRANCH  10  11
ENDBRANCH   9  10
ENDBRANCH   2   9
TORSDOF 7
ENDMDL
MODEL      137
REMARK 921   NORMALIZED FREE ENERGY PREDICTED BY IDOCK:   -4.90 KCAL/MOL
REMARK 922        TOTAL FREE ENERGY PREDICTED BY IDOCK:   -7.77 KCAL/MOL
REMARK 923 INTER-LIGAND FREE ENERGY PREDICTED BY IDOCK:   -7.23 KCAL/MOL
REMARK 924 INTRA-LIGAND FREE ENERGY PREDICTED BY IDOCK:   -0.53 KCAL/MOL
REMARK 927      BINDING AFFINITY PREDICTED BY RF-SCORE:    0.00 PKD
ROOT
HETATM    1  C   UNL     1      -9.696   8.430  66.417  1.00  0.00    -0.242 C  
HETATM    2  N   UNL     1     -10.466   8.319  67.656  1.00  0.00    -0.245 NA 
ENDROOT
BRANCH   2   3
HETATM    3  C   UNL     1     -10.292   7.071  68.289  1.00  0.00    -0.194 A  
HETATM    4  C   UNL     1      -9.744   4.815  68.221  1.00  0.00    -0.140 A  
HETATM    5  C   UNL     1     -10.023   4.623  69.561  1.00  0.00    -0.266 A  
HETATM    6  C   UNL     1     -10.589   6.949  69.648  1.00  0.00    -0.258 A  
HETATM    7  C   UNL     1     -10.457   5.718  70.289  1.00  0.00    -0.349 A  
HETATM    8  N   UNL     1      -9.871   6.000  67.581  1.00  0.00    -0.117 NA 
ENDBRANCH   2   3
BRANCH   2   9
HETATM    9  C   UNL     1     -10.319   9.471  68.570  1.00  0.00    -0.207 C  
BRANCH   9  10
HETATM   10  C   UNL     1     -11.644  10.222  68.769  1.00  0.00    -0.050 C  
BRANCH  10  11
HETATM   11  O   UNL     1     -11.957  11.066  67.652  1.00  0.00    -0.583 OA 
BRANCH  11  12
HETATM   12  C   UNL     1     -11.708  12.404  67.848  1.00  0.00    -0.360 A  
HETATM   13  C   UNL     1     -11.345  14.391  69.190  1.00  0.00    -0.308 A  
HETATM   14  C   UNL     1     -11.518  13.010  69.090  1.00  0.00    -0.353 A  
HETATM   15  C   UNL     1     -11.343  15.196  68.046  1.00  0.00    -0.346 A  
HETATM   16  C   UNL     1     -11.478  14.581  66.793  1.00  0.00    -0.376 A  
HETATM   17  C   UNL     1     -11.661  13.196  66.694  1.00  0.00    -0.403 A  
BRANCH  15  18
HETATM   18  C   UNL     1     -11.283  16.696  68.183  1.00  0.00    -0.202 C  
BRANCH  18  19
HETATM   19  C   UNL     1     -10.076  17.423  67.598  1.00  0.00    -0.327 C  
HETATM   20  S   UNL     1     -10.291  19.169  67.123  1.00  0.00    -0.450 SA 
HETATM   21  C   UNL     1      -8.639  19.548  67.552  1.00  0.00    -0.307 C  
HETATM   22  N   UNL     1      -8.115  18.553  68.308  1.00  0.00    -0.294 N  
HETATM   23  O   UNL     1      -8.055  20.556  67.195  1.00  0.00    -0.336 OA 
HETATM   24  C   UNL     1      -8.837  17.406  68.467  1.00  0.00    -0.277 C  
HETATM   25  H   UNL     1      -7.202  18.660  68.749  1.00  0.00     0.000 HD 
HETATM   26  O   UNL     1      -8.459  16.460  69.146  1.00  0.00    -0.240 OA 
ENDBRANCH  18  19
ENDBRANCH  15  18
ENDBRANCH  11  12
ENDBRANCH  10  11
ENDBRANCH   9  10
ENDBRANCH   2   9
TORSDOF 7
ENDMDL
MODEL      138
REMARK 921   NORMALIZED FREE ENERGY PREDICTED BY IDOCK:   -4.89 KCAL/MOL
REMARK 922        TOTAL FREE ENERGY PREDICTED BY IDOCK:   -7.75 KCAL/MOL
REMARK 923 INTER-LIGAND FREE ENERGY PREDICTED BY IDOCK:   -7.16 KCAL/MOL
REMARK 924 INTRA-LIGAND FREE ENERGY PREDICTED BY IDOCK:   -0.59 KCAL/MOL
REMARK 927      BINDING AFFINITY PREDICTED BY RF-SCORE:    0.00 PKD
ROOT
HETATM    1  C   UNL     1      -7.238   7.140  69.734  1.00  0.00    -0.079 C  
HETATM    2  N   UNL     1      -8.648   7.354  69.407  1.00  0.00    -0.133 NA 
ENDROOT
BRANCH   2   3
HETATM    3  C   UNL     1      -9.115   6.458  68.423  1.00  0.00    -0.118 A  
HETATM    4  C   UNL     1     -10.581   5.904  66.709  1.00  0.00    -0.300 A  
HETATM    5  C   UNL     1     -10.041   4.642  66.545  1.00  0.00    -0.279 A  
HETATM    6  C   UNL     1      -8.521   5.200  68.310  1.00  0.00    -0.095 A  
HETATM    7  C   UNL     1      -8.987   4.284  67.368  1.00  0.00    -0.134 A  
HETATM    8  N   UNL     1     -10.146   6.804  67.620  1.00  0.00    -0.149 NA 
ENDBRANCH   2   3
BRANCH   2   9
HETATM    9  C   UNL     1      -9.538   7.457  70.582  1.00  0.00    -0.171 C  
BRANCH   9  10
HETATM   10  C   UNL     1     -10.638   8.510  70.382  1.00  0.00    -0.223 C  
BRANCH  10  11
HETATM   11  O   UNL     1     -10.096   9.819  70.160  1.00  0.00    -0.238 OA 
BRANCH  11  12
HETATM   12  C   UNL     1     -10.454  10.401  68.967  1.00  0.00    -0.219 A  
HETATM   13  C   UNL     1     -10.206  10.886  66.604  1.00  0.00    -0.282 A  
HETATM   14  C   UNL     1      -9.812  10.189  67.747  1.00  0.00    -0.190 A  
HETATM   15  C   UNL     1     -11.263  11.801  66.653  1.00  0.00    -0.383 A  
HETATM   16  C   UNL     1     -11.945  11.973  67.865  1.00  0.00    -0.204 A  
HETATM   17  C   UNL     1     -11.543  11.280  69.015  1.00  0.00    -0.386 A  
BRANCH  15  18
HETATM   18  C   UNL     1     -11.590  12.636  65.442  1.00  0.00    -0.400 C  
BRANCH  18  19
HETATM   19  C   UNL     1     -11.612  14.154  65.601  1.00  0.00    -0.339 C  
HETATM   20  S   UNL     1     -10.113  14.955  66.257  1.00  0.00    -0.300 SA 
HETATM   21  C   UNL     1     -10.382  16.383  65.286  1.00  0.00    -0.181 C  
HETATM   22  N   UNL     1     -11.289  16.121  64.315  1.00  0.00    -0.716 N  
HETATM   23  O   UNL     1      -9.837  17.456  65.483  1.00  0.00    -0.536 OA 
HETATM   24  C   UNL     1     -11.944  14.924  64.341  1.00  0.00    -0.394 C  
HETATM   25  H   UNL     1     -11.478  16.803  63.581  1.00  0.00     0.000 HD 
HETATM   26  O   UNL     1     -12.765  14.585  63.498  1.00  0.00    -0.707 OA 
ENDBRANCH  18  19
ENDBRANCH  15  18
ENDBRANCH  11  12
ENDBRANCH  10  11
ENDBRANCH   9  10
ENDBRANCH   2   9
TORSDOF 7
ENDMDL
MODEL      139
REMARK 921   NORMALIZED FREE ENERGY PREDICTED BY IDOCK:   -4.89 KCAL/MOL
REMARK 922        TOTAL FREE ENERGY PREDICTED BY IDOCK:   -7.74 KCAL/MOL
REMARK 923 INTER-LIGAND FREE ENERGY PREDICTED BY IDOCK:   -7.19 KCAL/MOL
REMARK 924 INTRA-LIGAND FREE ENERGY PREDICTED BY IDOCK:   -0.55 KCAL/MOL
REMARK 927      BINDING AFFINITY PREDICTED BY RF-SCORE:    0.00 PKD
ROOT
HETATM    1  C   UNL     1     -13.210  10.287  71.643  1.00  0.00    -0.408 C  
HETATM    2  N   UNL     1     -11.776  10.077  71.441  1.00  0.00    -0.362 NA 
ENDROOT
BRANCH   2   3
HETATM    3  C   UNL     1     -11.378   8.755  71.728  1.00  0.00    -0.339 A  
HETATM    4  C   UNL     1      -9.752   7.200  72.305  1.00  0.00    -0.153 A  
HETATM    5  C   UNL     1     -10.628   6.134  72.225  1.00  0.00    -0.251 A  
HETATM    6  C   UNL     1     -12.316   7.725  71.631  1.00  0.00    -0.348 A  
HETATM    7  C   UNL     1     -11.940   6.406  71.878  1.00  0.00    -0.381 A  
HETATM    8  N   UNL     1     -10.097   8.486  72.064  1.00  0.00    -0.287 NA 
ENDBRANCH   2   3
BRANCH   2   9
HETATM    9  C   UNL     1     -11.262  10.580  70.149  1.00  0.00    -0.315 C  
BRANCH   9  10
HETATM   10  C   UNL     1     -11.992  11.853  69.695  1.00  0.00    -0.298 C  
BRANCH  10  11
HETATM   11  O   UNL     1     -11.810  12.107  68.295  1.00  0.00    -0.329 OA 
BRANCH  11  12
HETATM   12  C   UNL     1     -10.813  13.004  67.993  1.00  0.00    -0.242 A  
HETATM   13  C   UNL     1      -9.237  14.778  68.491  1.00  0.00    -0.194 A  
HETATM   14  C   UNL     1     -10.189  13.848  68.910  1.00  0.00    -0.135 A  
HETATM   15  C   UNL     1      -8.876  14.874  67.143  1.00  0.00    -0.235 A  
HETATM   16  C   UNL     1      -9.462  13.987  66.228  1.00  0.00    -0.249 A  
HETATM   17  C   UNL     1     -10.424  13.060  66.648  1.00  0.00    -0.271 A  
BRANCH  15  18
HETATM   18  C   UNL     1      -7.944  15.968  66.690  1.00  0.00    -0.291 C  
BRANCH  18  19
HETATM   19  C   UNL     1      -8.427  17.411  66.791  1.00  0.00    -0.254 C  
HETATM   20  S   UNL     1     -10.162  17.753  66.352  1.00  0.00    -0.348 SA 
HETATM   21  C   UNL     1     -10.270  19.032  67.538  1.00  0.00    -0.394 C  
HETATM   22  N   UNL     1      -9.233  18.950  68.406  1.00  0.00    -0.333 N  
HETATM   23  O   UNL     1     -11.148  19.878  67.553  1.00  0.00    -0.236 OA 
HETATM   24  C   UNL     1      -8.235  18.057  68.146  1.00  0.00    -0.271 C  
HETATM   25  H   UNL     1      -9.200  19.542  69.236  1.00  0.00     0.000 HD 
HETATM   26  O   UNL     1      -7.267  17.893  68.879  1.00  0.00    -0.267 OA 
ENDBRANCH  18  19
ENDBRANCH  15  18
ENDBRANCH  11  12
ENDBRANCH  10  11
ENDBRANCH   9  10
ENDBRANCH   2   9
TORSDOF 7
ENDMDL
MODEL      140
REMARK 921   NORMALIZED FREE ENERGY PREDICTED BY IDOCK:   -4.88 KCAL/MOL
REMARK 922        TOTAL FREE ENERGY PREDICTED BY IDOCK:   -7.73 KCAL/MOL
REMARK 923 INTER-LIGAND FREE ENERGY PREDICTED BY IDOCK:   -6.91 KCAL/MOL
REMARK 924 INTRA-LIGAND FREE ENERGY PREDICTED BY IDOCK:   -0.82 KCAL/MOL
REMARK 927      BINDING AFFINITY PREDICTED BY RF-SCORE:    0.00 PKD
ROOT
HETATM    1  C   UNL     1     -11.855  14.225  66.825  1.00  0.00    -0.426 C  
HETATM    2  N   UNL     1     -10.937  14.953  67.701  1.00  0.00    -0.290 NA 
ENDROOT
BRANCH   2   3
HETATM    3  C   UNL     1     -11.355  14.943  69.048  1.00  0.00    -0.292 A  
HETATM    4  C   UNL     1     -11.316  15.826  71.196  1.00  0.00    -0.389 A  
HETATM    5  C   UNL     1     -12.154  14.848  71.700  1.00  0.00    -0.415 A  
HETATM    6  C   UNL     1     -12.206  13.928  69.490  1.00  0.00    -0.356 A  
HETATM    7  C   UNL     1     -12.606  13.876  70.824  1.00  0.00    -0.424 A  
HETATM    8  N   UNL     1     -10.913  15.889  69.907  1.00  0.00    -0.313 NA 
ENDBRANCH   2   3
BRANCH   2   9
HETATM    9  C   UNL     1      -9.514  14.599  67.522  1.00  0.00    -0.198 C  
BRANCH   9  10
HETATM   10  C   UNL     1      -9.178  13.233  68.140  1.00  0.00    -0.212 C  
BRANCH  10  11
HETATM   11  O   UNL     1      -9.340  12.162  67.199  1.00  0.00    -0.184 OA 
BRANCH  11  12
HETATM   12  C   UNL     1      -9.596  10.933  67.759  1.00  0.00    -0.164 A  
HETATM   13  C   UNL     1      -9.368   8.527  67.959  1.00  0.00    -0.147 A  
HETATM   14  C   UNL     1      -8.985   9.738  67.380  1.00  0.00    -0.144 A  
HETATM   15  C   UNL     1     -10.363   8.487  68.942  1.00  0.00    -0.226 A  
HETATM   16  C   UNL     1     -10.938   9.695  69.363  1.00  0.00    -0.215 A  
HETATM   17  C   UNL     1     -10.559  10.909  68.774  1.00  0.00    -0.231 A  
BRANCH  15  18
HETATM   18  C   UNL     1     -10.853   7.161  69.462  1.00  0.00    -0.244 C  
BRANCH  18  19
HETATM   19  C   UNL     1     -10.560   6.807  70.917  1.00  0.00    -0.220 C  
HETATM   20  S   UNL     1      -9.067   7.524  71.676  1.00  0.00    -0.134 SA 
HETATM   21  C   UNL     1      -9.838   7.619  73.241  1.00  0.00    -0.301 C  
HETATM   22  N   UNL     1     -11.178   7.470  73.109  1.00  0.00    -0.584 N  
HETATM   23  O   UNL     1      -9.238   7.776  74.290  1.00  0.00    -0.144 OA 
HETATM   24  C   UNL     1     -11.678   7.119  71.888  1.00  0.00    -0.292 C  
HETATM   25  H   UNL     1     -11.800   7.618  73.904  1.00  0.00     0.000 HD 
HETATM   26  O   UNL     1     -12.874   6.981  71.663  1.00  0.00    -0.366 OA 
ENDBRANCH  18  19
ENDBRANCH  15  18
ENDBRANCH  11  12
ENDBRANCH  10  11
ENDBRANCH   9  10
ENDBRANCH   2   9
TORSDOF 7
ENDMDL
MODEL      141
REMARK 921   NORMALIZED FREE ENERGY PREDICTED BY IDOCK:   -4.87 KCAL/MOL
REMARK 922        TOTAL FREE ENERGY PREDICTED BY IDOCK:   -7.72 KCAL/MOL
REMARK 923 INTER-LIGAND FREE ENERGY PREDICTED BY IDOCK:   -6.35 KCAL/MOL
REMARK 924 INTRA-LIGAND FREE ENERGY PREDICTED BY IDOCK:   -1.37 KCAL/MOL
REMARK 927      BINDING AFFINITY PREDICTED BY RF-SCORE:    0.00 PKD
ROOT
HETATM    1  C   UNL     1     -12.082  14.361  64.014  1.00  0.00    -0.280 C  
HETATM    2  N   UNL     1     -12.245  13.109  64.753  1.00  0.00    -0.403 NA 
ENDROOT
BRANCH   2   3
HETATM    3  C   UNL     1     -11.228  12.176  64.464  1.00  0.00    -0.331 A  
HETATM    4  C   UNL     1      -9.552  11.359  63.079  1.00  0.00    -0.376 A  
HETATM    5  C   UNL     1      -9.282  10.283  63.904  1.00  0.00    -0.312 A  
HETATM    6  C   UNL     1     -11.007  11.114  65.343  1.00  0.00    -0.151 A  
HETATM    7  C   UNL     1     -10.031  10.159  65.062  1.00  0.00    -0.375 A  
HETATM    8  N   UNL     1     -10.498  12.292  63.332  1.00  0.00    -0.423 NA 
ENDBRANCH   2   3
BRANCH   2   9
HETATM    9  C   UNL     1     -12.492  13.283  66.200  1.00  0.00    -0.268 C  
BRANCH   9  10
HETATM   10  C   UNL     1     -11.478  14.237  66.847  1.00  0.00    -0.363 C  
BRANCH  10  11
HETATM   11  O   UNL     1     -11.341  14.003  68.256  1.00  0.00    -0.259 OA 
BRANCH  11  12
HETATM   12  C   UNL     1     -10.862  12.759  68.593  1.00  0.00    -0.253 A  
HETATM   13  C   UNL     1     -10.999  10.559  69.603  1.00  0.00    -0.333 A  
HETATM   14  C   UNL     1     -11.598  11.764  69.235  1.00  0.00    -0.378 A  
HETATM   15  C   UNL     1      -9.650  10.316  69.321  1.00  0.00    -0.239 A  
HETATM   16  C   UNL     1      -8.924  11.292  68.625  1.00  0.00    -0.148 A  
HETATM   17  C   UNL     1      -9.524  12.506  68.265  1.00  0.00    -0.201 A  
BRANCH  15  18
HETATM   18  C   UNL     1      -8.989   9.064  69.838  1.00  0.00    -0.170 C  
BRANCH  18  19
HETATM   19  C   UNL     1      -9.117   7.789  69.009  1.00  0.00    -0.144 C  
HETATM   20  S   UNL     1     -10.785   7.093  68.784  1.00  0.00    -0.128 SA 
HETATM   21  C   UNL     1     -10.388   6.509  67.185  1.00  0.00    -0.247 C  
HETATM   22  N   UNL     1      -9.252   7.100  66.743  1.00  0.00    -0.151 N  
HETATM   23  O   UNL     1     -11.041   5.676  66.581  1.00  0.00    -0.202 OA 
HETATM   24  C   UNL     1      -8.540   7.874  67.612  1.00  0.00    -0.127 C  
HETATM   25  H   UNL     1      -8.937   6.970  65.782  1.00  0.00     0.000 HD 
HETATM   26  O   UNL     1      -7.513   8.466  67.303  1.00  0.00    -0.090 OA 
ENDBRANCH  18  19
ENDBRANCH  15  18
ENDBRANCH  11  12
ENDBRANCH  10  11
ENDBRANCH   9  10
ENDBRANCH   2   9
TORSDOF 7
ENDMDL
MODEL      142
REMARK 921   NORMALIZED FREE ENERGY PREDICTED BY IDOCK:   -4.87 KCAL/MOL
REMARK 922        TOTAL FREE ENERGY PREDICTED BY IDOCK:   -7.72 KCAL/MOL
REMARK 923 INTER-LIGAND FREE ENERGY PREDICTED BY IDOCK:   -7.24 KCAL/MOL
REMARK 924 INTRA-LIGAND FREE ENERGY PREDICTED BY IDOCK:   -0.48 KCAL/MOL
REMARK 927      BINDING AFFINITY PREDICTED BY RF-SCORE:    0.00 PKD
ROOT
HETATM    1  C   UNL     1      -9.875   8.568  71.971  1.00  0.00    -0.312 C  
HETATM    2  N   UNL     1     -10.153   9.343  70.761  1.00  0.00    -0.285 NA 
ENDROOT
BRANCH   2   3
HETATM    3  C   UNL     1     -10.056   8.564  69.589  1.00  0.00    -0.202 A  
HETATM    4  C   UNL     1      -9.248   8.219  67.438  1.00  0.00    -0.141 A  
HETATM    5  C   UNL     1      -9.943   7.035  67.280  1.00  0.00    -0.235 A  
HETATM    6  C   UNL     1     -10.783   7.376  69.497  1.00  0.00    -0.233 A  
HETATM    7  C   UNL     1     -10.730   6.607  68.336  1.00  0.00    -0.314 A  
HETATM    8  N   UNL     1      -9.291   8.982  68.555  1.00  0.00    -0.140 NA 
ENDBRANCH   2   3
BRANCH   2   9
HETATM    9  C   UNL     1     -11.385  10.157  70.828  1.00  0.00    -0.354 C  
BRANCH   9  10
HETATM   10  C   UNL     1     -11.365  11.316  69.822  1.00  0.00    -0.271 C  
BRANCH  10  11
HETATM   11  O   UNL     1     -12.152  12.430  70.267  1.00  0.00    -0.348 OA 
BRANCH  11  12
HETATM   12  C   UNL     1     -11.913  13.611  69.605  1.00  0.00    -0.343 A  
HETATM   13  C   UNL     1     -11.594  14.995  67.640  1.00  0.00    -0.327 A  
HETATM   14  C   UNL     1     -11.923  13.769  68.220  1.00  0.00    -0.392 A  
HETATM   15  C   UNL     1     -11.261  16.096  68.436  1.00  0.00    -0.358 A  
HETATM   16  C   UNL     1     -11.306  15.954  69.830  1.00  0.00    -0.347 A  
HETATM   17  C   UNL     1     -11.628  14.720  70.411  1.00  0.00    -0.333 A  
BRANCH  15  18
HETATM   18  C   UNL     1     -10.785  17.373  67.791  1.00  0.00    -0.332 C  
BRANCH  18  19
HETATM   19  C   UNL     1      -9.378  17.862  68.121  1.00  0.00    -0.286 C  
HETATM   20  S   UNL     1      -8.093  17.657  66.847  1.00  0.00    -0.236 SA 
HETATM   21  C   UNL     1      -7.285  19.126  67.343  1.00  0.00    -0.209 C  
HETATM   22  N   UNL     1      -8.105  19.864  68.129  1.00  0.00    -0.287 N  
HETATM   23  O   UNL     1      -6.143  19.416  67.032  1.00  0.00    -0.181 OA 
HETATM   24  C   UNL     1      -9.288  19.316  68.534  1.00  0.00    -0.388 C  
HETATM   25  H   UNL     1      -7.845  20.809  68.411  1.00  0.00     0.000 HD 
HETATM   26  O   UNL     1     -10.104  19.909  69.227  1.00  0.00    -0.389 OA 
ENDBRANCH  18  19
ENDBRANCH  15  18
ENDBRANCH  11  12
ENDBRANCH  10  11
ENDBRANCH   9  10
ENDBRANCH   2   9
TORSDOF 7
ENDMDL
MODEL      143
REMARK 921   NORMALIZED FREE ENERGY PREDICTED BY IDOCK:   -4.87 KCAL/MOL
REMARK 922        TOTAL FREE ENERGY PREDICTED BY IDOCK:   -7.72 KCAL/MOL
REMARK 923 INTER-LIGAND FREE ENERGY PREDICTED BY IDOCK:   -6.16 KCAL/MOL
REMARK 924 INTRA-LIGAND FREE ENERGY PREDICTED BY IDOCK:   -1.56 KCAL/MOL
REMARK 927      BINDING AFFINITY PREDICTED BY RF-SCORE:    0.00 PKD
ROOT
HETATM    1  C   UNL     1      -6.325   9.125  69.986  1.00  0.00    -0.039 C  
HETATM    2  N   UNL     1      -7.348   9.847  69.230  1.00  0.00    -0.076 NA 
ENDROOT
BRANCH   2   3
HETATM    3  C   UNL     1      -6.989  11.189  68.982  1.00  0.00    -0.101 A  
HETATM    4  C   UNL     1      -5.523  12.976  69.208  1.00  0.00    -0.076 A  
HETATM    5  C   UNL     1      -6.353  13.848  68.528  1.00  0.00    -0.093 A  
HETATM    6  C   UNL     1      -7.874  12.014  68.286  1.00  0.00    -0.145 A  
HETATM    7  C   UNL     1      -7.557  13.352  68.059  1.00  0.00    -0.143 A  
HETATM    8  N   UNL     1      -5.816  11.676  69.442  1.00  0.00    -0.064 NA 
ENDBRANCH   2   3
BRANCH   2   9
HETATM    9  C   UNL     1      -7.835   9.136  68.030  1.00  0.00    -0.100 C  
BRANCH   9  10
HETATM   10  C   UNL     1      -9.173   8.426  68.284  1.00  0.00    -0.134 C  
BRANCH  10  11
HETATM   11  O   UNL     1     -10.098   8.616  67.204  1.00  0.00    -0.211 OA 
BRANCH  11  12
HETATM   12  C   UNL     1     -10.587   9.894  67.077  1.00  0.00    -0.203 A  
HETATM   13  C   UNL     1     -10.942  12.000  65.928  1.00  0.00    -0.342 A  
HETATM   14  C   UNL     1     -10.478  10.684  65.933  1.00  0.00    -0.243 A  
HETATM   15  C   UNL     1     -11.541  12.551  67.066  1.00  0.00    -0.437 A  
HETATM   16  C   UNL     1     -11.702  11.740  68.198  1.00  0.00    -0.377 A  
HETATM   17  C   UNL     1     -11.227  10.422  68.205  1.00  0.00    -0.333 A  
BRANCH  15  18
HETATM   18  C   UNL     1     -11.919  14.010  67.084  1.00  0.00    -0.465 C  
BRANCH  18  19
HETATM   19  C   UNL     1     -10.798  15.042  67.152  1.00  0.00    -0.314 C  
HETATM   20  S   UNL     1     -10.336  15.890  65.607  1.00  0.00    -0.401 SA 
HETATM   21  C   UNL     1      -9.942  17.361  66.465  1.00  0.00    -0.311 C  
HETATM   22  N   UNL     1     -10.456  17.320  67.718  1.00  0.00    -0.359 N  
HETATM   23  O   UNL     1      -9.283  18.272  65.994  1.00  0.00    -0.508 OA 
HETATM   24  C   UNL     1     -11.012  16.154  68.157  1.00  0.00    -0.341 C  
HETATM   25  H   UNL     1     -10.427  18.143  68.320  1.00  0.00     0.000 HD 
HETATM   26  O   UNL     1     -11.520  16.022  69.263  1.00  0.00    -0.343 OA 
ENDBRANCH  18  19
ENDBRANCH  15  18
ENDBRANCH  11  12
ENDBRANCH  10  11
ENDBRANCH   9  10
ENDBRANCH   2   9
TORSDOF 7
ENDMDL
MODEL      144
REMARK 921   NORMALIZED FREE ENERGY PREDICTED BY IDOCK:   -4.86 KCAL/MOL
REMARK 922        TOTAL FREE ENERGY PREDICTED BY IDOCK:   -7.71 KCAL/MOL
REMARK 923 INTER-LIGAND FREE ENERGY PREDICTED BY IDOCK:   -7.25 KCAL/MOL
REMARK 924 INTRA-LIGAND FREE ENERGY PREDICTED BY IDOCK:   -0.46 KCAL/MOL
REMARK 927      BINDING AFFINITY PREDICTED BY RF-SCORE:    0.00 PKD
ROOT
HETATM    1  C   UNL     1     -11.233   5.991  71.960  1.00  0.00    -0.288 C  
HETATM    2  N   UNL     1     -11.002   7.204  71.175  1.00  0.00    -0.244 NA 
ENDROOT
BRANCH   2   3
HETATM    3  C   UNL     1     -10.630   6.922  69.844  1.00  0.00    -0.228 A  
HETATM    4  C   UNL     1     -10.460   5.461  68.046  1.00  0.00    -0.123 A  
HETATM    5  C   UNL     1      -9.825   6.392  67.246  1.00  0.00    -0.169 A  
HETATM    6  C   UNL     1      -9.994   7.911  69.090  1.00  0.00    -0.184 A  
HETATM    7  C   UNL     1      -9.586   7.645  67.784  1.00  0.00    -0.169 A  
HETATM    8  N   UNL     1     -10.859   5.699  69.317  1.00  0.00    -0.290 NA 
ENDBRANCH   2   3
BRANCH   2   9
HETATM    9  C   UNL     1     -12.073   8.216  71.286  1.00  0.00    -0.288 C  
BRANCH   9  10
HETATM   10  C   UNL     1     -11.518   9.648  71.275  1.00  0.00    -0.392 C  
BRANCH  10  11
HETATM   11  O   UNL     1     -12.534  10.618  70.986  1.00  0.00    -0.340 OA 
BRANCH  11  12
HETATM   12  C   UNL     1     -12.154  11.616  70.120  1.00  0.00    -0.333 A  
HETATM   13  C   UNL     1     -11.981  13.914  69.366  1.00  0.00    -0.402 A  
HETATM   14  C   UNL     1     -12.333  12.980  70.341  1.00  0.00    -0.351 A  
HETATM   15  C   UNL     1     -11.426  13.501  68.149  1.00  0.00    -0.338 A  
HETATM   16  C   UNL     1     -11.193  12.133  67.948  1.00  0.00    -0.329 A  
HETATM   17  C   UNL     1     -11.556  11.197  68.925  1.00  0.00    -0.385 A  
BRANCH  15  18
HETATM   18  C   UNL     1     -11.171  14.510  67.059  1.00  0.00    -0.342 C  
BRANCH  18  19
HETATM   19  C   UNL     1     -10.064  15.538  67.277  1.00  0.00    -0.250 C  
HETATM   20  S   UNL     1      -8.523  14.966  68.063  1.00  0.00    -0.159 SA 
HETATM   21  C   UNL     1      -7.563  16.092  67.134  1.00  0.00    -0.211 C  
HETATM   22  N   UNL     1      -8.286  16.573  66.094  1.00  0.00    -0.321 N  
HETATM   23  O   UNL     1      -6.416  16.401  67.409  1.00  0.00    -0.142 OA 
HETATM   24  C   UNL     1      -9.615  16.267  66.029  1.00  0.00    -0.337 C  
HETATM   25  H   UNL     1      -7.848  17.149  65.377  1.00  0.00     0.000 HD 
HETATM   26  O   UNL     1     -10.348  16.636  65.120  1.00  0.00    -0.630 OA 
ENDBRANCH  18  19
ENDBRANCH  15  18
ENDBRANCH  11  12
ENDBRANCH  10  11
ENDBRANCH   9  10
ENDBRANCH   2   9
TORSDOF 7
ENDMDL
MODEL      145
REMARK 921   NORMALIZED FREE ENERGY PREDICTED BY IDOCK:   -4.85 KCAL/MOL
REMARK 922        TOTAL FREE ENERGY PREDICTED BY IDOCK:   -7.69 KCAL/MOL
REMARK 923 INTER-LIGAND FREE ENERGY PREDICTED BY IDOCK:   -7.38 KCAL/MOL
REMARK 924 INTRA-LIGAND FREE ENERGY PREDICTED BY IDOCK:   -0.31 KCAL/MOL
REMARK 927      BINDING AFFINITY PREDICTED BY RF-SCORE:    0.00 PKD
ROOT
HETATM    1  C   UNL     1     -11.548  15.724  68.613  1.00  0.00    -0.386 C  
HETATM    2  N   UNL     1     -10.905  16.333  67.448  1.00  0.00    -0.286 NA 
ENDROOT
BRANCH   2   3
HETATM    3  C   UNL     1     -10.153  17.479  67.785  1.00  0.00    -0.330 A  
HETATM    4  C   UNL     1      -9.938  19.782  67.986  1.00  0.00    -0.433 A  
HETATM    5  C   UNL     1      -8.620  19.705  68.397  1.00  0.00    -0.357 A  
HETATM    6  C   UNL     1      -8.828  17.327  68.196  1.00  0.00    -0.239 A  
HETATM    7  C   UNL     1      -8.054  18.446  68.501  1.00  0.00    -0.340 A  
HETATM    8  N   UNL     1     -10.702  18.709  67.680  1.00  0.00    -0.417 NA 
ENDBRANCH   2   3
BRANCH   2   9
HETATM    9  C   UNL     1     -10.175  15.381  66.587  1.00  0.00    -0.277 C  
BRANCH   9  10
HETATM   10  C   UNL     1     -10.186  13.957  67.163  1.00  0.00    -0.258 C  
BRANCH  10  11
HETATM   11  O   UNL     1     -10.247  12.960  66.134  1.00  0.00    -0.266 OA 
BRANCH  11  12
HETATM   12  C   UNL     1     -10.416  11.671  66.583  1.00  0.00    -0.233 A  
HETATM   13  C   UNL     1     -11.140   9.980  68.163  1.00  0.00    -0.252 A  
HETATM   14  C   UNL     1     -11.086  11.312  67.752  1.00  0.00    -0.328 A  
HETATM   15  C   UNL     1     -10.535   8.973  67.403  1.00  0.00    -0.338 A  
HETATM   16  C   UNL     1      -9.910   9.326  66.199  1.00  0.00    -0.363 A  
HETATM   17  C   UNL     1      -9.849  10.665  65.792  1.00  0.00    -0.296 A  
BRANCH  15  18
HETATM   18  C   UNL     1     -10.492   7.560  67.926  1.00  0.00    -0.266 C  
BRANCH  18  19
HETATM   19  C   UNL     1      -9.902   7.325  69.313  1.00  0.00    -0.166 C  
HETATM   20  S   UNL     1      -8.799   8.608  69.989  1.00  0.00    -0.148 SA 
HETATM   21  C   UNL     1      -9.340   8.293  71.622  1.00  0.00    -0.192 C  
HETATM   22  N   UNL     1     -10.483   7.566  71.601  1.00  0.00    -0.200 N  
HETATM   23  O   UNL     1      -8.750   8.666  72.621  1.00  0.00    -0.380 OA 
HETATM   24  C   UNL     1     -10.918   7.070  70.405  1.00  0.00    -0.268 C  
HETATM   25  H   UNL     1     -11.006   7.392  72.458  1.00  0.00     0.000 HD 
HETATM   26  O   UNL     1     -11.948   6.420  70.279  1.00  0.00    -0.361 OA 
ENDBRANCH  18  19
ENDBRANCH  15  18
ENDBRANCH  11  12
ENDBRANCH  10  11
ENDBRANCH   9  10
ENDBRANCH   2   9
TORSDOF 7
ENDMDL
MODEL      146
REMARK 921   NORMALIZED FREE ENERGY PREDICTED BY IDOCK:   -4.85 KCAL/MOL
REMARK 922        TOTAL FREE ENERGY PREDICTED BY IDOCK:   -7.69 KCAL/MOL
REMARK 923 INTER-LIGAND FREE ENERGY PREDICTED BY IDOCK:   -6.86 KCAL/MOL
REMARK 924 INTRA-LIGAND FREE ENERGY PREDICTED BY IDOCK:   -0.83 KCAL/MOL
REMARK 927      BINDING AFFINITY PREDICTED BY RF-SCORE:    0.00 PKD
ROOT
HETATM    1  C   UNL     1     -10.775  15.664  64.970  1.00  0.00    -0.436 C  
HETATM    2  N   UNL     1     -11.302  14.600  65.825  1.00  0.00    -0.338 NA 
ENDROOT
BRANCH   2   3
HETATM    3  C   UNL     1     -11.326  14.966  67.187  1.00  0.00    -0.343 A  
HETATM    4  C   UNL     1     -10.809  16.440  68.906  1.00  0.00    -0.334 A  
HETATM    5  C   UNL     1     -11.339  15.616  69.881  1.00  0.00    -0.340 A  
HETATM    6  C   UNL     1     -11.880  14.087  68.119  1.00  0.00    -0.402 A  
HETATM    7  C   UNL     1     -11.885  14.411  69.475  1.00  0.00    -0.376 A  
HETATM    8  N   UNL     1     -10.790  16.141  67.587  1.00  0.00    -0.317 NA 
ENDBRANCH   2   3
BRANCH   2   9
HETATM    9  C   UNL     1     -12.570  14.008  65.351  1.00  0.00    -0.505 C  
BRANCH   9  10
HETATM   10  C   UNL     1     -12.390  12.555  64.886  1.00  0.00    -0.470 C  
BRANCH  10  11
HETATM   11  O   UNL     1     -11.007  12.211  64.719  1.00  0.00    -0.291 OA 
BRANCH  11  12
HETATM   12  C   UNL     1     -10.573  11.161  65.494  1.00  0.00    -0.225 A  
HETATM   13  C   UNL     1     -10.454   9.840  67.524  1.00  0.00    -0.309 A  
HETATM   14  C   UNL     1     -11.011  10.887  66.789  1.00  0.00    -0.248 A  
HETATM   15  C   UNL     1      -9.454   9.032  66.972  1.00  0.00    -0.212 A  
HETATM   16  C   UNL     1      -9.052   9.272  65.650  1.00  0.00    -0.268 A  
HETATM   17  C   UNL     1      -9.606  10.330  64.916  1.00  0.00    -0.365 A  
BRANCH  15  18
HETATM   18  C   UNL     1      -8.775   7.990  67.822  1.00  0.00    -0.127 C  
BRANCH  18  19
HETATM   19  C   UNL     1      -9.438   6.621  67.947  1.00  0.00    -0.117 C  
HETATM   20  S   UNL     1      -9.323   5.494  66.520  1.00  0.00    -0.152 SA 
HETATM   21  C   UNL     1      -9.274   4.090  67.560  1.00  0.00    -0.164 C  
HETATM   22  N   UNL     1      -9.003   4.464  68.833  1.00  0.00    -0.102 N  
HETATM   23  O   UNL     1      -9.476   2.950  67.179  1.00  0.00    -0.161 OA 
HETATM   24  C   UNL     1      -8.983   5.796  69.131  1.00  0.00    -0.118 C  
HETATM   25  H   UNL     1      -8.817   3.766  69.553  1.00  0.00     0.000 HD 
HETATM   26  O   UNL     1      -8.728   6.235  70.246  1.00  0.00    -0.139 OA 
ENDBRANCH  18  19
ENDBRANCH  15  18
ENDBRANCH  11  12
ENDBRANCH  10  11
ENDBRANCH   9  10
ENDBRANCH   2   9
TORSDOF 7
ENDMDL
MODEL      147
REMARK 921   NORMALIZED FREE ENERGY PREDICTED BY IDOCK:   -4.83 KCAL/MOL
REMARK 922        TOTAL FREE ENERGY PREDICTED BY IDOCK:   -7.66 KCAL/MOL
REMARK 923 INTER-LIGAND FREE ENERGY PREDICTED BY IDOCK:   -7.14 KCAL/MOL
REMARK 924 INTRA-LIGAND FREE ENERGY PREDICTED BY IDOCK:   -0.52 KCAL/MOL
REMARK 927      BINDING AFFINITY PREDICTED BY RF-SCORE:    0.00 PKD
ROOT
HETATM    1  C   UNL     1     -10.679  19.080  67.194  1.00  0.00    -0.456 C  
HETATM    2  N   UNL     1      -9.964  17.910  66.684  1.00  0.00    -0.337 NA 
ENDROOT
BRANCH   2   3
HETATM    3  C   UNL     1      -8.570  18.002  66.881  1.00  0.00    -0.250 A  
HETATM    4  C   UNL     1      -6.394  17.947  66.070  1.00  0.00    -0.253 A  
HETATM    5  C   UNL     1      -5.837  18.128  67.323  1.00  0.00    -0.151 A  
HETATM    6  C   UNL     1      -8.075  18.189  68.173  1.00  0.00    -0.289 A  
HETATM    7  C   UNL     1      -6.701  18.250  68.398  1.00  0.00    -0.229 A  
HETATM    8  N   UNL     1      -7.724  17.881  65.834  1.00  0.00    -0.545 NA 
ENDBRANCH   2   3
BRANCH   2   9
HETATM    9  C   UNL     1     -10.535  16.614  67.107  1.00  0.00    -0.300 C  
BRANCH   9  10
HETATM   10  C   UNL     1     -10.386  15.537  66.022  1.00  0.00    -0.326 C  
BRANCH  10  11
HETATM   11  O   UNL     1     -11.568  14.734  65.895  1.00  0.00    -0.348 OA 
BRANCH  11  12
HETATM   12  C   UNL     1     -11.437  13.437  66.334  1.00  0.00    -0.329 A  
HETATM   13  C   UNL     1     -11.615  11.646  67.960  1.00  0.00    -0.383 A  
HETATM   14  C   UNL     1     -11.861  12.965  67.576  1.00  0.00    -0.407 A  
HETATM   15  C   UNL     1     -10.951  10.764  67.101  1.00  0.00    -0.324 A  
HETATM   16  C   UNL     1     -10.575  11.221  65.830  1.00  0.00    -0.309 A  
HETATM   17  C   UNL     1     -10.814  12.549  65.450  1.00  0.00    -0.316 A  
BRANCH  15  18
HETATM   18  C   UNL     1     -10.582   9.384  67.580  1.00  0.00    -0.333 C  
BRANCH  18  19
HETATM   19  C   UNL     1      -9.244   9.205  68.291  1.00  0.00    -0.132 C  
HETATM   20  S   UNL     1      -8.302  10.707  68.708  1.00  0.00    -0.150 SA 
HETATM   21  C   UNL     1      -7.662   9.973  70.160  1.00  0.00    -0.143 C  
HETATM   22  N   UNL     1      -8.375   8.864  70.472  1.00  0.00    -0.141 N  
HETATM   23  O   UNL     1      -6.702  10.401  70.776  1.00  0.00    -0.340 OA 
HETATM   24  C   UNL     1      -9.305   8.414  69.580  1.00  0.00    -0.161 C  
HETATM   25  H   UNL     1      -8.219   8.376  71.354  1.00  0.00     0.000 HD 
HETATM   26  O   UNL     1     -10.013   7.435  69.779  1.00  0.00    -0.184 OA 
ENDBRANCH  18  19
ENDBRANCH  15  18
ENDBRANCH  11  12
ENDBRANCH  10  11
ENDBRANCH   9  10
ENDBRANCH   2   9
TORSDOF 7
ENDMDL
MODEL      148
REMARK 921   NORMALIZED FREE ENERGY PREDICTED BY IDOCK:   -4.82 KCAL/MOL
REMARK 922        TOTAL FREE ENERGY PREDICTED BY IDOCK:   -7.65 KCAL/MOL
REMARK 923 INTER-LIGAND FREE ENERGY PREDICTED BY IDOCK:   -7.31 KCAL/MOL
REMARK 924 INTRA-LIGAND FREE ENERGY PREDICTED BY IDOCK:   -0.34 KCAL/MOL
REMARK 927      BINDING AFFINITY PREDICTED BY RF-SCORE:    0.00 PKD
ROOT
HETATM    1  C   UNL     1     -11.707   6.646  70.379  1.00  0.00    -0.386 C  
HETATM    2  N   UNL     1     -11.606   6.463  71.828  1.00  0.00    -0.304 NA 
ENDROOT
BRANCH   2   3
HETATM    3  C   UNL     1     -10.968   5.255  72.175  1.00  0.00    -0.160 A  
HETATM    4  C   UNL     1      -9.556   3.481  71.667  1.00  0.00    -0.158 A  
HETATM    5  C   UNL     1      -9.784   2.848  72.875  1.00  0.00    -0.174 A  
HETATM    6  C   UNL     1     -11.241   4.671  73.414  1.00  0.00    -0.423 A  
HETATM    7  C   UNL     1     -10.650   3.459  73.766  1.00  0.00    -0.279 A  
HETATM    8  N   UNL     1     -10.125   4.654  71.306  1.00  0.00    -0.193 NA 
ENDBRANCH   2   3
BRANCH   2   9
HETATM    9  C   UNL     1     -11.082   7.638  72.555  1.00  0.00    -0.336 C  
BRANCH   9  10
HETATM   10  C   UNL     1     -11.411   8.955  71.837  1.00  0.00    -0.372 C  
BRANCH  10  11
HETATM   11  O   UNL     1     -10.275   9.489  71.143  1.00  0.00    -0.301 OA 
BRANCH  11  12
HETATM   12  C   UNL     1     -10.575  10.243  70.033  1.00  0.00    -0.269 A  
HETATM   13  C   UNL     1     -10.057  11.404  67.968  1.00  0.00    -0.193 A  
HETATM   14  C   UNL     1      -9.675  10.568  69.018  1.00  0.00    -0.221 A  
HETATM   15  C   UNL     1     -11.355  11.921  67.901  1.00  0.00    -0.358 A  
HETATM   16  C   UNL     1     -12.277  11.549  68.891  1.00  0.00    -0.128 A  
HETATM   17  C   UNL     1     -11.889  10.718  69.950  1.00  0.00    -0.413 A  
BRANCH  15  18
HETATM   18  C   UNL     1     -11.712  12.922  66.832  1.00  0.00    -0.445 C  
BRANCH  18  19
HETATM   19  C   UNL     1     -11.671  14.403  67.193  1.00  0.00    -0.400 C  
HETATM   20  S   UNL     1     -11.744  14.844  68.960  1.00  0.00    -0.317 SA 
HETATM   21  C   UNL     1     -10.719  16.239  68.713  1.00  0.00    -0.309 C  
HETATM   22  N   UNL     1     -10.103  16.156  67.509  1.00  0.00    -0.251 N  
HETATM   23  O   UNL     1     -10.605  17.152  69.512  1.00  0.00    -0.296 OA 
HETATM   24  C   UNL     1     -10.477  15.161  66.653  1.00  0.00    -0.287 C  
HETATM   25  H   UNL     1      -9.376  16.821  67.249  1.00  0.00     0.000 HD 
HETATM   26  O   UNL     1      -9.967  14.990  65.553  1.00  0.00    -0.338 OA 
ENDBRANCH  18  19
ENDBRANCH  15  18
ENDBRANCH  11  12
ENDBRANCH  10  11
ENDBRANCH   9  10
ENDBRANCH   2   9
TORSDOF 7
ENDMDL
MODEL      149
REMARK 921   NORMALIZED FREE ENERGY PREDICTED BY IDOCK:   -4.81 KCAL/MOL
REMARK 922        TOTAL FREE ENERGY PREDICTED BY IDOCK:   -7.63 KCAL/MOL
REMARK 923 INTER-LIGAND FREE ENERGY PREDICTED BY IDOCK:   -5.91 KCAL/MOL
REMARK 924 INTRA-LIGAND FREE ENERGY PREDICTED BY IDOCK:   -1.72 KCAL/MOL
REMARK 927      BINDING AFFINITY PREDICTED BY RF-SCORE:    0.00 PKD
ROOT
HETATM    1  C   UNL     1      -8.529   5.432  67.349  1.00  0.00    -0.106 C  
HETATM    2  N   UNL     1      -8.521   6.694  68.089  1.00  0.00    -0.117 NA 
ENDROOT
BRANCH   2   3
HETATM    3  C   UNL     1      -8.948   7.783  67.301  1.00  0.00    -0.127 A  
HETATM    4  C   UNL     1      -8.493   9.616  65.949  1.00  0.00    -0.128 A  
HETATM    5  C   UNL     1      -9.828   9.950  65.815  1.00  0.00    -0.356 A  
HETATM    6  C   UNL     1     -10.313   8.062  67.206  1.00  0.00    -0.371 A  
HETATM    7  C   UNL     1     -10.757   9.153  66.461  1.00  0.00     0.040 A  
HETATM    8  N   UNL     1      -8.043   8.565  66.672  1.00  0.00    -0.103 NA 
ENDBRANCH   2   3
BRANCH   2   9
HETATM    9  C   UNL     1      -9.176   6.629  69.412  1.00  0.00    -0.142 C  
BRANCH   9  10
HETATM   10  C   UNL     1      -8.366   7.359  70.493  1.00  0.00    -0.132 C  
BRANCH  10  11
HETATM   11  O   UNL     1      -9.203   8.136  71.361  1.00  0.00    -0.137 OA 
BRANCH  11  12
HETATM   12  C   UNL     1      -9.879   9.164  70.747  1.00  0.00    -0.270 A  
HETATM   13  C   UNL     1     -11.858  10.412  70.108  1.00  0.00    -0.379 A  
HETATM   14  C   UNL     1     -11.254   9.382  70.830  1.00  0.00    -0.393 A  
HETATM   15  C   UNL     1     -11.095  11.259  69.297  1.00  0.00    -0.314 A  
HETATM   16  C   UNL     1      -9.705  11.077  69.257  1.00  0.00    -0.033 A  
HETATM   17  C   UNL     1      -9.101  10.036  69.975  1.00  0.00    -0.133 A  
BRANCH  15  18
HETATM   18  C   UNL     1     -11.778  12.283  68.427  1.00  0.00    -0.390 C  
BRANCH  18  19
HETATM   19  C   UNL     1     -11.929  13.701  68.970  1.00  0.00    -0.353 C  
HETATM   20  S   UNL     1     -12.409  13.890  70.717  1.00  0.00    -0.386 SA 
HETATM   21  C   UNL     1     -11.465  15.352  70.878  1.00  0.00    -0.361 C  
HETATM   22  N   UNL     1     -10.602  15.465  69.839  1.00  0.00    -0.288 N  
HETATM   23  O   UNL     1     -11.592  16.151  71.790  1.00  0.00    -0.459 OA 
HETATM   24  C   UNL     1     -10.709  14.581  68.804  1.00  0.00    -0.253 C  
HETATM   25  H   UNL     1      -9.889  16.194  69.831  1.00  0.00     0.000 HD 
HETATM   26  O   UNL     1      -9.965  14.588  67.832  1.00  0.00    -0.221 OA 
ENDBRANCH  18  19
ENDBRANCH  15  18
ENDBRANCH  11  12
ENDBRANCH  10  11
ENDBRANCH   9  10
ENDBRANCH   2   9
TORSDOF 7
ENDMDL
MODEL      150
REMARK 921   NORMALIZED FREE ENERGY PREDICTED BY IDOCK:   -4.79 KCAL/MOL
REMARK 922        TOTAL FREE ENERGY PREDICTED BY IDOCK:   -7.61 KCAL/MOL
REMARK 923 INTER-LIGAND FREE ENERGY PREDICTED BY IDOCK:   -7.08 KCAL/MOL
REMARK 924 INTRA-LIGAND FREE ENERGY PREDICTED BY IDOCK:   -0.54 KCAL/MOL
REMARK 927      BINDING AFFINITY PREDICTED BY RF-SCORE:    0.00 PKD
ROOT
HETATM    1  C   UNL     1      -6.551   6.853  66.876  1.00  0.00    -0.047 C  
HETATM    2  N   UNL     1      -7.144   6.141  65.744  1.00  0.00    -0.071 NA 
ENDROOT
BRANCH   2   3
HETATM    3  C   UNL     1      -7.960   5.065  66.152  1.00  0.00    -0.107 A  
HETATM    4  C   UNL     1      -9.890   4.241  67.148  1.00  0.00    -0.163 A  
HETATM    5  C   UNL     1      -9.503   2.922  66.994  1.00  0.00    -0.065 A  
HETATM    6  C   UNL     1      -7.509   3.758  65.962  1.00  0.00    -0.080 A  
HETATM    7  C   UNL     1      -8.282   2.679  66.388  1.00  0.00    -0.087 A  
HETATM    8  N   UNL     1      -9.151   5.300  66.747  1.00  0.00    -0.117 NA 
ENDBRANCH   2   3
BRANCH   2   9
HETATM    9  C   UNL     1      -7.781   7.017  64.739  1.00  0.00    -0.115 C  
BRANCH   9  10
HETATM   10  C   UNL     1      -7.223   8.447  64.784  1.00  0.00    -0.082 C  
BRANCH  10  11
HETATM   11  O   UNL     1      -7.872   9.309  63.839  1.00  0.00    -0.118 OA 
BRANCH  11  12
HETATM   12  C   UNL     1      -8.795  10.173  64.381  1.00  0.00    -0.211 A  
HETATM   13  C   UNL     1      -9.813  11.449  66.174  1.00  0.00    -0.255 A  
HETATM   14  C   UNL     1      -8.787  10.632  65.697  1.00  0.00    -0.201 A  
HETATM   15  C   UNL     1     -10.864  11.839  65.337  1.00  0.00    -0.347 A  
HETATM   16  C   UNL     1     -10.844  11.424  63.998  1.00  0.00    -0.450 A  
HETATM   17  C   UNL     1      -9.818  10.595  63.523  1.00  0.00    -0.384 A  
BRANCH  15  18
HETATM   18  C   UNL     1     -12.026  12.614  65.901  1.00  0.00    -0.497 C  
BRANCH  18  19
HETATM   19  C   UNL     1     -11.995  14.135  65.794  1.00  0.00    -0.402 C  
HETATM   20  S   UNL     1     -10.602  15.008  66.579  1.00  0.00    -0.312 SA 
HETATM   21  C   UNL     1     -10.609  16.248  65.347  1.00  0.00    -0.352 C  
HETATM   22  N   UNL     1     -11.335  15.838  64.279  1.00  0.00    -0.775 N  
HETATM   23  O   UNL     1     -10.053  17.327  65.460  1.00  0.00    -0.581 OA 
HETATM   24  C   UNL     1     -12.047  14.678  64.382  1.00  0.00    -0.462 C  
HETATM   25  H   UNL     1     -11.349  16.384  63.418  1.00  0.00     0.000 HD 
HETATM   26  O   UNL     1     -12.716  14.214  63.468  1.00  0.00    -0.794 OA 
ENDBRANCH  18  19
ENDBRANCH  15  18
ENDBRANCH  11  12
ENDBRANCH  10  11
ENDBRANCH   9  10
ENDBRANCH   2   9
TORSDOF 7
ENDMDL
MODEL      151
REMARK 921   NORMALIZED FREE ENERGY PREDICTED BY IDOCK:   -4.79 KCAL/MOL
REMARK 922        TOTAL FREE ENERGY PREDICTED BY IDOCK:   -7.61 KCAL/MOL
REMARK 923 INTER-LIGAND FREE ENERGY PREDICTED BY IDOCK:   -6.75 KCAL/MOL
REMARK 924 INTRA-LIGAND FREE ENERGY PREDICTED BY IDOCK:   -0.86 KCAL/MOL
REMARK 927      BINDING AFFINITY PREDICTED BY RF-SCORE:    0.00 PKD
ROOT
HETATM    1  C   UNL     1      -9.931  15.260  65.764  1.00  0.00    -0.360 C  
HETATM    2  N   UNL     1     -10.992  14.310  66.100  1.00  0.00    -0.308 NA 
ENDROOT
BRANCH   2   3
HETATM    3  C   UNL     1     -11.363  14.375  67.460  1.00  0.00    -0.328 A  
HETATM    4  C   UNL     1     -11.847  15.590  69.379  1.00  0.00    -0.374 A  
HETATM    5  C   UNL     1     -12.032  14.457  70.148  1.00  0.00    -0.386 A  
HETATM    6  C   UNL     1     -11.537  13.190  68.176  1.00  0.00    -0.375 A  
HETATM    7  C   UNL     1     -11.871  13.229  69.529  1.00  0.00    -0.388 A  
HETATM    8  N   UNL     1     -11.518  15.573  68.067  1.00  0.00    -0.335 NA 
ENDBRANCH   2   3
BRANCH   2   9
HETATM    9  C   UNL     1     -12.143  14.328  65.173  1.00  0.00    -0.410 C  
BRANCH   9  10
HETATM   10  C   UNL     1     -12.381  12.956  64.525  1.00  0.00    -0.417 C  
BRANCH  10  11
HETATM   11  O   UNL     1     -11.328  12.598  63.619  1.00  0.00    -0.427 OA 
BRANCH  11  12
HETATM   12  C   UNL     1     -10.590  11.499  63.992  1.00  0.00    -0.379 A  
HETATM   13  C   UNL     1      -9.787   9.827  65.554  1.00  0.00    -0.378 A  
HETATM   14  C   UNL     1     -10.632  10.895  65.248  1.00  0.00    -0.259 A  
HETATM   15  C   UNL     1      -8.891   9.330  64.602  1.00  0.00    -0.218 A  
HETATM   16  C   UNL     1      -8.887   9.900  63.321  1.00  0.00    -0.257 A  
HETATM   17  C   UNL     1      -9.729  10.978  63.018  1.00  0.00    -0.381 A  
BRANCH  15  18
HETATM   18  C   UNL     1      -7.899   8.263  64.990  1.00  0.00    -0.126 C  
BRANCH  18  19
HETATM   19  C   UNL     1      -8.384   6.818  65.046  1.00  0.00    -0.048 C  
HETATM   20  S   UNL     1      -7.354   5.550  64.240  1.00  0.00    -0.061 SA 
HETATM   21  C   UNL     1      -7.800   4.349  65.429  1.00  0.00    -0.090 C  
HETATM   22  N   UNL     1      -8.362   4.948  66.506  1.00  0.00    -0.107 N  
HETATM   23  O   UNL     1      -7.638   3.150  65.284  1.00  0.00    -0.078 OA 
HETATM   24  C   UNL     1      -8.640   6.283  66.439  1.00  0.00    -0.133 C  
HETATM   25  H   UNL     1      -8.573   4.414  67.349  1.00  0.00     0.000 HD 
HETATM   26  O   UNL     1      -9.128   6.919  67.365  1.00  0.00    -0.122 OA 
ENDBRANCH  18  19
ENDBRANCH  15  18
ENDBRANCH  11  12
ENDBRANCH  10  11
ENDBRANCH   9  10
ENDBRANCH   2   9
TORSDOF 7
ENDMDL
MODEL      152
REMARK 921   NORMALIZED FREE ENERGY PREDICTED BY IDOCK:   -4.79 KCAL/MOL
REMARK 922        TOTAL FREE ENERGY PREDICTED BY IDOCK:   -7.61 KCAL/MOL
REMARK 923 INTER-LIGAND FREE ENERGY PREDICTED BY IDOCK:   -6.81 KCAL/MOL
REMARK 924 INTRA-LIGAND FREE ENERGY PREDICTED BY IDOCK:   -0.80 KCAL/MOL
REMARK 927      BINDING AFFINITY PREDICTED BY RF-SCORE:    0.00 PKD
ROOT
HETATM    1  C   UNL     1      -9.793   7.545  70.649  1.00  0.00    -0.179 C  
HETATM    2  N   UNL     1     -10.210   8.823  70.071  1.00  0.00    -0.192 NA 
ENDROOT
BRANCH   2   3
HETATM    3  C   UNL     1     -11.339   9.365  70.720  1.00  0.00    -0.300 A  
HETATM    4  C   UNL     1     -13.267   9.117  71.991  1.00  0.00    -0.441 A  
HETATM    5  C   UNL     1     -13.580  10.462  71.926  1.00  0.00    -0.259 A  
HETATM    6  C   UNL     1     -11.593  10.734  70.616  1.00  0.00    -0.388 A  
HETATM    7  C   UNL     1     -12.722  11.287  71.220  1.00  0.00    -0.510 A  
HETATM    8  N   UNL     1     -12.181   8.562  71.407  1.00  0.00    -0.301 NA 
ENDBRANCH   2   3
BRANCH   2   9
HETATM    9  C   UNL     1      -9.112   9.796  69.887  1.00  0.00    -0.229 C  
BRANCH   9  10
HETATM   10  C   UNL     1      -8.686   9.911  68.416  1.00  0.00    -0.120 C  
BRANCH  10  11
HETATM   11  O   UNL     1      -9.582  10.735  67.658  1.00  0.00    -0.157 OA 
BRANCH  11  12
HETATM   12  C   UNL     1      -9.377  12.089  67.790  1.00  0.00    -0.190 A  
HETATM   13  C   UNL     1      -8.030  14.104  67.858  1.00  0.00    -0.157 A  
HETATM   14  C   UNL     1      -8.151  12.733  67.629  1.00  0.00    -0.175 A  
HETATM   15  C   UNL     1      -9.140  14.865  68.239  1.00  0.00    -0.179 A  
HETATM   16  C   UNL     1     -10.385  14.229  68.346  1.00  0.00    -0.247 A  
HETATM   17  C   UNL     1     -10.503  12.850  68.125  1.00  0.00    -0.245 A  
BRANCH  15  18
HETATM   18  C   UNL     1      -8.966  16.316  68.606  1.00  0.00    -0.232 C  
BRANCH  18  19
HETATM   19  C   UNL     1      -9.055  17.355  67.492  1.00  0.00    -0.232 C  
HETATM   20  S   UNL     1     -10.467  17.244  66.345  1.00  0.00    -0.207 SA 
HETATM   21  C   UNL     1     -10.524  18.981  66.157  1.00  0.00    -0.467 C  
HETATM   22  N   UNL     1      -9.800  19.578  67.134  1.00  0.00    -0.335 N  
HETATM   23  O   UNL     1     -11.118  19.551  65.258  1.00  0.00    -0.406 OA 
HETATM   24  C   UNL     1      -9.045  18.795  67.957  1.00  0.00    -0.299 C  
HETATM   25  H   UNL     1      -9.820  20.591  67.251  1.00  0.00     0.000 HD 
HETATM   26  O   UNL     1      -8.374  19.237  68.881  1.00  0.00    -0.360 OA 
ENDBRANCH  18  19
ENDBRANCH  15  18
ENDBRANCH  11  12
ENDBRANCH  10  11
ENDBRANCH   9  10
ENDBRANCH   2   9
TORSDOF 7
ENDMDL
MODEL      153
REMARK 921   NORMALIZED FREE ENERGY PREDICTED BY IDOCK:   -4.78 KCAL/MOL
REMARK 922        TOTAL FREE ENERGY PREDICTED BY IDOCK:   -7.60 KCAL/MOL
REMARK 923 INTER-LIGAND FREE ENERGY PREDICTED BY IDOCK:   -6.91 KCAL/MOL
REMARK 924 INTRA-LIGAND FREE ENERGY PREDICTED BY IDOCK:   -0.68 KCAL/MOL
REMARK 927      BINDING AFFINITY PREDICTED BY RF-SCORE:    0.00 PKD
ROOT
HETATM    1  C   UNL     1      -7.824   9.919  68.756  1.00  0.00    -0.091 C  
HETATM    2  N   UNL     1      -8.422   8.597  68.946  1.00  0.00    -0.128 NA 
ENDROOT
BRANCH   2   3
HETATM    3  C   UNL     1      -9.597   8.644  69.724  1.00  0.00    -0.171 A  
HETATM    4  C   UNL     1     -11.228   9.832  70.875  1.00  0.00    -0.359 A  
HETATM    5  C   UNL     1     -11.873   8.688  71.305  1.00  0.00    -0.344 A  
HETATM    6  C   UNL     1     -10.200   7.449  70.122  1.00  0.00    -0.207 A  
HETATM    7  C   UNL     1     -11.343   7.469  70.920  1.00  0.00    -0.297 A  
HETATM    8  N   UNL     1     -10.116   9.833  70.106  1.00  0.00    -0.253 NA 
ENDBRANCH   2   3
BRANCH   2   9
HETATM    9  C   UNL     1      -8.567   7.810  67.705  1.00  0.00    -0.123 C  
BRANCH   9  10
HETATM   10  C   UNL     1      -9.829   8.197  66.920  1.00  0.00    -0.247 C  
BRANCH  10  11
HETATM   11  O   UNL     1      -9.527   9.037  65.796  1.00  0.00    -0.245 OA 
BRANCH  11  12
HETATM   12  C   UNL     1     -10.158  10.259  65.800  1.00  0.00    -0.255 A  
HETATM   13  C   UNL     1     -11.611  11.972  66.713  1.00  0.00    -0.391 A  
HETATM   14  C   UNL     1     -10.952  10.748  66.836  1.00  0.00    -0.255 A  
HETATM   15  C   UNL     1     -11.478  12.742  65.553  1.00  0.00    -0.372 A  
HETATM   16  C   UNL     1     -10.634  12.278  64.534  1.00  0.00    -0.346 A  
HETATM   17  C   UNL     1      -9.980  11.045  64.655  1.00  0.00    -0.357 A  
BRANCH  15  18
HETATM   18  C   UNL     1     -12.296  13.997  65.386  1.00  0.00    -0.495 C  
BRANCH  18  19
HETATM   19  C   UNL     1     -11.722  15.305  65.920  1.00  0.00     0.102 C  
HETATM   20  S   UNL     1     -10.397  15.199  67.166  1.00  0.00    -0.267 SA 
HETATM   21  C   UNL     1      -9.637  16.654  66.565  1.00  0.00    -0.273 C  
HETATM   22  N   UNL     1     -10.127  16.963  65.340  1.00  0.00    -0.038 N  
HETATM   23  O   UNL     1      -8.804  17.295  67.183  1.00  0.00    -0.217 OA 
HETATM   24  C   UNL     1     -11.188  16.248  64.864  1.00  0.00    -0.236 C  
HETATM   25  H   UNL     1      -9.711  17.711  64.786  1.00  0.00     0.000 HD 
HETATM   26  O   UNL     1     -11.688  16.436  63.762  1.00  0.00    -1.049 OA 
ENDBRANCH  18  19
ENDBRANCH  15  18
ENDBRANCH  11  12
ENDBRANCH  10  11
ENDBRANCH   9  10
ENDBRANCH   2   9
TORSDOF 7
ENDMDL
MODEL      154
REMARK 921   NORMALIZED FREE ENERGY PREDICTED BY IDOCK:   -4.76 KCAL/MOL
REMARK 922        TOTAL FREE ENERGY PREDICTED BY IDOCK:   -7.56 KCAL/MOL
REMARK 923 INTER-LIGAND FREE ENERGY PREDICTED BY IDOCK:   -5.52 KCAL/MOL
REMARK 924 INTRA-LIGAND FREE ENERGY PREDICTED BY IDOCK:   -2.04 KCAL/MOL
REMARK 927      BINDING AFFINITY PREDICTED BY RF-SCORE:    0.00 PKD
ROOT
HETATM    1  C   UNL     1      -8.801   6.443  67.604  1.00  0.00    -0.112 C  
HETATM    2  N   UNL     1      -9.073   7.821  68.013  1.00  0.00    -0.129 NA 
ENDROOT
BRANCH   2   3
HETATM    3  C   UNL     1      -8.847   8.746  66.972  1.00  0.00    -0.127 A  
HETATM    4  C   UNL     1      -7.457  10.199  65.810  1.00  0.00    -0.131 A  
HETATM    5  C   UNL     1      -8.464  10.607  64.954  1.00  0.00    -0.116 A  
HETATM    6  C   UNL     1      -9.909   9.111  66.143  1.00  0.00    -0.363 A  
HETATM    7  C   UNL     1      -9.719  10.050  65.129  1.00  0.00    -0.380 A  
HETATM    8  N   UNL     1      -7.624   9.295  66.802  1.00  0.00    -0.090 NA 
ENDBRANCH   2   3
BRANCH   2   9
HETATM    9  C   UNL     1     -10.368   8.010  68.699  1.00  0.00    -0.200 C  
BRANCH   9  10
HETATM   10  C   UNL     1     -10.280   9.058  69.818  1.00  0.00    -0.205 C  
BRANCH  10  11
HETATM   11  O   UNL     1     -11.307  10.053  69.707  1.00  0.00    -0.246 OA 
BRANCH  11  12
HETATM   12  C   UNL     1     -11.019  11.090  68.851  1.00  0.00    -0.227 A  
HETATM   13  C   UNL     1     -11.485  12.623  67.031  1.00  0.00    -0.406 A  
HETATM   14  C   UNL     1     -11.898  11.617  67.906  1.00  0.00    -0.273 A  
HETATM   15  C   UNL     1     -10.185  13.135  67.093  1.00  0.00    -0.244 A  
HETATM   16  C   UNL     1      -9.318  12.646  68.080  1.00  0.00    -0.210 A  
HETATM   17  C   UNL     1      -9.730  11.629  68.952  1.00  0.00    -0.029 A  
BRANCH  15  18
HETATM   18  C   UNL     1      -9.718  14.128  66.059  1.00  0.00    -0.297 C  
BRANCH  18  19
HETATM   19  C   UNL     1      -9.484  15.569  66.502  1.00  0.00    -0.273 C  
HETATM   20  S   UNL     1     -10.782  16.366  67.501  1.00  0.00    -0.258 SA 
HETATM   21  C   UNL     1      -9.603  17.303  68.389  1.00  0.00    -0.285 C  
HETATM   22  N   UNL     1      -8.363  16.791  68.199  1.00  0.00    -0.195 N  
HETATM   23  O   UNL     1      -9.874  18.284  69.060  1.00  0.00    -0.335 OA 
HETATM   24  C   UNL     1      -8.202  15.801  67.273  1.00  0.00    -0.184 C  
HETATM   25  H   UNL     1      -7.569  17.137  68.736  1.00  0.00     0.000 HD 
HETATM   26  O   UNL     1      -7.128  15.260  67.043  1.00  0.00    -0.203 OA 
ENDBRANCH  18  19
ENDBRANCH  15  18
ENDBRANCH  11  12
ENDBRANCH  10  11
ENDBRANCH   9  10
ENDBRANCH   2   9
TORSDOF 7
ENDMDL
MODEL      155
REMARK 921   NORMALIZED FREE ENERGY PREDICTED BY IDOCK:   -4.74 KCAL/MOL
REMARK 922        TOTAL FREE ENERGY PREDICTED BY IDOCK:   -7.54 KCAL/MOL
REMARK 923 INTER-LIGAND FREE ENERGY PREDICTED BY IDOCK:   -7.10 KCAL/MOL
REMARK 924 INTRA-LIGAND FREE ENERGY PREDICTED BY IDOCK:   -0.44 KCAL/MOL
REMARK 927      BINDING AFFINITY PREDICTED BY RF-SCORE:    0.00 PKD
ROOT
HETATM    1  C   UNL     1      -9.545  10.433  65.270  1.00  0.00    -0.259 C  
HETATM    2  N   UNL     1     -10.406   9.786  66.261  1.00  0.00    -0.207 NA 
ENDROOT
BRANCH   2   3
HETATM    3  C   UNL     1      -9.929   8.514  66.640  1.00  0.00    -0.293 A  
HETATM    4  C   UNL     1     -10.275   6.391  67.517  1.00  0.00    -0.170 A  
HETATM    5  C   UNL     1      -8.939   6.049  67.431  1.00  0.00    -0.108 A  
HETATM    6  C   UNL     1      -8.566   8.234  66.523  1.00  0.00    -0.141 A  
HETATM    7  C   UNL     1      -8.066   6.996  66.924  1.00  0.00    -0.116 A  
HETATM    8  N   UNL     1     -10.779   7.588  67.139  1.00  0.00    -0.334 NA 
ENDBRANCH   2   3
BRANCH   2   9
HETATM    9  C   UNL     1     -10.769  10.645  67.407  1.00  0.00    -0.276 C  
BRANCH   9  10
HETATM   10  C   UNL     1     -10.309  12.097  67.207  1.00  0.00    -0.212 C  
BRANCH  10  11
HETATM   11  O   UNL     1     -11.415  12.999  67.067  1.00  0.00    -0.299 OA 
BRANCH  11  12
HETATM   12  C   UNL     1     -11.071  14.324  66.937  1.00  0.00    -0.312 A  
HETATM   13  C   UNL     1     -10.718  16.584  67.739  1.00  0.00    -0.329 A  
HETATM   14  C   UNL     1     -11.005  15.241  67.985  1.00  0.00    -0.299 A  
HETATM   15  C   UNL     1     -10.475  17.038  66.438  1.00  0.00    -0.252 A  
HETATM   16  C   UNL     1     -10.487  16.105  65.391  1.00  0.00    -0.396 A  
HETATM   17  C   UNL     1     -10.784  14.759  65.637  1.00  0.00    -0.345 A  
BRANCH  15  18
HETATM   18  C   UNL     1     -10.294  18.511  66.177  1.00  0.00    -0.457 C  
BRANCH  18  19
HETATM   19  C   UNL     1      -9.075  19.202  66.779  1.00  0.00    -0.318 C  
HETATM   20  S   UNL     1      -9.089  19.529  68.571  1.00  0.00    -0.325 SA 
HETATM   21  C   UNL     1      -7.359  19.300  68.685  1.00  0.00    -0.338 C  
HETATM   22  N   UNL     1      -6.898  18.686  67.569  1.00  0.00    -0.204 N  
HETATM   23  O   UNL     1      -6.683  19.664  69.631  1.00  0.00    -0.333 OA 
HETATM   24  C   UNL     1      -7.754  18.508  66.521  1.00  0.00    -0.255 C  
HETATM   25  H   UNL     1      -5.932  18.365  67.513  1.00  0.00     0.000 HD 
HETATM   26  O   UNL     1      -7.439  17.948  65.479  1.00  0.00    -0.524 OA 
ENDBRANCH  18  19
ENDBRANCH  15  18
ENDBRANCH  11  12
ENDBRANCH  10  11
ENDBRANCH   9  10
ENDBRANCH   2   9
TORSDOF 7
ENDMDL
MODEL      156
REMARK 921   NORMALIZED FREE ENERGY PREDICTED BY IDOCK:   -4.74 KCAL/MOL
REMARK 922        TOTAL FREE ENERGY PREDICTED BY IDOCK:   -7.54 KCAL/MOL
REMARK 923 INTER-LIGAND FREE ENERGY PREDICTED BY IDOCK:   -6.78 KCAL/MOL
REMARK 924 INTRA-LIGAND FREE ENERGY PREDICTED BY IDOCK:   -0.76 KCAL/MOL
REMARK 927      BINDING AFFINITY PREDICTED BY RF-SCORE:    0.00 PKD
ROOT
HETATM    1  C   UNL     1      -9.871   9.398  66.130  1.00  0.00    -0.285 C  
HETATM    2  N   UNL     1      -9.436  10.449  65.209  1.00  0.00    -0.215 NA 
ENDROOT
BRANCH   2   3
HETATM    3  C   UNL     1      -8.185  10.167  64.622  1.00  0.00    -0.165 A  
HETATM    4  C   UNL     1      -5.971   9.484  64.784  1.00  0.00    -0.074 A  
HETATM    5  C   UNL     1      -5.725   9.687  63.439  1.00  0.00    -0.093 A  
HETATM    6  C   UNL     1      -8.007  10.392  63.256  1.00  0.00    -0.117 A  
HETATM    7  C   UNL     1      -6.770  10.154  62.659  1.00  0.00    -0.130 A  
HETATM    8  N   UNL     1      -7.162   9.715  65.381  1.00  0.00    -0.099 NA 
ENDBRANCH   2   3
BRANCH   2   9
HETATM    9  C   UNL     1     -10.464  10.869  64.235  1.00  0.00    -0.335 C  
BRANCH   9  10
HETATM   10  C   UNL     1     -11.331  12.018  64.771  1.00  0.00    -0.313 C  
BRANCH  10  11
HETATM   11  O   UNL     1     -10.979  13.278  64.183  1.00  0.00    -0.385 OA 
BRANCH  11  12
HETATM   12  C   UNL     1     -10.545  14.232  65.072  1.00  0.00    -0.425 A  
HETATM   13  C   UNL     1      -9.397  15.014  67.060  1.00  0.00    -0.237 A  
HETATM   14  C   UNL     1      -9.722  13.988  66.171  1.00  0.00    -0.300 A  
HETATM   15  C   UNL     1      -9.877  16.312  66.860  1.00  0.00    -0.253 A  
HETATM   16  C   UNL     1     -10.659  16.571  65.725  1.00  0.00    -0.307 A  
HETATM   17  C   UNL     1     -10.992  15.539  64.838  1.00  0.00    -0.452 A  
BRANCH  15  18
HETATM   18  C   UNL     1      -9.622  17.376  67.897  1.00  0.00    -0.267 C  
BRANCH  18  19
HETATM   19  C   UNL     1      -8.642  18.493  67.553  1.00  0.00    -0.262 C  
HETATM   20  S   UNL     1      -7.120  18.037  66.662  1.00  0.00    -0.229 SA 
HETATM   21  C   UNL     1      -7.098  19.560  65.804  1.00  0.00    -0.298 C  
HETATM   22  N   UNL     1      -8.301  20.172  65.911  1.00  0.00    -0.541 N  
HETATM   23  O   UNL     1      -6.124  19.999  65.216  1.00  0.00    -0.198 OA 
HETATM   24  C   UNL     1      -9.231  19.638  66.756  1.00  0.00    -0.359 C  
HETATM   25  H   UNL     1      -8.508  21.013  65.373  1.00  0.00     0.000 HD 
HETATM   26  O   UNL     1     -10.353  20.104  66.907  1.00  0.00    -0.439 OA 
ENDBRANCH  18  19
ENDBRANCH  15  18
ENDBRANCH  11  12
ENDBRANCH  10  11
ENDBRANCH   9  10
ENDBRANCH   2   9
TORSDOF 7
ENDMDL
MODEL      157
REMARK 921   NORMALIZED FREE ENERGY PREDICTED BY IDOCK:   -4.74 KCAL/MOL
REMARK 922        TOTAL FREE ENERGY PREDICTED BY IDOCK:   -7.53 KCAL/MOL
REMARK 923 INTER-LIGAND FREE ENERGY PREDICTED BY IDOCK:   -7.02 KCAL/MOL
REMARK 924 INTRA-LIGAND FREE ENERGY PREDICTED BY IDOCK:   -0.51 KCAL/MOL
REMARK 927      BINDING AFFINITY PREDICTED BY RF-SCORE:    0.00 PKD
ROOT
HETATM    1  C   UNL     1     -10.741  19.279  65.823  1.00  0.00    -0.330 C  
HETATM    2  N   UNL     1      -9.824  18.139  65.863  1.00  0.00    -0.547 NA 
ENDROOT
BRANCH   2   3
HETATM    3  C   UNL     1      -8.668  18.405  66.627  1.00  0.00    -0.286 A  
HETATM    4  C   UNL     1      -7.606  19.434  68.418  1.00  0.00    -0.321 A  
HETATM    5  C   UNL     1      -6.361  18.952  68.061  1.00  0.00    -0.220 A  
HETATM    6  C   UNL     1      -7.441  17.883  66.211  1.00  0.00    -0.321 A  
HETATM    7  C   UNL     1      -6.279  18.160  66.929  1.00  0.00    -0.192 A  
HETATM    8  N   UNL     1      -8.743  19.181  67.731  1.00  0.00    -0.295 NA 
ENDBRANCH   2   3
BRANCH   2   9
HETATM    9  C   UNL     1     -10.467  16.851  66.194  1.00  0.00    -0.272 C  
BRANCH   9  10
HETATM   10  C   UNL     1     -10.593  15.938  64.966  1.00  0.00    -0.346 C  
BRANCH  10  11
HETATM   11  O   UNL     1     -11.762  15.109  65.030  1.00  0.00    -0.324 OA 
BRANCH  11  12
HETATM   12  C   UNL     1     -11.567  13.873  65.599  1.00  0.00    -0.333 A  
HETATM   13  C   UNL     1     -11.743  12.223  67.368  1.00  0.00    -0.405 A  
HETATM   14  C   UNL     1     -12.060  13.476  66.842  1.00  0.00    -0.417 A  
HETATM   15  C   UNL     1     -10.937  11.331  66.653  1.00  0.00    -0.326 A  
HETATM   16  C   UNL     1     -10.487  11.706  65.380  1.00  0.00    -0.324 A  
HETATM   17  C   UNL     1     -10.797  12.969  64.857  1.00  0.00    -0.343 A  
BRANCH  15  18
HETATM   18  C   UNL     1     -10.501  10.036  67.290  1.00  0.00    -0.313 C  
BRANCH  18  19
HETATM   19  C   UNL     1      -9.666   9.070  66.454  1.00  0.00    -0.268 C  
HETATM   20  S   UNL     1      -7.885   9.418  66.289  1.00  0.00    -0.100 SA 
HETATM   21  C   UNL     1      -7.499   7.715  66.229  1.00  0.00    -0.083 C  
HETATM   22  N   UNL     1      -8.556   6.983  66.656  1.00  0.00    -0.120 N  
HETATM   23  O   UNL     1      -6.435   7.269  65.837  1.00  0.00    -0.043 OA 
HETATM   24  C   UNL     1      -9.740   7.622  66.888  1.00  0.00    -0.213 C  
HETATM   25  H   UNL     1      -8.469   5.978  66.802  1.00  0.00     0.000 HD 
HETATM   26  O   UNL     1     -10.745   7.053  67.295  1.00  0.00    -0.281 OA 
ENDBRANCH  18  19
ENDBRANCH  15  18
ENDBRANCH  11  12
ENDBRANCH  10  11
ENDBRANCH   9  10
ENDBRANCH   2   9
TORSDOF 7
ENDMDL
MODEL      158
REMARK 921   NORMALIZED FREE ENERGY PREDICTED BY IDOCK:   -4.73 KCAL/MOL
REMARK 922        TOTAL FREE ENERGY PREDICTED BY IDOCK:   -7.52 KCAL/MOL
REMARK 923 INTER-LIGAND FREE ENERGY PREDICTED BY IDOCK:   -6.64 KCAL/MOL
REMARK 924 INTRA-LIGAND FREE ENERGY PREDICTED BY IDOCK:   -0.87 KCAL/MOL
REMARK 927      BINDING AFFINITY PREDICTED BY RF-SCORE:    0.00 PKD
ROOT
HETATM    1  C   UNL     1     -12.494  13.786  66.315  1.00  0.00    -0.391 C  
HETATM    2  N   UNL     1     -11.714  14.846  66.953  1.00  0.00    -0.305 NA 
ENDROOT
BRANCH   2   3
HETATM    3  C   UNL     1     -11.727  14.752  68.361  1.00  0.00    -0.314 A  
HETATM    4  C   UNL     1     -12.092  13.551  70.315  1.00  0.00    -0.355 A  
HETATM    5  C   UNL     1     -11.799  14.629  71.129  1.00  0.00    -0.378 A  
HETATM    6  C   UNL     1     -11.417  15.881  69.122  1.00  0.00    -0.377 A  
HETATM    7  C   UNL     1     -11.456  15.822  70.514  1.00  0.00    -0.401 A  
HETATM    8  N   UNL     1     -12.065  13.590  68.963  1.00  0.00    -0.330 NA 
ENDBRANCH   2   3
BRANCH   2   9
HETATM    9  C   UNL     1     -10.363  15.035  66.386  1.00  0.00    -0.287 C  
BRANCH   9  10
HETATM   10  C   UNL     1      -9.379  13.959  66.871  1.00  0.00    -0.258 C  
BRANCH  10  11
HETATM   11  O   UNL     1      -9.438  12.774  66.066  1.00  0.00    -0.219 OA 
BRANCH  11  12
HETATM   12  C   UNL     1      -9.664  11.610  66.763  1.00  0.00    -0.201 A  
HETATM   13  C   UNL     1     -10.600   9.396  67.087  1.00  0.00    -0.294 A  
HETATM   14  C   UNL     1     -10.358  10.504  66.273  1.00  0.00    -0.276 A  
HETATM   15  C   UNL     1     -10.138   9.364  68.407  1.00  0.00    -0.208 A  
HETATM   16  C   UNL     1      -9.391  10.452  68.882  1.00  0.00    -0.190 A  
HETATM   17  C   UNL     1      -9.157  11.567  68.068  1.00  0.00    -0.174 A  
BRANCH  15  18
HETATM   18  C   UNL     1     -10.517   8.218  69.308  1.00  0.00    -0.218 C  
BRANCH  18  19
HETATM   19  C   UNL     1     -10.180   8.329  70.792  1.00  0.00    -0.192 C  
HETATM   20  S   UNL     1     -11.411   7.714  71.985  1.00  0.00    -0.299 SA 
HETATM   21  C   UNL     1     -10.163   7.208  73.100  1.00  0.00    -0.276 C  
HETATM   22  N   UNL     1      -8.964   7.175  72.471  1.00  0.00    -0.127 N  
HETATM   23  O   UNL     1     -10.361   6.947  74.274  1.00  0.00    -0.346 OA 
HETATM   24  C   UNL     1      -8.879   7.672  71.202  1.00  0.00    -0.137 C  
HETATM   25  H   UNL     1      -8.143   6.787  72.935  1.00  0.00     0.000 HD 
HETATM   26  O   UNL     1      -7.847   7.669  70.544  1.00  0.00    -0.091 OA 
ENDBRANCH  18  19
ENDBRANCH  15  18
ENDBRANCH  11  12
ENDBRANCH  10  11
ENDBRANCH   9  10
ENDBRANCH   2   9
TORSDOF 7
ENDMDL
MODEL      159
REMARK 921   NORMALIZED FREE ENERGY PREDICTED BY IDOCK:   -4.71 KCAL/MOL
REMARK 922        TOTAL FREE ENERGY PREDICTED BY IDOCK:   -7.49 KCAL/MOL
REMARK 923 INTER-LIGAND FREE ENERGY PREDICTED BY IDOCK:   -6.77 KCAL/MOL
REMARK 924 INTRA-LIGAND FREE ENERGY PREDICTED BY IDOCK:   -0.72 KCAL/MOL
REMARK 927      BINDING AFFINITY PREDICTED BY RF-SCORE:    0.00 PKD
ROOT
HETATM    1  C   UNL     1     -10.271  14.750  69.039  1.00  0.00    -0.237 C  
HETATM    2  N   UNL     1     -11.318  13.730  69.114  1.00  0.00    -0.268 NA 
ENDROOT
BRANCH   2   3
HETATM    3  C   UNL     1     -12.195  13.938  70.198  1.00  0.00    -0.358 A  
HETATM    4  C   UNL     1     -13.463  13.134  71.971  1.00  0.00    -0.507 A  
HETATM    5  C   UNL     1     -13.969  14.383  72.281  1.00  0.00    -0.610 A  
HETATM    6  C   UNL     1     -12.666  15.227  70.457  1.00  0.00    -0.440 A  
HETATM    7  C   UNL     1     -13.561  15.452  71.502  1.00  0.00    -0.604 A  
HETATM    8  N   UNL     1     -12.599  12.895  70.958  1.00  0.00    -0.345 NA 
ENDBRANCH   2   3
BRANCH   2   9
HETATM    9  C   UNL     1     -12.011  13.472  67.835  1.00  0.00    -0.337 C  
BRANCH   9  10
HETATM   10  C   UNL     1     -11.388  12.297  67.068  1.00  0.00    -0.334 C  
BRANCH  10  11
HETATM   11  O   UNL     1     -11.741  11.031  67.642  1.00  0.00    -0.576 OA 
BRANCH  11  12
HETATM   12  C   UNL     1     -10.729  10.100  67.663  1.00  0.00    -0.285 A  
HETATM   13  C   UNL     1      -9.713   7.957  67.160  1.00  0.00    -0.249 A  
HETATM   14  C   UNL     1     -10.763   8.865  67.016  1.00  0.00    -0.180 A  
HETATM   15  C   UNL     1      -8.597   8.271  67.942  1.00  0.00    -0.132 A  
HETATM   16  C   UNL     1      -8.537   9.535  68.546  1.00  0.00    -0.119 A  
HETATM   17  C   UNL     1      -9.595  10.442  68.410  1.00  0.00    -0.153 A  
BRANCH  15  18
HETATM   18  C   UNL     1      -7.535   7.231  68.189  1.00  0.00    -0.102 C  
BRANCH  18  19
HETATM   19  C   UNL     1      -7.877   6.058  69.103  1.00  0.00    -0.099 C  
HETATM   20  S   UNL     1      -8.919   6.398  70.558  1.00  0.00    -0.152 SA 
HETATM   21  C   UNL     1      -9.666   4.820  70.464  1.00  0.00    -0.211 C  
HETATM   22  N   UNL     1      -9.418   4.260  69.255  1.00  0.00    -0.170 N  
HETATM   23  O   UNL     1     -10.298   4.308  71.371  1.00  0.00    -0.103 OA 
HETATM   24  C   UNL     1      -8.541   4.884  68.415  1.00  0.00    -0.097 C  
HETATM   25  H   UNL     1      -9.877   3.393  68.979  1.00  0.00     0.000 HD 
HETATM   26  O   UNL     1      -8.267   4.469  67.297  1.00  0.00    -0.101 OA 
ENDBRANCH  18  19
ENDBRANCH  15  18
ENDBRANCH  11  12
ENDBRANCH  10  11
ENDBRANCH   9  10
ENDBRANCH   2   9
TORSDOF 7
ENDMDL
MODEL      160
REMARK 921   NORMALIZED FREE ENERGY PREDICTED BY IDOCK:   -4.70 KCAL/MOL
REMARK 922        TOTAL FREE ENERGY PREDICTED BY IDOCK:   -7.48 KCAL/MOL
REMARK 923 INTER-LIGAND FREE ENERGY PREDICTED BY IDOCK:   -6.80 KCAL/MOL
REMARK 924 INTRA-LIGAND FREE ENERGY PREDICTED BY IDOCK:   -0.68 KCAL/MOL
REMARK 927      BINDING AFFINITY PREDICTED BY RF-SCORE:    0.00 PKD
ROOT
HETATM    1  C   UNL     1     -11.078  12.771  69.042  1.00  0.00    -0.233 C  
HETATM    2  N   UNL     1     -10.352  12.438  67.816  1.00  0.00    -0.212 NA 
ENDROOT
BRANCH   2   3
HETATM    3  C   UNL     1     -10.877  13.095  66.684  1.00  0.00    -0.280 A  
HETATM    4  C   UNL     1     -10.940  14.905  65.230  1.00  0.00    -0.380 A  
HETATM    5  C   UNL     1     -11.982  14.378  64.490  1.00  0.00    -0.487 A  
HETATM    6  C   UNL     1     -11.928  12.503  65.980  1.00  0.00    -0.456 A  
HETATM    7  C   UNL     1     -12.487  13.149  64.878  1.00  0.00    -0.490 A  
HETATM    8  N   UNL     1     -10.388  14.297  66.305  1.00  0.00    -0.286 NA 
ENDBRANCH   2   3
BRANCH   2   9
HETATM    9  C   UNL     1      -8.882  12.543  67.931  1.00  0.00    -0.185 C  
BRANCH   9  10
HETATM   10  C   UNL     1      -8.165  11.385  67.223  1.00  0.00    -0.150 C  
BRANCH  10  11
HETATM   11  O   UNL     1      -7.135  10.810  68.040  1.00  0.00    -0.079 OA 
BRANCH  11  12
HETATM   12  C   UNL     1      -7.516   9.699  68.756  1.00  0.00    -0.075 A  
HETATM   13  C   UNL     1      -8.274   7.410  69.011  1.00  0.00    -0.128 A  
HETATM   14  C   UNL     1      -7.824   8.456  68.205  1.00  0.00    -0.111 A  
HETATM   15  C   UNL     1      -8.411   7.580  70.393  1.00  0.00    -0.128 A  
HETATM   16  C   UNL     1      -8.048   8.812  70.956  1.00  0.00    -0.186 A  
HETATM   17  C   UNL     1      -7.605   9.865  70.144  1.00  0.00    -0.185 A  
BRANCH  15  18
HETATM   18  C   UNL     1      -9.018   6.483  71.229  1.00  0.00    -0.141 C  
BRANCH  18  19
HETATM   19  C   UNL     1     -10.512   6.553  71.531  1.00  0.00    -0.215 C  
HETATM   20  S   UNL     1     -11.115   7.988  72.478  1.00  0.00    -0.387 SA 
HETATM   21  C   UNL     1     -12.639   7.985  71.623  1.00  0.00    -0.322 C  
HETATM   22  N   UNL     1     -12.544   7.223  70.507  1.00  0.00    -0.586 N  
HETATM   23  O   UNL     1     -13.637   8.573  72.003  1.00  0.00    -0.360 OA 
HETATM   24  C   UNL     1     -11.414   6.482  70.317  1.00  0.00    -0.411 C  
HETATM   25  H   UNL     1     -13.301   7.204  69.823  1.00  0.00     0.000 HD 
HETATM   26  O   UNL     1     -11.224   5.780  69.332  1.00  0.00    -0.321 OA 
ENDBRANCH  18  19
ENDBRANCH  15  18
ENDBRANCH  11  12
ENDBRANCH  10  11
ENDBRANCH   9  10
ENDBRANCH   2   9
TORSDOF 7
ENDMDL
MODEL      161
REMARK 921   NORMALIZED FREE ENERGY PREDICTED BY IDOCK:   -4.69 KCAL/MOL
REMARK 922        TOTAL FREE ENERGY PREDICTED BY IDOCK:   -7.46 KCAL/MOL
REMARK 923 INTER-LIGAND FREE ENERGY PREDICTED BY IDOCK:   -6.88 KCAL/MOL
REMARK 924 INTRA-LIGAND FREE ENERGY PREDICTED BY IDOCK:   -0.58 KCAL/MOL
REMARK 927      BINDING AFFINITY PREDICTED BY RF-SCORE:    0.00 PKD
ROOT
HETATM    1  C   UNL     1     -10.130   5.119  67.372  1.00  0.00    -0.179 C  
HETATM    2  N   UNL     1      -9.528   6.251  66.667  1.00  0.00    -0.150 NA 
ENDROOT
BRANCH   2   3
HETATM    3  C   UNL     1      -8.896   5.864  65.467  1.00  0.00    -0.092 A  
HETATM    4  C   UNL     1      -8.541   4.329  63.760  1.00  0.00    -0.117 A  
HETATM    5  C   UNL     1      -7.586   5.115  63.142  1.00  0.00    -0.066 A  
HETATM    6  C   UNL     1      -7.943   6.708  64.894  1.00  0.00    -0.121 A  
HETATM    7  C   UNL     1      -7.281   6.332  63.727  1.00  0.00    -0.062 A  
HETATM    8  N   UNL     1      -9.190   4.674  64.895  1.00  0.00    -0.155 NA 
ENDBRANCH   2   3
BRANCH   2   9
HETATM    9  C   UNL     1     -10.420   7.419  66.514  1.00  0.00     0.039 C  
BRANCH   9  10
HETATM   10  C   UNL     1     -10.020   8.574  67.444  1.00  0.00    -0.214 C  
BRANCH  10  11
HETATM   11  O   UNL     1     -10.773   8.568  68.665  1.00  0.00    -0.159 OA 
BRANCH  11  12
HETATM   12  C   UNL     1     -11.118   9.811  69.140  1.00  0.00    -0.123 A  
HETATM   13  C   UNL     1     -12.046  11.357  70.762  1.00  0.00    -0.433 A  
HETATM   14  C   UNL     1     -11.658  10.066  70.401  1.00  0.00    -0.379 A  
HETATM   15  C   UNL     1     -11.888  12.426  69.874  1.00  0.00    -0.376 A  
HETATM   16  C   UNL     1     -11.294  12.181  68.629  1.00  0.00    -0.330 A  
HETATM   17  C   UNL     1     -10.913  10.883  68.263  1.00  0.00    -0.293 A  
BRANCH  15  18
HETATM   18  C   UNL     1     -12.429  13.786  70.232  1.00  0.00    -0.357 C  
BRANCH  18  19
HETATM   19  C   UNL     1     -12.186  14.307  71.646  1.00  0.00    -0.272 C  
HETATM   20  S   UNL     1     -11.540  16.001  71.822  1.00  0.00    -0.393 SA 
HETATM   21  C   UNL     1     -12.421  16.243  73.313  1.00  0.00    -0.489 C  
HETATM   22  N   UNL     1     -13.372  15.289  73.451  1.00  0.00    -0.534 N  
HETATM   23  O   UNL     1     -12.184  17.136  74.108  1.00  0.00    -0.381 OA 
HETATM   24  C   UNL     1     -13.389  14.252  72.563  1.00  0.00    -0.500 C  
HETATM   25  H   UNL     1     -14.060  15.344  74.201  1.00  0.00     0.000 HD 
HETATM   26  O   UNL     1     -14.220  13.353  72.591  1.00  0.00    -0.747 OA 
ENDBRANCH  18  19
ENDBRANCH  15  18
ENDBRANCH  11  12
ENDBRANCH  10  11
ENDBRANCH   9  10
ENDBRANCH   2   9
TORSDOF 7
ENDMDL
MODEL      162
REMARK 921   NORMALIZED FREE ENERGY PREDICTED BY IDOCK:   -4.67 KCAL/MOL
REMARK 922        TOTAL FREE ENERGY PREDICTED BY IDOCK:   -7.44 KCAL/MOL
REMARK 923 INTER-LIGAND FREE ENERGY PREDICTED BY IDOCK:   -5.79 KCAL/MOL
REMARK 924 INTRA-LIGAND FREE ENERGY PREDICTED BY IDOCK:   -1.65 KCAL/MOL
REMARK 927      BINDING AFFINITY PREDICTED BY RF-SCORE:    0.00 PKD
ROOT
HETATM    1  C   UNL     1      -9.721   8.184  72.540  1.00  0.00    -0.287 C  
HETATM    2  N   UNL     1     -10.914   8.896  72.079  1.00  0.00    -0.364 NA 
ENDROOT
BRANCH   2   3
HETATM    3  C   UNL     1     -10.700   9.574  70.861  1.00  0.00    -0.333 A  
HETATM    4  C   UNL     1     -11.477  10.837  69.073  1.00  0.00    -0.298 A  
HETATM    5  C   UNL     1     -10.250  10.840  68.437  1.00  0.00    -0.192 A  
HETATM    6  C   UNL     1      -9.433   9.539  70.275  1.00  0.00    -0.307 A  
HETATM    7  C   UNL     1      -9.205  10.173  69.054  1.00  0.00    -0.188 A  
HETATM    8  N   UNL     1     -11.719  10.223  70.254  1.00  0.00    -0.287 NA 
ENDBRANCH   2   3
BRANCH   2   9
HETATM    9  C   UNL     1     -12.150   8.087  72.095  1.00  0.00    -0.343 C  
BRANCH   9  10
HETATM   10  C   UNL     1     -11.904   6.649  71.616  1.00  0.00    -0.336 C  
BRANCH  10  11
HETATM   11  O   UNL     1     -12.224   6.481  70.228  1.00  0.00    -0.278 OA 
BRANCH  11  12
HETATM   12  C   UNL     1     -11.139   6.338  69.396  1.00  0.00    -0.410 A  
HETATM   13  C   UNL     1      -9.912   6.635  67.326  1.00  0.00    -0.199 A  
HETATM   14  C   UNL     1     -11.024   6.901  68.125  1.00  0.00    -0.220 A  
HETATM   15  C   UNL     1      -8.881   5.810  67.787  1.00  0.00    -0.105 A  
HETATM   16  C   UNL     1      -8.969   5.289  69.086  1.00  0.00    -0.124 A  
HETATM   17  C   UNL     1     -10.091   5.549  69.884  1.00  0.00    -0.305 A  
BRANCH  15  18
HETATM   18  C   UNL     1      -7.751   5.431  66.864  1.00  0.00    -0.100 C  
BRANCH  18  19
HETATM   19  C   UNL     1      -8.075   4.567  65.649  1.00  0.00    -0.106 C  
HETATM   20  S   UNL     1      -9.344   3.274  65.847  1.00  0.00    -0.076 SA 
HETATM   21  C   UNL     1      -9.877   3.464  64.193  1.00  0.00    -0.172 C  
HETATM   22  N   UNL     1      -9.397   4.622  63.680  1.00  0.00    -0.329 N  
HETATM   23  O   UNL     1     -10.564   2.651  63.599  1.00  0.00    -0.193 OA 
HETATM   24  C   UNL     1      -8.491   5.334  64.412  1.00  0.00    -0.126 C  
HETATM   25  H   UNL     1      -9.706   4.954  62.766  1.00  0.00     0.000 HD 
HETATM   26  O   UNL     1      -8.016   6.401  64.045  1.00  0.00    -0.114 OA 
ENDBRANCH  18  19
ENDBRANCH  15  18
ENDBRANCH  11  12
ENDBRANCH  10  11
ENDBRANCH   9  10
ENDBRANCH   2   9
TORSDOF 7
ENDMDL
MODEL      163
REMARK 921   NORMALIZED FREE ENERGY PREDICTED BY IDOCK:   -4.66 KCAL/MOL
REMARK 922        TOTAL FREE ENERGY PREDICTED BY IDOCK:   -7.42 KCAL/MOL
REMARK 923 INTER-LIGAND FREE ENERGY PREDICTED BY IDOCK:   -7.02 KCAL/MOL
REMARK 924 INTRA-LIGAND FREE ENERGY PREDICTED BY IDOCK:   -0.40 KCAL/MOL
REMARK 927      BINDING AFFINITY PREDICTED BY RF-SCORE:    0.00 PKD
ROOT
HETATM    1  C   UNL     1     -11.027  17.083  68.185  1.00  0.00    -0.263 C  
HETATM    2  N   UNL     1     -10.424  17.734  67.022  1.00  0.00    -0.343 NA 
ENDROOT
BRANCH   2   3
HETATM    3  C   UNL     1      -9.297  18.511  67.363  1.00  0.00    -0.279 A  
HETATM    4  C   UNL     1      -7.451  18.936  68.708  1.00  0.00    -0.325 A  
HETATM    5  C   UNL     1      -7.130  20.102  68.038  1.00  0.00    -0.319 A  
HETATM    6  C   UNL     1      -9.029  19.676  66.641  1.00  0.00    -0.419 A  
HETATM    7  C   UNL     1      -7.941  20.479  66.981  1.00  0.00    -0.333 A  
HETATM    8  N   UNL     1      -8.505  18.147  68.396  1.00  0.00    -0.294 NA 
ENDBRANCH   2   3
BRANCH   2   9
HETATM    9  C   UNL     1     -10.195  16.836  65.871  1.00  0.00    -0.328 C  
BRANCH   9  10
HETATM   10  C   UNL     1     -10.538  15.376  66.202  1.00  0.00    -0.316 C  
BRANCH  10  11
HETATM   11  O   UNL     1     -10.815  14.607  65.023  1.00  0.00    -0.365 OA 
BRANCH  11  12
HETATM   12  C   UNL     1     -10.434  13.287  65.089  1.00  0.00    -0.333 A  
HETATM   13  C   UNL     1      -9.352  11.367  66.100  1.00  0.00    -0.232 A  
HETATM   14  C   UNL     1      -9.762  12.700  66.160  1.00  0.00    -0.253 A  
HETATM   15  C   UNL     1      -9.618  10.588  64.969  1.00  0.00    -0.331 A  
HETATM   16  C   UNL     1     -10.343  11.161  63.915  1.00  0.00    -0.441 A  
HETATM   17  C   UNL     1     -10.746  12.502  63.973  1.00  0.00    -0.449 A  
BRANCH  15  18
HETATM   18  C   UNL     1      -9.057   9.193  64.869  1.00  0.00    -0.190 C  
BRANCH  18  19
HETATM   19  C   UNL     1      -9.090   8.314  66.116  1.00  0.00    -0.189 C  
HETATM   20  S   UNL     1     -10.651   8.236  67.053  1.00  0.00    -0.156 SA 
HETATM   21  C   UNL     1     -10.362   6.573  67.507  1.00  0.00    -0.201 C  
HETATM   22  N   UNL     1      -9.387   6.042  66.731  1.00  0.00    -0.134 N  
HETATM   23  O   UNL     1     -10.950   5.999  68.408  1.00  0.00    -0.292 OA 
HETATM   24  C   UNL     1      -8.700   6.869  65.890  1.00  0.00    -0.134 C  
HETATM   25  H   UNL     1      -9.171   5.046  66.775  1.00  0.00     0.000 HD 
HETATM   26  O   UNL     1      -7.817   6.481  65.135  1.00  0.00    -0.098 OA 
ENDBRANCH  18  19
ENDBRANCH  15  18
ENDBRANCH  11  12
ENDBRANCH  10  11
ENDBRANCH   9  10
ENDBRANCH   2   9
TORSDOF 7
ENDMDL
MODEL      164
REMARK 921   NORMALIZED FREE ENERGY PREDICTED BY IDOCK:   -4.65 KCAL/MOL
REMARK 922        TOTAL FREE ENERGY PREDICTED BY IDOCK:   -7.41 KCAL/MOL
REMARK 923 INTER-LIGAND FREE ENERGY PREDICTED BY IDOCK:   -6.68 KCAL/MOL
REMARK 924 INTRA-LIGAND FREE ENERGY PREDICTED BY IDOCK:   -0.74 KCAL/MOL
REMARK 927      BINDING AFFINITY PREDICTED BY RF-SCORE:    0.00 PKD
ROOT
HETATM    1  C   UNL     1     -11.041   9.498  69.752  1.00  0.00    -0.191 C  
HETATM    2  N   UNL     1     -10.247   8.430  69.145  1.00  0.00    -0.207 NA 
ENDROOT
BRANCH   2   3
HETATM    3  C   UNL     1     -10.233   7.257  69.928  1.00  0.00    -0.205 A  
HETATM    4  C   UNL     1      -9.493   5.093  70.337  1.00  0.00    -0.169 A  
HETATM    5  C   UNL     1     -10.285   4.948  71.461  1.00  0.00    -0.264 A  
HETATM    6  C   UNL     1     -11.056   7.179  71.053  1.00  0.00    -0.287 A  
HETATM    7  C   UNL     1     -11.086   6.018  71.824  1.00  0.00    -0.332 A  
HETATM    8  N   UNL     1      -9.455   6.210  69.574  1.00  0.00    -0.139 NA 
ENDBRANCH   2   3
BRANCH   2   9
HETATM    9  C   UNL     1     -10.546   8.184  67.719  1.00  0.00    -0.165 C  
BRANCH   9  10
HETATM   10  C   UNL     1      -9.585   8.941  66.790  1.00  0.00    -0.202 C  
BRANCH  10  11
HETATM   11  O   UNL     1     -10.285   9.775  65.856  1.00  0.00    -0.259 OA 
BRANCH  11  12
HETATM   12  C   UNL     1     -10.544  11.051  66.298  1.00  0.00    -0.237 A  
HETATM   13  C   UNL     1     -11.827  13.104  66.432  1.00  0.00    -0.455 A  
HETATM   14  C   UNL     1     -11.690  11.786  65.996  1.00  0.00    -0.100 A  
HETATM   15  C   UNL     1     -10.824  13.713  67.195  1.00  0.00    -0.292 A  
HETATM   16  C   UNL     1      -9.697  12.956  67.546  1.00  0.00    -0.205 A  
HETATM   17  C   UNL     1      -9.557  11.635  67.100  1.00  0.00    -0.185 A  
BRANCH  15  18
HETATM   18  C   UNL     1     -10.930  15.174  67.548  1.00  0.00    -0.310 C  
BRANCH  18  19
HETATM   19  C   UNL     1     -11.740  15.557  68.782  1.00  0.00    -0.357 C  
HETATM   20  S   UNL     1     -12.262  14.216  69.900  1.00  0.00    -0.343 SA 
HETATM   21  C   UNL     1     -12.128  15.254  71.301  1.00  0.00    -0.349 C  
HETATM   22  N   UNL     1     -11.418  16.365  70.990  1.00  0.00    -0.556 N  
HETATM   23  O   UNL     1     -12.625  15.005  72.385  1.00  0.00    -0.313 OA 
HETATM   24  C   UNL     1     -11.086  16.582  69.684  1.00  0.00    -0.235 C  
HETATM   25  H   UNL     1     -11.138  17.024  71.715  1.00  0.00     0.000 HD 
HETATM   26  O   UNL     1     -10.430  17.544  69.305  1.00  0.00    -0.321 OA 
ENDBRANCH  18  19
ENDBRANCH  15  18
ENDBRANCH  11  12
ENDBRANCH  10  11
ENDBRANCH   9  10
ENDBRANCH   2   9
TORSDOF 7
ENDMDL
MODEL      165
REMARK 921   NORMALIZED FREE ENERGY PREDICTED BY IDOCK:   -4.65 KCAL/MOL
REMARK 922        TOTAL FREE ENERGY PREDICTED BY IDOCK:   -7.41 KCAL/MOL
REMARK 923 INTER-LIGAND FREE ENERGY PREDICTED BY IDOCK:   -6.86 KCAL/MOL
REMARK 924 INTRA-LIGAND FREE ENERGY PREDICTED BY IDOCK:   -0.54 KCAL/MOL
REMARK 927      BINDING AFFINITY PREDICTED BY RF-SCORE:    0.00 PKD
ROOT
HETATM    1  C   UNL     1     -11.780  14.032  64.848  1.00  0.00    -0.380 C  
HETATM    2  N   UNL     1     -11.408  12.775  65.500  1.00  0.00    -0.301 NA 
ENDROOT
BRANCH   2   3
HETATM    3  C   UNL     1     -10.565  11.980  64.696  1.00  0.00    -0.307 A  
HETATM    4  C   UNL     1      -9.906  11.170  62.621  1.00  0.00    -0.125 A  
HETATM    5  C   UNL     1      -8.928  10.355  63.159  1.00  0.00    -0.245 A  
HETATM    6  C   UNL     1      -9.595  11.183  65.306  1.00  0.00    -0.268 A  
HETATM    7  C   UNL     1      -8.773  10.362  64.535  1.00  0.00    -0.205 A  
HETATM    8  N   UNL     1     -10.717  11.968  63.353  1.00  0.00    -0.429 NA 
ENDBRANCH   2   3
BRANCH   2   9
HETATM    9  C   UNL     1     -10.927  12.928  66.888  1.00  0.00    -0.266 C  
BRANCH   9  10
HETATM   10  C   UNL     1     -11.908  12.331  67.908  1.00  0.00    -0.293 C  
BRANCH  10  11
HETATM   11  O   UNL     1     -11.831  10.899  67.954  1.00  0.00    -0.590 OA 
BRANCH  11  12
HETATM   12  C   UNL     1     -10.929  10.395  68.861  1.00  0.00    -0.245 A  
HETATM   13  C   UNL     1      -8.753   9.599  69.576  1.00  0.00    -0.191 A  
HETATM   14  C   UNL     1      -9.573  10.187  68.612  1.00  0.00    -0.165 A  
HETATM   15  C   UNL     1      -9.270   9.220  70.819  1.00  0.00    -0.316 A  
HETATM   16  C   UNL     1     -10.620   9.480  71.091  1.00  0.00    -0.388 A  
HETATM   17  C   UNL     1     -11.445  10.062  70.119  1.00  0.00    -0.344 A  
BRANCH  15  18
HETATM   18  C   UNL     1      -8.401   8.472  71.797  1.00  0.00    -0.221 C  
BRANCH  18  19
HETATM   19  C   UNL     1      -8.847   7.080  72.236  1.00  0.00    -0.132 C  
HETATM   20  S   UNL     1     -10.144   6.972  73.511  1.00  0.00    -0.347 SA 
HETATM   21  C   UNL     1     -10.792   5.508  72.809  1.00  0.00    -0.263 C  
HETATM   22  N   UNL     1     -10.310   5.341  71.554  1.00  0.00    -0.218 N  
HETATM   23  O   UNL     1     -11.551   4.751  73.388  1.00  0.00    -0.323 OA 
HETATM   24  C   UNL     1      -9.326   6.181  71.117  1.00  0.00    -0.164 C  
HETATM   25  H   UNL     1     -10.674   4.605  70.950  1.00  0.00     0.000 HD 
HETATM   26  O   UNL     1      -8.841   6.124  69.994  1.00  0.00    -0.140 OA 
ENDBRANCH  18  19
ENDBRANCH  15  18
ENDBRANCH  11  12
ENDBRANCH  10  11
ENDBRANCH   9  10
ENDBRANCH   2   9
TORSDOF 7
ENDMDL
MODEL      166
REMARK 921   NORMALIZED FREE ENERGY PREDICTED BY IDOCK:   -4.65 KCAL/MOL
REMARK 922        TOTAL FREE ENERGY PREDICTED BY IDOCK:   -7.40 KCAL/MOL
REMARK 923 INTER-LIGAND FREE ENERGY PREDICTED BY IDOCK:   -7.31 KCAL/MOL
REMARK 924 INTRA-LIGAND FREE ENERGY PREDICTED BY IDOCK:   -0.09 KCAL/MOL
REMARK 927      BINDING AFFINITY PREDICTED BY RF-SCORE:    0.00 PKD
ROOT
HETATM    1  C   UNL     1      -9.268  15.317  66.656  1.00  0.00    -0.274 C  
HETATM    2  N   UNL     1     -10.506  15.980  66.243  1.00  0.00    -0.315 NA 
ENDROOT
BRANCH   2   3
HETATM    3  C   UNL     1     -10.507  17.357  66.549  1.00  0.00    -0.264 A  
HETATM    4  C   UNL     1     -10.582  19.584  65.896  1.00  0.00    -0.476 A  
HETATM    5  C   UNL     1     -10.442  20.052  67.190  1.00  0.00    -0.513 A  
HETATM    6  C   UNL     1     -10.365  17.760  67.879  1.00  0.00    -0.388 A  
HETATM    7  C   UNL     1     -10.329  19.115  68.202  1.00  0.00    -0.465 A  
HETATM    8  N   UNL     1     -10.613  18.274  65.562  1.00  0.00    -0.576 NA 
ENDBRANCH   2   3
BRANCH   2   9
HETATM    9  C   UNL     1     -10.924  15.682  64.858  1.00  0.00    -0.431 C  
BRANCH   9  10
HETATM   10  C   UNL     1     -11.755  14.394  64.771  1.00  0.00    -0.416 C  
BRANCH  10  11
HETATM   11  O   UNL     1     -11.098  13.380  63.998  1.00  0.00    -0.365 OA 
BRANCH  11  12
HETATM   12  C   UNL     1     -10.738  12.255  64.702  1.00  0.00    -0.308 A  
HETATM   13  C   UNL     1      -9.626  10.122  65.004  1.00  0.00    -0.362 A  
HETATM   14  C   UNL     1      -9.870  11.266  64.243  1.00  0.00    -0.319 A  
HETATM   15  C   UNL     1     -10.234   9.950  66.252  1.00  0.00    -0.282 A  
HETATM   16  C   UNL     1     -11.063  10.971  66.740  1.00  0.00    -0.240 A  
HETATM   17  C   UNL     1     -11.315  12.115  65.970  1.00  0.00    -0.410 A  
BRANCH  15  18
HETATM   18  C   UNL     1     -10.060   8.655  67.002  1.00  0.00    -0.342 C  
BRANCH  18  19
HETATM   19  C   UNL     1      -8.682   8.001  66.994  1.00  0.00    -0.128 C  
HETATM   20  S   UNL     1      -7.855   7.792  65.384  1.00  0.00    -0.121 SA 
HETATM   21  C   UNL     1      -6.277   8.023  66.100  1.00  0.00    -0.045 C  
HETATM   22  N   UNL     1      -6.402   8.560  67.337  1.00  0.00    -0.056 N  
HETATM   23  O   UNL     1      -5.229   7.720  65.556  1.00  0.00    -0.028 OA 
HETATM   24  C   UNL     1      -7.651   8.672  67.876  1.00  0.00    -0.098 C  
HETATM   25  H   UNL     1      -5.581   8.875  67.854  1.00  0.00     0.000 HD 
HETATM   26  O   UNL     1      -7.870   9.162  68.977  1.00  0.00    -0.087 OA 
ENDBRANCH  18  19
ENDBRANCH  15  18
ENDBRANCH  11  12
ENDBRANCH  10  11
ENDBRANCH   9  10
ENDBRANCH   2   9
TORSDOF 7
ENDMDL
MODEL      167
REMARK 921   NORMALIZED FREE ENERGY PREDICTED BY IDOCK:   -4.64 KCAL/MOL
REMARK 922        TOTAL FREE ENERGY PREDICTED BY IDOCK:   -7.40 KCAL/MOL
REMARK 923 INTER-LIGAND FREE ENERGY PREDICTED BY IDOCK:   -6.85 KCAL/MOL
REMARK 924 INTRA-LIGAND FREE ENERGY PREDICTED BY IDOCK:   -0.55 KCAL/MOL
REMARK 927      BINDING AFFINITY PREDICTED BY RF-SCORE:    0.00 PKD
ROOT
HETATM    1  C   UNL     1      -9.397   9.445  65.546  1.00  0.00    -0.251 C  
HETATM    2  N   UNL     1      -9.942   8.532  66.552  1.00  0.00    -0.278 NA 
ENDROOT
BRANCH   2   3
HETATM    3  C   UNL     1      -9.021   7.532  66.926  1.00  0.00    -0.135 A  
HETATM    4  C   UNL     1      -6.943   6.881  67.735  1.00  0.00    -0.083 A  
HETATM    5  C   UNL     1      -7.218   5.534  67.591  1.00  0.00    -0.075 A  
HETATM    6  C   UNL     1      -9.366   6.190  66.757  1.00  0.00    -0.152 A  
HETATM    7  C   UNL     1      -8.459   5.184  67.087  1.00  0.00    -0.106 A  
HETATM    8  N   UNL     1      -7.807   7.871  67.414  1.00  0.00    -0.119 NA 
ENDBRANCH   2   3
BRANCH   2   9
HETATM    9  C   UNL     1     -10.584   9.203  67.701  1.00  0.00    -0.242 C  
BRANCH   9  10
HETATM   10  C   UNL     1     -10.319  10.716  67.706  1.00  0.00    -0.204 C  
BRANCH  10  11
HETATM   11  O   UNL     1     -11.471  11.467  67.297  1.00  0.00    -0.441 OA 
BRANCH  11  12
HETATM   12  C   UNL     1     -11.222  12.779  66.970  1.00  0.00    -0.292 A  
HETATM   13  C   UNL     1     -11.372  15.180  67.278  1.00  0.00    -0.305 A  
HETATM   14  C   UNL     1     -11.606  13.881  67.733  1.00  0.00    -0.381 A  
HETATM   15  C   UNL     1     -10.734  15.404  66.053  1.00  0.00    -0.326 A  
HETATM   16  C   UNL     1     -10.297  14.297  65.312  1.00  0.00    -0.417 A  
HETATM   17  C   UNL     1     -10.540  12.993  65.766  1.00  0.00    -0.291 A  
BRANCH  15  18
HETATM   18  C   UNL     1     -10.605  16.807  65.519  1.00  0.00    -0.243 C  
BRANCH  18  19
HETATM   19  C   UNL     1     -10.216  17.914  66.495  1.00  0.00    -0.379 C  
HETATM   20  S   UNL     1      -8.548  17.849  67.224  1.00  0.00    -0.241 SA 
HETATM   21  C   UNL     1      -8.439  19.593  67.271  1.00  0.00    -0.307 C  
HETATM   22  N   UNL     1      -9.397  20.141  66.485  1.00  0.00    -0.520 N  
HETATM   23  O   UNL     1      -7.623  20.209  67.935  1.00  0.00    -0.298 OA 
HETATM   24  C   UNL     1     -10.349  19.321  65.951  1.00  0.00    -0.421 C  
HETATM   25  H   UNL     1      -9.407  21.143  66.297  1.00  0.00     0.000 HD 
HETATM   26  O   UNL     1     -11.243  19.715  65.213  1.00  0.00    -0.340 OA 
ENDBRANCH  18  19
ENDBRANCH  15  18
ENDBRANCH  11  12
ENDBRANCH  10  11
ENDBRANCH   9  10
ENDBRANCH   2   9
TORSDOF 7
ENDMDL
MODEL      168
REMARK 921   NORMALIZED FREE ENERGY PREDICTED BY IDOCK:   -4.63 KCAL/MOL
REMARK 922        TOTAL FREE ENERGY PREDICTED BY IDOCK:   -7.39 KCAL/MOL
REMARK 923 INTER-LIGAND FREE ENERGY PREDICTED BY IDOCK:   -6.78 KCAL/MOL
REMARK 924 INTRA-LIGAND FREE ENERGY PREDICTED BY IDOCK:   -0.61 KCAL/MOL
REMARK 927      BINDING AFFINITY PREDICTED BY RF-SCORE:    0.00 PKD
ROOT
HETATM    1  C   UNL     1     -11.551  16.264  64.443  1.00  0.00    -0.056 C  
HETATM    2  N   UNL     1     -10.406  16.106  65.340  1.00  0.00    -0.539 NA 
ENDROOT
BRANCH   2   3
HETATM    3  C   UNL     1     -10.282  17.177  66.250  1.00  0.00    -0.334 A  
HETATM    4  C   UNL     1      -9.739  18.009  68.349  1.00  0.00    -0.344 A  
HETATM    5  C   UNL     1     -10.113  19.299  68.024  1.00  0.00    -0.496 A  
HETATM    6  C   UNL     1     -10.676  18.456  65.854  1.00  0.00    -0.209 A  
HETATM    7  C   UNL     1     -10.595  19.525  66.746  1.00  0.00    -0.597 A  
HETATM    8  N   UNL     1      -9.815  16.959  67.500  1.00  0.00    -0.254 NA 
ENDBRANCH   2   3
BRANCH   2   9
HETATM    9  C   UNL     1     -10.310  14.776  65.977  1.00  0.00    -0.305 C  
BRANCH   9  10
HETATM   10  C   UNL     1     -11.312  13.777  65.381  1.00  0.00    -0.308 C  
BRANCH  10  11
HETATM   11  O   UNL     1     -10.695  12.523  65.058  1.00  0.00    -0.278 OA 
BRANCH  11  12
HETATM   12  C   UNL     1     -10.354  11.748  66.142  1.00  0.00    -0.230 A  
HETATM   13  C   UNL     1      -8.836  10.445  67.512  1.00  0.00    -0.134 A  
HETATM   14  C   UNL     1      -9.068  11.291  66.426  1.00  0.00    -0.201 A  
HETATM   15  C   UNL     1      -9.886  10.051  68.348  1.00  0.00    -0.169 A  
HETATM   16  C   UNL     1     -11.170  10.556  68.096  1.00  0.00    -0.357 A  
HETATM   17  C   UNL     1     -11.403  11.397  67.000  1.00  0.00    -0.309 A  
BRANCH  15  18
HETATM   18  C   UNL     1      -9.640   9.039  69.437  1.00  0.00    -0.160 C  
BRANCH  18  19
HETATM   19  C   UNL     1     -10.229   7.642  69.265  1.00  0.00    -0.210 C  
HETATM   20  S   UNL     1      -9.145   6.348  68.579  1.00  0.00    -0.125 SA 
HETATM   21  C   UNL     1      -9.917   5.110  69.541  1.00  0.00    -0.231 C  
HETATM   22  N   UNL     1     -10.651   5.678  70.528  1.00  0.00    -0.278 N  
HETATM   23  O   UNL     1      -9.815   3.915  69.326  1.00  0.00    -0.145 OA 
HETATM   24  C   UNL     1     -10.811   7.034  70.523  1.00  0.00    -0.251 C  
HETATM   25  H   UNL     1     -11.073   5.106  71.259  1.00  0.00     0.000 HD 
HETATM   26  O   UNL     1     -11.438   7.643  71.381  1.00  0.00    -0.254 OA 
ENDBRANCH  18  19
ENDBRANCH  15  18
ENDBRANCH  11  12
ENDBRANCH  10  11
ENDBRANCH   9  10
ENDBRANCH   2   9
TORSDOF 7
ENDMDL
MODEL      169
REMARK 921   NORMALIZED FREE ENERGY PREDICTED BY IDOCK:   -4.63 KCAL/MOL
REMARK 922        TOTAL FREE ENERGY PREDICTED BY IDOCK:   -7.37 KCAL/MOL
REMARK 923 INTER-LIGAND FREE ENERGY PREDICTED BY IDOCK:   -6.42 KCAL/MOL
REMARK 924 INTRA-LIGAND FREE ENERGY PREDICTED BY IDOCK:   -0.96 KCAL/MOL
REMARK 927      BINDING AFFINITY PREDICTED BY RF-SCORE:    0.00 PKD
ROOT
HETATM    1  C   UNL     1     -10.365  15.133  69.209  1.00  0.00    -0.257 C  
HETATM    2  N   UNL     1     -11.366  14.065  69.211  1.00  0.00    -0.261 NA 
ENDROOT
BRANCH   2   3
HETATM    3  C   UNL     1     -12.291  14.196  70.267  1.00  0.00    -0.356 A  
HETATM    4  C   UNL     1     -13.704  15.486  71.586  1.00  0.00    -0.466 A  
HETATM    5  C   UNL     1     -14.056  14.420  72.393  1.00  0.00    -0.544 A  
HETATM    6  C   UNL     1     -12.605  13.077  71.041  1.00  0.00    -0.386 A  
HETATM    7  C   UNL     1     -13.490  13.189  72.113  1.00  0.00    -0.653 A  
HETATM    8  N   UNL     1     -12.843  15.398  70.546  1.00  0.00    -0.413 NA 
ENDBRANCH   2   3
BRANCH   2   9
HETATM    9  C   UNL     1     -12.000  13.822  67.898  1.00  0.00    -0.356 C  
BRANCH   9  10
HETATM   10  C   UNL     1     -11.478  12.538  67.236  1.00  0.00    -0.353 C  
BRANCH  10  11
HETATM   11  O   UNL     1     -12.092  11.362  67.780  1.00  0.00    -0.637 OA 
BRANCH  11  12
HETATM   12  C   UNL     1     -11.218  10.443  68.310  1.00  0.00    -0.267 A  
HETATM   13  C   UNL     1     -10.453   8.850  69.971  1.00  0.00    -0.227 A  
HETATM   14  C   UNL     1     -11.437   9.706  69.473  1.00  0.00     0.002 A  
HETATM   15  C   UNL     1      -9.231   8.702  69.307  1.00  0.00    -0.150 A  
HETATM   16  C   UNL     1      -9.032   9.400  68.107  1.00  0.00    -0.128 A  
HETATM   17  C   UNL     1     -10.016  10.266  67.613  1.00  0.00    -0.212 A  
BRANCH  15  18
HETATM   18  C   UNL     1      -8.135   7.875  69.926  1.00  0.00    -0.118 C  
BRANCH  18  19
HETATM   19  C   UNL     1      -7.828   8.081  71.406  1.00  0.00    -0.094 C  
HETATM   20  S   UNL     1      -7.665   6.597  72.450  1.00  0.00    -0.095 SA 
HETATM   21  C   UNL     1      -6.461   7.367  73.456  1.00  0.00    -0.065 C  
HETATM   22  N   UNL     1      -5.981   8.474  72.842  1.00  0.00    -0.076 N  
HETATM   23  O   UNL     1      -6.130   6.961  74.557  1.00  0.00    -0.071 OA 
HETATM   24  C   UNL     1      -6.585   8.897  71.693  1.00  0.00    -0.068 C  
HETATM   25  H   UNL     1      -5.185   8.981  73.229  1.00  0.00     0.000 HD 
HETATM   26  O   UNL     1      -6.213   9.873  71.054  1.00  0.00    -0.166 OA 
ENDBRANCH  18  19
ENDBRANCH  15  18
ENDBRANCH  11  12
ENDBRANCH  10  11
ENDBRANCH   9  10
ENDBRANCH   2   9
TORSDOF 7
ENDMDL
MODEL      170
REMARK 921   NORMALIZED FREE ENERGY PREDICTED BY IDOCK:   -4.62 KCAL/MOL
REMARK 922        TOTAL FREE ENERGY PREDICTED BY IDOCK:   -7.36 KCAL/MOL
REMARK 923 INTER-LIGAND FREE ENERGY PREDICTED BY IDOCK:   -6.03 KCAL/MOL
REMARK 924 INTRA-LIGAND FREE ENERGY PREDICTED BY IDOCK:   -1.33 KCAL/MOL
REMARK 927      BINDING AFFINITY PREDICTED BY RF-SCORE:    0.00 PKD
ROOT
HETATM    1  C   UNL     1     -12.850  13.135  65.009  1.00  0.00    -0.302 C  
HETATM    2  N   UNL     1     -11.700  13.817  65.604  1.00  0.00    -0.335 NA 
ENDROOT
BRANCH   2   3
HETATM    3  C   UNL     1     -11.740  13.808  67.014  1.00  0.00    -0.390 A  
HETATM    4  C   UNL     1     -11.507  14.881  69.061  1.00  0.00    -0.301 A  
HETATM    5  C   UNL     1     -11.767  13.732  69.785  1.00  0.00    -0.367 A  
HETATM    6  C   UNL     1     -12.013  12.613  67.681  1.00  0.00    -0.309 A  
HETATM    7  C   UNL     1     -12.024  12.571  69.075  1.00  0.00    -0.280 A  
HETATM    8  N   UNL     1     -11.487  14.939  67.710  1.00  0.00    -0.330 NA 
ENDBRANCH   2   3
BRANCH   2   9
HETATM    9  C   UNL     1     -10.394  13.408  65.048  1.00  0.00    -0.347 C  
BRANCH   9  10
HETATM   10  C   UNL     1     -10.422  11.970  64.508  1.00  0.00    -0.299 C  
BRANCH  10  11
HETATM   11  O   UNL     1      -9.253  11.230  64.886  1.00  0.00    -0.197 OA 
BRANCH  11  12
HETATM   12  C   UNL     1      -9.291  10.693  66.152  1.00  0.00    -0.177 A  
HETATM   13  C   UNL     1      -8.721  10.593  68.507  1.00  0.00    -0.141 A  
HETATM   14  C   UNL     1      -8.690  11.254  67.278  1.00  0.00    -0.145 A  
HETATM   15  C   UNL     1      -9.368   9.361  68.639  1.00  0.00    -0.142 A  
HETATM   16  C   UNL     1     -10.021   8.822  67.521  1.00  0.00    -0.254 A  
HETATM   17  C   UNL     1      -9.981   9.482  66.285  1.00  0.00    -0.344 A  
BRANCH  15  18
HETATM   18  C   UNL     1      -9.282   8.602  69.938  1.00  0.00    -0.155 C  
BRANCH  18  19
HETATM   19  C   UNL     1      -9.110   7.087  69.876  1.00  0.00    -0.141 C  
HETATM   20  S   UNL     1      -7.735   6.354  70.820  1.00  0.00    -0.103 SA 
HETATM   21  C   UNL     1      -8.655   4.904  71.144  1.00  0.00    -0.122 C  
HETATM   22  N   UNL     1      -9.967   5.117  70.882  1.00  0.00    -0.198 N  
HETATM   23  O   UNL     1      -8.166   3.856  71.530  1.00  0.00    -0.071 OA 
HETATM   24  C   UNL     1     -10.330   6.288  70.282  1.00  0.00    -0.205 C  
HETATM   25  H   UNL     1     -10.668   4.419  71.129  1.00  0.00     0.000 HD 
HETATM   26  O   UNL     1     -11.490   6.583  70.024  1.00  0.00    -0.380 OA 
ENDBRANCH  18  19
ENDBRANCH  15  18
ENDBRANCH  11  12
ENDBRANCH  10  11
ENDBRANCH   9  10
ENDBRANCH   2   9
TORSDOF 7
ENDMDL
MODEL      171
REMARK 921   NORMALIZED FREE ENERGY PREDICTED BY IDOCK:   -4.62 KCAL/MOL
REMARK 922        TOTAL FREE ENERGY PREDICTED BY IDOCK:   -7.36 KCAL/MOL
REMARK 923 INTER-LIGAND FREE ENERGY PREDICTED BY IDOCK:   -6.87 KCAL/MOL
REMARK 924 INTRA-LIGAND FREE ENERGY PREDICTED BY IDOCK:   -0.49 KCAL/MOL
REMARK 927      BINDING AFFINITY PREDICTED BY RF-SCORE:    0.00 PKD
ROOT
HETATM    1  C   UNL     1     -10.738  18.883  66.985  1.00  0.00    -0.402 C  
HETATM    2  N   UNL     1     -10.031  17.632  66.708  1.00  0.00    -0.305 NA 
ENDROOT
BRANCH   2   3
HETATM    3  C   UNL     1      -8.639  17.746  66.902  1.00  0.00    -0.244 A  
HETATM    4  C   UNL     1      -6.489  18.053  66.077  1.00  0.00    -0.264 A  
HETATM    5  C   UNL     1      -5.903  17.899  67.319  1.00  0.00    -0.151 A  
HETATM    6  C   UNL     1      -8.114  17.582  68.185  1.00  0.00    -0.249 A  
HETATM    7  C   UNL     1      -6.738  17.656  68.396  1.00  0.00    -0.203 A  
HETATM    8  N   UNL     1      -7.821  17.979  65.851  1.00  0.00    -0.541 NA 
ENDBRANCH   2   3
BRANCH   2   9
HETATM    9  C   UNL     1     -10.622  16.442  67.355  1.00  0.00    -0.306 C  
BRANCH   9  10
HETATM   10  C   UNL     1     -10.996  15.357  66.334  1.00  0.00    -0.277 C  
BRANCH  10  11
HETATM   11  O   UNL     1     -12.144  14.602  66.746  1.00  0.00    -0.353 OA 
BRANCH  11  12
HETATM   12  C   UNL     1     -11.866  13.508  67.532  1.00  0.00    -0.368 A  
HETATM   13  C   UNL     1     -11.655  12.317  69.633  1.00  0.00    -0.348 A  
HETATM   14  C   UNL     1     -12.036  13.450  68.914  1.00  0.00    -0.289 A  
HETATM   15  C   UNL     1     -11.107  11.207  68.980  1.00  0.00    -0.299 A  
HETATM   16  C   UNL     1     -10.988  11.242  67.584  1.00  0.00    -0.312 A  
HETATM   17  C   UNL     1     -11.363  12.385  66.864  1.00  0.00    -0.392 A  
BRANCH  15  18
HETATM   18  C   UNL     1     -10.584  10.045  69.784  1.00  0.00    -0.301 C  
BRANCH  18  19
HETATM   19  C   UNL     1     -11.135   8.655  69.480  1.00  0.00     0.033 C  
HETATM   20  S   UNL     1     -10.400   7.743  68.085  1.00  0.00    -0.182 SA 
HETATM   21  C   UNL     1     -10.637   6.209  68.889  1.00  0.00    -0.276 C  
HETATM   22  N   UNL     1     -10.898   6.408  70.203  1.00  0.00    -0.267 N  
HETATM   23  O   UNL     1     -10.590   5.128  68.326  1.00  0.00    -0.072 OA 
HETATM   24  C   UNL     1     -11.098   7.685  70.642  1.00  0.00    -0.257 C  
HETATM   25  H   UNL     1     -10.945   5.621  70.850  1.00  0.00     0.000 HD 
HETATM   26  O   UNL     1     -11.319   7.970  71.812  1.00  0.00    -0.250 OA 
ENDBRANCH  18  19
ENDBRANCH  15  18
ENDBRANCH  11  12
ENDBRANCH  10  11
ENDBRANCH   9  10
ENDBRANCH   2   9
TORSDOF 7
ENDMDL
MODEL      172
REMARK 921   NORMALIZED FREE ENERGY PREDICTED BY IDOCK:   -4.61 KCAL/MOL
REMARK 922        TOTAL FREE ENERGY PREDICTED BY IDOCK:   -7.35 KCAL/MOL
REMARK 923 INTER-LIGAND FREE ENERGY PREDICTED BY IDOCK:   -6.35 KCAL/MOL
REMARK 924 INTRA-LIGAND FREE ENERGY PREDICTED BY IDOCK:   -1.00 KCAL/MOL
REMARK 927      BINDING AFFINITY PREDICTED BY RF-SCORE:    0.00 PKD
ROOT
HETATM    1  C   UNL     1     -10.658  16.517  66.394  1.00  0.00    -0.221 C  
HETATM    2  N   UNL     1     -10.122  16.705  67.743  1.00  0.00    -0.266 NA 
ENDROOT
BRANCH   2   3
HETATM    3  C   UNL     1     -10.781  15.907  68.700  1.00  0.00    -0.274 A  
HETATM    4  C   UNL     1     -11.357  15.427  70.899  1.00  0.00    -0.359 A  
HETATM    5  C   UNL     1     -12.038  14.275  70.555  1.00  0.00    -0.413 A  
HETATM    6  C   UNL     1     -11.454  14.757  68.282  1.00  0.00    -0.338 A  
HETATM    7  C   UNL     1     -12.085  13.933  69.214  1.00  0.00    -0.383 A  
HETATM    8  N   UNL     1     -10.735  16.236  70.011  1.00  0.00    -0.316 NA 
ENDBRANCH   2   3
BRANCH   2   9
HETATM    9  C   UNL     1      -8.649  16.635  67.829  1.00  0.00    -0.192 C  
BRANCH   9  10
HETATM   10  C   UNL     1      -8.153  15.201  68.070  1.00  0.00    -0.135 C  
BRANCH  10  11
HETATM   11  O   UNL     1      -8.247  14.393  66.889  1.00  0.00    -0.161 OA 
BRANCH  11  12
HETATM   12  C   UNL     1      -8.777  13.139  67.084  1.00  0.00    -0.213 A  
HETATM   13  C   UNL     1     -10.183  11.244  66.527  1.00  0.00    -0.269 A  
HETATM   14  C   UNL     1      -9.639  12.487  66.203  1.00  0.00    -0.230 A  
HETATM   15  C   UNL     1      -9.864  10.617  67.737  1.00  0.00    -0.187 A  
HETATM   16  C   UNL     1      -8.954  11.246  68.598  1.00  0.00    -0.148 A  
HETATM   17  C   UNL     1      -8.415  12.498  68.276  1.00  0.00    -0.165 A  
BRANCH  15  18
HETATM   18  C   UNL     1     -10.559   9.338  68.126  1.00  0.00    -0.248 C  
BRANCH  18  19
HETATM   19  C   UNL     1     -10.527   8.921  69.594  1.00  0.00    -0.216 C  
HETATM   20  S   UNL     1     -11.683   9.750  70.732  1.00  0.00    -0.346 SA 
HETATM   21  C   UNL     1     -11.854   8.305  71.701  1.00  0.00    -0.299 C  
HETATM   22  N   UNL     1     -11.382   7.231  71.023  1.00  0.00    -0.266 N  
HETATM   23  O   UNL     1     -12.315   8.289  72.830  1.00  0.00    -0.296 OA 
HETATM   24  C   UNL     1     -10.729   7.442  69.842  1.00  0.00    -0.243 C  
HETATM   25  H   UNL     1     -11.511   6.287  71.386  1.00  0.00     0.000 HD 
HETATM   26  O   UNL     1     -10.285   6.538  69.147  1.00  0.00    -0.164 OA 
ENDBRANCH  18  19
ENDBRANCH  15  18
ENDBRANCH  11  12
ENDBRANCH  10  11
ENDBRANCH   9  10
ENDBRANCH   2   9
TORSDOF 7
ENDMDL
MODEL      173
REMARK 921   NORMALIZED FREE ENERGY PREDICTED BY IDOCK:   -4.60 KCAL/MOL
REMARK 922        TOTAL FREE ENERGY PREDICTED BY IDOCK:   -7.34 KCAL/MOL
REMARK 923 INTER-LIGAND FREE ENERGY PREDICTED BY IDOCK:   -6.33 KCAL/MOL
REMARK 924 INTRA-LIGAND FREE ENERGY PREDICTED BY IDOCK:   -1.01 KCAL/MOL
REMARK 927      BINDING AFFINITY PREDICTED BY RF-SCORE:    0.00 PKD
ROOT
HETATM    1  C   UNL     1      -8.465   9.785  63.931  1.00  0.00    -0.184 C  
HETATM    2  N   UNL     1      -7.969   9.930  65.300  1.00  0.00    -0.130 NA 
ENDROOT
BRANCH   2   3
HETATM    3  C   UNL     1      -8.831  10.702  66.106  1.00  0.00    -0.168 A  
HETATM    4  C   UNL     1     -10.806  11.884  66.420  1.00  0.00    -0.279 A  
HETATM    5  C   UNL     1     -10.466  12.270  67.703  1.00  0.00    -0.230 A  
HETATM    6  C   UNL     1      -8.426  11.053  67.396  1.00  0.00    -0.132 A  
HETATM    7  C   UNL     1      -9.246  11.844  68.199  1.00  0.00    -0.187 A  
HETATM    8  N   UNL     1     -10.022  11.122  65.623  1.00  0.00    -0.236 NA 
ENDBRANCH   2   3
BRANCH   2   9
HETATM    9  C   UNL     1      -7.545   8.664  65.933  1.00  0.00    -0.089 C  
BRANCH   9  10
HETATM   10  C   UNL     1      -8.621   7.574  65.818  1.00  0.00    -0.142 C  
BRANCH  10  11
HETATM   11  O   UNL     1      -8.354   6.461  66.682  1.00  0.00    -0.109 OA 
BRANCH  11  12
HETATM   12  C   UNL     1      -9.155   6.387  67.798  1.00  0.00    -0.111 A  
HETATM   13  C   UNL     1     -11.274   6.367  68.976  1.00  0.00    -0.402 A  
HETATM   14  C   UNL     1     -10.549   6.367  67.784  1.00  0.00    -0.331 A  
HETATM   15  C   UNL     1     -10.618   6.371  70.212  1.00  0.00    -0.290 A  
HETATM   16  C   UNL     1      -9.216   6.333  70.227  1.00  0.00    -0.163 A  
HETATM   17  C   UNL     1      -8.489   6.343  69.029  1.00  0.00    -0.124 A  
BRANCH  15  18
HETATM   18  C   UNL     1     -11.414   6.499  71.485  1.00  0.00    -0.351 C  
BRANCH  18  19
HETATM   19  C   UNL     1     -11.993   7.867  71.835  1.00  0.00    -0.305 C  
HETATM   20  S   UNL     1     -11.100   9.339  71.241  1.00  0.00    -0.384 SA 
HETATM   21  C   UNL     1     -12.588  10.235  71.046  1.00  0.00    -0.390 C  
HETATM   22  N   UNL     1     -13.646   9.389  71.075  1.00  0.00    -0.569 N  
HETATM   23  O   UNL     1     -12.646  11.446  70.923  1.00  0.00    -0.367 OA 
HETATM   24  C   UNL     1     -13.428   8.082  71.403  1.00  0.00    -0.222 C  
HETATM   25  H   UNL     1     -14.585   9.722  70.856  1.00  0.00     0.000 HD 
HETATM   26  O   UNL     1     -14.314   7.238  71.437  1.00  0.00    -0.431 OA 
ENDBRANCH  18  19
ENDBRANCH  15  18
ENDBRANCH  11  12
ENDBRANCH  10  11
ENDBRANCH   9  10
ENDBRANCH   2   9
TORSDOF 7
ENDMDL
MODEL      174
REMARK 921   NORMALIZED FREE ENERGY PREDICTED BY IDOCK:   -4.60 KCAL/MOL
REMARK 922        TOTAL FREE ENERGY PREDICTED BY IDOCK:   -7.33 KCAL/MOL
REMARK 923 INTER-LIGAND FREE ENERGY PREDICTED BY IDOCK:   -6.69 KCAL/MOL
REMARK 924 INTRA-LIGAND FREE ENERGY PREDICTED BY IDOCK:   -0.65 KCAL/MOL
REMARK 927      BINDING AFFINITY PREDICTED BY RF-SCORE:    0.00 PKD
ROOT
HETATM    1  C   UNL     1     -11.908   8.046  72.360  1.00  0.00    -0.372 C  
HETATM    2  N   UNL     1     -10.570   7.922  72.938  1.00  0.00    -0.354 NA 
ENDROOT
BRANCH   2   3
HETATM    3  C   UNL     1     -10.298   6.614  73.390  1.00  0.00    -0.275 A  
HETATM    4  C   UNL     1      -8.891   5.060  74.390  1.00  0.00    -0.111 A  
HETATM    5  C   UNL     1      -9.780   4.017  74.208  1.00  0.00    -0.150 A  
HETATM    6  C   UNL     1     -11.242   5.609  73.176  1.00  0.00    -0.285 A  
HETATM    7  C   UNL     1     -10.982   4.301  73.584  1.00  0.00    -0.364 A  
HETATM    8  N   UNL     1      -9.123   6.333  73.997  1.00  0.00    -0.130 NA 
ENDBRANCH   2   3
BRANCH   2   9
HETATM    9  C   UNL     1      -9.491   8.495  72.106  1.00  0.00    -0.305 C  
BRANCH   9  10
HETATM   10  C   UNL     1      -9.703   8.211  70.612  1.00  0.00    -0.170 C  
BRANCH  10  11
HETATM   11  O   UNL     1      -8.916   9.078  69.782  1.00  0.00    -0.140 OA 
BRANCH  11  12
HETATM   12  C   UNL     1      -9.629   9.791  68.848  1.00  0.00    -0.167 A  
HETATM   13  C   UNL     1      -9.962  10.870  66.702  1.00  0.00    -0.250 A  
HETATM   14  C   UNL     1      -9.196  10.072  67.553  1.00  0.00    -0.151 A  
HETATM   15  C   UNL     1     -11.189  11.392  67.124  1.00  0.00    -0.363 A  
HETATM   16  C   UNL     1     -11.652  11.063  68.406  1.00  0.00    -0.372 A  
HETATM   17  C   UNL     1     -10.878  10.270  69.263  1.00  0.00    -0.275 A  
BRANCH  15  18
HETATM   18  C   UNL     1     -11.941  12.354  66.240  1.00  0.00    -0.369 C  
BRANCH  18  19
HETATM   19  C   UNL     1     -11.497  13.813  66.226  1.00  0.00    -0.335 C  
HETATM   20  S   UNL     1     -10.823  14.506  67.770  1.00  0.00    -0.270 SA 
HETATM   21  C   UNL     1      -9.727  15.547  66.893  1.00  0.00    -0.233 C  
HETATM   22  N   UNL     1      -9.631  15.140  65.604  1.00  0.00    -0.409 N  
HETATM   23  O   UNL     1      -9.157  16.506  67.382  1.00  0.00    -0.202 OA 
HETATM   24  C   UNL     1     -10.474  14.160  65.165  1.00  0.00    -0.402 C  
HETATM   25  H   UNL     1      -8.945  15.557  64.976  1.00  0.00     0.000 HD 
HETATM   26  O   UNL     1     -10.452  13.711  64.027  1.00  0.00    -0.230 OA 
ENDBRANCH  18  19
ENDBRANCH  15  18
ENDBRANCH  11  12
ENDBRANCH  10  11
ENDBRANCH   9  10
ENDBRANCH   2   9
TORSDOF 7
ENDMDL
MODEL      175
REMARK 921   NORMALIZED FREE ENERGY PREDICTED BY IDOCK:   -4.60 KCAL/MOL
REMARK 922        TOTAL FREE ENERGY PREDICTED BY IDOCK:   -7.33 KCAL/MOL
REMARK 923 INTER-LIGAND FREE ENERGY PREDICTED BY IDOCK:   -6.79 KCAL/MOL
REMARK 924 INTRA-LIGAND FREE ENERGY PREDICTED BY IDOCK:   -0.55 KCAL/MOL
REMARK 927      BINDING AFFINITY PREDICTED BY RF-SCORE:    0.00 PKD
ROOT
HETATM    1  C   UNL     1     -13.538  12.801  72.319  1.00  0.00    -0.465 C  
HETATM    2  N   UNL     1     -13.026  12.582  70.966  1.00  0.00    -0.146 NA 
ENDROOT
BRANCH   2   3
HETATM    3  C   UNL     1     -12.343  13.708  70.460  1.00  0.00    -0.355 A  
HETATM    4  C   UNL     1     -11.344  15.783  70.757  1.00  0.00    -0.390 A  
HETATM    5  C   UNL     1     -11.058  15.929  69.412  1.00  0.00    -0.322 A  
HETATM    6  C   UNL     1     -12.084  13.788  69.090  1.00  0.00    -0.374 A  
HETATM    7  C   UNL     1     -11.440  14.906  68.561  1.00  0.00    -0.336 A  
HETATM    8  N   UNL     1     -11.972  14.709  71.288  1.00  0.00    -0.339 NA 
ENDBRANCH   2   3
BRANCH   2   9
HETATM    9  C   UNL     1     -12.287  11.315  70.791  1.00  0.00    -0.398 C  
BRANCH   9  10
HETATM   10  C   UNL     1     -12.708  10.256  71.820  1.00  0.00    -0.433 C  
BRANCH  10  11
HETATM   11  O   UNL     1     -12.911   8.970  71.217  1.00  0.00    -0.306 OA 
BRANCH  11  12
HETATM   12  C   UNL     1     -11.876   8.080  71.384  1.00  0.00    -0.295 A  
HETATM   13  C   UNL     1     -10.540   6.141  70.808  1.00  0.00    -0.299 A  
HETATM   14  C   UNL     1     -11.567   7.038  70.511  1.00  0.00    -0.364 A  
HETATM   15  C   UNL     1      -9.788   6.276  71.980  1.00  0.00    -0.173 A  
HETATM   16  C   UNL     1     -10.062   7.357  72.831  1.00  0.00    -0.293 A  
HETATM   17  C   UNL     1     -11.099   8.252  72.536  1.00  0.00    -0.439 A  
BRANCH  15  18
HETATM   18  C   UNL     1      -8.771   5.227  72.346  1.00  0.00    -0.125 C  
BRANCH  18  19
HETATM   19  C   UNL     1      -9.276   3.911  72.932  1.00  0.00    -0.107 C  
HETATM   20  S   UNL     1     -10.950   3.894  73.649  1.00  0.00    -0.237 SA 
HETATM   21  C   UNL     1     -11.207   2.237  73.154  1.00  0.00    -0.077 C  
HETATM   22  N   UNL     1     -10.279   1.877  72.236  1.00  0.00    -0.159 N  
HETATM   23  O   UNL     1     -12.088   1.520  73.597  1.00  0.00    -0.206 OA 
HETATM   24  C   UNL     1      -9.249   2.735  71.979  1.00  0.00    -0.095 C  
HETATM   25  H   UNL     1     -10.348   0.985  71.747  1.00  0.00     0.000 HD 
HETATM   26  O   UNL     1      -8.373   2.511  71.154  1.00  0.00    -0.056 OA 
ENDBRANCH  18  19
ENDBRANCH  15  18
ENDBRANCH  11  12
ENDBRANCH  10  11
ENDBRANCH   9  10
ENDBRANCH   2   9
TORSDOF 7
ENDMDL
MODEL      176
REMARK 921   NORMALIZED FREE ENERGY PREDICTED BY IDOCK:   -4.57 KCAL/MOL
REMARK 922        TOTAL FREE ENERGY PREDICTED BY IDOCK:   -7.30 KCAL/MOL
REMARK 923 INTER-LIGAND FREE ENERGY PREDICTED BY IDOCK:   -6.80 KCAL/MOL
REMARK 924 INTRA-LIGAND FREE ENERGY PREDICTED BY IDOCK:   -0.50 KCAL/MOL
REMARK 927      BINDING AFFINITY PREDICTED BY RF-SCORE:    0.00 PKD
ROOT
HETATM    1  C   UNL     1      -9.070  10.000  63.746  1.00  0.00    -0.267 C  
HETATM    2  N   UNL     1      -9.574  10.460  65.041  1.00  0.00    -0.254 NA 
ENDROOT
BRANCH   2   3
HETATM    3  C   UNL     1     -10.514  11.504  64.913  1.00  0.00    -0.291 A  
HETATM    4  C   UNL     1     -11.918  13.101  65.846  1.00  0.00    -0.427 A  
HETATM    5  C   UNL     1     -12.407  13.507  64.618  1.00  0.00    -0.419 A  
HETATM    6  C   UNL     1     -10.962  11.865  63.641  1.00  0.00    -0.511 A  
HETATM    7  C   UNL     1     -11.917  12.870  63.491  1.00  0.00    -0.629 A  
HETATM    8  N   UNL     1     -10.997  12.125  66.012  1.00  0.00    -0.281 NA 
ENDBRANCH   2   3
BRANCH   2   9
HETATM    9  C   UNL     1     -10.014   9.376  65.943  1.00  0.00    -0.256 C  
BRANCH   9  10
HETATM   10  C   UNL     1      -9.246   9.385  67.273  1.00  0.00    -0.130 C  
BRANCH  10  11
HETATM   11  O   UNL     1     -10.057   9.851  68.361  1.00  0.00    -0.157 OA 
BRANCH  11  12
HETATM   12  C   UNL     1     -10.427   8.884  69.265  1.00  0.00    -0.224 A  
HETATM   13  C   UNL     1     -10.997   6.629  69.950  1.00  0.00    -0.373 A  
HETATM   14  C   UNL     1     -10.541   7.523  68.981  1.00  0.00    -0.190 A  
HETATM   15  C   UNL     1     -11.335   7.074  71.232  1.00  0.00    -0.309 A  
HETATM   16  C   UNL     1     -11.166   8.432  71.536  1.00  0.00    -0.328 A  
HETATM   17  C   UNL     1     -10.718   9.332  70.559  1.00  0.00    -0.313 A  
BRANCH  15  18
HETATM   18  C   UNL     1     -11.945   6.117  72.223  1.00  0.00    -0.285 C  
BRANCH  18  19
HETATM   19  C   UNL     1     -11.014   5.167  72.971  1.00  0.00    -0.294 C  
HETATM   20  S   UNL     1     -10.117   3.920  71.991  1.00  0.00    -0.107 SA 
HETATM   21  C   UNL     1      -8.737   3.989  73.061  1.00  0.00    -0.099 C  
HETATM   22  N   UNL     1      -8.809   5.093  73.843  1.00  0.00    -0.118 N  
HETATM   23  O   UNL     1      -7.857   3.146  73.096  1.00  0.00    -0.058 OA 
HETATM   24  C   UNL     1      -9.950   5.842  73.809  1.00  0.00    -0.197 C  
HETATM   25  H   UNL     1      -8.029   5.358  74.443  1.00  0.00     0.000 HD 
HETATM   26  O   UNL     1     -10.104   6.866  74.462  1.00  0.00    -0.283 OA 
ENDBRANCH  18  19
ENDBRANCH  15  18
ENDBRANCH  11  12
ENDBRANCH  10  11
ENDBRANCH   9  10
ENDBRANCH   2   9
TORSDOF 7
ENDMDL
MODEL      177
REMARK 921   NORMALIZED FREE ENERGY PREDICTED BY IDOCK:   -4.57 KCAL/MOL
REMARK 922        TOTAL FREE ENERGY PREDICTED BY IDOCK:   -7.30 KCAL/MOL
REMARK 923 INTER-LIGAND FREE ENERGY PREDICTED BY IDOCK:   -6.30 KCAL/MOL
REMARK 924 INTRA-LIGAND FREE ENERGY PREDICTED BY IDOCK:   -1.00 KCAL/MOL
REMARK 927      BINDING AFFINITY PREDICTED BY RF-SCORE:    0.00 PKD
ROOT
HETATM    1  C   UNL     1     -13.603   7.380  71.488  1.00  0.00    -0.370 C  
HETATM    2  N   UNL     1     -12.294   8.022  71.371  1.00  0.00    -0.309 NA 
ENDROOT
BRANCH   2   3
HETATM    3  C   UNL     1     -12.392   9.417  71.191  1.00  0.00    -0.308 A  
HETATM    4  C   UNL     1     -11.805  11.370  70.079  1.00  0.00    -0.359 A  
HETATM    5  C   UNL     1     -12.565  12.169  70.913  1.00  0.00    -0.340 A  
HETATM    6  C   UNL     1     -13.181  10.164  72.069  1.00  0.00    -0.534 A  
HETATM    7  C   UNL     1     -13.266  11.549  71.933  1.00  0.00    -0.479 A  
HETATM    8  N   UNL     1     -11.705  10.027  70.199  1.00  0.00    -0.240 NA 
ENDBRANCH   2   3
BRANCH   2   9
HETATM    9  C   UNL     1     -11.326   7.628  72.416  1.00  0.00    -0.329 C  
BRANCH   9  10
HETATM   10  C   UNL     1      -9.988   8.367  72.271  1.00  0.00    -0.313 C  
BRANCH  10  11
HETATM   11  O   UNL     1      -9.073   7.662  71.420  1.00  0.00    -0.132 OA 
BRANCH  11  12
HETATM   12  C   UNL     1      -8.626   8.375  70.333  1.00  0.00    -0.136 A  
HETATM   13  C   UNL     1      -7.721  10.327  69.215  1.00  0.00    -0.130 A  
HETATM   14  C   UNL     1      -8.077   9.656  70.385  1.00  0.00    -0.198 A  
HETATM   15  C   UNL     1      -7.891   9.724  67.964  1.00  0.00    -0.086 A  
HETATM   16  C   UNL     1      -8.390   8.415  67.914  1.00  0.00    -0.131 A  
HETATM   17  C   UNL     1      -8.757   7.745  69.089  1.00  0.00    -0.139 A  
BRANCH  15  18
HETATM   18  C   UNL     1      -7.622  10.510  66.707  1.00  0.00    -0.115 C  
BRANCH  18  19
HETATM   19  C   UNL     1      -8.680  11.505  66.241  1.00  0.00    -0.159 C  
HETATM   20  S   UNL     1     -10.421  10.970  66.291  1.00  0.00    -0.237 SA 
HETATM   21  C   UNL     1     -10.968  12.589  66.658  1.00  0.00    -0.266 C  
HETATM   22  N   UNL     1      -9.923  13.353  67.058  1.00  0.00    -0.242 N  
HETATM   23  O   UNL     1     -12.123  12.963  66.544  1.00  0.00    -0.403 OA 
HETATM   24  C   UNL     1      -8.663  12.839  66.956  1.00  0.00    -0.197 C  
HETATM   25  H   UNL     1     -10.075  14.292  67.427  1.00  0.00     0.000 HD 
HETATM   26  O   UNL     1      -7.658  13.442  67.310  1.00  0.00    -0.147 OA 
ENDBRANCH  18  19
ENDBRANCH  15  18
ENDBRANCH  11  12
ENDBRANCH  10  11
ENDBRANCH   9  10
ENDBRANCH   2   9
TORSDOF 7
ENDMDL
MODEL      178
REMARK 921   NORMALIZED FREE ENERGY PREDICTED BY IDOCK:   -4.56 KCAL/MOL
REMARK 922        TOTAL FREE ENERGY PREDICTED BY IDOCK:   -7.28 KCAL/MOL
REMARK 923 INTER-LIGAND FREE ENERGY PREDICTED BY IDOCK:   -6.43 KCAL/MOL
REMARK 924 INTRA-LIGAND FREE ENERGY PREDICTED BY IDOCK:   -0.85 KCAL/MOL
REMARK 927      BINDING AFFINITY PREDICTED BY RF-SCORE:    0.00 PKD
ROOT
HETATM    1  C   UNL     1      -6.694  19.839  69.165  1.00  0.00    -0.346 C  
HETATM    2  N   UNL     1      -7.276  18.701  68.451  1.00  0.00    -0.270 NA 
ENDROOT
BRANCH   2   3
HETATM    3  C   UNL     1      -8.489  19.030  67.811  1.00  0.00    -0.293 A  
HETATM    4  C   UNL     1      -9.669  19.837  65.981  1.00  0.00    -0.370 A  
HETATM    5  C   UNL     1     -10.892  19.723  66.615  1.00  0.00    -0.421 A  
HETATM    6  C   UNL     1      -9.689  18.886  68.510  1.00  0.00    -0.441 A  
HETATM    7  C   UNL     1     -10.898  19.237  67.912  1.00  0.00    -0.319 A  
HETATM    8  N   UNL     1      -8.486  19.508  66.547  1.00  0.00    -0.326 NA 
ENDBRANCH   2   3
BRANCH   2   9
HETATM    9  C   UNL     1      -6.326  17.978  67.580  1.00  0.00    -0.171 C  
BRANCH   9  10
HETATM   10  C   UNL     1      -6.501  16.455  67.676  1.00  0.00    -0.151 C  
BRANCH  10  11
HETATM   11  O   UNL     1      -7.383  16.081  68.744  1.00  0.00    -0.144 OA 
BRANCH  11  12
HETATM   12  C   UNL     1      -8.265  15.070  68.440  1.00  0.00    -0.151 A  
HETATM   13  C   UNL     1     -10.445  14.012  68.376  1.00  0.00    -0.254 A  
HETATM   14  C   UNL     1      -9.643  15.121  68.648  1.00  0.00    -0.213 A  
HETATM   15  C   UNL     1      -9.888  12.831  67.875  1.00  0.00    -0.223 A  
HETATM   16  C   UNL     1      -8.511  12.798  67.613  1.00  0.00    -0.178 A  
HETATM   17  C   UNL     1      -7.704  13.909  67.895  1.00  0.00    -0.161 A  
BRANCH  15  18
HETATM   18  C   UNL     1     -10.748  11.605  67.708  1.00  0.00    -0.244 C  
BRANCH  18  19
HETATM   19  C   UNL     1     -10.334  10.332  68.441  1.00  0.00    -0.177 C  
HETATM   20  S   UNL     1     -11.036  10.046  70.098  1.00  0.00    -0.329 SA 
HETATM   21  C   UNL     1     -11.052   8.315  69.855  1.00  0.00    -0.100 C  
HETATM   22  N   UNL     1     -10.893   8.029  68.540  1.00  0.00    -0.417 N  
HETATM   23  O   UNL     1     -11.170   7.500  70.754  1.00  0.00    -0.261 OA 
HETATM   24  C   UNL     1     -10.590   9.047  67.683  1.00  0.00    -0.231 C  
HETATM   25  H   UNL     1     -10.997   7.074  68.199  1.00  0.00     0.000 HD 
HETATM   26  O   UNL     1     -10.447   8.894  66.477  1.00  0.00    -0.238 OA 
ENDBRANCH  18  19
ENDBRANCH  15  18
ENDBRANCH  11  12
ENDBRANCH  10  11
ENDBRANCH   9  10
ENDBRANCH   2   9
TORSDOF 7
ENDMDL
MODEL      179
REMARK 921   NORMALIZED FREE ENERGY PREDICTED BY IDOCK:   -4.55 KCAL/MOL
REMARK 922        TOTAL FREE ENERGY PREDICTED BY IDOCK:   -7.26 KCAL/MOL
REMARK 923 INTER-LIGAND FREE ENERGY PREDICTED BY IDOCK:   -6.33 KCAL/MOL
REMARK 924 INTRA-LIGAND FREE ENERGY PREDICTED BY IDOCK:   -0.94 KCAL/MOL
REMARK 927      BINDING AFFINITY PREDICTED BY RF-SCORE:    0.00 PKD
ROOT
HETATM    1  C   UNL     1      -9.985  14.144  68.632  1.00  0.00    -0.222 C  
HETATM    2  N   UNL     1     -10.953  13.058  68.476  1.00  0.00    -0.252 NA 
ENDROOT
BRANCH   2   3
HETATM    3  C   UNL     1     -11.720  12.848  69.640  1.00  0.00    -0.299 A  
HETATM    4  C   UNL     1     -12.843  13.651  71.508  1.00  0.00    -0.359 A  
HETATM    5  C   UNL     1     -13.172  12.385  71.955  1.00  0.00    -0.514 A  
HETATM    6  C   UNL     1     -12.020  11.542  70.032  1.00  0.00    -0.435 A  
HETATM    7  C   UNL     1     -12.748  11.307  71.198  1.00  0.00    -0.492 A  
HETATM    8  N   UNL     1     -12.133  13.899  70.384  1.00  0.00    -0.335 NA 
ENDBRANCH   2   3
BRANCH   2   9
HETATM    9  C   UNL     1     -11.762  13.135  67.242  1.00  0.00    -0.374 C  
BRANCH   9  10
HETATM   10  C   UNL     1     -11.473  11.967  66.288  1.00  0.00    -0.301 C  
BRANCH  10  11
HETATM   11  O   UNL     1     -10.082  11.619  66.269  1.00  0.00    -0.210 OA 
BRANCH  11  12
HETATM   12  C   UNL     1      -9.746  10.527  67.034  1.00  0.00    -0.177 A  
HETATM   13  C   UNL     1      -8.301   9.230  68.487  1.00  0.00    -0.119 A  
HETATM   14  C   UNL     1      -8.589  10.412  67.804  1.00  0.00    -0.122 A  
HETATM   15  C   UNL     1      -9.175   8.139  68.428  1.00  0.00    -0.135 A  
HETATM   16  C   UNL     1     -10.366   8.273  67.701  1.00  0.00    -0.313 A  
HETATM   17  C   UNL     1     -10.649   9.457  67.007  1.00  0.00    -0.272 A  
BRANCH  15  18
HETATM   18  C   UNL     1      -8.787   6.831  69.067  1.00  0.00    -0.129 C  
BRANCH  18  19
HETATM   19  C   UNL     1      -9.095   6.635  70.548  1.00  0.00    -0.152 C  
HETATM   20  S   UNL     1     -10.846   6.544  71.042  1.00  0.00    -0.266 SA 
HETATM   21  C   UNL     1     -10.483   5.421  72.332  1.00  0.00    -0.217 C  
HETATM   22  N   UNL     1      -9.243   4.901  72.161  1.00  0.00    -0.134 N  
HETATM   23  O   UNL     1     -11.241   5.170  73.253  1.00  0.00    -0.308 OA 
HETATM   24  C   UNL     1      -8.448   5.421  71.180  1.00  0.00    -0.125 C  
HETATM   25  H   UNL     1      -8.912   4.139  72.752  1.00  0.00     0.000 HD 
HETATM   26  O   UNL     1      -7.323   5.007  70.934  1.00  0.00    -0.064 OA 
ENDBRANCH  18  19
ENDBRANCH  15  18
ENDBRANCH  11  12
ENDBRANCH  10  11
ENDBRANCH   9  10
ENDBRANCH   2   9
TORSDOF 7
ENDMDL
MODEL      180
REMARK 921   NORMALIZED FREE ENERGY PREDICTED BY IDOCK:   -4.54 KCAL/MOL
REMARK 922        TOTAL FREE ENERGY PREDICTED BY IDOCK:   -7.26 KCAL/MOL
REMARK 923 INTER-LIGAND FREE ENERGY PREDICTED BY IDOCK:   -6.79 KCAL/MOL
REMARK 924 INTRA-LIGAND FREE ENERGY PREDICTED BY IDOCK:   -0.47 KCAL/MOL
REMARK 927      BINDING AFFINITY PREDICTED BY RF-SCORE:    0.00 PKD
ROOT
HETATM    1  C   UNL     1      -6.846   7.948  67.165  1.00  0.00    -0.073 C  
HETATM    2  N   UNL     1      -7.829   7.037  66.579  1.00  0.00    -0.104 NA 
ENDROOT
BRANCH   2   3
HETATM    3  C   UNL     1      -8.871   6.718  67.475  1.00  0.00    -0.117 A  
HETATM    4  C   UNL     1     -10.754   7.313  68.698  1.00  0.00    -0.138 A  
HETATM    5  C   UNL     1     -10.864   6.067  69.288  1.00  0.00    -0.428 A  
HETATM    6  C   UNL     1      -8.924   5.439  68.031  1.00  0.00    -0.110 A  
HETATM    7  C   UNL     1      -9.924   5.110  68.946  1.00  0.00    -0.245 A  
HETATM    8  N   UNL     1      -9.788   7.652  67.814  1.00  0.00    -0.151 NA 
ENDBRANCH   2   3
BRANCH   2   9
HETATM    9  C   UNL     1      -8.306   7.435  65.238  1.00  0.00    -0.104 C  
BRANCH   9  10
HETATM   10  C   UNL     1      -8.089   8.931  64.970  1.00  0.00    -0.137 C  
BRANCH  10  11
HETATM   11  O   UNL     1      -8.989   9.436  63.973  1.00  0.00    -0.213 OA 
BRANCH  11  12
HETATM   12  C   UNL     1      -9.770  10.493  64.379  1.00  0.00    -0.328 A  
HETATM   13  C   UNL     1     -10.933  11.857  66.012  1.00  0.00    -0.355 A  
HETATM   14  C   UNL     1     -10.067  10.806  65.705  1.00  0.00    -0.327 A  
HETATM   15  C   UNL     1     -11.509  12.628  64.997  1.00  0.00    -0.366 A  
HETATM   16  C   UNL     1     -11.167  12.349  63.666  1.00  0.00    -0.544 A  
HETATM   17  C   UNL     1     -10.305  11.288  63.359  1.00  0.00    -0.449 A  
BRANCH  15  18
HETATM   18  C   UNL     1     -12.539  13.674  65.341  1.00  0.00    -0.533 C  
BRANCH  18  19
HETATM   19  C   UNL     1     -12.055  14.983  65.957  1.00  0.00     0.152 C  
HETATM   20  S   UNL     1     -10.915  14.877  67.375  1.00  0.00    -0.323 SA 
HETATM   21  C   UNL     1     -10.090  16.342  66.894  1.00  0.00    -0.278 C  
HETATM   22  N   UNL     1     -10.407  16.655  65.614  1.00  0.00    -0.328 N  
HETATM   23  O   UNL     1      -9.356  16.984  67.625  1.00  0.00    -0.237 OA 
HETATM   24  C   UNL     1     -11.386  15.936  64.991  1.00  0.00    -0.193 C  
HETATM   25  H   UNL     1      -9.925  17.410  65.128  1.00  0.00     0.000 HD 
HETATM   26  O   UNL     1     -11.729  16.128  63.831  1.00  0.00    -0.860 OA 
ENDBRANCH  18  19
ENDBRANCH  15  18
ENDBRANCH  11  12
ENDBRANCH  10  11
ENDBRANCH   9  10
ENDBRANCH   2   9
TORSDOF 7
ENDMDL
MODEL      181
REMARK 921   NORMALIZED FREE ENERGY PREDICTED BY IDOCK:   -4.54 KCAL/MOL
REMARK 922        TOTAL FREE ENERGY PREDICTED BY IDOCK:   -7.26 KCAL/MOL
REMARK 923 INTER-LIGAND FREE ENERGY PREDICTED BY IDOCK:   -6.69 KCAL/MOL
REMARK 924 INTRA-LIGAND FREE ENERGY PREDICTED BY IDOCK:   -0.57 KCAL/MOL
REMARK 927      BINDING AFFINITY PREDICTED BY RF-SCORE:    0.00 PKD
ROOT
HETATM    1  C   UNL     1     -10.357   5.480  70.150  1.00  0.00    -0.284 C  
HETATM    2  N   UNL     1     -10.804   4.924  71.427  1.00  0.00     0.037 NA 
ENDROOT
BRANCH   2   3
HETATM    3  C   UNL     1      -9.836   4.087  72.020  1.00  0.00    -0.172 A  
HETATM    4  C   UNL     1      -7.754   3.762  72.997  1.00  0.00    -0.074 A  
HETATM    5  C   UNL     1      -7.935   2.397  73.120  1.00  0.00    -0.047 A  
HETATM    6  C   UNL     1     -10.086   2.717  72.115  1.00  0.00    -0.210 A  
HETATM    7  C   UNL     1      -9.130   1.864  72.665  1.00  0.00    -0.097 A  
HETATM    8  N   UNL     1      -8.667   4.604  72.461  1.00  0.00    -0.114 NA 
ENDBRANCH   2   3
BRANCH   2   9
HETATM    9  C   UNL     1     -11.374   5.919  72.359  1.00  0.00    -0.307 C  
BRANCH   9  10
HETATM   10  C   UNL     1     -11.916   7.154  71.624  1.00  0.00    -0.318 C  
BRANCH  10  11
HETATM   11  O   UNL     1     -11.290   8.365  72.071  1.00  0.00    -0.294 OA 
BRANCH  11  12
HETATM   12  C   UNL     1     -11.415   9.433  71.213  1.00  0.00    -0.363 A  
HETATM   13  C   UNL     1     -10.739  10.847  69.363  1.00  0.00    -0.265 A  
HETATM   14  C   UNL     1     -10.575   9.693  70.130  1.00  0.00    -0.320 A  
HETATM   15  C   UNL     1     -11.758  11.760  69.653  1.00  0.00    -0.413 A  
HETATM   16  C   UNL     1     -12.637  11.471  70.706  1.00  0.00    -0.390 A  
HETATM   17  C   UNL     1     -12.466  10.317  71.483  1.00  0.00    -0.524 A  
BRANCH  15  18
HETATM   18  C   UNL     1     -11.840  13.060  68.895  1.00  0.00    -0.358 C  
BRANCH  18  19
HETATM   19  C   UNL     1     -11.054  14.254  69.430  1.00  0.00    -0.246 C  
HETATM   20  S   UNL     1     -10.169  15.291  68.222  1.00  0.00    -0.229 SA 
HETATM   21  C   UNL     1     -10.437  16.731  69.176  1.00  0.00    -0.343 C  
HETATM   22  N   UNL     1     -11.398  16.503  70.103  1.00  0.00    -0.437 N  
HETATM   23  O   UNL     1      -9.823  17.773  69.027  1.00  0.00    -0.298 OA 
HETATM   24  C   UNL     1     -11.860  15.228  70.262  1.00  0.00    -0.318 C  
HETATM   25  H   UNL     1     -11.769  17.266  70.667  1.00  0.00     0.000 HD 
HETATM   26  O   UNL     1     -12.741  14.924  71.057  1.00  0.00    -0.303 OA 
ENDBRANCH  18  19
ENDBRANCH  15  18
ENDBRANCH  11  12
ENDBRANCH  10  11
ENDBRANCH   9  10
ENDBRANCH   2   9
TORSDOF 7
ENDMDL
MODEL      182
REMARK 921   NORMALIZED FREE ENERGY PREDICTED BY IDOCK:   -4.53 KCAL/MOL
REMARK 922        TOTAL FREE ENERGY PREDICTED BY IDOCK:   -7.24 KCAL/MOL
REMARK 923 INTER-LIGAND FREE ENERGY PREDICTED BY IDOCK:   -6.50 KCAL/MOL
REMARK 924 INTRA-LIGAND FREE ENERGY PREDICTED BY IDOCK:   -0.74 KCAL/MOL
REMARK 927      BINDING AFFINITY PREDICTED BY RF-SCORE:    0.00 PKD
ROOT
HETATM    1  C   UNL     1      -8.130   7.638  65.074  1.00  0.00    -0.133 C  
HETATM    2  N   UNL     1      -8.569   7.297  66.428  1.00  0.00    -0.131 NA 
ENDROOT
BRANCH   2   3
HETATM    3  C   UNL     1      -8.612   5.904  66.645  1.00  0.00    -0.119 A  
HETATM    4  C   UNL     1      -9.497   4.039  67.711  1.00  0.00    -0.178 A  
HETATM    5  C   UNL     1      -8.621   3.169  67.090  1.00  0.00    -0.122 A  
HETATM    6  C   UNL     1      -7.700   5.082  65.982  1.00  0.00    -0.091 A  
HETATM    7  C   UNL     1      -7.700   3.706  66.206  1.00  0.00    -0.088 A  
HETATM    8  N   UNL     1      -9.508   5.377  67.510  1.00  0.00    -0.117 NA 
ENDBRANCH   2   3
BRANCH   2   9
HETATM    9  C   UNL     1      -7.874   8.040  67.499  1.00  0.00    -0.118 C  
BRANCH   9  10
HETATM   10  C   UNL     1      -8.858   8.697  68.478  1.00  0.00    -0.142 C  
BRANCH  10  11
HETATM   11  O   UNL     1     -10.200   8.704  67.969  1.00  0.00    -0.192 OA 
BRANCH  11  12
HETATM   12  C   UNL     1     -10.688   9.946  67.638  1.00  0.00    -0.281 A  
HETATM   13  C   UNL     1     -11.039  11.842  66.168  1.00  0.00    -0.374 A  
HETATM   14  C   UNL     1     -10.574  10.544  66.384  1.00  0.00    -0.218 A  
HETATM   15  C   UNL     1     -11.642  12.567  67.202  1.00  0.00    -0.437 A  
HETATM   16  C   UNL     1     -11.808  11.945  68.448  1.00  0.00    -0.352 A  
HETATM   17  C   UNL     1     -11.333  10.645  68.666  1.00  0.00    -0.345 A  
BRANCH  15  18
HETATM   18  C   UNL     1     -12.021  14.009  66.987  1.00  0.00    -0.472 C  
BRANCH  18  19
HETATM   19  C   UNL     1     -10.911  15.056  67.024  1.00  0.00    -0.318 C  
HETATM   20  S   UNL     1     -10.526  15.932  65.474  1.00  0.00    -0.403 SA 
HETATM   21  C   UNL     1     -10.116  17.397  66.336  1.00  0.00    -0.327 C  
HETATM   22  N   UNL     1     -10.577  17.331  67.609  1.00  0.00    -0.364 N  
HETATM   23  O   UNL     1      -9.490  18.323  65.851  1.00  0.00    -0.508 OA 
HETATM   24  C   UNL     1     -11.099  16.151  68.053  1.00  0.00    -0.317 C  
HETATM   25  H   UNL     1     -10.535  18.145  68.221  1.00  0.00     0.000 HD 
HETATM   26  O   UNL     1     -11.559  15.997  69.177  1.00  0.00    -0.356 OA 
ENDBRANCH  18  19
ENDBRANCH  15  18
ENDBRANCH  11  12
ENDBRANCH  10  11
ENDBRANCH   9  10
ENDBRANCH   2   9
TORSDOF 7
ENDMDL
MODEL      183
REMARK 921   NORMALIZED FREE ENERGY PREDICTED BY IDOCK:   -4.51 KCAL/MOL
REMARK 922        TOTAL FREE ENERGY PREDICTED BY IDOCK:   -7.21 KCAL/MOL
REMARK 923 INTER-LIGAND FREE ENERGY PREDICTED BY IDOCK:   -6.42 KCAL/MOL
REMARK 924 INTRA-LIGAND FREE ENERGY PREDICTED BY IDOCK:   -0.79 KCAL/MOL
REMARK 927      BINDING AFFINITY PREDICTED BY RF-SCORE:    0.00 PKD
ROOT
HETATM    1  C   UNL     1     -10.965  15.967  64.814  1.00  0.00    -0.356 C  
HETATM    2  N   UNL     1     -10.919  14.738  65.607  1.00  0.00    -0.330 NA 
ENDROOT
BRANCH   2   3
HETATM    3  C   UNL     1     -11.108  13.583  64.820  1.00  0.00    -0.359 A  
HETATM    4  C   UNL     1     -10.267  11.795  63.598  1.00  0.00    -0.428 A  
HETATM    5  C   UNL     1     -11.523  11.355  63.225  1.00  0.00    -0.037 A  
HETATM    6  C   UNL     1     -12.405  13.192  64.484  1.00  0.00    -0.447 A  
HETATM    7  C   UNL     1     -12.616  12.073  63.679  1.00  0.00    -0.605 A  
HETATM    8  N   UNL     1     -10.043  12.881  64.373  1.00  0.00    -0.294 NA 
ENDBRANCH   2   3
BRANCH   2   9
HETATM    9  C   UNL     1      -9.763  14.646  66.523  1.00  0.00    -0.280 C  
BRANCH   9  10
HETATM   10  C   UNL     1      -9.955  13.554  67.585  1.00  0.00    -0.229 C  
BRANCH  10  11
HETATM   11  O   UNL     1      -8.847  12.644  67.629  1.00  0.00    -0.165 OA 
BRANCH  11  12
HETATM   12  C   UNL     1      -9.189  11.312  67.603  1.00  0.00    -0.156 A  
HETATM   13  C   UNL     1      -9.084   9.040  66.762  1.00  0.00    -0.178 A  
HETATM   14  C   UNL     1      -8.616  10.355  66.767  1.00  0.00    -0.125 A  
HETATM   15  C   UNL     1     -10.129   8.651  67.607  1.00  0.00    -0.271 A  
HETATM   16  C   UNL     1     -10.668   9.599  68.488  1.00  0.00    -0.239 A  
HETATM   17  C   UNL     1     -10.203  10.921  68.485  1.00  0.00    -0.197 A  
BRANCH  15  18
HETATM   18  C   UNL     1     -10.707   7.263  67.498  1.00  0.00    -0.326 C  
BRANCH  18  19
HETATM   19  C   UNL     1     -10.308   6.234  68.551  1.00  0.00    -0.203 C  
HETATM   20  S   UNL     1      -8.532   6.042  68.914  1.00  0.00    -0.116 SA 
HETATM   21  C   UNL     1      -8.856   5.672  70.591  1.00  0.00    -0.138 C  
HETATM   22  N   UNL     1     -10.127   6.020  70.907  1.00  0.00    -0.190 N  
HETATM   23  O   UNL     1      -8.049   5.156  71.345  1.00  0.00    -0.108 OA 
HETATM   24  C   UNL     1     -10.963   6.417  69.903  1.00  0.00    -0.348 C  
HETATM   25  H   UNL     1     -10.451   5.988  71.873  1.00  0.00     0.000 HD 
HETATM   26  O   UNL     1     -12.120   6.770  70.090  1.00  0.00    -0.289 OA 
ENDBRANCH  18  19
ENDBRANCH  15  18
ENDBRANCH  11  12
ENDBRANCH  10  11
ENDBRANCH   9  10
ENDBRANCH   2   9
TORSDOF 7
ENDMDL
MODEL      184
REMARK 921   NORMALIZED FREE ENERGY PREDICTED BY IDOCK:   -4.50 KCAL/MOL
REMARK 922        TOTAL FREE ENERGY PREDICTED BY IDOCK:   -7.20 KCAL/MOL
REMARK 923 INTER-LIGAND FREE ENERGY PREDICTED BY IDOCK:   -6.62 KCAL/MOL
REMARK 924 INTRA-LIGAND FREE ENERGY PREDICTED BY IDOCK:   -0.58 KCAL/MOL
REMARK 927      BINDING AFFINITY PREDICTED BY RF-SCORE:    0.00 PKD
ROOT
HETATM    1  C   UNL     1     -10.576   5.225  71.335  1.00  0.00    -0.177 C  
HETATM    2  N   UNL     1      -9.423   5.315  70.439  1.00  0.00    -0.158 NA 
ENDROOT
BRANCH   2   3
HETATM    3  C   UNL     1      -9.353   4.229  69.541  1.00  0.00    -0.162 A  
HETATM    4  C   UNL     1      -9.296   3.377  67.381  1.00  0.00    -0.203 A  
HETATM    5  C   UNL     1      -9.277   2.064  67.813  1.00  0.00    -0.212 A  
HETATM    6  C   UNL     1      -9.333   2.928  70.046  1.00  0.00    -0.212 A  
HETATM    7  C   UNL     1      -9.298   1.837  69.178  1.00  0.00    -0.185 A  
HETATM    8  N   UNL     1      -9.336   4.448  68.207  1.00  0.00    -0.138 NA 
ENDBRANCH   2   3
BRANCH   2   9
HETATM    9  C   UNL     1      -9.258   6.631  69.788  1.00  0.00    -0.146 C  
BRANCH   9  10
HETATM   10  C   UNL     1     -10.548   7.463  69.835  1.00  0.00    -0.236 C  
BRANCH  10  11
HETATM   11  O   UNL     1     -10.403   8.637  70.647  1.00  0.00    -0.192 OA 
BRANCH  11  12
HETATM   12  C   UNL     1     -10.752   9.815  70.030  1.00  0.00    -0.283 A  
HETATM   13  C   UNL     1     -11.959  11.908  69.828  1.00  0.00    -0.377 A  
HETATM   14  C   UNL     1     -11.608  10.777  70.566  1.00  0.00    -0.425 A  
HETATM   15  C   UNL     1     -11.449  12.110  68.541  1.00  0.00    -0.349 A  
HETATM   16  C   UNL     1     -10.544  11.172  68.024  1.00  0.00    -0.233 A  
HETATM   17  C   UNL     1     -10.199  10.032  68.762  1.00  0.00    -0.201 A  
BRANCH  15  18
HETATM   18  C   UNL     1     -11.938  13.269  67.712  1.00  0.00    -0.356 C  
BRANCH  18  19
HETATM   19  C   UNL     1     -10.993  14.447  67.495  1.00  0.00    -0.293 C  
HETATM   20  S   UNL     1     -10.761  15.040  65.787  1.00  0.00    -0.362 SA 
HETATM   21  C   UNL     1     -10.557  16.690  66.327  1.00  0.00    -0.205 C  
HETATM   22  N   UNL     1     -10.985  16.817  67.606  1.00  0.00    -0.242 N  
HETATM   23  O   UNL     1     -10.080  17.578  65.643  1.00  0.00    -0.574 OA 
HETATM   24  C   UNL     1     -11.323  15.688  68.296  1.00  0.00    -0.356 C  
HETATM   25  H   UNL     1     -11.053  17.735  68.044  1.00  0.00     0.000 HD 
HETATM   26  O   UNL     1     -11.739  15.700  69.447  1.00  0.00    -0.341 OA 
ENDBRANCH  18  19
ENDBRANCH  15  18
ENDBRANCH  11  12
ENDBRANCH  10  11
ENDBRANCH   9  10
ENDBRANCH   2   9
TORSDOF 7
ENDMDL
MODEL      185
REMARK 921   NORMALIZED FREE ENERGY PREDICTED BY IDOCK:   -4.49 KCAL/MOL
REMARK 922        TOTAL FREE ENERGY PREDICTED BY IDOCK:   -7.19 KCAL/MOL
REMARK 923 INTER-LIGAND FREE ENERGY PREDICTED BY IDOCK:   -6.62 KCAL/MOL
REMARK 924 INTRA-LIGAND FREE ENERGY PREDICTED BY IDOCK:   -0.57 KCAL/MOL
REMARK 927      BINDING AFFINITY PREDICTED BY RF-SCORE:    0.00 PKD
ROOT
HETATM    1  C   UNL     1      -9.499   4.423  68.085  1.00  0.00    -0.152 C  
HETATM    2  N   UNL     1      -9.598   5.340  66.948  1.00  0.00    -0.135 NA 
ENDROOT
BRANCH   2   3
HETATM    3  C   UNL     1      -9.506   4.673  65.709  1.00  0.00    -0.173 A  
HETATM    4  C   UNL     1      -8.252   3.737  63.992  1.00  0.00    -0.090 A  
HETATM    5  C   UNL     1      -9.368   3.418  63.241  1.00  0.00    -0.098 A  
HETATM    6  C   UNL     1     -10.675   4.378  65.004  1.00  0.00    -0.128 A  
HETATM    7  C   UNL     1     -10.607   3.750  63.761  1.00  0.00    -0.267 A  
HETATM    8  N   UNL     1      -8.297   4.350  65.197  1.00  0.00    -0.113 NA 
ENDBRANCH   2   3
BRANCH   2   9
HETATM    9  C   UNL     1     -10.729   6.287  67.026  1.00  0.00    -0.362 C  
BRANCH   9  10
HETATM   10  C   UNL     1     -10.275   7.743  66.848  1.00  0.00    -0.303 C  
BRANCH  10  11
HETATM   11  O   UNL     1     -10.454   8.513  68.045  1.00  0.00    -0.221 OA 
BRANCH  11  12
HETATM   12  C   UNL     1     -10.872   9.808  67.845  1.00  0.00    -0.242 A  
HETATM   13  C   UNL     1     -11.138  11.851  66.567  1.00  0.00    -0.357 A  
HETATM   14  C   UNL     1     -10.751  10.513  66.648  1.00  0.00    -0.222 A  
HETATM   15  C   UNL     1     -11.670  12.511  67.680  1.00  0.00    -0.423 A  
HETATM   16  C   UNL     1     -11.845  11.786  68.868  1.00  0.00    -0.381 A  
HETATM   17  C   UNL     1     -11.447  10.445  68.951  1.00  0.00    -0.251 A  
BRANCH  15  18
HETATM   18  C   UNL     1     -11.963  13.987  67.610  1.00  0.00    -0.404 C  
BRANCH  18  19
HETATM   19  C   UNL     1     -10.999  14.944  68.305  1.00  0.00    -0.264 C  
HETATM   20  S   UNL     1     -10.197  16.224  67.286  1.00  0.00    -0.283 SA 
HETATM   21  C   UNL     1     -10.189  17.359  68.616  1.00  0.00    -0.361 C  
HETATM   22  N   UNL     1     -11.029  16.937  69.592  1.00  0.00    -0.365 N  
HETATM   23  O   UNL     1      -9.506  18.367  68.649  1.00  0.00    -0.328 OA 
HETATM   24  C   UNL     1     -11.583  15.694  69.483  1.00  0.00    -0.357 C  
HETATM   25  H   UNL     1     -11.242  17.535  70.390  1.00  0.00     0.000 HD 
HETATM   26  O   UNL     1     -12.368  15.232  70.301  1.00  0.00    -0.334 OA 
ENDBRANCH  18  19
ENDBRANCH  15  18
ENDBRANCH  11  12
ENDBRANCH  10  11
ENDBRANCH   9  10
ENDBRANCH   2   9
TORSDOF 7
ENDMDL
MODEL      186
REMARK 921   NORMALIZED FREE ENERGY PREDICTED BY IDOCK:   -4.47 KCAL/MOL
REMARK 922        TOTAL FREE ENERGY PREDICTED BY IDOCK:   -7.15 KCAL/MOL
REMARK 923 INTER-LIGAND FREE ENERGY PREDICTED BY IDOCK:   -6.52 KCAL/MOL
REMARK 924 INTRA-LIGAND FREE ENERGY PREDICTED BY IDOCK:   -0.63 KCAL/MOL
REMARK 927      BINDING AFFINITY PREDICTED BY RF-SCORE:    0.00 PKD
ROOT
HETATM    1  C   UNL     1     -14.142  14.476  72.161  1.00  0.00    -0.524 C  
HETATM    2  N   UNL     1     -13.354  13.626  71.268  1.00  0.00    -0.244 NA 
ENDROOT
BRANCH   2   3
HETATM    3  C   UNL     1     -12.476  14.369  70.452  1.00  0.00    -0.357 A  
HETATM    4  C   UNL     1     -11.214  16.274  70.031  1.00  0.00    -0.319 A  
HETATM    5  C   UNL     1     -10.801  15.824  68.791  1.00  0.00    -0.274 A  
HETATM    6  C   UNL     1     -12.096  13.853  69.212  1.00  0.00    -0.383 A  
HETATM    7  C   UNL     1     -11.256  14.585  68.374  1.00  0.00    -0.290 A  
HETATM    8  N   UNL     1     -12.033  15.581  70.856  1.00  0.00    -0.339 NA 
ENDBRANCH   2   3
BRANCH   2   9
HETATM    9  C   UNL     1     -12.710  12.474  71.933  1.00  0.00    -0.087 C  
BRANCH   9  10
HETATM   10  C   UNL     1     -13.499  11.173  71.724  1.00  0.00    -0.134 C  
BRANCH  10  11
HETATM   11  O   UNL     1     -12.963  10.384  70.653  1.00  0.00    -0.368 OA 
BRANCH  11  12
HETATM   12  C   UNL     1     -11.731   9.826  70.904  1.00  0.00    -0.347 A  
HETATM   13  C   UNL     1      -9.392   9.383  70.443  1.00  0.00    -0.317 A  
HETATM   14  C   UNL     1     -10.579  10.057  70.153  1.00  0.00    -0.350 A  
HETATM   15  C   UNL     1      -9.327   8.473  71.504  1.00  0.00    -0.289 A  
HETATM   16  C   UNL     1     -10.469   8.283  72.294  1.00  0.00    -0.392 A  
HETATM   17  C   UNL     1     -11.663   8.952  71.996  1.00  0.00    -0.438 A  
BRANCH  15  18
HETATM   18  C   UNL     1      -8.076   7.662  71.722  1.00  0.00    -0.112 C  
BRANCH  18  19
HETATM   19  C   UNL     1      -8.163   6.148  71.554  1.00  0.00    -0.118 C  
HETATM   20  S   UNL     1      -9.149   5.219  72.773  1.00  0.00    -0.133 SA 
HETATM   21  C   UNL     1      -9.636   4.047  71.571  1.00  0.00    -0.167 C  
HETATM   22  N   UNL     1      -9.380   4.522  70.328  1.00  0.00    -0.133 N  
HETATM   23  O   UNL     1     -10.115   2.958  71.833  1.00  0.00    -0.163 OA 
HETATM   24  C   UNL     1      -8.672   5.683  70.207  1.00  0.00    -0.131 C  
HETATM   25  H   UNL     1      -9.710   4.024  69.502  1.00  0.00     0.000 HD 
HETATM   26  O   UNL     1      -8.408   6.203  69.130  1.00  0.00    -0.114 OA 
ENDBRANCH  18  19
ENDBRANCH  15  18
ENDBRANCH  11  12
ENDBRANCH  10  11
ENDBRANCH   9  10
ENDBRANCH   2   9
TORSDOF 7
ENDMDL
MODEL      187
REMARK 921   NORMALIZED FREE ENERGY PREDICTED BY IDOCK:   -4.46 KCAL/MOL
REMARK 922        TOTAL FREE ENERGY PREDICTED BY IDOCK:   -7.14 KCAL/MOL
REMARK 923 INTER-LIGAND FREE ENERGY PREDICTED BY IDOCK:   -6.61 KCAL/MOL
REMARK 924 INTRA-LIGAND FREE ENERGY PREDICTED BY IDOCK:   -0.53 KCAL/MOL
REMARK 927      BINDING AFFINITY PREDICTED BY RF-SCORE:    0.00 PKD
ROOT
HETATM    1  C   UNL     1      -9.420   3.837  68.933  1.00  0.00    -0.153 C  
HETATM    2  N   UNL     1      -9.854   5.226  69.089  1.00  0.00    -0.170 NA 
ENDROOT
BRANCH   2   3
HETATM    3  C   UNL     1     -10.198   5.536  70.421  1.00  0.00    -0.251 A  
HETATM    4  C   UNL     1      -9.727   5.536  72.695  1.00  0.00    -0.150 A  
HETATM    5  C   UNL     1     -10.941   6.106  73.029  1.00  0.00    -0.278 A  
HETATM    6  C   UNL     1     -11.440   6.115  70.687  1.00  0.00    -0.331 A  
HETATM    7  C   UNL     1     -11.817   6.400  71.998  1.00  0.00    -0.382 A  
HETATM    8  N   UNL     1      -9.346   5.247  71.430  1.00  0.00    -0.145 NA 
ENDBRANCH   2   3
BRANCH   2   9
HETATM    9  C   UNL     1      -8.957   6.219  68.464  1.00  0.00    -0.123 C  
BRANCH   9  10
HETATM   10  C   UNL     1      -9.733   7.404  67.869  1.00  0.00    -0.143 C  
BRANCH  10  11
HETATM   11  O   UNL     1      -9.425   8.637  68.533  1.00  0.00    -0.141 OA 
BRANCH  11  12
HETATM   12  C   UNL     1     -10.084   9.740  68.043  1.00  0.00    -0.171 A  
HETATM   13  C   UNL     1     -11.634  11.601  68.167  1.00  0.00    -0.389 A  
HETATM   14  C   UNL     1     -10.954  10.545  68.776  1.00  0.00    -0.296 A  
HETATM   15  C   UNL     1     -11.445  11.884  66.810  1.00  0.00    -0.384 A  
HETATM   16  C   UNL     1     -10.527  11.110  66.085  1.00  0.00    -0.307 A  
HETATM   17  C   UNL     1      -9.853  10.045  66.696  1.00  0.00    -0.259 A  
BRANCH  15  18
HETATM   18  C   UNL     1     -12.281  12.943  66.140  1.00  0.00    -0.385 C  
BRANCH  18  19
HETATM   19  C   UNL     1     -11.845  14.398  66.280  1.00  0.00    -0.379 C  
HETATM   20  S   UNL     1     -11.660  15.066  67.966  1.00  0.00    -0.305 SA 
HETATM   21  C   UNL     1     -10.345  16.106  67.472  1.00  0.00    -0.286 C  
HETATM   22  N   UNL     1      -9.870  15.714  66.265  1.00  0.00    -0.273 N  
HETATM   23  O   UNL     1      -9.942  17.053  68.124  1.00  0.00    -0.264 OA 
HETATM   24  C   UNL     1     -10.549  14.747  65.580  1.00  0.00    -0.340 C  
HETATM   25  H   UNL     1      -9.024  16.131  65.878  1.00  0.00     0.000 HD 
HETATM   26  O   UNL     1     -10.189  14.311  64.494  1.00  0.00    -0.304 OA 
ENDBRANCH  18  19
ENDBRANCH  15  18
ENDBRANCH  11  12
ENDBRANCH  10  11
ENDBRANCH   9  10
ENDBRANCH   2   9
TORSDOF 7
ENDMDL
MODEL      188
REMARK 921   NORMALIZED FREE ENERGY PREDICTED BY IDOCK:   -4.45 KCAL/MOL
REMARK 922        TOTAL FREE ENERGY PREDICTED BY IDOCK:   -7.12 KCAL/MOL
REMARK 923 INTER-LIGAND FREE ENERGY PREDICTED BY IDOCK:   -6.65 KCAL/MOL
REMARK 924 INTRA-LIGAND FREE ENERGY PREDICTED BY IDOCK:   -0.47 KCAL/MOL
REMARK 927      BINDING AFFINITY PREDICTED BY RF-SCORE:    0.00 PKD
ROOT
HETATM    1  C   UNL     1     -13.301  13.634  72.392  1.00  0.00    -0.540 C  
HETATM    2  N   UNL     1     -13.030  13.304  70.992  1.00  0.00    -0.211 NA 
ENDROOT
BRANCH   2   3
HETATM    3  C   UNL     1     -12.248  14.287  70.349  1.00  0.00    -0.342 A  
HETATM    4  C   UNL     1     -10.979  15.016  68.546  1.00  0.00    -0.256 A  
HETATM    5  C   UNL     1     -10.665  16.219  69.149  1.00  0.00    -0.305 A  
HETATM    6  C   UNL     1     -11.973  15.482  71.016  1.00  0.00    -0.428 A  
HETATM    7  C   UNL     1     -11.174  16.454  70.415  1.00  0.00    -0.253 A  
HETATM    8  N   UNL     1     -11.747  14.059  69.114  1.00  0.00    -0.309 NA 
ENDBRANCH   2   3
BRANCH   2   9
HETATM    9  C   UNL     1     -12.544  11.926  70.773  1.00  0.00    -0.234 C  
BRANCH   9  10
HETATM   10  C   UNL     1     -13.121  10.942  71.800  1.00  0.00    -0.459 C  
BRANCH  10  11
HETATM   11  O   UNL     1     -13.401   9.660  71.220  1.00  0.00    -0.373 OA 
BRANCH  11  12
HETATM   12  C   UNL     1     -12.544   8.653  71.597  1.00  0.00    -0.338 A  
HETATM   13  C   UNL     1     -10.395   7.729  72.236  1.00  0.00    -0.294 A  
HETATM   14  C   UNL     1     -11.204   8.827  71.940  1.00  0.00    -0.438 A  
HETATM   15  C   UNL     1     -10.914   6.431  72.210  1.00  0.00    -0.289 A  
HETATM   16  C   UNL     1     -12.275   6.259  71.920  1.00  0.00    -0.256 A  
HETATM   17  C   UNL     1     -13.084   7.361  71.613  1.00  0.00    -0.412 A  
BRANCH  15  18
HETATM   18  C   UNL     1      -9.998   5.251  72.407  1.00  0.00    -0.219 C  
BRANCH  18  19
HETATM   19  C   UNL     1      -9.631   4.415  71.184  1.00  0.00    -0.175 C  
HETATM   20  S   UNL     1      -8.114   4.863  70.280  1.00  0.00    -0.078 SA 
HETATM   21  C   UNL     1      -7.801   3.195  69.863  1.00  0.00    -0.043 C  
HETATM   22  N   UNL     1      -8.554   2.374  70.634  1.00  0.00    -0.051 N  
HETATM   23  O   UNL     1      -7.027   2.842  68.990  1.00  0.00    -0.043 OA 
HETATM   24  C   UNL     1      -9.506   2.928  71.441  1.00  0.00    -0.146 C  
HETATM   25  H   UNL     1      -8.413   1.364  70.613  1.00  0.00     0.000 HD 
HETATM   26  O   UNL     1     -10.221   2.274  72.188  1.00  0.00    -0.160 OA 
ENDBRANCH  18  19
ENDBRANCH  15  18
ENDBRANCH  11  12
ENDBRANCH  10  11
ENDBRANCH   9  10
ENDBRANCH   2   9
TORSDOF 7
ENDMDL
MODEL      189
REMARK 921   NORMALIZED FREE ENERGY PREDICTED BY IDOCK:   -4.45 KCAL/MOL
REMARK 922        TOTAL FREE ENERGY PREDICTED BY IDOCK:   -7.12 KCAL/MOL
REMARK 923 INTER-LIGAND FREE ENERGY PREDICTED BY IDOCK:   -6.52 KCAL/MOL
REMARK 924 INTRA-LIGAND FREE ENERGY PREDICTED BY IDOCK:   -0.60 KCAL/MOL
REMARK 927      BINDING AFFINITY PREDICTED BY RF-SCORE:    0.00 PKD
ROOT
HETATM    1  C   UNL     1     -12.212  11.364  70.638  1.00  0.00    -0.389 C  
HETATM    2  N   UNL     1     -12.242  12.684  70.006  1.00  0.00    -0.244 NA 
ENDROOT
BRANCH   2   3
HETATM    3  C   UNL     1     -12.350  13.729  70.948  1.00  0.00    -0.380 A  
HETATM    4  C   UNL     1     -11.756  15.836  71.724  1.00  0.00    -0.478 A  
HETATM    5  C   UNL     1     -12.544  15.731  72.855  1.00  0.00    -0.571 A  
HETATM    6  C   UNL     1     -13.168  13.557  72.066  1.00  0.00    -0.529 A  
HETATM    7  C   UNL     1     -13.265  14.561  73.028  1.00  0.00    -0.575 A  
HETATM    8  N   UNL     1     -11.645  14.870  70.783  1.00  0.00    -0.294 NA 
ENDBRANCH   2   3
BRANCH   2   9
HETATM    9  C   UNL     1     -11.182  12.903  69.001  1.00  0.00    -0.267 C  
BRANCH   9  10
HETATM   10  C   UNL     1     -11.528  12.261  67.649  1.00  0.00    -0.336 C  
BRANCH  10  11
HETATM   11  O   UNL     1     -10.354  11.903  66.907  1.00  0.00    -0.206 OA 
BRANCH  11  12
HETATM   12  C   UNL     1     -10.171  10.552  66.728  1.00  0.00    -0.234 A  
HETATM   13  C   UNL     1     -10.446   8.210  67.292  1.00  0.00    -0.379 A  
HETATM   14  C   UNL     1     -10.755   9.554  67.506  1.00  0.00    -0.311 A  
HETATM   15  C   UNL     1      -9.555   7.833  66.282  1.00  0.00    -0.179 A  
HETATM   16  C   UNL     1      -9.011   8.832  65.462  1.00  0.00    -0.231 A  
HETATM   17  C   UNL     1      -9.314  10.181  65.684  1.00  0.00    -0.250 A  
BRANCH  15  18
HETATM   18  C   UNL     1      -9.136   6.392  66.148  1.00  0.00    -0.150 C  
BRANCH  18  19
HETATM   19  C   UNL     1      -8.558   5.695  67.376  1.00  0.00    -0.109 C  
HETATM   20  S   UNL     1      -9.446   4.241  68.019  1.00  0.00    -0.147 SA 
HETATM   21  C   UNL     1      -7.956   3.485  68.532  1.00  0.00    -0.066 C  
HETATM   22  N   UNL     1      -6.899   4.098  67.948  1.00  0.00    -0.050 N  
HETATM   23  O   UNL     1      -7.897   2.555  69.317  1.00  0.00    -0.043 OA 
HETATM   24  C   UNL     1      -7.120   5.242  67.236  1.00  0.00    -0.070 C  
HETATM   25  H   UNL     1      -5.959   3.714  68.038  1.00  0.00     0.000 HD 
HETATM   26  O   UNL     1      -6.235   5.857  66.656  1.00  0.00    -0.031 OA 
ENDBRANCH  18  19
ENDBRANCH  15  18
ENDBRANCH  11  12
ENDBRANCH  10  11
ENDBRANCH   9  10
ENDBRANCH   2   9
TORSDOF 7
ENDMDL
MODEL      190
REMARK 921   NORMALIZED FREE ENERGY PREDICTED BY IDOCK:   -4.44 KCAL/MOL
REMARK 922        TOTAL FREE ENERGY PREDICTED BY IDOCK:   -7.12 KCAL/MOL
REMARK 923 INTER-LIGAND FREE ENERGY PREDICTED BY IDOCK:   -7.42 KCAL/MOL
REMARK 924 INTRA-LIGAND FREE ENERGY PREDICTED BY IDOCK:    0.30 KCAL/MOL
REMARK 927      BINDING AFFINITY PREDICTED BY RF-SCORE:    0.00 PKD
ROOT
HETATM    1  C   UNL     1     -11.978  12.139  63.954  1.00  0.00    -0.486 C  
HETATM    2  N   UNL     1     -12.140  12.242  65.404  1.00  0.00    -0.518 NA 
ENDROOT
BRANCH   2   3
HETATM    3  C   UNL     1     -11.182  11.484  66.109  1.00  0.00    -0.202 A  
HETATM    4  C   UNL     1     -10.455  10.412  68.037  1.00  0.00    -0.196 A  
HETATM    5  C   UNL     1      -9.246  10.048  67.476  1.00  0.00    -0.151 A  
HETATM    6  C   UNL     1      -9.983  11.147  65.479  1.00  0.00    -0.298 A  
HETATM    7  C   UNL     1      -9.006  10.427  66.166  1.00  0.00    -0.175 A  
HETATM    8  N   UNL     1     -11.412  11.114  67.389  1.00  0.00    -0.512 NA 
ENDBRANCH   2   3
BRANCH   2   9
HETATM    9  C   UNL     1     -12.283  13.625  65.905  1.00  0.00    -0.461 C  
BRANCH   9  10
HETATM   10  C   UNL     1     -10.996  14.132  66.572  1.00  0.00    -0.309 C  
BRANCH  10  11
HETATM   11  O   UNL     1     -11.170  15.427  67.163  1.00  0.00    -0.326 OA 
BRANCH  11  12
HETATM   12  C   UNL     1     -10.004  16.115  67.406  1.00  0.00    -0.247 A  
HETATM   13  C   UNL     1      -8.087  16.777  68.735  1.00  0.00    -0.252 A  
HETATM   14  C   UNL     1      -9.215  15.977  68.547  1.00  0.00    -0.206 A  
HETATM   15  C   UNL     1      -7.714  17.725  67.776  1.00  0.00    -0.214 A  
HETATM   16  C   UNL     1      -8.475  17.825  66.602  1.00  0.00    -0.283 A  
HETATM   17  C   UNL     1      -9.613  17.028  66.419  1.00  0.00    -0.301 A  
BRANCH  15  18
HETATM   18  C   UNL     1      -6.571  18.666  68.054  1.00  0.00    -0.227 C  
BRANCH  18  19
HETATM   19  C   UNL     1      -6.008  19.476  66.889  1.00  0.00    -0.173 C  
HETATM   20  S   UNL     1      -5.615  18.582  65.351  1.00  0.00    -0.215 SA 
HETATM   21  C   UNL     1      -6.046  19.964  64.371  1.00  0.00    -0.253 C  
HETATM   22  N   UNL     1      -6.751  20.856  65.108  1.00  0.00    -0.511 N  
HETATM   23  O   UNL     1      -5.730  20.097  63.201  1.00  0.00    -0.252 OA 
HETATM   24  C   UNL     1      -6.864  20.645  66.452  1.00  0.00    -0.234 C  
HETATM   25  H   UNL     1      -7.188  21.665  64.668  1.00  0.00     0.000 HD 
HETATM   26  O   UNL     1      -7.497  21.381  67.199  1.00  0.00    -0.417 OA 
ENDBRANCH  18  19
ENDBRANCH  15  18
ENDBRANCH  11  12
ENDBRANCH  10  11
ENDBRANCH   9  10
ENDBRANCH   2   9
TORSDOF 7
ENDMDL
MODEL      191
REMARK 921   NORMALIZED FREE ENERGY PREDICTED BY IDOCK:   -4.43 KCAL/MOL
REMARK 922        TOTAL FREE ENERGY PREDICTED BY IDOCK:   -7.09 KCAL/MOL
REMARK 923 INTER-LIGAND FREE ENERGY PREDICTED BY IDOCK:   -6.66 KCAL/MOL
REMARK 924 INTRA-LIGAND FREE ENERGY PREDICTED BY IDOCK:   -0.44 KCAL/MOL
REMARK 927      BINDING AFFINITY PREDICTED BY RF-SCORE:    0.00 PKD
ROOT
HETATM    1  C   UNL     1     -11.623  15.967  64.576  1.00  0.00    -0.232 C  
HETATM    2  N   UNL     1     -10.350  15.809  65.280  1.00  0.00    -0.446 NA 
ENDROOT
BRANCH   2   3
HETATM    3  C   UNL     1      -9.835  17.038  65.744  1.00  0.00    -0.102 A  
HETATM    4  C   UNL     1      -8.129  18.302  66.685  1.00  0.00    -0.260 A  
HETATM    5  C   UNL     1      -8.885  19.459  66.702  1.00  0.00    -0.372 A  
HETATM    6  C   UNL     1     -10.653  18.169  65.728  1.00  0.00    -0.186 A  
HETATM    7  C   UNL     1     -10.178  19.387  66.213  1.00  0.00    -0.566 A  
HETATM    8  N   UNL     1      -8.574  17.110  66.225  1.00  0.00    -0.400 NA 
ENDBRANCH   2   3
BRANCH   2   9
HETATM    9  C   UNL     1     -10.347  14.744  66.304  1.00  0.00    -0.297 C  
BRANCH   9  10
HETATM   10  C   UNL     1     -11.762  14.433  66.816  1.00  0.00    -0.397 C  
BRANCH  10  11
HETATM   11  O   UNL     1     -12.204  13.129  66.416  1.00  0.00    -0.399 OA 
BRANCH  11  12
HETATM   12  C   UNL     1     -11.341  12.104  66.724  1.00  0.00    -0.342 A  
HETATM   13  C   UNL     1     -10.185  10.588  68.223  1.00  0.00    -0.185 A  
HETATM   14  C   UNL     1     -11.141  11.580  68.001  1.00  0.00    -0.313 A  
HETATM   15  C   UNL     1      -9.416  10.086  67.167  1.00  0.00    -0.184 A  
HETATM   16  C   UNL     1      -9.656  10.572  65.874  1.00  0.00    -0.254 A  
HETATM   17  C   UNL     1     -10.610  11.575  65.653  1.00  0.00    -0.326 A  
BRANCH  15  18
HETATM   18  C   UNL     1      -8.303   9.110  67.446  1.00  0.00    -0.115 C  
BRANCH  18  19
HETATM   19  C   UNL     1      -8.564   7.629  67.187  1.00  0.00    -0.121 C  
HETATM   20  S   UNL     1     -10.218   6.981  67.592  1.00  0.00    -0.215 SA 
HETATM   21  C   UNL     1     -10.156   5.837  66.271  1.00  0.00    -0.078 C  
HETATM   22  N   UNL     1      -9.163   6.172  65.413  1.00  0.00    -0.366 N  
HETATM   23  O   UNL     1     -10.896   4.874  66.166  1.00  0.00    -0.289 OA 
HETATM   24  C   UNL     1      -8.305   7.173  65.767  1.00  0.00    -0.143 C  
HETATM   25  H   UNL     1      -9.058   5.686  64.523  1.00  0.00     0.000 HD 
HETATM   26  O   UNL     1      -7.390   7.562  65.053  1.00  0.00    -0.070 OA 
ENDBRANCH  18  19
ENDBRANCH  15  18
ENDBRANCH  11  12
ENDBRANCH  10  11
ENDBRANCH   9  10
ENDBRANCH   2   9
TORSDOF 7
ENDMDL
MODEL      192
REMARK 921   NORMALIZED FREE ENERGY PREDICTED BY IDOCK:   -4.42 KCAL/MOL
REMARK 922        TOTAL FREE ENERGY PREDICTED BY IDOCK:   -7.08 KCAL/MOL
REMARK 923 INTER-LIGAND FREE ENERGY PREDICTED BY IDOCK:   -6.38 KCAL/MOL
REMARK 924 INTRA-LIGAND FREE ENERGY PREDICTED BY IDOCK:   -0.70 KCAL/MOL
REMARK 927      BINDING AFFINITY PREDICTED BY RF-SCORE:    0.00 PKD
ROOT
HETATM    1  C   UNL     1     -12.131  13.859  67.051  1.00  0.00    -0.415 C  
HETATM    2  N   UNL     1     -11.282  14.838  67.731  1.00  0.00    -0.300 NA 
ENDROOT
BRANCH   2   3
HETATM    3  C   UNL     1     -11.579  14.946  69.106  1.00  0.00    -0.307 A  
HETATM    4  C   UNL     1     -11.567  16.134  71.102  1.00  0.00    -0.404 A  
HETATM    5  C   UNL     1     -12.121  15.091  71.820  1.00  0.00    -0.428 A  
HETATM    6  C   UNL     1     -12.141  13.853  69.769  1.00  0.00    -0.404 A  
HETATM    7  C   UNL     1     -12.411  13.923  71.135  1.00  0.00    -0.450 A  
HETATM    8  N   UNL     1     -11.293  16.083  69.778  1.00  0.00    -0.326 NA 
ENDBRANCH   2   3
BRANCH   2   9
HETATM    9  C   UNL     1      -9.839  14.695  67.448  1.00  0.00    -0.222 C  
BRANCH   9  10
HETATM   10  C   UNL     1      -9.343  13.262  67.692  1.00  0.00    -0.212 C  
BRANCH  10  11
HETATM   11  O   UNL     1      -9.033  12.584  66.467  1.00  0.00    -0.207 OA 
BRANCH  11  12
HETATM   12  C   UNL     1      -9.283  11.231  66.474  1.00  0.00    -0.188 A  
HETATM   13  C   UNL     1      -9.082   8.962  65.643  1.00  0.00    -0.269 A  
HETATM   14  C   UNL     1      -8.706  10.306  65.605  1.00  0.00    -0.176 A  
HETATM   15  C   UNL     1     -10.035   8.512  66.562  1.00  0.00    -0.350 A  
HETATM   16  C   UNL     1     -10.574   9.431  67.474  1.00  0.00    -0.333 A  
HETATM   17  C   UNL     1     -10.202  10.782  67.429  1.00  0.00    -0.241 A  
BRANCH  15  18
HETATM   18  C   UNL     1     -10.521   7.087  66.503  1.00  0.00    -0.072 C  
BRANCH  18  19
HETATM   19  C   UNL     1      -9.854   6.062  67.416  1.00  0.00    -0.131 C  
HETATM   20  S   UNL     1      -8.034   5.979  67.403  1.00  0.00    -0.102 SA 
HETATM   21  C   UNL     1      -7.985   5.548  69.097  1.00  0.00    -0.095 C  
HETATM   22  N   UNL     1      -9.183   5.804  69.676  1.00  0.00    -0.137 N  
HETATM   23  O   UNL     1      -7.011   5.070  69.652  1.00  0.00    -0.051 OA 
HETATM   24  C   UNL     1     -10.229   6.168  68.878  1.00  0.00    -0.188 C  
HETATM   25  H   UNL     1      -9.300   5.727  70.686  1.00  0.00     0.000 HD 
HETATM   26  O   UNL     1     -11.342   6.440  69.308  1.00  0.00    -0.379 OA 
ENDBRANCH  18  19
ENDBRANCH  15  18
ENDBRANCH  11  12
ENDBRANCH  10  11
ENDBRANCH   9  10
ENDBRANCH   2   9
TORSDOF 7
ENDMDL
MODEL      193
REMARK 921   NORMALIZED FREE ENERGY PREDICTED BY IDOCK:   -4.42 KCAL/MOL
REMARK 922        TOTAL FREE ENERGY PREDICTED BY IDOCK:   -7.08 KCAL/MOL
REMARK 923 INTER-LIGAND FREE ENERGY PREDICTED BY IDOCK:   -6.53 KCAL/MOL
REMARK 924 INTRA-LIGAND FREE ENERGY PREDICTED BY IDOCK:   -0.54 KCAL/MOL
REMARK 927      BINDING AFFINITY PREDICTED BY RF-SCORE:    0.00 PKD
ROOT
HETATM    1  C   UNL     1     -13.549  13.093  72.329  1.00  0.00    -0.581 C  
HETATM    2  N   UNL     1     -13.071  12.843  70.969  1.00  0.00    -0.083 NA 
ENDROOT
BRANCH   2   3
HETATM    3  C   UNL     1     -12.404  13.958  70.419  1.00  0.00    -0.363 A  
HETATM    4  C   UNL     1     -11.437  15.066  68.621  1.00  0.00    -0.311 A  
HETATM    5  C   UNL     1     -11.037  16.140  69.394  1.00  0.00    -0.335 A  
HETATM    6  C   UNL     1     -12.031  15.010  71.258  1.00  0.00    -0.388 A  
HETATM    7  C   UNL     1     -11.340  16.107  70.744  1.00  0.00    -0.397 A  
HETATM    8  N   UNL     1     -12.103  13.991  69.102  1.00  0.00    -0.355 NA 
ENDBRANCH   2   3
BRANCH   2   9
HETATM    9  C   UNL     1     -12.333  11.574  70.805  1.00  0.00    -0.375 C  
BRANCH   9  10
HETATM   10  C   UNL     1     -12.901  10.458  71.694  1.00  0.00    -0.474 C  
BRANCH  10  11
HETATM   11  O   UNL     1     -13.032   9.218  70.984  1.00  0.00    -0.243 OA 
BRANCH  11  12
HETATM   12  C   UNL     1     -12.275   8.182  71.481  1.00  0.00    -0.301 A  
HETATM   13  C   UNL     1     -11.459   5.900  71.546  1.00  0.00    -0.216 A  
HETATM   14  C   UNL     1     -12.198   6.907  70.923  1.00  0.00    -0.404 A  
HETATM   15  C   UNL     1     -10.768   6.152  72.736  1.00  0.00    -0.268 A  
HETATM   16  C   UNL     1     -10.799   7.449  73.267  1.00  0.00    -0.417 A  
HETATM   17  C   UNL     1     -11.549   8.457  72.646  1.00  0.00    -0.367 A  
BRANCH  15  18
HETATM   18  C   UNL     1     -10.082   5.023  73.460  1.00  0.00    -0.196 C  
BRANCH  18  19
HETATM   19  C   UNL     1      -8.737   4.539  72.927  1.00  0.00    -0.112 C  
HETATM   20  S   UNL     1      -7.276   4.761  73.993  1.00  0.00    -0.079 SA 
HETATM   21  C   UNL     1      -6.542   3.293  73.391  1.00  0.00    -0.030 C  
HETATM   22  N   UNL     1      -7.466   2.544  72.741  1.00  0.00    -0.043 N  
HETATM   23  O   UNL     1      -5.365   3.011  73.529  1.00  0.00     0.000 OA 
HETATM   24  C   UNL     1      -8.699   3.083  72.514  1.00  0.00    -0.083 C  
HETATM   25  H   UNL     1      -7.244   1.599  72.429  1.00  0.00     0.000 HD 
HETATM   26  O   UNL     1      -9.606   2.480  71.954  1.00  0.00    -0.114 OA 
ENDBRANCH  18  19
ENDBRANCH  15  18
ENDBRANCH  11  12
ENDBRANCH  10  11
ENDBRANCH   9  10
ENDBRANCH   2   9
TORSDOF 7
ENDMDL
MODEL      194
REMARK 921   NORMALIZED FREE ENERGY PREDICTED BY IDOCK:   -4.41 KCAL/MOL
REMARK 922        TOTAL FREE ENERGY PREDICTED BY IDOCK:   -7.07 KCAL/MOL
REMARK 923 INTER-LIGAND FREE ENERGY PREDICTED BY IDOCK:   -5.94 KCAL/MOL
REMARK 924 INTRA-LIGAND FREE ENERGY PREDICTED BY IDOCK:   -1.14 KCAL/MOL
REMARK 927      BINDING AFFINITY PREDICTED BY RF-SCORE:    0.00 PKD
ROOT
HETATM    1  C   UNL     1      -8.303  10.655  67.245  1.00  0.00    -0.120 C  
HETATM    2  N   UNL     1      -9.296   9.672  67.681  1.00  0.00    -0.127 NA 
ENDROOT
BRANCH   2   3
HETATM    3  C   UNL     1     -10.191  10.198  68.636  1.00  0.00    -0.176 A  
HETATM    4  C   UNL     1     -11.364  10.027  70.633  1.00  0.00    -0.348 A  
HETATM    5  C   UNL     1     -12.003  11.240  70.456  1.00  0.00    -0.467 A  
HETATM    6  C   UNL     1     -10.798  11.432  68.394  1.00  0.00    -0.248 A  
HETATM    7  C   UNL     1     -11.712  11.956  69.307  1.00  0.00    -0.389 A  
HETATM    8  N   UNL     1     -10.479   9.499  69.757  1.00  0.00    -0.217 NA 
ENDBRANCH   2   3
BRANCH   2   9
HETATM    9  C   UNL     1      -9.965   8.952  66.579  1.00  0.00    -0.288 C  
BRANCH   9  10
HETATM   10  C   UNL     1      -9.236   7.650  66.214  1.00  0.00    -0.154 C  
BRANCH  10  11
HETATM   11  O   UNL     1      -9.962   6.488  66.638  1.00  0.00    -0.173 OA 
BRANCH  11  12
HETATM   12  C   UNL     1      -9.894   6.221  67.985  1.00  0.00    -0.125 A  
HETATM   13  C   UNL     1      -8.767   5.602  70.041  1.00  0.00    -0.132 A  
HETATM   14  C   UNL     1      -8.723   5.934  68.686  1.00  0.00    -0.109 A  
HETATM   15  C   UNL     1      -9.985   5.564  70.729  1.00  0.00    -0.263 A  
HETATM   16  C   UNL     1     -11.156   5.908  70.038  1.00  0.00    -0.411 A  
HETATM   17  C   UNL     1     -11.111   6.232  68.676  1.00  0.00    -0.409 A  
BRANCH  15  18
HETATM   18  C   UNL     1     -10.027   5.080  72.155  1.00  0.00    -0.236 C  
BRANCH  18  19
HETATM   19  C   UNL     1      -9.492   6.005  73.244  1.00  0.00    -0.142 C  
HETATM   20  S   UNL     1      -7.713   6.396  73.220  1.00  0.00    -0.097 SA 
HETATM   21  C   UNL     1      -7.998   8.001  73.851  1.00  0.00    -0.213 C  
HETATM   22  N   UNL     1      -9.310   8.319  73.736  1.00  0.00    -0.130 N  
HETATM   23  O   UNL     1      -7.132   8.708  74.337  1.00  0.00    -0.282 OA 
HETATM   24  C   UNL     1     -10.184   7.348  73.339  1.00  0.00    -0.351 C  
HETATM   25  H   UNL     1      -9.637   9.262  73.943  1.00  0.00     0.000 HD 
HETATM   26  O   UNL     1     -11.383   7.541  73.186  1.00  0.00    -0.331 OA 
ENDBRANCH  18  19
ENDBRANCH  15  18
ENDBRANCH  11  12
ENDBRANCH  10  11
ENDBRANCH   9  10
ENDBRANCH   2   9
TORSDOF 7
ENDMDL
MODEL      195
REMARK 921   NORMALIZED FREE ENERGY PREDICTED BY IDOCK:   -4.39 KCAL/MOL
REMARK 922        TOTAL FREE ENERGY PREDICTED BY IDOCK:   -7.05 KCAL/MOL
REMARK 923 INTER-LIGAND FREE ENERGY PREDICTED BY IDOCK:   -6.56 KCAL/MOL
REMARK 924 INTRA-LIGAND FREE ENERGY PREDICTED BY IDOCK:   -0.49 KCAL/MOL
REMARK 927      BINDING AFFINITY PREDICTED BY RF-SCORE:    0.00 PKD
ROOT
HETATM    1  C   UNL     1     -13.786  13.311  72.399  1.00  0.00    -0.578 C  
HETATM    2  N   UNL     1     -13.129  12.989  71.131  1.00  0.00    -0.174 NA 
ENDROOT
BRANCH   2   3
HETATM    3  C   UNL     1     -12.346  14.056  70.644  1.00  0.00    -0.375 A  
HETATM    4  C   UNL     1     -11.510  16.215  70.830  1.00  0.00    -0.378 A  
HETATM    5  C   UNL     1     -10.846  16.149  69.620  1.00  0.00    -0.338 A  
HETATM    6  C   UNL     1     -11.698  13.920  69.415  1.00  0.00    -0.367 A  
HETATM    7  C   UNL     1     -10.946  14.973  68.896  1.00  0.00    -0.256 A  
HETATM    8  N   UNL     1     -12.249  15.207  71.347  1.00  0.00    -0.311 NA 
ENDBRANCH   2   3
BRANCH   2   9
HETATM    9  C   UNL     1     -12.428  11.689  71.121  1.00  0.00    -0.307 C  
BRANCH   9  10
HETATM   10  C   UNL     1     -13.181  10.621  71.929  1.00  0.00    -0.423 C  
BRANCH  10  11
HETATM   11  O   UNL     1     -13.225   9.361  71.246  1.00  0.00    -0.343 OA 
BRANCH  11  12
HETATM   12  C   UNL     1     -12.469   8.364  71.818  1.00  0.00    -0.335 A  
HETATM   13  C   UNL     1     -10.518   7.467  72.944  1.00  0.00    -0.344 A  
HETATM   14  C   UNL     1     -11.247   8.555  72.461  1.00  0.00    -0.336 A  
HETATM   15  C   UNL     1     -11.006   6.163  72.808  1.00  0.00    -0.294 A  
HETATM   16  C   UNL     1     -12.261   5.975  72.213  1.00  0.00    -0.125 A  
HETATM   17  C   UNL     1     -12.987   7.067  71.719  1.00  0.00    -0.356 A  
BRANCH  15  18
HETATM   18  C   UNL     1     -10.149   4.993  73.221  1.00  0.00    -0.190 C  
BRANCH  18  19
HETATM   19  C   UNL     1      -9.121   4.469  72.223  1.00  0.00    -0.125 C  
HETATM   20  S   UNL     1      -9.572   4.488  70.458  1.00  0.00    -0.221 SA 
HETATM   21  C   UNL     1      -7.919   4.791  69.979  1.00  0.00    -0.069 C  
HETATM   22  N   UNL     1      -7.192   5.196  71.049  1.00  0.00    -0.066 N  
HETATM   23  O   UNL     1      -7.495   4.635  68.847  1.00  0.00    -0.059 OA 
HETATM   24  C   UNL     1      -7.768   5.144  72.285  1.00  0.00    -0.100 C  
HETATM   25  H   UNL     1      -6.237   5.533  70.932  1.00  0.00     0.000 HD 
HETATM   26  O   UNL     1      -7.202   5.507  73.309  1.00  0.00    -0.087 OA 
ENDBRANCH  18  19
ENDBRANCH  15  18
ENDBRANCH  11  12
ENDBRANCH  10  11
ENDBRANCH   9  10
ENDBRANCH   2   9
TORSDOF 7
ENDMDL
MODEL      196
REMARK 921   NORMALIZED FREE ENERGY PREDICTED BY IDOCK:   -4.38 KCAL/MOL
REMARK 922        TOTAL FREE ENERGY PREDICTED BY IDOCK:   -7.02 KCAL/MOL
REMARK 923 INTER-LIGAND FREE ENERGY PREDICTED BY IDOCK:   -6.42 KCAL/MOL
REMARK 924 INTRA-LIGAND FREE ENERGY PREDICTED BY IDOCK:   -0.60 KCAL/MOL
REMARK 927      BINDING AFFINITY PREDICTED BY RF-SCORE:    0.00 PKD
ROOT
HETATM    1  C   UNL     1     -10.066  11.192  67.451  1.00  0.00    -0.185 C  
HETATM    2  N   UNL     1     -10.581  12.551  67.617  1.00  0.00    -0.214 NA 
ENDROOT
BRANCH   2   3
HETATM    3  C   UNL     1     -11.100  13.081  66.416  1.00  0.00    -0.287 A  
HETATM    4  C   UNL     1     -10.871  13.633  64.172  1.00  0.00    -0.156 A  
HETATM    5  C   UNL     1     -12.135  14.188  64.096  1.00  0.00    -0.437 A  
HETATM    6  C   UNL     1     -12.386  13.623  66.410  1.00  0.00    -0.441 A  
HETATM    7  C   UNL     1     -12.908  14.183  65.245  1.00  0.00    -0.370 A  
HETATM    8  N   UNL     1     -10.346  13.090  65.294  1.00  0.00    -0.300 NA 
ENDBRANCH   2   3
BRANCH   2   9
HETATM    9  C   UNL     1     -11.481  12.726  68.776  1.00  0.00    -0.304 C  
BRANCH   9  10
HETATM   10  C   UNL     1     -12.043  11.387  69.276  1.00  0.00    -0.289 C  
BRANCH  10  11
HETATM   11  O   UNL     1     -11.829  11.205  70.682  1.00  0.00    -0.335 OA 
BRANCH  11  12
HETATM   12  C   UNL     1     -11.403   9.949  71.046  1.00  0.00    -0.386 A  
HETATM   13  C   UNL     1      -9.735   8.259  71.537  1.00  0.00    -0.251 A  
HETATM   14  C   UNL     1     -10.072   9.580  71.242  1.00  0.00    -0.196 A  
HETATM   15  C   UNL     1     -10.725   7.278  71.660  1.00  0.00    -0.239 A  
HETATM   16  C   UNL     1     -12.067   7.660  71.519  1.00  0.00    -0.338 A  
HETATM   17  C   UNL     1     -12.404   8.985  71.213  1.00  0.00    -0.361 A  
BRANCH  15  18
HETATM   18  C   UNL     1     -10.334   5.836  71.852  1.00  0.00    -0.263 C  
BRANCH  18  19
HETATM   19  C   UNL     1     -10.404   4.905  70.645  1.00  0.00    -0.162 C  
HETATM   20  S   UNL     1     -10.186   5.646  68.995  1.00  0.00    -0.239 SA 
HETATM   21  C   UNL     1      -9.405   4.205  68.388  1.00  0.00    -0.155 C  
HETATM   22  N   UNL     1      -9.029   3.411  69.419  1.00  0.00    -0.102 N  
HETATM   23  O   UNL     1      -9.249   3.959  67.204  1.00  0.00    -0.147 OA 
HETATM   24  C   UNL     1      -9.438   3.740  70.679  1.00  0.00    -0.170 C  
HETATM   25  H   UNL     1      -8.452   2.586  69.258  1.00  0.00     0.000 HD 
HETATM   26  O   UNL     1      -9.134   3.099  71.677  1.00  0.00    -0.093 OA 
ENDBRANCH  18  19
ENDBRANCH  15  18
ENDBRANCH  11  12
ENDBRANCH  10  11
ENDBRANCH   9  10
ENDBRANCH   2   9
TORSDOF 7
ENDMDL
MODEL      197
REMARK 921   NORMALIZED FREE ENERGY PREDICTED BY IDOCK:   -4.36 KCAL/MOL
REMARK 922        TOTAL FREE ENERGY PREDICTED BY IDOCK:   -7.00 KCAL/MOL
REMARK 923 INTER-LIGAND FREE ENERGY PREDICTED BY IDOCK:   -5.85 KCAL/MOL
REMARK 924 INTRA-LIGAND FREE ENERGY PREDICTED BY IDOCK:   -1.15 KCAL/MOL
REMARK 927      BINDING AFFINITY PREDICTED BY RF-SCORE:    0.00 PKD
ROOT
HETATM    1  C   UNL     1      -6.112   6.285  65.979  1.00  0.00    -0.033 C  
HETATM    2  N   UNL     1      -7.559   6.381  65.787  1.00  0.00    -0.082 NA 
ENDROOT
BRANCH   2   3
HETATM    3  C   UNL     1      -8.200   7.051  66.850  1.00  0.00    -0.117 A  
HETATM    4  C   UNL     1     -10.124   7.751  67.947  1.00  0.00    -0.185 A  
HETATM    5  C   UNL     1      -9.418   8.433  68.920  1.00  0.00    -0.147 A  
HETATM    6  C   UNL     1      -7.425   7.718  67.801  1.00  0.00    -0.104 A  
HETATM    7  C   UNL     1      -8.036   8.416  68.841  1.00  0.00    -0.114 A  
HETATM    8  N   UNL     1      -9.549   7.073  66.927  1.00  0.00    -0.161 NA 
ENDBRANCH   2   3
BRANCH   2   9
HETATM    9  C   UNL     1      -7.966   6.866  64.452  1.00  0.00    -0.093 C  
BRANCH   9  10
HETATM   10  C   UNL     1      -7.601   8.342  64.239  1.00  0.00    -0.123 C  
BRANCH  10  11
HETATM   11  O   UNL     1      -8.594   9.038  63.472  1.00  0.00    -0.194 OA 
BRANCH  11  12
HETATM   12  C   UNL     1      -9.204  10.083  64.125  1.00  0.00    -0.271 A  
HETATM   13  C   UNL     1      -9.765  11.427  66.063  1.00  0.00    -0.253 A  
HETATM   14  C   UNL     1      -9.042  10.388  65.476  1.00  0.00    -0.208 A  
HETATM   15  C   UNL     1     -10.656  12.196  65.307  1.00  0.00    -0.319 A  
HETATM   16  C   UNL     1     -10.777  11.926  63.936  1.00  0.00    -0.450 A  
HETATM   17  C   UNL     1     -10.058  10.877  63.349  1.00  0.00    -0.398 A  
BRANCH  15  18
HETATM   18  C   UNL     1     -11.521  13.227  65.984  1.00  0.00    -0.360 C  
BRANCH  18  19
HETATM   19  C   UNL     1     -10.831  14.372  66.720  1.00  0.00    -0.301 C  
HETATM   20  S   UNL     1     -10.576  15.929  65.809  1.00  0.00    -0.344 SA 
HETATM   21  C   UNL     1     -10.776  16.879  67.262  1.00  0.00    -0.208 C  
HETATM   22  N   UNL     1     -11.335  16.124  68.238  1.00  0.00    -0.349 N  
HETATM   23  O   UNL     1     -10.437  18.045  67.368  1.00  0.00    -0.369 OA 
HETATM   24  C   UNL     1     -11.488  14.785  68.019  1.00  0.00    -0.331 C  
HETATM   25  H   UNL     1     -11.636  16.546  69.116  1.00  0.00     0.000 HD 
HETATM   26  O   UNL     1     -12.000  14.023  68.829  1.00  0.00    -0.338 OA 
ENDBRANCH  18  19
ENDBRANCH  15  18
ENDBRANCH  11  12
ENDBRANCH  10  11
ENDBRANCH   9  10
ENDBRANCH   2   9
TORSDOF 7
ENDMDL
MODEL      198
REMARK 921   NORMALIZED FREE ENERGY PREDICTED BY IDOCK:   -4.34 KCAL/MOL
REMARK 922        TOTAL FREE ENERGY PREDICTED BY IDOCK:   -6.97 KCAL/MOL
REMARK 923 INTER-LIGAND FREE ENERGY PREDICTED BY IDOCK:   -6.54 KCAL/MOL
REMARK 924 INTRA-LIGAND FREE ENERGY PREDICTED BY IDOCK:   -0.43 KCAL/MOL
REMARK 927      BINDING AFFINITY PREDICTED BY RF-SCORE:    0.00 PKD
ROOT
HETATM    1  C   UNL     1      -6.638   6.226  66.220  1.00  0.00    -0.048 C  
HETATM    2  N   UNL     1      -6.984   6.157  64.800  1.00  0.00    -0.053 NA 
ENDROOT
BRANCH   2   3
HETATM    3  C   UNL     1      -8.109   5.341  64.559  1.00  0.00    -0.120 A  
HETATM    4  C   UNL     1      -9.497   4.166  63.113  1.00  0.00    -0.139 A  
HETATM    5  C   UNL     1     -10.365   3.791  64.121  1.00  0.00    -0.260 A  
HETATM    6  C   UNL     1      -8.942   4.997  65.625  1.00  0.00    -0.149 A  
HETATM    7  C   UNL     1     -10.079   4.220  65.406  1.00  0.00    -0.238 A  
HETATM    8  N   UNL     1      -8.393   4.924  63.305  1.00  0.00    -0.109 NA 
ENDBRANCH   2   3
BRANCH   2   9
HETATM    9  C   UNL     1      -7.051   7.469  64.124  1.00  0.00    -0.064 C  
BRANCH   9  10
HETATM   10  C   UNL     1      -8.280   8.280  64.559  1.00  0.00    -0.135 C  
BRANCH  10  11
HETATM   11  O   UNL     1      -8.615   9.302  63.609  1.00  0.00    -0.201 OA 
BRANCH  11  12
HETATM   12  C   UNL     1      -9.465  10.274  64.080  1.00  0.00    -0.300 A  
HETATM   13  C   UNL     1     -10.813  11.377  65.767  1.00  0.00    -0.290 A  
HETATM   14  C   UNL     1      -9.887  10.398  65.403  1.00  0.00    -0.347 A  
HETATM   15  C   UNL     1     -11.327  12.264  64.816  1.00  0.00    -0.371 A  
HETATM   16  C   UNL     1     -10.861  12.177  63.497  1.00  0.00    -0.518 A  
HETATM   17  C   UNL     1      -9.939  11.188  63.130  1.00  0.00    -0.393 A  
BRANCH  15  18
HETATM   18  C   UNL     1     -12.419  13.229  65.201  1.00  0.00    -0.525 C  
BRANCH  18  19
HETATM   19  C   UNL     1     -12.084  14.332  66.200  1.00  0.00    -0.406 C  
HETATM   20  S   UNL     1     -11.719  13.836  67.915  1.00  0.00    -0.375 SA 
HETATM   21  C   UNL     1     -10.573  15.141  68.109  1.00  0.00    -0.246 C  
HETATM   22  N   UNL     1     -10.242  15.653  66.899  1.00  0.00    -0.274 N  
HETATM   23  O   UNL     1     -10.158  15.532  69.187  1.00  0.00    -0.210 OA 
HETATM   24  C   UNL     1     -10.931  15.227  65.801  1.00  0.00    -0.338 C  
HETATM   25  H   UNL     1      -9.494  16.341  66.812  1.00  0.00     0.000 HD 
HETATM   26  O   UNL     1     -10.693  15.614  64.664  1.00  0.00    -0.431 OA 
ENDBRANCH  18  19
ENDBRANCH  15  18
ENDBRANCH  11  12
ENDBRANCH  10  11
ENDBRANCH   9  10
ENDBRANCH   2   9
TORSDOF 7
ENDMDL
MODEL      199
REMARK 921   NORMALIZED FREE ENERGY PREDICTED BY IDOCK:   -4.33 KCAL/MOL
REMARK 922        TOTAL FREE ENERGY PREDICTED BY IDOCK:   -6.95 KCAL/MOL
REMARK 923 INTER-LIGAND FREE ENERGY PREDICTED BY IDOCK:   -6.37 KCAL/MOL
REMARK 924 INTRA-LIGAND FREE ENERGY PREDICTED BY IDOCK:   -0.58 KCAL/MOL
REMARK 927      BINDING AFFINITY PREDICTED BY RF-SCORE:    0.00 PKD
ROOT
HETATM    1  C   UNL     1     -11.013  16.066  67.297  1.00  0.00    -0.207 C  
HETATM    2  N   UNL     1     -11.530  14.698  67.340  1.00  0.00    -0.356 NA 
ENDROOT
BRANCH   2   3
HETATM    3  C   UNL     1     -11.532  14.083  66.070  1.00  0.00    -0.338 A  
HETATM    4  C   UNL     1     -12.640  13.380  64.154  1.00  0.00    -0.135 A  
HETATM    5  C   UNL     1     -11.504  12.811  63.608  1.00  0.00    -0.544 A  
HETATM    6  C   UNL     1     -10.348  13.531  65.578  1.00  0.00    -0.309 A  
HETATM    7  C   UNL     1     -10.333  12.888  64.341  1.00  0.00    -0.393 A  
HETATM    8  N   UNL     1     -12.675  14.003  65.354  1.00  0.00    -0.651 NA 
ENDBRANCH   2   3
BRANCH   2   9
HETATM    9  C   UNL     1     -10.941  13.857  68.402  1.00  0.00    -0.253 C  
BRANCH   9  10
HETATM   10  C   UNL     1     -11.892  12.734  68.842  1.00  0.00    -0.308 C  
BRANCH  10  11
HETATM   11  O   UNL     1     -11.724  11.546  68.056  1.00  0.00    -0.465 OA 
BRANCH  11  12
HETATM   12  C   UNL     1     -11.404  10.417  68.772  1.00  0.00    -0.214 A  
HETATM   13  C   UNL     1     -11.231   9.074  70.784  1.00  0.00    -0.329 A  
HETATM   14  C   UNL     1     -11.663  10.229  70.129  1.00  0.00    -0.364 A  
HETATM   15  C   UNL     1     -10.542   8.074  70.090  1.00  0.00    -0.237 A  
HETATM   16  C   UNL     1     -10.330   8.238  68.714  1.00  0.00    -0.223 A  
HETATM   17  C   UNL     1     -10.756   9.401  68.059  1.00  0.00    -0.246 A  
BRANCH  15  18
HETATM   18  C   UNL     1      -9.972   6.897  70.839  1.00  0.00    -0.200 C  
BRANCH  18  19
HETATM   19  C   UNL     1      -8.937   6.028  70.130  1.00  0.00    -0.147 C  
HETATM   20  S   UNL     1      -7.184   6.489  70.307  1.00  0.00    -0.082 SA 
HETATM   21  C   UNL     1      -6.678   4.817  70.246  1.00  0.00    -0.036 C  
HETATM   22  N   UNL     1      -7.743   4.002  70.443  1.00  0.00    -0.045 N  
HETATM   23  O   UNL     1      -5.533   4.457  70.037  1.00  0.00    -0.010 OA 
HETATM   24  C   UNL     1      -8.989   4.557  70.481  1.00  0.00    -0.105 C  
HETATM   25  H   UNL     1      -7.615   2.998  70.560  1.00  0.00     0.000 HD 
HETATM   26  O   UNL     1     -10.010   3.909  70.674  1.00  0.00    -0.173 OA 
ENDBRANCH  18  19
ENDBRANCH  15  18
ENDBRANCH  11  12
ENDBRANCH  10  11
ENDBRANCH   9  10
ENDBRANCH   2   9
TORSDOF 7
ENDMDL
MODEL      200
REMARK 921   NORMALIZED FREE ENERGY PREDICTED BY IDOCK:   -4.33 KCAL/MOL
REMARK 922        TOTAL FREE ENERGY PREDICTED BY IDOCK:   -6.95 KCAL/MOL
REMARK 923 INTER-LIGAND FREE ENERGY PREDICTED BY IDOCK:   -6.43 KCAL/MOL
REMARK 924 INTRA-LIGAND FREE ENERGY PREDICTED BY IDOCK:   -0.52 KCAL/MOL
REMARK 927      BINDING AFFINITY PREDICTED BY RF-SCORE:    0.00 PKD
ROOT
HETATM    1  C   UNL     1     -11.313   5.941  72.633  1.00  0.00    -0.292 C  
HETATM    2  N   UNL     1      -9.893   5.709  72.900  1.00  0.00    -0.165 NA 
ENDROOT
BRANCH   2   3
HETATM    3  C   UNL     1      -9.646   4.419  73.414  1.00  0.00    -0.120 A  
HETATM    4  C   UNL     1      -8.259   2.880  74.464  1.00  0.00    -0.068 A  
HETATM    5  C   UNL     1      -9.178   1.854  74.355  1.00  0.00    -0.083 A  
HETATM    6  C   UNL     1     -10.621   3.430  73.272  1.00  0.00    -0.278 A  
HETATM    7  C   UNL     1     -10.387   2.138  73.742  1.00  0.00    -0.194 A  
HETATM    8  N   UNL     1      -8.466   4.137  74.010  1.00  0.00    -0.094 NA 
ENDBRANCH   2   3
BRANCH   2   9
HETATM    9  C   UNL     1      -8.995   6.083  71.788  1.00  0.00    -0.138 C  
BRANCH   9  10
HETATM   10  C   UNL     1      -9.686   7.007  70.775  1.00  0.00    -0.168 C  
BRANCH  10  11
HETATM   11  O   UNL     1      -9.374   6.651  69.421  1.00  0.00    -0.147 OA 
BRANCH  11  12
HETATM   12  C   UNL     1      -9.447   7.685  68.517  1.00  0.00    -0.147 A  
HETATM   13  C   UNL     1     -10.387   8.883  66.631  1.00  0.00    -0.294 A  
HETATM   14  C   UNL     1     -10.443   7.838  67.553  1.00  0.00    -0.338 A  
HETATM   15  C   UNL     1      -9.340   9.810  66.662  1.00  0.00    -0.200 A  
HETATM   16  C   UNL     1      -8.369   9.690  67.666  1.00  0.00    -0.121 A  
HETATM   17  C   UNL     1      -8.420   8.634  68.586  1.00  0.00    -0.130 A  
BRANCH  15  18
HETATM   18  C   UNL     1      -9.227  10.854  65.582  1.00  0.00    -0.227 C  
BRANCH  18  19
HETATM   19  C   UNL     1     -10.515  11.380  64.955  1.00  0.00    -0.305 C  
HETATM   20  S   UNL     1     -11.244  12.892  65.664  1.00  0.00    -0.304 SA 
HETATM   21  C   UNL     1     -11.842  13.405  64.104  1.00  0.00    -0.442 C  
HETATM   22  N   UNL     1     -11.237  12.698  63.119  1.00  0.00    -0.738 N  
HETATM   23  O   UNL     1     -12.694  14.262  63.947  1.00  0.00    -0.749 OA 
HETATM   24  C   UNL     1     -10.439  11.647  63.466  1.00  0.00    -0.443 C  
HETATM   25  H   UNL     1     -11.374  12.947  62.139  1.00  0.00     0.000 HD 
HETATM   26  O   UNL     1      -9.833  10.961  62.653  1.00  0.00    -0.246 OA 
ENDBRANCH  18  19
ENDBRANCH  15  18
ENDBRANCH  11  12
ENDBRANCH  10  11
ENDBRANCH   9  10
ENDBRANCH   2   9
TORSDOF 7
ENDMDL
MODEL      201
REMARK 921   NORMALIZED FREE ENERGY PREDICTED BY IDOCK:   -4.32 KCAL/MOL
REMARK 922        TOTAL FREE ENERGY PREDICTED BY IDOCK:   -6.94 KCAL/MOL
REMARK 923 INTER-LIGAND FREE ENERGY PREDICTED BY IDOCK:   -6.38 KCAL/MOL
REMARK 924 INTRA-LIGAND FREE ENERGY PREDICTED BY IDOCK:   -0.56 KCAL/MOL
REMARK 927      BINDING AFFINITY PREDICTED BY RF-SCORE:    0.00 PKD
ROOT
HETATM    1  C   UNL     1     -12.828  15.594  70.308  1.00  0.00    -0.114 C  
HETATM    2  N   UNL     1     -12.356  14.457  69.516  1.00  0.00    -0.276 NA 
ENDROOT
BRANCH   2   3
HETATM    3  C   UNL     1     -11.602  14.859  68.393  1.00  0.00    -0.325 A  
HETATM    4  C   UNL     1      -9.933  16.148  67.420  1.00  0.00    -0.247 A  
HETATM    5  C   UNL     1     -10.188  15.666  66.150  1.00  0.00    -0.327 A  
HETATM    6  C   UNL     1     -11.912  14.329  67.140  1.00  0.00    -0.449 A  
HETATM    7  C   UNL     1     -11.204  14.736  66.010  1.00  0.00    -0.341 A  
HETATM    8  N   UNL     1     -10.612  15.770  68.527  1.00  0.00    -0.244 NA 
ENDBRANCH   2   3
BRANCH   2   9
HETATM    9  C   UNL     1     -11.713  13.388  70.307  1.00  0.00    -0.159 C  
BRANCH   9  10
HETATM   10  C   UNL     1     -12.392  12.027  70.096  1.00  0.00    -0.155 C  
BRANCH  10  11
HETATM   11  O   UNL     1     -12.852  11.458  71.330  1.00  0.00    -0.413 OA 
BRANCH  11  12
HETATM   12  C   UNL     1     -12.567  10.123  71.495  1.00  0.00    -0.434 A  
HETATM   13  C   UNL     1     -12.973   7.883  72.330  1.00  0.00    -0.126 A  
HETATM   14  C   UNL     1     -13.386   9.203  72.149  1.00  0.00    -0.525 A  
HETATM   15  C   UNL     1     -11.735   7.448  71.846  1.00  0.00    -0.323 A  
HETATM   16  C   UNL     1     -10.935   8.357  71.140  1.00  0.00    -0.292 A  
HETATM   17  C   UNL     1     -11.346   9.686  70.966  1.00  0.00    -0.444 A  
BRANCH  15  18
HETATM   18  C   UNL     1     -11.251   6.057  72.162  1.00  0.00    -0.341 C  
BRANCH  18  19
HETATM   19  C   UNL     1      -9.745   5.808  72.186  1.00  0.00    -0.152 C  
HETATM   20  S   UNL     1      -8.847   6.216  73.718  1.00  0.00    -0.124 SA 
HETATM   21  C   UNL     1      -7.719   4.903  73.474  1.00  0.00    -0.096 C  
HETATM   22  N   UNL     1      -8.200   4.044  72.543  1.00  0.00    -0.096 N  
HETATM   23  O   UNL     1      -6.650   4.804  74.052  1.00  0.00    -0.063 OA 
HETATM   24  C   UNL     1      -9.326   4.391  71.855  1.00  0.00    -0.137 C  
HETATM   25  H   UNL     1      -7.731   3.157  72.362  1.00  0.00     0.000 HD 
HETATM   26  O   UNL     1      -9.849   3.675  71.011  1.00  0.00    -0.182 OA 
ENDBRANCH  18  19
ENDBRANCH  15  18
ENDBRANCH  11  12
ENDBRANCH  10  11
ENDBRANCH   9  10
ENDBRANCH   2   9
TORSDOF 7
ENDMDL
MODEL      202
REMARK 921   NORMALIZED FREE ENERGY PREDICTED BY IDOCK:   -4.30 KCAL/MOL
REMARK 922        TOTAL FREE ENERGY PREDICTED BY IDOCK:   -6.91 KCAL/MOL
REMARK 923 INTER-LIGAND FREE ENERGY PREDICTED BY IDOCK:   -6.35 KCAL/MOL
REMARK 924 INTRA-LIGAND FREE ENERGY PREDICTED BY IDOCK:   -0.57 KCAL/MOL
REMARK 927      BINDING AFFINITY PREDICTED BY RF-SCORE:    0.00 PKD
ROOT
HETATM    1  C   UNL     1     -12.217  11.359  70.789  1.00  0.00    -0.376 C  
HETATM    2  N   UNL     1     -12.340  12.656  70.122  1.00  0.00    -0.208 NA 
ENDROOT
BRANCH   2   3
HETATM    3  C   UNL     1     -12.418  13.726  71.037  1.00  0.00    -0.380 A  
HETATM    4  C   UNL     1     -13.166  14.643  73.036  1.00  0.00    -0.485 A  
HETATM    5  C   UNL     1     -12.599  15.876  72.776  1.00  0.00    -0.567 A  
HETATM    6  C   UNL     1     -11.820  14.945  70.712  1.00  0.00    -0.368 A  
HETATM    7  C   UNL     1     -11.913  16.029  71.584  1.00  0.00    -0.569 A  
HETATM    8  N   UNL     1     -13.091  13.582  72.200  1.00  0.00    -0.392 NA 
ENDBRANCH   2   3
BRANCH   2   9
HETATM    9  C   UNL     1     -11.365  12.878  69.035  1.00  0.00    -0.290 C  
BRANCH   9  10
HETATM   10  C   UNL     1     -11.624  11.959  67.832  1.00  0.00    -0.323 C  
BRANCH  10  11
HETATM   11  O   UNL     1     -10.444  11.764  67.040  1.00  0.00    -0.210 OA 
BRANCH  11  12
HETATM   12  C   UNL     1     -10.037  10.456  66.918  1.00  0.00    -0.219 A  
HETATM   13  C   UNL     1      -9.144   8.354  67.734  1.00  0.00    -0.142 A  
HETATM   14  C   UNL     1      -9.609   9.648  67.971  1.00  0.00    -0.161 A  
HETATM   15  C   UNL     1      -9.110   7.833  66.436  1.00  0.00    -0.216 A  
HETATM   16  C   UNL     1      -9.592   8.624  65.384  1.00  0.00     0.212 A  
HETATM   17  C   UNL     1     -10.050   9.927  65.622  1.00  0.00    -0.307 A  
BRANCH  15  18
HETATM   18  C   UNL     1      -8.486   6.485  66.184  1.00  0.00    -0.137 C  
BRANCH  18  19
HETATM   19  C   UNL     1      -9.402   5.335  65.776  1.00  0.00    -0.139 C  
HETATM   20  S   UNL     1      -9.130   4.578  64.141  1.00  0.00    -0.096 SA 
HETATM   21  C   UNL     1      -9.618   3.005  64.724  1.00  0.00    -0.121 C  
HETATM   22  N   UNL     1      -9.625   2.993  66.079  1.00  0.00    -0.389 N  
HETATM   23  O   UNL     1      -9.922   2.072  64.001  1.00  0.00    -0.138 OA 
HETATM   24  C   UNL     1      -9.435   4.170  66.742  1.00  0.00    -0.193 C  
HETATM   25  H   UNL     1      -9.768   2.123  66.591  1.00  0.00     0.000 HD 
HETATM   26  O   UNL     1      -9.405   4.260  67.963  1.00  0.00    -0.133 OA 
ENDBRANCH  18  19
ENDBRANCH  15  18
ENDBRANCH  11  12
ENDBRANCH  10  11
ENDBRANCH   9  10
ENDBRANCH   2   9
TORSDOF 7
ENDMDL
MODEL      203
REMARK 921   NORMALIZED FREE ENERGY PREDICTED BY IDOCK:   -4.30 KCAL/MOL
REMARK 922        TOTAL FREE ENERGY PREDICTED BY IDOCK:   -6.91 KCAL/MOL
REMARK 923 INTER-LIGAND FREE ENERGY PREDICTED BY IDOCK:   -5.48 KCAL/MOL
REMARK 924 INTRA-LIGAND FREE ENERGY PREDICTED BY IDOCK:   -1.43 KCAL/MOL
REMARK 927      BINDING AFFINITY PREDICTED BY RF-SCORE:    0.00 PKD
ROOT
HETATM    1  C   UNL     1      -6.093   6.119  65.205  1.00  0.00    -0.030 C  
HETATM    2  N   UNL     1      -7.547   6.271  65.126  1.00  0.00    -0.086 NA 
ENDROOT
BRANCH   2   3
HETATM    3  C   UNL     1      -8.084   6.907  66.264  1.00  0.00    -0.112 A  
HETATM    4  C   UNL     1      -9.894   7.694  67.489  1.00  0.00    -0.165 A  
HETATM    5  C   UNL     1      -9.095   8.219  68.487  1.00  0.00    -0.136 A  
HETATM    6  C   UNL     1      -7.218   7.411  67.236  1.00  0.00    -0.093 A  
HETATM    7  C   UNL     1      -7.724   8.074  68.353  1.00  0.00    -0.117 A  
HETATM    8  N   UNL     1      -9.422   7.053  66.395  1.00  0.00    -0.157 NA 
ENDBRANCH   2   3
BRANCH   2   9
HETATM    9  C   UNL     1      -8.032   6.836  63.850  1.00  0.00    -0.069 C  
BRANCH   9  10
HETATM   10  C   UNL     1      -7.708   8.332  63.721  1.00  0.00    -0.145 C  
BRANCH  10  11
HETATM   11  O   UNL     1      -8.881   9.117  63.467  1.00  0.00    -0.181 OA 
BRANCH  11  12
HETATM   12  C   UNL     1      -9.109  10.129  64.369  1.00  0.00    -0.245 A  
HETATM   13  C   UNL     1      -8.641  11.441  66.354  1.00  0.00    -0.174 A  
HETATM   14  C   UNL     1      -8.283  10.441  65.449  1.00  0.00    -0.159 A  
HETATM   15  C   UNL     1      -9.828  12.162  66.191  1.00  0.00    -0.254 A  
HETATM   16  C   UNL     1     -10.631  11.888  65.074  1.00  0.00    -0.335 A  
HETATM   17  C   UNL     1     -10.276  10.877  64.171  1.00  0.00    -0.424 A  
BRANCH  15  18
HETATM   18  C   UNL     1     -10.261  13.147  67.246  1.00  0.00    -0.243 C  
BRANCH  18  19
HETATM   19  C   UNL     1     -11.406  12.751  68.173  1.00  0.00    -0.288 C  
HETATM   20  S   UNL     1     -11.534  10.998  68.654  1.00  0.00    -0.322 SA 
HETATM   21  C   UNL     1     -12.168  11.418  70.228  1.00  0.00    -0.349 C  
HETATM   22  N   UNL     1     -11.953  12.731  70.481  1.00  0.00    -0.532 N  
HETATM   23  O   UNL     1     -12.735  10.632  70.968  1.00  0.00    -0.354 OA 
HETATM   24  C   UNL     1     -11.468  13.518  69.476  1.00  0.00    -0.255 C  
HETATM   25  H   UNL     1     -12.149  13.124  71.402  1.00  0.00     0.000 HD 
HETATM   26  O   UNL     1     -11.222  14.709  69.611  1.00  0.00    -0.260 OA 
ENDBRANCH  18  19
ENDBRANCH  15  18
ENDBRANCH  11  12
ENDBRANCH  10  11
ENDBRANCH   9  10
ENDBRANCH   2   9
TORSDOF 7
ENDMDL
MODEL      204
REMARK 921   NORMALIZED FREE ENERGY PREDICTED BY IDOCK:   -4.28 KCAL/MOL
REMARK 922        TOTAL FREE ENERGY PREDICTED BY IDOCK:   -6.88 KCAL/MOL
REMARK 923 INTER-LIGAND FREE ENERGY PREDICTED BY IDOCK:   -6.47 KCAL/MOL
REMARK 924 INTRA-LIGAND FREE ENERGY PREDICTED BY IDOCK:   -0.42 KCAL/MOL
REMARK 927      BINDING AFFINITY PREDICTED BY RF-SCORE:    0.00 PKD
ROOT
HETATM    1  C   UNL     1      -8.850  13.867  68.308  1.00  0.00    -0.185 C  
HETATM    2  N   UNL     1      -9.927  13.427  67.422  1.00  0.00    -0.227 NA 
ENDROOT
BRANCH   2   3
HETATM    3  C   UNL     1      -9.688  12.148  66.878  1.00  0.00    -0.206 A  
HETATM    4  C   UNL     1      -8.633  10.079  66.933  1.00  0.00    -0.125 A  
HETATM    5  C   UNL     1      -9.199   9.668  65.740  1.00  0.00    -0.264 A  
HETATM    6  C   UNL     1     -10.295  11.796  65.670  1.00  0.00    -0.293 A  
HETATM    7  C   UNL     1     -10.047  10.551  65.095  1.00  0.00    -0.383 A  
HETATM    8  N   UNL     1      -8.857  11.285  67.504  1.00  0.00    -0.139 NA 
ENDBRANCH   2   3
BRANCH   2   9
HETATM    9  C   UNL     1     -11.284  13.584  67.986  1.00  0.00    -0.271 C  
BRANCH   9  10
HETATM   10  C   UNL     1     -11.853  12.254  68.499  1.00  0.00    -0.307 C  
BRANCH  10  11
HETATM   11  O   UNL     1     -11.551  12.038  69.885  1.00  0.00    -0.291 OA 
BRANCH  11  12
HETATM   12  C   UNL     1     -11.814  10.769  70.345  1.00  0.00    -0.358 A  
HETATM   13  C   UNL     1     -12.828   9.144  71.832  1.00  0.00    -0.466 A  
HETATM   14  C   UNL     1     -12.686  10.459  71.388  1.00  0.00    -0.551 A  
HETATM   15  C   UNL     1     -12.109   8.105  71.231  1.00  0.00    -0.313 A  
HETATM   16  C   UNL     1     -11.274   8.408  70.146  1.00  0.00    -0.136 A  
HETATM   17  C   UNL     1     -11.126   9.730  69.707  1.00  0.00    -0.272 A  
BRANCH  15  18
HETATM   18  C   UNL     1     -12.178   6.713  71.805  1.00  0.00    -0.400 C  
BRANCH  18  19
HETATM   19  C   UNL     1     -10.867   5.974  72.054  1.00  0.00    -0.252 C  
HETATM   20  S   UNL     1      -9.940   5.385  70.600  1.00  0.00    -0.230 SA 
HETATM   21  C   UNL     1      -8.408   5.642  71.401  1.00  0.00    -0.127 C  
HETATM   22  N   UNL     1      -8.579   6.426  72.492  1.00  0.00    -0.123 N  
HETATM   23  O   UNL     1      -7.352   5.161  71.027  1.00  0.00    -0.068 OA 
HETATM   24  C   UNL     1      -9.851   6.734  72.881  1.00  0.00    -0.166 C  
HETATM   25  H   UNL     1      -7.776   6.778  73.012  1.00  0.00     0.000 HD 
HETATM   26  O   UNL     1     -10.109   7.450  73.839  1.00  0.00    -0.313 OA 
ENDBRANCH  18  19
ENDBRANCH  15  18
ENDBRANCH  11  12
ENDBRANCH  10  11
ENDBRANCH   9  10
ENDBRANCH   2   9
TORSDOF 7
ENDMDL
MODEL      205
REMARK 921   NORMALIZED FREE ENERGY PREDICTED BY IDOCK:   -4.26 KCAL/MOL
REMARK 922        TOTAL FREE ENERGY PREDICTED BY IDOCK:   -6.86 KCAL/MOL
REMARK 923 INTER-LIGAND FREE ENERGY PREDICTED BY IDOCK:   -5.94 KCAL/MOL
REMARK 924 INTRA-LIGAND FREE ENERGY PREDICTED BY IDOCK:   -0.92 KCAL/MOL
REMARK 927      BINDING AFFINITY PREDICTED BY RF-SCORE:    0.00 PKD
ROOT
HETATM    1  C   UNL     1      -7.214   7.363  72.845  1.00  0.00    -0.073 C  
HETATM    2  N   UNL     1      -8.021   8.091  71.865  1.00  0.00    -0.106 NA 
ENDROOT
BRANCH   2   3
HETATM    3  C   UNL     1      -7.311   9.150  71.262  1.00  0.00    -0.025 A  
HETATM    4  C   UNL     1      -5.443  10.523  71.119  1.00  0.00    -0.071 A  
HETATM    5  C   UNL     1      -5.977  11.278  70.090  1.00  0.00    -0.141 A  
HETATM    6  C   UNL     1      -7.909   9.868  70.225  1.00  0.00    -0.151 A  
HETATM    7  C   UNL     1      -7.241  10.941  69.637  1.00  0.00    -0.098 A  
HETATM    8  N   UNL     1      -6.078   9.483  71.706  1.00  0.00    -0.267 NA 
ENDBRANCH   2   3
BRANCH   2   9
HETATM    9  C   UNL     1      -8.729   7.228  70.897  1.00  0.00    -0.148 C  
BRANCH   9  10
HETATM   10  C   UNL     1     -10.238   7.513  70.867  1.00  0.00    -0.192 C  
BRANCH  10  11
HETATM   11  O   UNL     1     -10.675   7.970  69.579  1.00  0.00    -0.230 OA 
BRANCH  11  12
HETATM   12  C   UNL     1     -11.122   9.270  69.545  1.00  0.00    -0.080 A  
HETATM   13  C   UNL     1     -11.509  11.427  68.509  1.00  0.00    -0.361 A  
HETATM   14  C   UNL     1     -11.101  10.096  68.422  1.00  0.00    -0.273 A  
HETATM   15  C   UNL     1     -11.964  11.958  69.720  1.00  0.00    -0.377 A  
HETATM   16  C   UNL     1     -12.040  11.113  70.836  1.00  0.00    -0.427 A  
HETATM   17  C   UNL     1     -11.620   9.779  70.751  1.00  0.00    -0.417 A  
BRANCH  15  18
HETATM   18  C   UNL     1     -12.280  13.428  69.825  1.00  0.00    -0.307 C  
BRANCH  18  19
HETATM   19  C   UNL     1     -11.174  14.425  69.494  1.00  0.00    -0.254 C  
HETATM   20  S   UNL     1     -11.191  15.186  67.838  1.00  0.00    -0.337 SA 
HETATM   21  C   UNL     1     -10.529  16.682  68.456  1.00  0.00    -0.319 C  
HETATM   22  N   UNL     1     -10.637  16.715  69.806  1.00  0.00    -0.277 N  
HETATM   23  O   UNL     1     -10.030  17.547  67.758  1.00  0.00    -0.288 OA 
HETATM   24  C   UNL     1     -11.053  15.589  70.455  1.00  0.00    -0.337 C  
HETATM   25  H   UNL     1     -10.412  17.564  70.325  1.00  0.00     0.000 HD 
HETATM   26  O   UNL     1     -11.201  15.525  71.668  1.00  0.00    -0.386 OA 
ENDBRANCH  18  19
ENDBRANCH  15  18
ENDBRANCH  11  12
ENDBRANCH  10  11
ENDBRANCH   9  10
ENDBRANCH   2   9
TORSDOF 7
ENDMDL
MODEL      206
REMARK 921   NORMALIZED FREE ENERGY PREDICTED BY IDOCK:   -4.24 KCAL/MOL
REMARK 922        TOTAL FREE ENERGY PREDICTED BY IDOCK:   -6.84 KCAL/MOL
REMARK 923 INTER-LIGAND FREE ENERGY PREDICTED BY IDOCK:   -6.22 KCAL/MOL
REMARK 924 INTRA-LIGAND FREE ENERGY PREDICTED BY IDOCK:   -0.62 KCAL/MOL
REMARK 927      BINDING AFFINITY PREDICTED BY RF-SCORE:    0.00 PKD
ROOT
HETATM    1  C   UNL     1     -11.692  12.700  65.441  1.00  0.00    -0.387 C  
HETATM    2  N   UNL     1     -10.377  12.916  66.044  1.00  0.00    -0.277 NA 
ENDROOT
BRANCH   2   3
HETATM    3  C   UNL     1     -10.397  13.917  67.037  1.00  0.00    -0.267 A  
HETATM    4  C   UNL     1      -9.358  15.127  68.726  1.00  0.00    -0.200 A  
HETATM    5  C   UNL     1     -10.499  15.849  69.022  1.00  0.00    -0.234 A  
HETATM    6  C   UNL     1     -11.584  14.611  67.281  1.00  0.00    -0.404 A  
HETATM    7  C   UNL     1     -11.638  15.581  68.281  1.00  0.00    -0.344 A  
HETATM    8  N   UNL     1      -9.288  14.179  67.764  1.00  0.00    -0.194 NA 
ENDBRANCH   2   3
BRANCH   2   9
HETATM    9  C   UNL     1      -9.689  11.678  66.467  1.00  0.00    -0.206 C  
BRANCH   9  10
HETATM   10  C   UNL     1     -10.666  10.649  67.055  1.00  0.00    -0.259 C  
BRANCH  10  11
HETATM   11  O   UNL     1     -10.167   9.308  66.944  1.00  0.00    -0.230 OA 
BRANCH  11  12
HETATM   12  C   UNL     1     -10.460   8.490  68.009  1.00  0.00    -0.191 A  
HETATM   13  C   UNL     1     -11.043   6.382  69.057  1.00  0.00    -0.424 A  
HETATM   14  C   UNL     1     -10.676   7.115  67.927  1.00  0.00    -0.258 A  
HETATM   15  C   UNL     1     -11.188   7.009  70.299  1.00  0.00    -0.339 A  
HETATM   16  C   UNL     1     -10.917   8.381  70.394  1.00  0.00    -0.249 A  
HETATM   17  C   UNL     1     -10.557   9.117  69.257  1.00  0.00    -0.229 A  
BRANCH  15  18
HETATM   18  C   UNL     1     -11.708   6.228  71.478  1.00  0.00    -0.329 C  
BRANCH  18  19
HETATM   19  C   UNL     1     -10.697   5.508  72.366  1.00  0.00    -0.235 C  
HETATM   20  S   UNL     1      -9.579   4.309  71.571  1.00  0.00    -0.174 SA 
HETATM   21  C   UNL     1      -8.285   4.692  72.681  1.00  0.00    -0.107 C  
HETATM   22  N   UNL     1      -8.556   5.850  73.330  1.00  0.00    -0.119 N  
HETATM   23  O   UNL     1      -7.299   3.995  72.848  1.00  0.00    -0.067 OA 
HETATM   24  C   UNL     1      -9.787   6.416  73.165  1.00  0.00    -0.168 C  
HETATM   25  H   UNL     1      -7.856   6.289  73.927  1.00  0.00     0.000 HD 
HETATM   26  O   UNL     1     -10.121   7.471  73.691  1.00  0.00    -0.327 OA 
ENDBRANCH  18  19
ENDBRANCH  15  18
ENDBRANCH  11  12
ENDBRANCH  10  11
ENDBRANCH   9  10
ENDBRANCH   2   9
TORSDOF 7
ENDMDL
MODEL      207
REMARK 921   NORMALIZED FREE ENERGY PREDICTED BY IDOCK:   -4.24 KCAL/MOL
REMARK 922        TOTAL FREE ENERGY PREDICTED BY IDOCK:   -6.83 KCAL/MOL
REMARK 923 INTER-LIGAND FREE ENERGY PREDICTED BY IDOCK:   -6.22 KCAL/MOL
REMARK 924 INTRA-LIGAND FREE ENERGY PREDICTED BY IDOCK:   -0.61 KCAL/MOL
REMARK 927      BINDING AFFINITY PREDICTED BY RF-SCORE:    0.00 PKD
ROOT
HETATM    1  C   UNL     1     -10.231   5.318  68.693  1.00  0.00    -0.153 C  
HETATM    2  N   UNL     1     -10.712   6.694  68.559  1.00  0.00    -0.238 NA 
ENDROOT
BRANCH   2   3
HETATM    3  C   UNL     1     -11.038   7.274  69.802  1.00  0.00    -0.182 A  
HETATM    4  C   UNL     1     -12.193   7.249  71.817  1.00  0.00    -0.334 A  
HETATM    5  C   UNL     1     -11.700   8.480  72.208  1.00  0.00    -0.443 A  
HETATM    6  C   UNL     1     -10.501   8.519  70.135  1.00  0.00    -0.226 A  
HETATM    7  C   UNL     1     -10.835   9.129  71.343  1.00  0.00    -0.419 A  
HETATM    8  N   UNL     1     -11.885   6.645  70.647  1.00  0.00    -0.397 NA 
ENDBRANCH   2   3
BRANCH   2   9
HETATM    9  C   UNL     1      -9.864   7.555  67.709  1.00  0.00    -0.155 C  
BRANCH   9  10
HETATM   10  C   UNL     1     -10.620   8.073  66.477  1.00  0.00     0.208 C  
BRANCH  10  11
HETATM   11  O   UNL     1      -9.983   9.219  65.896  1.00  0.00    -0.307 OA 
BRANCH  11  12
HETATM   12  C   UNL     1     -10.142  10.391  66.599  1.00  0.00    -0.224 A  
HETATM   13  C   UNL     1      -9.397  12.493  67.550  1.00  0.00    -0.187 A  
HETATM   14  C   UNL     1      -9.163  11.371  66.754  1.00  0.00    -0.185 A  
HETATM   15  C   UNL     1     -10.625  12.666  68.199  1.00  0.00    -0.241 A  
HETATM   16  C   UNL     1     -11.629  11.708  67.998  1.00  0.00    -0.383 A  
HETATM   17  C   UNL     1     -11.390  10.578  67.206  1.00  0.00    -0.058 A  
BRANCH  15  18
HETATM   18  C   UNL     1     -10.815  13.815  69.155  1.00  0.00    -0.205 C  
BRANCH  18  19
HETATM   19  C   UNL     1     -12.095  13.856  69.983  1.00  0.00    -0.345 C  
HETATM   20  S   UNL     1     -12.518  12.376  70.958  1.00  0.00    -0.131 SA 
HETATM   21  C   UNL     1     -13.249  13.343  72.217  1.00  0.00    -0.472 C  
HETATM   22  N   UNL     1     -12.880  14.639  72.081  1.00  0.00    -0.319 N  
HETATM   23  O   UNL     1     -13.995  12.900  73.073  1.00  0.00    -0.132 OA 
HETATM   24  C   UNL     1     -12.186  15.006  70.963  1.00  0.00    -0.326 C  
HETATM   25  H   UNL     1     -13.114  15.326  72.797  1.00  0.00     0.000 HD 
HETATM   26  O   UNL     1     -11.791  16.146  70.758  1.00  0.00    -0.369 OA 
ENDBRANCH  18  19
ENDBRANCH  15  18
ENDBRANCH  11  12
ENDBRANCH  10  11
ENDBRANCH   9  10
ENDBRANCH   2   9
TORSDOF 7
ENDMDL
MODEL      208
REMARK 921   NORMALIZED FREE ENERGY PREDICTED BY IDOCK:   -4.24 KCAL/MOL
REMARK 922        TOTAL FREE ENERGY PREDICTED BY IDOCK:   -6.83 KCAL/MOL
REMARK 923 INTER-LIGAND FREE ENERGY PREDICTED BY IDOCK:   -6.28 KCAL/MOL
REMARK 924 INTRA-LIGAND FREE ENERGY PREDICTED BY IDOCK:   -0.54 KCAL/MOL
REMARK 927      BINDING AFFINITY PREDICTED BY RF-SCORE:    0.00 PKD
ROOT
HETATM    1  C   UNL     1      -9.955  20.115  66.097  1.00  0.00    -0.414 C  
HETATM    2  N   UNL     1      -9.810  18.747  66.595  1.00  0.00    -0.336 NA 
ENDROOT
BRANCH   2   3
HETATM    3  C   UNL     1      -8.476  18.434  66.930  1.00  0.00    -0.265 A  
HETATM    4  C   UNL     1      -6.515  18.874  68.095  1.00  0.00    -0.216 A  
HETATM    5  C   UNL     1      -5.837  17.820  67.512  1.00  0.00    -0.159 A  
HETATM    6  C   UNL     1      -7.853  17.352  66.305  1.00  0.00    -0.330 A  
HETATM    7  C   UNL     1      -6.524  17.044  66.595  1.00  0.00    -0.262 A  
HETATM    8  N   UNL     1      -7.802  19.192  67.823  1.00  0.00    -0.259 NA 
ENDBRANCH   2   3
BRANCH   2   9
HETATM    9  C   UNL     1     -10.785  18.372  67.640  1.00  0.00    -0.357 C  
BRANCH   9  10
HETATM   10  C   UNL     1     -10.220  17.318  68.604  1.00  0.00    -0.351 C  
BRANCH  10  11
HETATM   11  O   UNL     1     -11.067  16.165  68.698  1.00  0.00    -0.318 OA 
BRANCH  11  12
HETATM   12  C   UNL     1     -10.423  14.958  68.558  1.00  0.00    -0.242 A  
HETATM   13  C   UNL     1      -8.486  13.532  68.249  1.00  0.00    -0.168 A  
HETATM   14  C   UNL     1      -9.041  14.794  68.465  1.00  0.00    -0.187 A  
HETATM   15  C   UNL     1      -9.302  12.402  68.136  1.00  0.00    -0.209 A  
HETATM   16  C   UNL     1     -10.688  12.558  68.286  1.00  0.00    -0.246 A  
HETATM   17  C   UNL     1     -11.245  13.827  68.494  1.00  0.00    -0.304 A  
BRANCH  15  18
HETATM   18  C   UNL     1      -8.696  11.070  67.776  1.00  0.00    -0.130 C  
BRANCH  18  19
HETATM   19  C   UNL     1      -9.002  10.490  66.399  1.00  0.00    -0.159 C  
HETATM   20  S   UNL     1      -7.591  10.101  65.314  1.00  0.00    -0.144 SA 
HETATM   21  C   UNL     1      -8.435   8.743  64.608  1.00  0.00    -0.151 C  
HETATM   22  N   UNL     1      -9.504   8.412  65.371  1.00  0.00    -0.385 N  
HETATM   23  O   UNL     1      -8.105   8.199  63.568  1.00  0.00    -0.155 OA 
HETATM   24  C   UNL     1      -9.845   9.233  66.407  1.00  0.00    -0.277 C  
HETATM   25  H   UNL     1     -10.042   7.567  65.177  1.00  0.00     0.000 HD 
HETATM   26  O   UNL     1     -10.780   9.010  67.166  1.00  0.00    -0.259 OA 
ENDBRANCH  18  19
ENDBRANCH  15  18
ENDBRANCH  11  12
ENDBRANCH  10  11
ENDBRANCH   9  10
ENDBRANCH   2   9
TORSDOF 7
ENDMDL
MODEL      209
REMARK 921   NORMALIZED FREE ENERGY PREDICTED BY IDOCK:   -4.21 KCAL/MOL
REMARK 922        TOTAL FREE ENERGY PREDICTED BY IDOCK:   -6.79 KCAL/MOL
REMARK 923 INTER-LIGAND FREE ENERGY PREDICTED BY IDOCK:   -5.90 KCAL/MOL
REMARK 924 INTRA-LIGAND FREE ENERGY PREDICTED BY IDOCK:   -0.89 KCAL/MOL
REMARK 927      BINDING AFFINITY PREDICTED BY RF-SCORE:    0.00 PKD
ROOT
HETATM    1  C   UNL     1      -7.982  10.051  64.754  1.00  0.00    -0.144 C  
HETATM    2  N   UNL     1      -9.062   9.304  65.399  1.00  0.00    -0.213 NA 
ENDROOT
BRANCH   2   3
HETATM    3  C   UNL     1      -8.589   8.191  66.124  1.00  0.00    -0.139 A  
HETATM    4  C   UNL     1      -6.938   6.628  66.603  1.00  0.00    -0.067 A  
HETATM    5  C   UNL     1      -7.723   5.962  67.526  1.00  0.00    -0.097 A  
HETATM    6  C   UNL     1      -9.434   7.568  67.045  1.00  0.00    -0.206 A  
HETATM    7  C   UNL     1      -9.001   6.445  67.748  1.00  0.00    -0.113 A  
HETATM    8  N   UNL     1      -7.342   7.715  65.906  1.00  0.00    -0.072 NA 
ENDBRANCH   2   3
BRANCH   2   9
HETATM    9  C   UNL     1     -10.014  10.142  66.159  1.00  0.00    -0.246 C  
BRANCH   9  10
HETATM   10  C   UNL     1      -9.546  11.601  66.257  1.00  0.00    -0.221 C  
BRANCH  10  11
HETATM   11  O   UNL     1      -9.086  11.931  67.576  1.00  0.00    -0.169 OA 
BRANCH  11  12
HETATM   12  C   UNL     1      -9.648  11.190  68.588  1.00  0.00    -0.196 A  
HETATM   13  C   UNL     1     -11.425  10.549  70.108  1.00  0.00    -0.405 A  
HETATM   14  C   UNL     1     -10.969  11.294  69.020  1.00  0.00    -0.288 A  
HETATM   15  C   UNL     1     -10.569   9.669  70.781  1.00  0.00    -0.392 A  
HETATM   16  C   UNL     1      -9.256   9.522  70.313  1.00  0.00    -0.303 A  
HETATM   17  C   UNL     1      -8.797  10.278  69.226  1.00  0.00    -0.186 A  
BRANCH  15  18
HETATM   18  C   UNL     1     -11.041   8.971  72.030  1.00  0.00    -0.371 C  
BRANCH  18  19
HETATM   19  C   UNL     1     -10.722   7.487  72.187  1.00  0.00    -0.234 C  
HETATM   20  S   UNL     1     -10.120   6.919  73.810  1.00  0.00    -0.361 SA 
HETATM   21  C   UNL     1     -10.908   5.370  73.625  1.00  0.00    -0.272 C  
HETATM   22  N   UNL     1     -11.817   5.428  72.622  1.00  0.00    -0.337 N  
HETATM   23  O   UNL     1     -10.649   4.387  74.297  1.00  0.00    -0.247 OA 
HETATM   24  C   UNL     1     -11.860   6.549  71.844  1.00  0.00    -0.334 C  
HETATM   25  H   UNL     1     -12.456   4.651  72.452  1.00  0.00     0.000 HD 
HETATM   26  O   UNL     1     -12.657   6.705  70.929  1.00  0.00    -0.285 OA 
ENDBRANCH  18  19
ENDBRANCH  15  18
ENDBRANCH  11  12
ENDBRANCH  10  11
ENDBRANCH   9  10
ENDBRANCH   2   9
TORSDOF 7
ENDMDL
MODEL      210
REMARK 921   NORMALIZED FREE ENERGY PREDICTED BY IDOCK:   -4.21 KCAL/MOL
REMARK 922        TOTAL FREE ENERGY PREDICTED BY IDOCK:   -6.78 KCAL/MOL
REMARK 923 INTER-LIGAND FREE ENERGY PREDICTED BY IDOCK:   -6.38 KCAL/MOL
REMARK 924 INTRA-LIGAND FREE ENERGY PREDICTED BY IDOCK:   -0.41 KCAL/MOL
REMARK 927      BINDING AFFINITY PREDICTED BY RF-SCORE:    0.00 PKD
ROOT
HETATM    1  C   UNL     1     -11.439   4.938  73.162  1.00  0.00    -0.278 C  
HETATM    2  N   UNL     1     -10.158   5.224  72.516  1.00  0.00    -0.176 NA 
ENDROOT
BRANCH   2   3
HETATM    3  C   UNL     1      -9.839   4.284  71.513  1.00  0.00    -0.189 A  
HETATM    4  C   UNL     1      -9.467   3.732  69.288  1.00  0.00    -0.182 A  
HETATM    5  C   UNL     1      -9.271   2.392  69.569  1.00  0.00    -0.189 A  
HETATM    6  C   UNL     1      -9.650   2.947  71.868  1.00  0.00    -0.215 A  
HETATM    7  C   UNL     1      -9.368   1.993  70.891  1.00  0.00    -0.198 A  
HETATM    8  N   UNL     1      -9.748   4.670  70.221  1.00  0.00    -0.206 NA 
ENDBRANCH   2   3
BRANCH   2   9
HETATM    9  C   UNL     1      -9.993   6.627  72.083  1.00  0.00    -0.160 C  
BRANCH   9  10
HETATM   10  C   UNL     1     -11.314   7.408  72.145  1.00  0.00    -0.271 C  
BRANCH  10  11
HETATM   11  O   UNL     1     -11.100   8.812  72.346  1.00  0.00    -0.327 OA 
BRANCH  11  12
HETATM   12  C   UNL     1     -11.057   9.563  71.195  1.00  0.00    -0.379 A  
HETATM   13  C   UNL     1     -12.019  10.896  69.412  1.00  0.00    -0.393 A  
HETATM   14  C   UNL     1     -12.148  10.219  70.626  1.00  0.00    -0.433 A  
HETATM   15  C   UNL     1     -10.789  10.944  68.747  1.00  0.00    -0.251 A  
HETATM   16  C   UNL     1      -9.679  10.333  69.347  1.00  0.00    -0.242 A  
HETATM   17  C   UNL     1      -9.812   9.646  70.561  1.00  0.00    -0.294 A  
BRANCH  15  18
HETATM   18  C   UNL     1     -10.698  11.568  67.379  1.00  0.00    -0.275 C  
BRANCH  18  19
HETATM   19  C   UNL     1     -10.591  13.087  67.288  1.00  0.00    -0.242 C  
HETATM   20  S   UNL     1     -12.006  14.070  67.881  1.00  0.00    -0.296 SA 
HETATM   21  C   UNL     1     -10.957  15.358  68.426  1.00  0.00    -0.284 C  
HETATM   22  N   UNL     1      -9.676  14.920  68.484  1.00  0.00    -0.208 N  
HETATM   23  O   UNL     1     -11.338  16.484  68.692  1.00  0.00    -0.344 OA 
HETATM   24  C   UNL     1      -9.385  13.686  67.979  1.00  0.00    -0.208 C  
HETATM   25  H   UNL     1      -8.945  15.500  68.896  1.00  0.00     0.000 HD 
HETATM   26  O   UNL     1      -8.264  13.194  68.004  1.00  0.00    -0.137 OA 
ENDBRANCH  18  19
ENDBRANCH  15  18
ENDBRANCH  11  12
ENDBRANCH  10  11
ENDBRANCH   9  10
ENDBRANCH   2   9
TORSDOF 7
ENDMDL
MODEL      211
REMARK 921   NORMALIZED FREE ENERGY PREDICTED BY IDOCK:   -4.19 KCAL/MOL
REMARK 922        TOTAL FREE ENERGY PREDICTED BY IDOCK:   -6.77 KCAL/MOL
REMARK 923 INTER-LIGAND FREE ENERGY PREDICTED BY IDOCK:   -5.98 KCAL/MOL
REMARK 924 INTRA-LIGAND FREE ENERGY PREDICTED BY IDOCK:   -0.79 KCAL/MOL
REMARK 927      BINDING AFFINITY PREDICTED BY RF-SCORE:    0.00 PKD
ROOT
HETATM    1  C   UNL     1     -11.985  15.001  64.614  1.00  0.00    -0.358 C  
HETATM    2  N   UNL     1     -11.463  14.178  65.706  1.00  0.00    -0.321 NA 
ENDROOT
BRANCH   2   3
HETATM    3  C   UNL     1     -11.388  14.884  66.925  1.00  0.00    -0.337 A  
HETATM    4  C   UNL     1     -10.773  16.754  68.157  1.00  0.00    -0.361 A  
HETATM    5  C   UNL     1     -11.203  16.209  69.352  1.00  0.00    -0.335 A  
HETATM    6  C   UNL     1     -11.845  14.274  68.094  1.00  0.00    -0.374 A  
HETATM    7  C   UNL     1     -11.750  14.938  69.317  1.00  0.00    -0.344 A  
HETATM    8  N   UNL     1     -10.851  16.124  66.963  1.00  0.00    -0.252 NA 
ENDBRANCH   2   3
BRANCH   2   9
HETATM    9  C   UNL     1     -12.103  12.852  65.829  1.00  0.00    -0.457 C  
BRANCH   9  10
HETATM   10  C   UNL     1     -11.587  11.862  64.775  1.00  0.00    -0.236 C  
BRANCH  10  11
HETATM   11  O   UNL     1     -10.174  11.988  64.565  1.00  0.00    -0.269 OA 
BRANCH  11  12
HETATM   12  C   UNL     1      -9.406  11.041  65.202  1.00  0.00    -0.220 A  
HETATM   13  C   UNL     1      -8.588   8.795  65.608  1.00  0.00    -0.195 A  
HETATM   14  C   UNL     1      -9.341   9.694  64.850  1.00  0.00    -0.306 A  
HETATM   15  C   UNL     1      -7.869   9.230  66.727  1.00  0.00    -0.104 A  
HETATM   16  C   UNL     1      -7.889  10.594  67.047  1.00  0.00    -0.117 A  
HETATM   17  C   UNL     1      -8.653  11.494  66.292  1.00  0.00    -0.133 A  
BRANCH  15  18
HETATM   18  C   UNL     1      -7.167   8.226  67.605  1.00  0.00    -0.088 C  
BRANCH  18  19
HETATM   19  C   UNL     1      -7.771   7.922  68.973  1.00  0.00    -0.101 C  
HETATM   20  S   UNL     1      -7.829   9.277  70.190  1.00  0.00    -0.144 SA 
HETATM   21  C   UNL     1      -9.321   8.675  70.873  1.00  0.00    -0.189 C  
HETATM   22  N   UNL     1      -9.888   7.776  70.034  1.00  0.00    -0.180 N  
HETATM   23  O   UNL     1      -9.761   9.014  71.958  1.00  0.00    -0.290 OA 
HETATM   24  C   UNL     1      -9.179   7.368  68.941  1.00  0.00    -0.142 C  
HETATM   25  H   UNL     1     -10.823   7.412  70.214  1.00  0.00     0.000 HD 
HETATM   26  O   UNL     1      -9.611   6.575  68.113  1.00  0.00    -0.125 OA 
ENDBRANCH  18  19
ENDBRANCH  15  18
ENDBRANCH  11  12
ENDBRANCH  10  11
ENDBRANCH   9  10
ENDBRANCH   2   9
TORSDOF 7
ENDMDL
MODEL      212
REMARK 921   NORMALIZED FREE ENERGY PREDICTED BY IDOCK:   -4.19 KCAL/MOL
REMARK 922        TOTAL FREE ENERGY PREDICTED BY IDOCK:   -6.76 KCAL/MOL
REMARK 923 INTER-LIGAND FREE ENERGY PREDICTED BY IDOCK:   -5.70 KCAL/MOL
REMARK 924 INTRA-LIGAND FREE ENERGY PREDICTED BY IDOCK:   -1.06 KCAL/MOL
REMARK 927      BINDING AFFINITY PREDICTED BY RF-SCORE:    0.00 PKD
ROOT
HETATM    1  C   UNL     1     -10.640  16.521  66.420  1.00  0.00    -0.221 C  
HETATM    2  N   UNL     1     -10.226  16.685  67.814  1.00  0.00    -0.282 NA 
ENDROOT
BRANCH   2   3
HETATM    3  C   UNL     1     -10.941  15.843  68.691  1.00  0.00    -0.320 A  
HETATM    4  C   UNL     1     -11.705  15.300  70.816  1.00  0.00    -0.337 A  
HETATM    5  C   UNL     1     -12.303  14.129  70.390  1.00  0.00    -0.428 A  
HETATM    6  C   UNL     1     -11.524  14.677  68.192  1.00  0.00    -0.346 A  
HETATM    7  C   UNL     1     -12.207  13.811  69.046  1.00  0.00    -0.259 A  
HETATM    8  N   UNL     1     -11.034  16.149  70.005  1.00  0.00    -0.350 NA 
ENDBRANCH   2   3
BRANCH   2   9
HETATM    9  C   UNL     1      -8.763  16.650  68.024  1.00  0.00    -0.194 C  
BRANCH   9  10
HETATM   10  C   UNL     1      -8.252  15.224  68.277  1.00  0.00    -0.142 C  
BRANCH  10  11
HETATM   11  O   UNL     1      -8.132  14.471  67.062  1.00  0.00    -0.191 OA 
BRANCH  11  12
HETATM   12  C   UNL     1      -8.689  13.215  67.100  1.00  0.00    -0.213 A  
HETATM   13  C   UNL     1      -9.921  11.336  66.187  1.00  0.00    -0.268 A  
HETATM   14  C   UNL     1      -9.318  12.584  66.027  1.00  0.00    -0.091 A  
HETATM   15  C   UNL     1      -9.894  10.683  67.424  1.00  0.00    -0.198 A  
HETATM   16  C   UNL     1      -9.214  11.290  68.489  1.00  0.00    -0.181 A  
HETATM   17  C   UNL     1      -8.617  12.548  68.329  1.00  0.00    -0.173 A  
BRANCH  15  18
HETATM   18  C   UNL     1     -10.659   9.397  67.612  1.00  0.00    -0.333 C  
BRANCH  18  19
HETATM   19  C   UNL     1      -9.902   8.183  68.141  1.00  0.00    -0.168 C  
HETATM   20  S   UNL     1     -10.740   7.138  69.376  1.00  0.00    -0.211 SA 
HETATM   21  C   UNL     1      -9.963   5.695  68.767  1.00  0.00    -0.167 C  
HETATM   22  N   UNL     1      -9.428   5.935  67.546  1.00  0.00    -0.110 N  
HETATM   23  O   UNL     1      -9.905   4.642  69.377  1.00  0.00    -0.192 OA 
HETATM   24  C   UNL     1      -9.419   7.218  67.079  1.00  0.00    -0.156 C  
HETATM   25  H   UNL     1      -9.041   5.175  66.988  1.00  0.00     0.000 HD 
HETATM   26  O   UNL     1      -8.978   7.533  65.981  1.00  0.00    -0.167 OA 
ENDBRANCH  18  19
ENDBRANCH  15  18
ENDBRANCH  11  12
ENDBRANCH  10  11
ENDBRANCH   9  10
ENDBRANCH   2   9
TORSDOF 7
ENDMDL
MODEL      213
REMARK 921   NORMALIZED FREE ENERGY PREDICTED BY IDOCK:   -4.19 KCAL/MOL
REMARK 922        TOTAL FREE ENERGY PREDICTED BY IDOCK:   -6.76 KCAL/MOL
REMARK 923 INTER-LIGAND FREE ENERGY PREDICTED BY IDOCK:   -6.20 KCAL/MOL
REMARK 924 INTRA-LIGAND FREE ENERGY PREDICTED BY IDOCK:   -0.56 KCAL/MOL
REMARK 927      BINDING AFFINITY PREDICTED BY RF-SCORE:    0.00 PKD
ROOT
HETATM    1  C   UNL     1     -11.649  12.361  68.474  1.00  0.00    -0.313 C  
HETATM    2  N   UNL     1     -10.773  11.950  67.376  1.00  0.00    -0.224 NA 
ENDROOT
BRANCH   2   3
HETATM    3  C   UNL     1     -11.209  12.440  66.127  1.00  0.00    -0.322 A  
HETATM    4  C   UNL     1     -12.609  13.776  64.844  1.00  0.00    -0.341 A  
HETATM    5  C   UNL     1     -12.076  13.328  63.650  1.00  0.00    -0.551 A  
HETATM    6  C   UNL     1     -10.624  11.945  64.960  1.00  0.00    -0.335 A  
HETATM    7  C   UNL     1     -11.061  12.389  63.712  1.00  0.00    -0.506 A  
HETATM    8  N   UNL     1     -12.203  13.354  66.063  1.00  0.00    -0.436 NA 
ENDBRANCH   2   3
BRANCH   2   9
HETATM    9  C   UNL     1      -9.334  12.172  67.628  1.00  0.00    -0.187 C  
BRANCH   9  10
HETATM   10  C   UNL     1      -8.582  10.855  67.870  1.00  0.00    -0.130 C  
BRANCH  10  11
HETATM   11  O   UNL     1      -8.289  10.650  69.260  1.00  0.00    -0.152 OA 
BRANCH  11  12
HETATM   12  C   UNL     1      -8.920   9.571  69.832  1.00  0.00    -0.212 A  
HETATM   13  C   UNL     1     -10.697   7.935  70.053  1.00  0.00    -0.244 A  
HETATM   14  C   UNL     1     -10.091   8.982  69.356  1.00  0.00    -0.198 A  
HETATM   15  C   UNL     1     -10.135   7.443  71.235  1.00  0.00    -0.195 A  
HETATM   16  C   UNL     1      -8.927   7.997  71.684  1.00  0.00    -0.192 A  
HETATM   17  C   UNL     1      -8.325   9.054  70.990  1.00  0.00    -0.237 A  
BRANCH  15  18
HETATM   18  C   UNL     1     -10.869   6.402  72.040  1.00  0.00    -0.277 C  
BRANCH  18  19
HETATM   19  C   UNL     1     -10.124   5.122  72.408  1.00  0.00    -0.185 C  
HETATM   20  S   UNL     1     -10.941   3.970  73.559  1.00  0.00    -0.261 SA 
HETATM   21  C   UNL     1     -10.225   2.584  72.772  1.00  0.00    -0.155 C  
HETATM   22  N   UNL     1      -9.730   2.940  71.562  1.00  0.00    -0.155 N  
HETATM   23  O   UNL     1     -10.170   1.471  73.265  1.00  0.00    -0.088 OA 
HETATM   24  C   UNL     1      -9.706   4.265  71.232  1.00  0.00    -0.185 C  
HETATM   25  H   UNL     1      -9.383   2.235  70.912  1.00  0.00     0.000 HD 
HETATM   26  O   UNL     1      -9.299   4.685  70.156  1.00  0.00    -0.118 OA 
ENDBRANCH  18  19
ENDBRANCH  15  18
ENDBRANCH  11  12
ENDBRANCH  10  11
ENDBRANCH   9  10
ENDBRANCH   2   9
TORSDOF 7
ENDMDL
MODEL      214
REMARK 921   NORMALIZED FREE ENERGY PREDICTED BY IDOCK:   -4.17 KCAL/MOL
REMARK 922        TOTAL FREE ENERGY PREDICTED BY IDOCK:   -6.74 KCAL/MOL
REMARK 923 INTER-LIGAND FREE ENERGY PREDICTED BY IDOCK:   -6.34 KCAL/MOL
REMARK 924 INTRA-LIGAND FREE ENERGY PREDICTED BY IDOCK:   -0.39 KCAL/MOL
REMARK 927      BINDING AFFINITY PREDICTED BY RF-SCORE:    0.00 PKD
ROOT
HETATM    1  C   UNL     1     -12.100  15.419  70.042  1.00  0.00    -0.359 C  
HETATM    2  N   UNL     1     -11.725  15.000  68.690  1.00  0.00    -0.341 NA 
ENDROOT
BRANCH   2   3
HETATM    3  C   UNL     1     -11.056  16.017  67.977  1.00  0.00    -0.334 A  
HETATM    4  C   UNL     1      -9.910  16.768  66.102  1.00  0.00    -0.309 A  
HETATM    5  C   UNL     1      -9.692  18.024  66.638  1.00  0.00    -0.332 A  
HETATM    6  C   UNL     1     -10.874  17.264  68.578  1.00  0.00    -0.240 A  
HETATM    7  C   UNL     1     -10.186  18.274  67.907  1.00  0.00    -0.400 A  
HETATM    8  N   UNL     1     -10.570  15.774  66.739  1.00  0.00    -0.310 NA 
ENDBRANCH   2   3
BRANCH   2   9
HETATM    9  C   UNL     1     -11.048  13.689  68.624  1.00  0.00    -0.272 C  
BRANCH   9  10
HETATM   10  C   UNL     1     -11.904  12.634  67.909  1.00  0.00    -0.332 C  
BRANCH  10  11
HETATM   11  O   UNL     1     -12.087  11.456  68.708  1.00  0.00    -0.480 OA 
BRANCH  11  12
HETATM   12  C   UNL     1     -11.118  10.493  68.550  1.00  0.00    -0.275 A  
HETATM   13  C   UNL     1      -9.947   8.738  67.354  1.00  0.00    -0.267 A  
HETATM   14  C   UNL     1     -10.909   9.749  67.390  1.00  0.00    -0.265 A  
HETATM   15  C   UNL     1      -9.160   8.460  68.477  1.00  0.00    -0.136 A  
HETATM   16  C   UNL     1      -9.331   9.245  69.626  1.00  0.00    -0.187 A  
HETATM   17  C   UNL     1     -10.304  10.253  69.664  1.00  0.00    -0.281 A  
BRANCH  15  18
HETATM   18  C   UNL     1      -8.218   7.285  68.462  1.00  0.00    -0.125 C  
BRANCH  18  19
HETATM   19  C   UNL     1      -8.384   6.217  69.538  1.00  0.00    -0.120 C  
HETATM   20  S   UNL     1      -7.651   6.545  71.173  1.00  0.00    -0.091 SA 
HETATM   21  C   UNL     1      -8.930   5.673  71.986  1.00  0.00    -0.138 C  
HETATM   22  N   UNL     1      -9.972   5.483  71.141  1.00  0.00    -0.187 N  
HETATM   23  O   UNL     1      -8.866   5.284  73.139  1.00  0.00    -0.120 OA 
HETATM   24  C   UNL     1      -9.816   5.818  69.827  1.00  0.00    -0.178 C  
HETATM   25  H   UNL     1     -10.853   5.098  71.480  1.00  0.00     0.000 HD 
HETATM   26  O   UNL     1     -10.703   5.703  68.991  1.00  0.00    -0.267 OA 
ENDBRANCH  18  19
ENDBRANCH  15  18
ENDBRANCH  11  12
ENDBRANCH  10  11
ENDBRANCH   9  10
ENDBRANCH   2   9
TORSDOF 7
ENDMDL
MODEL      215
REMARK 921   NORMALIZED FREE ENERGY PREDICTED BY IDOCK:   -4.17 KCAL/MOL
REMARK 922        TOTAL FREE ENERGY PREDICTED BY IDOCK:   -6.73 KCAL/MOL
REMARK 923 INTER-LIGAND FREE ENERGY PREDICTED BY IDOCK:   -6.44 KCAL/MOL
REMARK 924 INTRA-LIGAND FREE ENERGY PREDICTED BY IDOCK:   -0.29 KCAL/MOL
REMARK 927      BINDING AFFINITY PREDICTED BY RF-SCORE:    0.00 PKD
ROOT
HETATM    1  C   UNL     1      -9.705  10.963  63.158  1.00  0.00    -0.363 C  
HETATM    2  N   UNL     1      -9.638  10.010  64.267  1.00  0.00    -0.285 NA 
ENDROOT
BRANCH   2   3
HETATM    3  C   UNL     1      -8.326   9.547  64.500  1.00  0.00    -0.164 A  
HETATM    4  C   UNL     1      -6.324   9.617  65.675  1.00  0.00    -0.069 A  
HETATM    5  C   UNL     1      -5.732   8.651  64.884  1.00  0.00    -0.048 A  
HETATM    6  C   UNL     1      -7.791   8.566  63.663  1.00  0.00    -0.151 A  
HETATM    7  C   UNL     1      -6.485   8.117  63.853  1.00  0.00    -0.067 A  
HETATM    8  N   UNL     1      -7.587  10.070  65.504  1.00  0.00    -0.130 NA 
ENDBRANCH   2   3
BRANCH   2   9
HETATM    9  C   UNL     1     -10.335  10.451  65.493  1.00  0.00    -0.195 C  
BRANCH   9  10
HETATM   10  C   UNL     1     -10.417  11.981  65.591  1.00  0.00    -0.256 C  
BRANCH  10  11
HETATM   11  O   UNL     1      -9.977  12.463  66.868  1.00  0.00    -0.210 OA 
BRANCH  11  12
HETATM   12  C   UNL     1     -10.426  11.740  67.948  1.00  0.00    -0.196 A  
HETATM   13  C   UNL     1     -12.005  11.168  69.697  1.00  0.00    -0.429 A  
HETATM   14  C   UNL     1     -11.670  11.900  68.557  1.00  0.00    -0.388 A  
HETATM   15  C   UNL     1     -11.106  10.246  70.245  1.00  0.00    -0.388 A  
HETATM   16  C   UNL     1      -9.878  10.044  69.600  1.00  0.00    -0.261 A  
HETATM   17  C   UNL     1      -9.539  10.786  68.461  1.00  0.00    -0.183 A  
BRANCH  15  18
HETATM   18  C   UNL     1     -11.433   9.560  71.546  1.00  0.00    -0.466 C  
BRANCH  18  19
HETATM   19  C   UNL     1     -11.223   8.051  71.635  1.00  0.00    -0.255 C  
HETATM   20  S   UNL     1     -10.141   7.427  72.961  1.00  0.00    -0.306 SA 
HETATM   21  C   UNL     1     -11.088   5.966  73.123  1.00  0.00    -0.221 C  
HETATM   22  N   UNL     1     -12.284   6.116  72.504  1.00  0.00    -0.546 N  
HETATM   23  O   UNL     1     -10.702   4.962  73.697  1.00  0.00    -0.238 OA 
HETATM   24  C   UNL     1     -12.492   7.235  71.751  1.00  0.00    -0.343 C  
HETATM   25  H   UNL     1     -13.012   5.409  72.600  1.00  0.00     0.000 HD 
HETATM   26  O   UNL     1     -13.544   7.471  71.170  1.00  0.00    -0.277 OA 
ENDBRANCH  18  19
ENDBRANCH  15  18
ENDBRANCH  11  12
ENDBRANCH  10  11
ENDBRANCH   9  10
ENDBRANCH   2   9
TORSDOF 7
ENDMDL
MODEL      216
REMARK 921   NORMALIZED FREE ENERGY PREDICTED BY IDOCK:   -4.17 KCAL/MOL
REMARK 922        TOTAL FREE ENERGY PREDICTED BY IDOCK:   -6.73 KCAL/MOL
REMARK 923 INTER-LIGAND FREE ENERGY PREDICTED BY IDOCK:   -5.84 KCAL/MOL
REMARK 924 INTRA-LIGAND FREE ENERGY PREDICTED BY IDOCK:   -0.88 KCAL/MOL
REMARK 927      BINDING AFFINITY PREDICTED BY RF-SCORE:    0.00 PKD
ROOT
HETATM    1  C   UNL     1      -7.890  15.762  68.630  1.00  0.00    -0.156 C  
HETATM    2  N   UNL     1      -8.789  14.609  68.690  1.00  0.00    -0.181 NA 
ENDROOT
BRANCH   2   3
HETATM    3  C   UNL     1     -10.040  14.930  69.256  1.00  0.00    -0.195 A  
HETATM    4  C   UNL     1     -11.360  16.201  70.683  1.00  0.00    -0.370 A  
HETATM    5  C   UNL     1     -12.507  15.486  70.391  1.00  0.00    -0.443 A  
HETATM    6  C   UNL     1     -11.159  14.168  68.914  1.00  0.00    -0.288 A  
HETATM    7  C   UNL     1     -12.400  14.444  69.486  1.00  0.00    -0.263 A  
HETATM    8  N   UNL     1     -10.147  15.945  70.142  1.00  0.00    -0.134 NA 
ENDBRANCH   2   3
BRANCH   2   9
HETATM    9  C   UNL     1      -8.890  13.849  67.427  1.00  0.00    -0.207 C  
BRANCH   9  10
HETATM   10  C   UNL     1      -7.783  12.792  67.299  1.00  0.00    -0.127 C  
BRANCH  10  11
HETATM   11  O   UNL     1      -7.318  12.342  68.579  1.00  0.00    -0.096 OA 
BRANCH  11  12
HETATM   12  C   UNL     1      -7.665  11.051  68.901  1.00  0.00    -0.140 A  
HETATM   13  C   UNL     1      -8.858   8.962  68.594  1.00  0.00    -0.137 A  
HETATM   14  C   UNL     1      -8.505  10.235  68.144  1.00  0.00    -0.123 A  
HETATM   15  C   UNL     1      -8.365   8.470  69.807  1.00  0.00    -0.124 A  
HETATM   16  C   UNL     1      -7.475   9.268  70.541  1.00  0.00    -0.136 A  
HETATM   17  C   UNL     1      -7.129  10.549  70.093  1.00  0.00    -0.078 A  
BRANCH  15  18
HETATM   18  C   UNL     1      -8.856   7.148  70.338  1.00  0.00    -0.151 C  
BRANCH  18  19
HETATM   19  C   UNL     1     -10.154   7.134  71.141  1.00  0.00    -0.187 C  
HETATM   20  S   UNL     1     -10.485   8.553  72.235  1.00  0.00    -0.298 SA 
HETATM   21  C   UNL     1     -12.207   8.434  71.963  1.00  0.00    -0.362 C  
HETATM   22  N   UNL     1     -12.455   7.651  70.885  1.00  0.00    -0.527 N  
HETATM   23  O   UNL     1     -13.048   8.969  72.664  1.00  0.00    -0.426 OA 
HETATM   24  C   UNL     1     -11.413   6.977  70.317  1.00  0.00    -0.287 C  
HETATM   25  H   UNL     1     -13.398   7.568  70.508  1.00  0.00     0.000 HD 
HETATM   26  O   UNL     1     -11.531   6.262  69.330  1.00  0.00    -0.411 OA 
ENDBRANCH  18  19
ENDBRANCH  15  18
ENDBRANCH  11  12
ENDBRANCH  10  11
ENDBRANCH   9  10
ENDBRANCH   2   9
TORSDOF 7
ENDMDL
MODEL      217
REMARK 921   NORMALIZED FREE ENERGY PREDICTED BY IDOCK:   -4.16 KCAL/MOL
REMARK 922        TOTAL FREE ENERGY PREDICTED BY IDOCK:   -6.72 KCAL/MOL
REMARK 923 INTER-LIGAND FREE ENERGY PREDICTED BY IDOCK:   -5.22 KCAL/MOL
REMARK 924 INTRA-LIGAND FREE ENERGY PREDICTED BY IDOCK:   -1.50 KCAL/MOL
REMARK 927      BINDING AFFINITY PREDICTED BY RF-SCORE:    0.00 PKD
ROOT
HETATM    1  C   UNL     1      -8.223   4.098  64.338  1.00  0.00    -0.096 C  
HETATM    2  N   UNL     1      -8.082   4.108  65.795  1.00  0.00    -0.101 NA 
ENDROOT
BRANCH   2   3
HETATM    3  C   UNL     1      -8.022   5.416  66.320  1.00  0.00    -0.105 A  
HETATM    4  C   UNL     1      -7.041   7.013  67.692  1.00  0.00    -0.085 A  
HETATM    5  C   UNL     1      -7.980   7.978  67.377  1.00  0.00    -0.122 A  
HETATM    6  C   UNL     1      -9.002   6.342  65.956  1.00  0.00    -0.150 A  
HETATM    7  C   UNL     1      -8.984   7.630  66.489  1.00  0.00    -0.187 A  
HETATM    8  N   UNL     1      -7.045   5.757  67.190  1.00  0.00    -0.069 NA 
ENDBRANCH   2   3
BRANCH   2   9
HETATM    9  C   UNL     1      -9.032   3.229  66.506  1.00  0.00    -0.153 C  
BRANCH   9  10
HETATM   10  C   UNL     1      -8.480   2.759  67.859  1.00  0.00    -0.085 C  
BRANCH  10  11
HETATM   11  O   UNL     1      -9.436   2.922  68.917  1.00  0.00    -0.172 OA 
BRANCH  11  12
HETATM   12  C   UNL     1      -9.428   4.158  69.520  1.00  0.00    -0.184 A  
HETATM   13  C   UNL     1     -10.184   6.437  69.854  1.00  0.00    -0.224 A  
HETATM   14  C   UNL     1     -10.321   5.191  69.241  1.00  0.00    -0.248 A  
HETATM   15  C   UNL     1      -9.157   6.673  70.774  1.00  0.00    -0.151 A  
HETATM   16  C   UNL     1      -8.292   5.617  71.097  1.00  0.00    -0.122 A  
HETATM   17  C   UNL     1      -8.425   4.369  70.474  1.00  0.00    -0.098 A  
BRANCH  15  18
HETATM   18  C   UNL     1      -8.947   8.058  71.328  1.00  0.00    -0.166 C  
BRANCH  18  19
HETATM   19  C   UNL     1     -10.132   8.753  71.991  1.00  0.00    -0.327 C  
HETATM   20  S   UNL     1     -11.261   9.702  70.921  1.00  0.00    -0.379 SA 
HETATM   21  C   UNL     1     -12.637   9.305  71.923  1.00  0.00    -0.390 C  
HETATM   22  N   UNL     1     -12.329   8.276  72.749  1.00  0.00    -0.594 N  
HETATM   23  O   UNL     1     -13.704   9.893  71.883  1.00  0.00    -0.313 OA 
HETATM   24  C   UNL     1     -11.034   7.847  72.801  1.00  0.00    -0.393 C  
HETATM   25  H   UNL     1     -13.048   7.832  73.319  1.00  0.00     0.000 HD 
HETATM   26  O   UNL     1     -10.660   6.913  73.498  1.00  0.00    -0.309 OA 
ENDBRANCH  18  19
ENDBRANCH  15  18
ENDBRANCH  11  12
ENDBRANCH  10  11
ENDBRANCH   9  10
ENDBRANCH   2   9
TORSDOF 7
ENDMDL
MODEL      218
REMARK 921   NORMALIZED FREE ENERGY PREDICTED BY IDOCK:   -4.16 KCAL/MOL
REMARK 922        TOTAL FREE ENERGY PREDICTED BY IDOCK:   -6.71 KCAL/MOL
REMARK 923 INTER-LIGAND FREE ENERGY PREDICTED BY IDOCK:   -6.31 KCAL/MOL
REMARK 924 INTRA-LIGAND FREE ENERGY PREDICTED BY IDOCK:   -0.40 KCAL/MOL
REMARK 927      BINDING AFFINITY PREDICTED BY RF-SCORE:    0.00 PKD
ROOT
HETATM    1  C   UNL     1      -9.181   4.264  68.128  1.00  0.00    -0.142 C  
HETATM    2  N   UNL     1      -9.456   4.904  66.841  1.00  0.00    -0.138 NA 
ENDROOT
BRANCH   2   3
HETATM    3  C   UNL     1      -9.646   3.968  65.803  1.00  0.00    -0.191 A  
HETATM    4  C   UNL     1      -9.189   1.924  64.800  1.00  0.00    -0.124 A  
HETATM    5  C   UNL     1     -10.002   2.184  63.712  1.00  0.00    -0.135 A  
HETATM    6  C   UNL     1     -10.485   4.295  64.736  1.00  0.00    -0.158 A  
HETATM    7  C   UNL     1     -10.662   3.400  63.682  1.00  0.00    -0.257 A  
HETATM    8  N   UNL     1      -9.000   2.781  65.829  1.00  0.00    -0.141 NA 
ENDBRANCH   2   3
BRANCH   2   9
HETATM    9  C   UNL     1     -10.497   5.950  66.891  1.00  0.00    -0.286 C  
BRANCH   9  10
HETATM   10  C   UNL     1      -9.925   7.348  66.610  1.00  0.00    -0.191 C  
BRANCH  10  11
HETATM   11  O   UNL     1     -10.186   8.262  67.684  1.00  0.00    -0.200 OA 
BRANCH  11  12
HETATM   12  C   UNL     1     -10.519   9.537  67.292  1.00  0.00    -0.262 A  
HETATM   13  C   UNL     1     -10.470  11.458  65.813  1.00  0.00    -0.314 A  
HETATM   14  C   UNL     1     -10.144  10.129  66.087  1.00  0.00    -0.314 A  
HETATM   15  C   UNL     1     -11.193  12.221  66.735  1.00  0.00    -0.371 A  
HETATM   16  C   UNL     1     -11.620  11.610  67.923  1.00  0.00    -0.369 A  
HETATM   17  C   UNL     1     -11.284  10.279  68.201  1.00  0.00    -0.294 A  
BRANCH  15  18
HETATM   18  C   UNL     1     -11.425  13.688  66.479  1.00  0.00    -0.357 C  
BRANCH  18  19
HETATM   19  C   UNL     1     -10.372  14.678  66.970  1.00  0.00    -0.263 C  
HETATM   20  S   UNL     1      -8.928  14.005  67.853  1.00  0.00    -0.198 SA 
HETATM   21  C   UNL     1      -7.883  15.252  67.212  1.00  0.00    -0.209 C  
HETATM   22  N   UNL     1      -8.485  15.871  66.168  1.00  0.00    -0.337 N  
HETATM   23  O   UNL     1      -6.785  15.523  67.666  1.00  0.00    -0.149 OA 
HETATM   24  C   UNL     1      -9.790  15.575  65.899  1.00  0.00    -0.353 C  
HETATM   25  H   UNL     1      -7.974  16.543  65.596  1.00  0.00     0.000 HD 
HETATM   26  O   UNL     1     -10.415  16.065  64.967  1.00  0.00    -0.558 OA 
ENDBRANCH  18  19
ENDBRANCH  15  18
ENDBRANCH  11  12
ENDBRANCH  10  11
ENDBRANCH   9  10
ENDBRANCH   2   9
TORSDOF 7
ENDMDL
MODEL      219
REMARK 921   NORMALIZED FREE ENERGY PREDICTED BY IDOCK:   -4.14 KCAL/MOL
REMARK 922        TOTAL FREE ENERGY PREDICTED BY IDOCK:   -6.68 KCAL/MOL
REMARK 923 INTER-LIGAND FREE ENERGY PREDICTED BY IDOCK:   -6.07 KCAL/MOL
REMARK 924 INTRA-LIGAND FREE ENERGY PREDICTED BY IDOCK:   -0.61 KCAL/MOL
REMARK 927      BINDING AFFINITY PREDICTED BY RF-SCORE:    0.00 PKD
ROOT
HETATM    1  C   UNL     1     -12.032  13.236  67.021  1.00  0.00    -0.365 C  
HETATM    2  N   UNL     1     -11.179  14.259  67.627  1.00  0.00    -0.292 NA 
ENDROOT
BRANCH   2   3
HETATM    3  C   UNL     1     -11.521  14.520  68.970  1.00  0.00    -0.290 A  
HETATM    4  C   UNL     1     -12.536  13.902  70.966  1.00  0.00    -0.377 A  
HETATM    5  C   UNL     1     -12.229  15.099  71.586  1.00  0.00    -0.412 A  
HETATM    6  C   UNL     1     -11.178  15.749  69.535  1.00  0.00    -0.317 A  
HETATM    7  C   UNL     1     -11.535  16.044  70.849  1.00  0.00    -0.451 A  
HETATM    8  N   UNL     1     -12.202  13.601  69.690  1.00  0.00    -0.302 NA 
ENDBRANCH   2   3
BRANCH   2   9
HETATM    9  C   UNL     1      -9.731  14.049  67.417  1.00  0.00    -0.233 C  
BRANCH   9  10
HETATM   10  C   UNL     1      -9.233  12.762  68.090  1.00  0.00    -0.212 C  
BRANCH  10  11
HETATM   11  O   UNL     1      -8.831  11.773  67.132  1.00  0.00    -0.161 OA 
BRANCH  11  12
HETATM   12  C   UNL     1      -9.283  10.500  67.387  1.00  0.00    -0.142 A  
HETATM   13  C   UNL     1     -10.403   8.421  66.837  1.00  0.00    -0.378 A  
HETATM   14  C   UNL     1      -9.912   9.671  66.459  1.00  0.00    -0.313 A  
HETATM   15  C   UNL     1     -10.262   7.965  68.151  1.00  0.00    -0.248 A  
HETATM   16  C   UNL     1      -9.580   8.773  69.072  1.00  0.00    -0.162 A  
HETATM   17  C   UNL     1      -9.096  10.032  68.694  1.00  0.00    -0.139 A  
BRANCH  15  18
HETATM   18  C   UNL     1     -10.910   6.670  68.572  1.00  0.00    -0.319 C  
BRANCH  18  19
HETATM   19  C   UNL     1     -10.273   5.364  68.105  1.00  0.00    -0.165 C  
HETATM   20  S   UNL     1     -10.406   4.945  66.337  1.00  0.00    -0.269 SA 
HETATM   21  C   UNL     1      -8.847   4.154  66.349  1.00  0.00    -0.118 C  
HETATM   22  N   UNL     1      -8.160   4.499  67.464  1.00  0.00    -0.100 N  
HETATM   23  O   UNL     1      -8.462   3.392  65.480  1.00  0.00    -0.104 OA 
HETATM   24  C   UNL     1      -8.802   5.218  68.430  1.00  0.00    -0.101 C  
HETATM   25  H   UNL     1      -7.183   4.228  67.579  1.00  0.00     0.000 HD 
HETATM   26  O   UNL     1      -8.262   5.595  69.462  1.00  0.00    -0.100 OA 
ENDBRANCH  18  19
ENDBRANCH  15  18
ENDBRANCH  11  12
ENDBRANCH  10  11
ENDBRANCH   9  10
ENDBRANCH   2   9
TORSDOF 7
ENDMDL
MODEL      220
REMARK 921   NORMALIZED FREE ENERGY PREDICTED BY IDOCK:   -4.13 KCAL/MOL
REMARK 922        TOTAL FREE ENERGY PREDICTED BY IDOCK:   -6.68 KCAL/MOL
REMARK 923 INTER-LIGAND FREE ENERGY PREDICTED BY IDOCK:   -6.02 KCAL/MOL
REMARK 924 INTRA-LIGAND FREE ENERGY PREDICTED BY IDOCK:   -0.66 KCAL/MOL
REMARK 927      BINDING AFFINITY PREDICTED BY RF-SCORE:    0.00 PKD
ROOT
HETATM    1  C   UNL     1      -8.902   9.528  65.594  1.00  0.00    -0.161 C  
HETATM    2  N   UNL     1      -9.263   9.474  67.011  1.00  0.00    -0.137 NA 
ENDROOT
BRANCH   2   3
HETATM    3  C   UNL     1      -9.534   8.160  67.448  1.00  0.00    -0.155 A  
HETATM    4  C   UNL     1      -8.970   6.267  68.669  1.00  0.00    -0.127 A  
HETATM    5  C   UNL     1     -10.073   5.557  68.232  1.00  0.00    -0.226 A  
HETATM    6  C   UNL     1     -10.669   7.503  66.969  1.00  0.00    -0.367 A  
HETATM    7  C   UNL     1     -10.940   6.192  67.359  1.00  0.00    -0.409 A  
HETATM    8  N   UNL     1      -8.688   7.536  68.297  1.00  0.00    -0.124 NA 
ENDBRANCH   2   3
BRANCH   2   9
HETATM    9  C   UNL     1      -8.348  10.216  67.903  1.00  0.00    -0.117 C  
BRANCH   9  10
HETATM   10  C   UNL     1      -9.084  11.283  68.726  1.00  0.00    -0.116 C  
BRANCH  10  11
HETATM   11  O   UNL     1     -10.282  11.732  68.077  1.00  0.00    -0.182 OA 
BRANCH  11  12
HETATM   12  C   UNL     1     -10.197  12.977  67.500  1.00  0.00    -0.221 A  
HETATM   13  C   UNL     1      -9.058  14.795  66.369  1.00  0.00    -0.267 A  
HETATM   14  C   UNL     1      -9.069  13.488  66.859  1.00  0.00    -0.246 A  
HETATM   15  C   UNL     1     -10.183  15.616  66.497  1.00  0.00    -0.291 A  
HETATM   16  C   UNL     1     -11.337  15.085  67.091  1.00  0.00    -0.323 A  
HETATM   17  C   UNL     1     -11.344  13.776  67.591  1.00  0.00    -0.331 A  
BRANCH  15  18
HETATM   18  C   UNL     1     -10.110  17.062  66.079  1.00  0.00    -0.318 C  
BRANCH  18  19
HETATM   19  C   UNL     1      -9.068  17.952  66.750  1.00  0.00    -0.268 C  
HETATM   20  S   UNL     1      -8.514  19.433  65.846  1.00  0.00     0.099 SA 
HETATM   21  C   UNL     1      -8.300  20.330  67.331  1.00  0.00    -0.340 C  
HETATM   22  N   UNL     1      -8.928  19.698  68.351  1.00  0.00    -0.340 N  
HETATM   23  O   UNL     1      -7.658  21.362  67.419  1.00  0.00    -0.398 OA 
HETATM   24  C   UNL     1      -9.449  18.456  68.126  1.00  0.00    -0.310 C  
HETATM   25  H   UNL     1      -9.011  20.139  69.266  1.00  0.00     0.000 HD 
HETATM   26  O   UNL     1     -10.052  17.813  68.976  1.00  0.00    -0.351 OA 
ENDBRANCH  18  19
ENDBRANCH  15  18
ENDBRANCH  11  12
ENDBRANCH  10  11
ENDBRANCH   9  10
ENDBRANCH   2   9
TORSDOF 7
ENDMDL
MODEL      221
REMARK 921   NORMALIZED FREE ENERGY PREDICTED BY IDOCK:   -4.12 KCAL/MOL
REMARK 922        TOTAL FREE ENERGY PREDICTED BY IDOCK:   -6.66 KCAL/MOL
REMARK 923 INTER-LIGAND FREE ENERGY PREDICTED BY IDOCK:   -5.88 KCAL/MOL
REMARK 924 INTRA-LIGAND FREE ENERGY PREDICTED BY IDOCK:   -0.78 KCAL/MOL
REMARK 927      BINDING AFFINITY PREDICTED BY RF-SCORE:    0.00 PKD
ROOT
HETATM    1  C   UNL     1     -12.639  14.161  65.070  1.00  0.00    -0.380 C  
HETATM    2  N   UNL     1     -11.405  13.423  65.341  1.00  0.00    -0.290 NA 
ENDROOT
BRANCH   2   3
HETATM    3  C   UNL     1     -10.454  14.200  66.036  1.00  0.00    -0.304 A  
HETATM    4  C   UNL     1      -9.139  14.610  67.906  1.00  0.00    -0.189 A  
HETATM    5  C   UNL     1      -8.632  15.788  67.391  1.00  0.00    -0.192 A  
HETATM    6  C   UNL     1      -9.981  15.378  65.455  1.00  0.00    -0.379 A  
HETATM    7  C   UNL     1      -9.067  16.180  66.137  1.00  0.00    -0.382 A  
HETATM    8  N   UNL     1     -10.030  13.821  67.262  1.00  0.00    -0.237 NA 
ENDBRANCH   2   3
BRANCH   2   9
HETATM    9  C   UNL     1     -11.612  12.082  65.925  1.00  0.00    -0.300 C  
BRANCH   9  10
HETATM   10  C   UNL     1     -11.015  10.972  65.048  1.00  0.00    -0.047 C  
BRANCH  10  11
HETATM   11  O   UNL     1      -9.618  10.776  65.304  1.00  0.00    -0.198 OA 
BRANCH  11  12
HETATM   12  C   UNL     1      -9.330  10.114  66.475  1.00  0.00    -0.164 A  
HETATM   13  C   UNL     1      -9.575   8.332  68.101  1.00  0.00    -0.163 A  
HETATM   14  C   UNL     1      -9.873   8.888  66.856  1.00  0.00    -0.288 A  
HETATM   15  C   UNL     1      -8.713   8.986  68.988  1.00  0.00    -0.138 A  
HETATM   16  C   UNL     1      -8.122  10.191  68.582  1.00  0.00    -0.109 A  
HETATM   17  C   UNL     1      -8.430  10.753  67.336  1.00  0.00    -0.119 A  
BRANCH  15  18
HETATM   18  C   UNL     1      -8.503   8.436  70.375  1.00  0.00    -0.130 C  
BRANCH  18  19
HETATM   19  C   UNL     1      -9.736   8.098  71.207  1.00  0.00    -0.164 C  
HETATM   20  S   UNL     1     -11.130   9.271  71.166  1.00  0.00    -0.373 SA 
HETATM   21  C   UNL     1     -12.296   7.980  71.340  1.00  0.00    -0.306 C  
HETATM   22  N   UNL     1     -11.709   6.786  71.084  1.00  0.00    -0.327 N  
HETATM   23  O   UNL     1     -13.459   8.148  71.664  1.00  0.00    -0.336 OA 
HETATM   24  C   UNL     1     -10.355   6.748  70.914  1.00  0.00    -0.199 C  
HETATM   25  H   UNL     1     -12.266   5.934  71.020  1.00  0.00     0.000 HD 
HETATM   26  O   UNL     1      -9.735   5.724  70.659  1.00  0.00    -0.169 OA 
ENDBRANCH  18  19
ENDBRANCH  15  18
ENDBRANCH  11  12
ENDBRANCH  10  11
ENDBRANCH   9  10
ENDBRANCH   2   9
TORSDOF 7
ENDMDL
MODEL      222
REMARK 921   NORMALIZED FREE ENERGY PREDICTED BY IDOCK:   -4.12 KCAL/MOL
REMARK 922        TOTAL FREE ENERGY PREDICTED BY IDOCK:   -6.66 KCAL/MOL
REMARK 923 INTER-LIGAND FREE ENERGY PREDICTED BY IDOCK:   -6.13 KCAL/MOL
REMARK 924 INTRA-LIGAND FREE ENERGY PREDICTED BY IDOCK:   -0.53 KCAL/MOL
REMARK 927      BINDING AFFINITY PREDICTED BY RF-SCORE:    0.00 PKD
ROOT
HETATM    1  C   UNL     1      -9.460   3.706  69.769  1.00  0.00    -0.184 C  
HETATM    2  N   UNL     1      -9.433   5.038  70.375  1.00  0.00    -0.157 NA 
ENDROOT
BRANCH   2   3
HETATM    3  C   UNL     1      -9.512   4.991  71.782  1.00  0.00    -0.150 A  
HETATM    4  C   UNL     1      -8.605   5.387  73.883  1.00  0.00    -0.115 A  
HETATM    5  C   UNL     1      -9.681   4.823  74.543  1.00  0.00    -0.176 A  
HETATM    6  C   UNL     1     -10.630   4.410  72.383  1.00  0.00    -0.172 A  
HETATM    7  C   UNL     1     -10.716   4.322  73.772  1.00  0.00    -0.339 A  
HETATM    8  N   UNL     1      -8.502   5.477  72.538  1.00  0.00    -0.118 NA 
ENDBRANCH   2   3
BRANCH   2   9
HETATM    9  C   UNL     1      -8.356   5.915  69.872  1.00  0.00    -0.121 C  
BRANCH   9  10
HETATM   10  C   UNL     1      -8.903   7.229  69.297  1.00  0.00    -0.136 C  
BRANCH  10  11
HETATM   11  O   UNL     1      -8.749   8.323  70.213  1.00  0.00    -0.134 OA 
BRANCH  11  12
HETATM   12  C   UNL     1      -9.518   9.428  69.932  1.00  0.00    -0.213 A  
HETATM   13  C   UNL     1     -11.527  10.783  70.035  1.00  0.00    -0.412 A  
HETATM   14  C   UNL     1     -10.794   9.666  70.441  1.00  0.00    -0.353 A  
HETATM   15  C   UNL     1     -10.991  11.696  69.121  1.00  0.00    -0.270 A  
HETATM   16  C   UNL     1      -9.686  11.487  68.652  1.00  0.00    -0.172 A  
HETATM   17  C   UNL     1      -8.955  10.360  69.052  1.00  0.00    -0.184 A  
BRANCH  15  18
HETATM   18  C   UNL     1     -11.842  12.824  68.598  1.00  0.00    -0.341 C  
BRANCH  18  19
HETATM   19  C   UNL     1     -12.027  14.054  69.482  1.00  0.00    -0.339 C  
HETATM   20  S   UNL     1     -12.650  13.792  71.174  1.00  0.00    -0.363 SA 
HETATM   21  C   UNL     1     -11.711  15.132  71.789  1.00  0.00    -0.413 C  
HETATM   22  N   UNL     1     -10.764  15.488  70.888  1.00  0.00    -0.372 N  
HETATM   23  O   UNL     1     -11.909  15.667  72.866  1.00  0.00    -0.428 OA 
HETATM   24  C   UNL     1     -10.790  14.910  69.652  1.00  0.00    -0.253 C  
HETATM   25  H   UNL     1     -10.048  16.172  71.129  1.00  0.00     0.000 HD 
HETATM   26  O   UNL     1      -9.968  15.150  68.777  1.00  0.00    -0.213 OA 
ENDBRANCH  18  19
ENDBRANCH  15  18
ENDBRANCH  11  12
ENDBRANCH  10  11
ENDBRANCH   9  10
ENDBRANCH   2   9
TORSDOF 7
ENDMDL
MODEL      223
REMARK 921   NORMALIZED FREE ENERGY PREDICTED BY IDOCK:   -4.09 KCAL/MOL
REMARK 922        TOTAL FREE ENERGY PREDICTED BY IDOCK:   -6.62 KCAL/MOL
REMARK 923 INTER-LIGAND FREE ENERGY PREDICTED BY IDOCK:   -6.03 KCAL/MOL
REMARK 924 INTRA-LIGAND FREE ENERGY PREDICTED BY IDOCK:   -0.60 KCAL/MOL
REMARK 927      BINDING AFFINITY PREDICTED BY RF-SCORE:    0.00 PKD
ROOT
HETATM    1  C   UNL     1     -11.769  11.537  70.013  1.00  0.00    -0.332 C  
HETATM    2  N   UNL     1     -10.455  10.979  69.694  1.00  0.00    -0.103 NA 
ENDROOT
BRANCH   2   3
HETATM    3  C   UNL     1     -10.393   9.587  69.912  1.00  0.00    -0.236 A  
HETATM    4  C   UNL     1     -10.234   7.409  69.120  1.00  0.00    -0.196 A  
HETATM    5  C   UNL     1     -10.339   6.856  70.382  1.00  0.00    -0.221 A  
HETATM    6  C   UNL     1     -10.501   9.096  71.215  1.00  0.00    -0.398 A  
HETATM    7  C   UNL     1     -10.477   7.722  71.453  1.00  0.00    -0.237 A  
HETATM    8  N   UNL     1     -10.261   8.738  68.868  1.00  0.00    -0.203 NA 
ENDBRANCH   2   3
BRANCH   2   9
HETATM    9  C   UNL     1      -9.918  11.394  68.381  1.00  0.00    -0.204 C  
BRANCH   9  10
HETATM   10  C   UNL     1      -8.546  12.072  68.508  1.00  0.00    -0.093 C  
BRANCH  10  11
HETATM   11  O   UNL     1      -8.292  12.981  67.427  1.00  0.00    -0.175 OA 
BRANCH  11  12
HETATM   12  C   UNL     1      -8.118  14.293  67.802  1.00  0.00    -0.170 A  
HETATM   13  C   UNL     1      -8.779  16.380  68.845  1.00  0.00    -0.253 A  
HETATM   14  C   UNL     1      -9.010  15.029  68.581  1.00  0.00    -0.186 A  
HETATM   15  C   UNL     1      -7.641  17.021  68.346  1.00  0.00    -0.220 A  
HETATM   16  C   UNL     1      -6.716  16.268  67.609  1.00  0.00    -0.169 A  
HETATM   17  C   UNL     1      -6.953  14.915  67.337  1.00  0.00    -0.162 A  
BRANCH  15  18
HETATM   18  C   UNL     1      -7.474  18.507  68.533  1.00  0.00    -0.318 C  
BRANCH  18  19
HETATM   19  C   UNL     1      -8.374  19.438  67.726  1.00  0.00    -0.305 C  
HETATM   20  S   UNL     1      -8.735  18.977  66.001  1.00  0.00     0.092 SA 
HETATM   21  C   UNL     1     -10.336  19.675  66.089  1.00  0.00    -0.530 C  
HETATM   22  N   UNL     1     -10.677  19.894  67.382  1.00  0.00    -0.367 N  
HETATM   23  O   UNL     1     -11.021  19.938  65.117  1.00  0.00    -0.334 OA 
HETATM   24  C   UNL     1      -9.726  19.716  68.346  1.00  0.00    -0.403 C  
HETATM   25  H   UNL     1     -11.622  20.185  67.630  1.00  0.00     0.000 HD 
HETATM   26  O   UNL     1      -9.941  19.868  69.542  1.00  0.00    -0.304 OA 
ENDBRANCH  18  19
ENDBRANCH  15  18
ENDBRANCH  11  12
ENDBRANCH  10  11
ENDBRANCH   9  10
ENDBRANCH   2   9
TORSDOF 7
ENDMDL
MODEL      224
REMARK 921   NORMALIZED FREE ENERGY PREDICTED BY IDOCK:   -4.06 KCAL/MOL
REMARK 922        TOTAL FREE ENERGY PREDICTED BY IDOCK:   -6.57 KCAL/MOL
REMARK 923 INTER-LIGAND FREE ENERGY PREDICTED BY IDOCK:   -5.58 KCAL/MOL
REMARK 924 INTRA-LIGAND FREE ENERGY PREDICTED BY IDOCK:   -0.99 KCAL/MOL
REMARK 927      BINDING AFFINITY PREDICTED BY RF-SCORE:    0.00 PKD
ROOT
HETATM    1  C   UNL     1      -8.879   8.189  71.650  1.00  0.00    -0.156 C  
HETATM    2  N   UNL     1     -10.039   9.055  71.860  1.00  0.00    -0.324 NA 
ENDROOT
BRANCH   2   3
HETATM    3  C   UNL     1     -10.378   9.790  70.705  1.00  0.00    -0.261 A  
HETATM    4  C   UNL     1      -9.854  10.636  68.606  1.00  0.00    -0.179 A  
HETATM    5  C   UNL     1     -11.062  11.295  68.480  1.00  0.00    -0.288 A  
HETATM    6  C   UNL     1     -11.618  10.428  70.643  1.00  0.00    -0.440 A  
HETATM    7  C   UNL     1     -11.963  11.189  69.526  1.00  0.00    -0.425 A  
HETATM    8  N   UNL     1      -9.499   9.899  69.683  1.00  0.00    -0.220 NA 
ENDBRANCH   2   3
BRANCH   2   9
HETATM    9  C   UNL     1     -11.193   8.386  72.494  1.00  0.00    -0.336 C  
BRANCH   9  10
HETATM   10  C   UNL     1     -11.245   6.888  72.161  1.00  0.00    -0.258 C  
BRANCH  10  11
HETATM   11  O   UNL     1     -11.949   6.632  70.938  1.00  0.00    -0.371 OA 
BRANCH  11  12
HETATM   12  C   UNL     1     -11.205   6.015  69.959  1.00  0.00    -0.355 A  
HETATM   13  C   UNL     1     -10.508   5.596  67.675  1.00  0.00    -0.284 A  
HETATM   14  C   UNL     1     -11.247   6.332  68.602  1.00  0.00    -0.328 A  
HETATM   15  C   UNL     1      -9.697   4.534  68.088  1.00  0.00    -0.188 A  
HETATM   16  C   UNL     1      -9.611   4.251  69.459  1.00  0.00    -0.274 A  
HETATM   17  C   UNL     1     -10.361   4.984  70.388  1.00  0.00    -0.297 A  
BRANCH  15  18
HETATM   18  C   UNL     1      -9.008   3.671  67.063  1.00  0.00    -0.159 C  
BRANCH  18  19
HETATM   19  C   UNL     1      -8.032   4.341  66.100  1.00  0.00    -0.098 C  
HETATM   20  S   UNL     1      -8.732   5.272  64.699  1.00  0.00    -0.035 SA 
HETATM   21  C   UNL     1      -7.420   6.426  64.736  1.00  0.00    -0.087 C  
HETATM   22  N   UNL     1      -6.742   6.323  65.904  1.00  0.00    -0.047 N  
HETATM   23  O   UNL     1      -7.157   7.191  63.824  1.00  0.00    -0.060 OA 
HETATM   24  C   UNL     1      -7.048   5.293  66.746  1.00  0.00    -0.069 C  
HETATM   25  H   UNL     1      -6.020   7.000  66.150  1.00  0.00     0.000 HD 
HETATM   26  O   UNL     1      -6.507   5.126  67.832  1.00  0.00    -0.044 OA 
ENDBRANCH  18  19
ENDBRANCH  15  18
ENDBRANCH  11  12
ENDBRANCH  10  11
ENDBRANCH   9  10
ENDBRANCH   2   9
TORSDOF 7
ENDMDL
MODEL      225
REMARK 921   NORMALIZED FREE ENERGY PREDICTED BY IDOCK:   -4.05 KCAL/MOL
REMARK 922        TOTAL FREE ENERGY PREDICTED BY IDOCK:   -6.57 KCAL/MOL
REMARK 923 INTER-LIGAND FREE ENERGY PREDICTED BY IDOCK:   -5.87 KCAL/MOL
REMARK 924 INTRA-LIGAND FREE ENERGY PREDICTED BY IDOCK:   -0.70 KCAL/MOL
REMARK 927      BINDING AFFINITY PREDICTED BY RF-SCORE:    0.00 PKD
ROOT
HETATM    1  C   UNL     1     -11.060  10.263  69.908  1.00  0.00    -0.304 C  
HETATM    2  N   UNL     1     -10.398   8.997  69.592  1.00  0.00    -0.206 NA 
ENDROOT
BRANCH   2   3
HETATM    3  C   UNL     1     -10.683   7.990  70.537  1.00  0.00    -0.229 A  
HETATM    4  C   UNL     1     -12.086   7.019  72.114  1.00  0.00    -0.244 A  
HETATM    5  C   UNL     1     -11.176   6.029  72.433  1.00  0.00    -0.338 A  
HETATM    6  C   UNL     1      -9.719   7.017  70.809  1.00  0.00    -0.170 A  
HETATM    7  C   UNL     1      -9.963   6.032  71.764  1.00  0.00    -0.199 A  
HETATM    8  N   UNL     1     -11.865   7.986  71.195  1.00  0.00    -0.289 NA 
ENDBRANCH   2   3
BRANCH   2   9
HETATM    9  C   UNL     1     -10.564   8.555  68.191  1.00  0.00    -0.124 C  
BRANCH   9  10
HETATM   10  C   UNL     1      -9.498   9.161  67.266  1.00  0.00    -0.148 C  
BRANCH  10  11
HETATM   11  O   UNL     1     -10.036  10.192  66.427  1.00  0.00    -0.220 OA 
BRANCH  11  12
HETATM   12  C   UNL     1      -9.639  11.468  66.749  1.00  0.00    -0.186 A  
HETATM   13  C   UNL     1      -9.851  13.884  66.790  1.00  0.00    -0.274 A  
HETATM   14  C   UNL     1     -10.375  12.625  66.492  1.00  0.00    -0.256 A  
HETATM   15  C   UNL     1      -8.583  14.012  67.367  1.00  0.00    -0.211 A  
HETATM   16  C   UNL     1      -7.867  12.848  67.678  1.00  0.00    -0.168 A  
HETATM   17  C   UNL     1      -8.390  11.585  67.369  1.00  0.00    -0.148 A  
BRANCH  15  18
HETATM   18  C   UNL     1      -7.982  15.380  67.564  1.00  0.00    -0.192 C  
BRANCH  18  19
HETATM   19  C   UNL     1      -8.416  16.498  66.620  1.00  0.00    -0.263 C  
HETATM   20  S   UNL     1      -9.764  17.592  67.171  1.00  0.00    -0.302 SA 
HETATM   21  C   UNL     1      -9.070  18.962  66.336  1.00  0.00    -0.311 C  
HETATM   22  N   UNL     1      -7.785  18.698  65.997  1.00  0.00    -0.226 N  
HETATM   23  O   UNL     1      -9.677  19.989  66.086  1.00  0.00    -0.417 OA 
HETATM   24  C   UNL     1      -7.308  17.433  66.186  1.00  0.00    -0.296 C  
HETATM   25  H   UNL     1      -7.188  19.429  65.611  1.00  0.00     0.000 HD 
HETATM   26  O   UNL     1      -6.157  17.101  65.931  1.00  0.00    -0.145 OA 
ENDBRANCH  18  19
ENDBRANCH  15  18
ENDBRANCH  11  12
ENDBRANCH  10  11
ENDBRANCH   9  10
ENDBRANCH   2   9
TORSDOF 7
ENDMDL
MODEL      226
REMARK 921   NORMALIZED FREE ENERGY PREDICTED BY IDOCK:   -4.02 KCAL/MOL
REMARK 922        TOTAL FREE ENERGY PREDICTED BY IDOCK:   -6.52 KCAL/MOL
REMARK 923 INTER-LIGAND FREE ENERGY PREDICTED BY IDOCK:   -5.92 KCAL/MOL
REMARK 924 INTRA-LIGAND FREE ENERGY PREDICTED BY IDOCK:   -0.60 KCAL/MOL
REMARK 927      BINDING AFFINITY PREDICTED BY RF-SCORE:    0.00 PKD
ROOT
HETATM    1  C   UNL     1      -6.212   9.223  65.359  1.00  0.00    -0.064 C  
HETATM    2  N   UNL     1      -7.589   8.730  65.421  1.00  0.00    -0.085 NA 
ENDROOT
BRANCH   2   3
HETATM    3  C   UNL     1      -7.656   7.322  65.430  1.00  0.00    -0.100 A  
HETATM    4  C   UNL     1      -7.736   5.297  66.566  1.00  0.00    -0.096 A  
HETATM    5  C   UNL     1      -7.725   4.551  65.403  1.00  0.00    -0.086 A  
HETATM    6  C   UNL     1      -7.645   6.631  64.217  1.00  0.00    -0.104 A  
HETATM    7  C   UNL     1      -7.677   5.237  64.201  1.00  0.00    -0.083 A  
HETATM    8  N   UNL     1      -7.700   6.649  66.602  1.00  0.00    -0.100 NA 
ENDBRANCH   2   3
BRANCH   2   9
HETATM    9  C   UNL     1      -8.419   9.368  66.464  1.00  0.00    -0.133 C  
BRANCH   9  10
HETATM   10  C   UNL     1      -9.918   9.283  66.139  1.00  0.00    -0.277 C  
BRANCH  10  11
HETATM   11  O   UNL     1     -10.336  10.326  65.248  1.00  0.00    -0.278 OA 
BRANCH  11  12
HETATM   12  C   UNL     1     -10.615  11.529  65.852  1.00  0.00    -0.268 A  
HETATM   13  C   UNL     1     -11.610  12.951  67.546  1.00  0.00    -0.409 A  
HETATM   14  C   UNL     1     -11.312  11.681  67.051  1.00  0.00    -0.373 A  
HETATM   15  C   UNL     1     -11.205  14.100  66.858  1.00  0.00    -0.326 A  
HETATM   16  C   UNL     1     -10.456  13.948  65.683  1.00  0.00    -0.320 A  
HETATM   17  C   UNL     1     -10.164  12.672  65.182  1.00  0.00    -0.300 A  
BRANCH  15  18
HETATM   18  C   UNL     1     -11.645  15.458  67.339  1.00  0.00    -0.135 C  
BRANCH  18  19
HETATM   19  C   UNL     1     -10.570  16.496  67.645  1.00  0.00    -0.321 C  
HETATM   20  S   UNL     1     -10.379  17.883  66.479  1.00  0.00    -0.336 SA 
HETATM   21  C   UNL     1      -9.922  18.976  67.765  1.00  0.00    -0.357 C  
HETATM   22  N   UNL     1     -10.240  18.438  68.967  1.00  0.00    -0.461 N  
HETATM   23  O   UNL     1      -9.379  20.052  67.586  1.00  0.00    -0.335 OA 
HETATM   24  C   UNL     1     -10.677  17.145  69.008  1.00  0.00    -0.219 C  
HETATM   25  H   UNL     1     -10.155  18.987  69.822  1.00  0.00     0.000 HD 
HETATM   26  O   UNL     1     -11.007  16.577  70.041  1.00  0.00    -0.350 OA 
ENDBRANCH  18  19
ENDBRANCH  15  18
ENDBRANCH  11  12
ENDBRANCH  10  11
ENDBRANCH   9  10
ENDBRANCH   2   9
TORSDOF 7
ENDMDL
MODEL      227
REMARK 921   NORMALIZED FREE ENERGY PREDICTED BY IDOCK:   -4.01 KCAL/MOL
REMARK 922        TOTAL FREE ENERGY PREDICTED BY IDOCK:   -6.51 KCAL/MOL
REMARK 923 INTER-LIGAND FREE ENERGY PREDICTED BY IDOCK:   -6.06 KCAL/MOL
REMARK 924 INTRA-LIGAND FREE ENERGY PREDICTED BY IDOCK:   -0.46 KCAL/MOL
REMARK 927      BINDING AFFINITY PREDICTED BY RF-SCORE:    0.00 PKD
ROOT
HETATM    1  C   UNL     1      -9.604   3.543  69.850  1.00  0.00    -0.149 C  
HETATM    2  N   UNL     1      -9.890   4.957  69.602  1.00  0.00    -0.200 NA 
ENDROOT
BRANCH   2   3
HETATM    3  C   UNL     1     -10.250   5.648  70.778  1.00  0.00    -0.227 A  
HETATM    4  C   UNL     1     -11.782   6.856  72.038  1.00  0.00    -0.300 A  
HETATM    5  C   UNL     1     -10.894   7.052  73.079  1.00  0.00    -0.342 A  
HETATM    6  C   UNL     1      -9.303   5.807  71.792  1.00  0.00    -0.163 A  
HETATM    7  C   UNL     1      -9.624   6.516  72.948  1.00  0.00    -0.158 A  
HETATM    8  N   UNL     1     -11.487   6.176  70.906  1.00  0.00    -0.297 NA 
ENDBRANCH   2   3
BRANCH   2   9
HETATM    9  C   UNL     1      -8.865   5.654  68.798  1.00  0.00    -0.108 C  
BRANCH   9  10
HETATM   10  C   UNL     1      -9.385   6.031  67.403  1.00  0.00    -0.111 C  
BRANCH  10  11
HETATM   11  O   UNL     1     -10.469   6.968  67.468  1.00  0.00    -0.196 OA 
BRANCH  11  12
HETATM   12  C   UNL     1     -10.097   8.291  67.412  1.00  0.00    -0.233 A  
HETATM   13  C   UNL     1      -8.518  10.113  67.159  1.00  0.00    -0.125 A  
HETATM   14  C   UNL     1      -8.814   8.750  67.117  1.00  0.00    -0.137 A  
HETATM   15  C   UNL     1      -9.504  11.050  67.484  1.00  0.00    -0.175 A  
HETATM   16  C   UNL     1     -10.808  10.594  67.726  1.00  0.00    -0.338 A  
HETATM   17  C   UNL     1     -11.102   9.224  67.692  1.00  0.00     0.110 A  
BRANCH  15  18
HETATM   18  C   UNL     1      -9.137  12.502  67.650  1.00  0.00    -0.187 C  
BRANCH  18  19
HETATM   19  C   UNL     1     -10.100  13.553  67.106  1.00  0.00    -0.245 C  
HETATM   20  S   UNL     1     -10.687  13.355  65.393  1.00  0.00    -0.311 SA 
HETATM   21  C   UNL     1     -12.241  14.053  65.783  1.00  0.00    -0.453 C  
HETATM   22  N   UNL     1     -12.412  14.085  67.127  1.00  0.00    -0.510 N  
HETATM   23  O   UNL     1     -13.033  14.465  64.954  1.00  0.00    -0.641 OA 
HETATM   24  C   UNL     1     -11.356  13.754  67.926  1.00  0.00    -0.299 C  
HETATM   25  H   UNL     1     -13.310  14.348  67.532  1.00  0.00     0.000 HD 
HETATM   26  O   UNL     1     -11.417  13.732  69.149  1.00  0.00    -0.262 OA 
ENDBRANCH  18  19
ENDBRANCH  15  18
ENDBRANCH  11  12
ENDBRANCH  10  11
ENDBRANCH   9  10
ENDBRANCH   2   9
TORSDOF 7
ENDMDL
MODEL      228
REMARK 921   NORMALIZED FREE ENERGY PREDICTED BY IDOCK:   -4.01 KCAL/MOL
REMARK 922        TOTAL FREE ENERGY PREDICTED BY IDOCK:   -6.51 KCAL/MOL
REMARK 923 INTER-LIGAND FREE ENERGY PREDICTED BY IDOCK:   -4.66 KCAL/MOL
REMARK 924 INTRA-LIGAND FREE ENERGY PREDICTED BY IDOCK:   -1.85 KCAL/MOL
REMARK 927      BINDING AFFINITY PREDICTED BY RF-SCORE:    0.00 PKD
ROOT
HETATM    1  C   UNL     1     -11.935  12.749  66.248  1.00  0.00    -0.395 C  
HETATM    2  N   UNL     1     -11.896  12.877  67.705  1.00  0.00    -0.354 NA 
ENDROOT
BRANCH   2   3
HETATM    3  C   UNL     1     -11.534  11.672  68.343  1.00  0.00    -0.297 A  
HETATM    4  C   UNL     1     -10.816   9.465  68.261  1.00  0.00    -0.112 A  
HETATM    5  C   UNL     1     -10.893   9.304  69.632  1.00  0.00    -0.228 A  
HETATM    6  C   UNL     1     -11.633  11.580  69.733  1.00  0.00    -0.401 A  
HETATM    7  C   UNL     1     -11.314  10.389  70.383  1.00  0.00    -0.417 A  
HETATM    8  N   UNL     1     -11.126  10.610  67.613  1.00  0.00    -0.314 NA 
ENDBRANCH   2   3
BRANCH   2   9
HETATM    9  C   UNL     1     -11.145  14.052  68.194  1.00  0.00    -0.260 C  
BRANCH   9  10
HETATM   10  C   UNL     1      -9.840  14.267  67.414  1.00  0.00    -0.235 C  
BRANCH  10  11
HETATM   11  O   UNL     1      -8.684  13.921  68.191  1.00  0.00    -0.168 OA 
BRANCH  11  12
HETATM   12  C   UNL     1      -8.192  12.657  67.966  1.00  0.00    -0.167 A  
HETATM   13  C   UNL     1      -7.115  10.580  68.603  1.00  0.00    -0.077 A  
HETATM   14  C   UNL     1      -7.659  11.819  68.945  1.00  0.00    -0.063 A  
HETATM   15  C   UNL     1      -7.106  10.145  67.274  1.00  0.00    -0.088 A  
HETATM   16  C   UNL     1      -7.692  10.963  66.297  1.00  0.00    -0.147 A  
HETATM   17  C   UNL     1      -8.229  12.210  66.639  1.00  0.00    -0.017 A  
BRANCH  15  18
HETATM   18  C   UNL     1      -6.401   8.865  66.907  1.00  0.00    -0.060 C  
BRANCH  18  19
HETATM   19  C   UNL     1      -7.145   7.550  67.115  1.00  0.00    -0.085 C  
HETATM   20  S   UNL     1      -7.693   7.148  68.806  1.00  0.00    -0.118 SA 
HETATM   21  C   UNL     1      -9.116   6.325  68.211  1.00  0.00    -0.113 C  
HETATM   22  N   UNL     1      -9.329   6.645  66.912  1.00  0.00    -0.143 N  
HETATM   23  O   UNL     1      -9.792   5.562  68.878  1.00  0.00    -0.137 OA 
HETATM   24  C   UNL     1      -8.378   7.370  66.254  1.00  0.00    -0.132 C  
HETATM   25  H   UNL     1     -10.182   6.352  66.437  1.00  0.00     0.000 HD 
HETATM   26  O   UNL     1      -8.487   7.725  65.088  1.00  0.00    -0.134 OA 
ENDBRANCH  18  19
ENDBRANCH  15  18
ENDBRANCH  11  12
ENDBRANCH  10  11
ENDBRANCH   9  10
ENDBRANCH   2   9
TORSDOF 7
ENDMDL
MODEL      229
REMARK 921   NORMALIZED FREE ENERGY PREDICTED BY IDOCK:   -4.00 KCAL/MOL
REMARK 922        TOTAL FREE ENERGY PREDICTED BY IDOCK:   -6.49 KCAL/MOL
REMARK 923 INTER-LIGAND FREE ENERGY PREDICTED BY IDOCK:   -6.23 KCAL/MOL
REMARK 924 INTRA-LIGAND FREE ENERGY PREDICTED BY IDOCK:   -0.26 KCAL/MOL
REMARK 927      BINDING AFFINITY PREDICTED BY RF-SCORE:    0.00 PKD
ROOT
HETATM    1  C   UNL     1     -12.072  15.474  69.912  1.00  0.00    -0.355 C  
HETATM    2  N   UNL     1     -11.799  15.011  68.551  1.00  0.00    -0.319 NA 
ENDROOT
BRANCH   2   3
HETATM    3  C   UNL     1     -11.214  16.013  67.749  1.00  0.00    -0.231 A  
HETATM    4  C   UNL     1     -10.300  16.732  65.738  1.00  0.00    -0.305 A  
HETATM    5  C   UNL     1     -10.007  17.991  66.228  1.00  0.00    -0.338 A  
HETATM    6  C   UNL     1     -10.948  17.265  68.307  1.00  0.00    -0.188 A  
HETATM    7  C   UNL     1     -10.339  18.260  67.545  1.00  0.00    -0.415 A  
HETATM    8  N   UNL     1     -10.886  15.752  66.463  1.00  0.00    -0.276 NA 
ENDBRANCH   2   3
BRANCH   2   9
HETATM    9  C   UNL     1     -11.100  13.712  68.477  1.00  0.00    -0.275 C  
BRANCH   9  10
HETATM   10  C   UNL     1     -11.803  12.732  67.527  1.00  0.00    -0.343 C  
BRANCH  10  11
HETATM   11  O   UNL     1     -11.942  11.426  68.106  1.00  0.00    -0.594 OA 
BRANCH  11  12
HETATM   12  C   UNL     1     -11.112  10.466  67.577  1.00  0.00    -0.267 A  
HETATM   13  C   UNL     1      -9.733   8.473  67.664  1.00  0.00    -0.201 A  
HETATM   14  C   UNL     1     -10.634   9.353  68.267  1.00  0.00    -0.256 A  
HETATM   15  C   UNL     1      -9.302   8.681  66.350  1.00  0.00    -0.271 A  
HETATM   16  C   UNL     1      -9.825   9.769  65.637  1.00  0.00    -0.371 A  
HETATM   17  C   UNL     1     -10.722  10.657  66.246  1.00  0.00    -0.172 A  
BRANCH  15  18
HETATM   18  C   UNL     1      -8.234   7.796  65.761  1.00  0.00    -0.132 C  
BRANCH  18  19
HETATM   19  C   UNL     1      -7.010   8.463  65.139  1.00  0.00    -0.074 C  
HETATM   20  S   UNL     1      -7.114   8.950  63.387  1.00  0.00    -0.089 SA 
HETATM   21  C   UNL     1      -6.086  10.338  63.652  1.00  0.00    -0.130 C  
HETATM   22  N   UNL     1      -5.989  10.598  64.978  1.00  0.00    -0.314 N  
HETATM   23  O   UNL     1      -5.530  10.957  62.762  1.00  0.00    -0.167 OA 
HETATM   24  C   UNL     1      -6.523   9.702  65.859  1.00  0.00    -0.079 C  
HETATM   25  H   UNL     1      -5.527  11.444  65.311  1.00  0.00     0.000 HD 
HETATM   26  O   UNL     1      -6.505   9.857  67.073  1.00  0.00    -0.067 OA 
ENDBRANCH  18  19
ENDBRANCH  15  18
ENDBRANCH  11  12
ENDBRANCH  10  11
ENDBRANCH   9  10
ENDBRANCH   2   9
TORSDOF 7
ENDMDL
MODEL      230
REMARK 921   NORMALIZED FREE ENERGY PREDICTED BY IDOCK:   -3.98 KCAL/MOL
REMARK 922        TOTAL FREE ENERGY PREDICTED BY IDOCK:   -6.47 KCAL/MOL
REMARK 923 INTER-LIGAND FREE ENERGY PREDICTED BY IDOCK:   -5.63 KCAL/MOL
REMARK 924 INTRA-LIGAND FREE ENERGY PREDICTED BY IDOCK:   -0.84 KCAL/MOL
REMARK 927      BINDING AFFINITY PREDICTED BY RF-SCORE:    0.00 PKD
ROOT
HETATM    1  C   UNL     1     -13.145   7.396  71.362  1.00  0.00    -0.350 C  
HETATM    2  N   UNL     1     -11.941   8.197  71.582  1.00  0.00    -0.286 NA 
ENDROOT
BRANCH   2   3
HETATM    3  C   UNL     1     -12.123   9.551  71.233  1.00  0.00    -0.360 A  
HETATM    4  C   UNL     1     -11.665  11.380  69.876  1.00  0.00    -0.346 A  
HETATM    5  C   UNL     1     -12.460  12.233  70.619  1.00  0.00    -0.323 A  
HETATM    6  C   UNL     1     -12.943  10.355  72.026  1.00  0.00    -0.499 A  
HETATM    7  C   UNL     1     -13.111  11.705  71.721  1.00  0.00    -0.487 A  
HETATM    8  N   UNL     1     -11.485  10.069  70.159  1.00  0.00    -0.270 NA 
ENDBRANCH   2   3
BRANCH   2   9
HETATM    9  C   UNL     1     -11.318   8.008  72.909  1.00  0.00    -0.298 C  
BRANCH   9  10
HETATM   10  C   UNL     1      -9.786   7.943  72.822  1.00  0.00    -0.257 C  
BRANCH  10  11
HETATM   11  O   UNL     1      -9.300   6.595  72.890  1.00  0.00    -0.136 OA 
BRANCH  11  12
HETATM   12  C   UNL     1      -8.809   6.095  71.707  1.00  0.00    -0.138 A  
HETATM   13  C   UNL     1      -7.175   5.882  69.928  1.00  0.00    -0.073 A  
HETATM   14  C   UNL     1      -7.552   6.380  71.176  1.00  0.00    -0.090 A  
HETATM   15  C   UNL     1      -8.044   5.072  69.189  1.00  0.00    -0.083 A  
HETATM   16  C   UNL     1      -9.286   4.739  69.747  1.00  0.00    -0.208 A  
HETATM   17  C   UNL     1      -9.668   5.247  70.996  1.00  0.00    -0.242 A  
BRANCH  15  18
HETATM   18  C   UNL     1      -7.671   4.649  67.792  1.00  0.00    -0.082 C  
BRANCH  18  19
HETATM   19  C   UNL     1      -8.115   5.535  66.631  1.00  0.00    -0.105 C  
HETATM   20  S   UNL     1      -6.928   5.810  65.277  1.00  0.00    -0.065 SA 
HETATM   21  C   UNL     1      -8.211   5.894  64.092  1.00  0.00    -0.075 C  
HETATM   22  N   UNL     1      -9.360   5.402  64.615  1.00  0.00    -0.335 N  
HETATM   23  O   UNL     1      -8.076   6.351  62.970  1.00  0.00    -0.111 OA 
HETATM   24  C   UNL     1      -9.392   5.098  65.946  1.00  0.00    -0.159 C  
HETATM   25  H   UNL     1     -10.181   5.262  64.028  1.00  0.00     0.000 HD 
HETATM   26  O   UNL     1     -10.375   4.630  66.507  1.00  0.00    -0.252 OA 
ENDBRANCH  18  19
ENDBRANCH  15  18
ENDBRANCH  11  12
ENDBRANCH  10  11
ENDBRANCH   9  10
ENDBRANCH   2   9
TORSDOF 7
ENDMDL
MODEL      231
REMARK 921   NORMALIZED FREE ENERGY PREDICTED BY IDOCK:   -3.98 KCAL/MOL
REMARK 922        TOTAL FREE ENERGY PREDICTED BY IDOCK:   -6.46 KCAL/MOL
REMARK 923 INTER-LIGAND FREE ENERGY PREDICTED BY IDOCK:   -5.74 KCAL/MOL
REMARK 924 INTRA-LIGAND FREE ENERGY PREDICTED BY IDOCK:   -0.72 KCAL/MOL
REMARK 927      BINDING AFFINITY PREDICTED BY RF-SCORE:    0.00 PKD
ROOT
HETATM    1  C   UNL     1     -11.149   7.685  67.725  1.00  0.00     0.213 C  
HETATM    2  N   UNL     1     -10.054   7.646  68.695  1.00  0.00    -0.185 NA 
ENDROOT
BRANCH   2   3
HETATM    3  C   UNL     1     -10.515   7.651  70.028  1.00  0.00    -0.229 A  
HETATM    4  C   UNL     1     -11.098   8.778  71.974  1.00  0.00    -0.371 A  
HETATM    5  C   UNL     1     -11.363   7.611  72.667  1.00  0.00    -0.423 A  
HETATM    6  C   UNL     1     -10.767   6.435  70.667  1.00  0.00    -0.310 A  
HETATM    7  C   UNL     1     -11.190   6.413  71.995  1.00  0.00    -0.324 A  
HETATM    8  N   UNL     1     -10.681   8.819  70.688  1.00  0.00    -0.216 NA 
ENDBRANCH   2   3
BRANCH   2   9
HETATM    9  C   UNL     1      -9.038   6.607  68.426  1.00  0.00    -0.124 C  
BRANCH   9  10
HETATM   10  C   UNL     1      -8.104   7.000  67.272  1.00  0.00    -0.115 C  
BRANCH  10  11
HETATM   11  O   UNL     1      -7.145   7.990  67.668  1.00  0.00    -0.079 OA 
BRANCH  11  12
HETATM   12  C   UNL     1      -7.547   9.293  67.488  1.00  0.00    -0.088 A  
HETATM   13  C   UNL     1      -8.391  11.167  66.201  1.00  0.00    -0.144 A  
HETATM   14  C   UNL     1      -8.082   9.810  66.309  1.00  0.00    -0.113 A  
HETATM   15  C   UNL     1      -8.185  12.035  67.279  1.00  0.00    -0.173 A  
HETATM   16  C   UNL     1      -7.700  11.505  68.483  1.00  0.00    -0.134 A  
HETATM   17  C   UNL     1      -7.381  10.144  68.587  1.00  0.00    -0.082 A  
BRANCH  15  18
HETATM   18  C   UNL     1      -8.403  13.515  67.104  1.00  0.00    -0.151 C  
BRANCH  18  19
HETATM   19  C   UNL     1      -9.829  14.010  66.886  1.00  0.00    -0.267 C  
HETATM   20  S   UNL     1     -10.505  13.921  65.196  1.00  0.00    -0.407 SA 
HETATM   21  C   UNL     1     -12.118  13.614  65.796  1.00  0.00    -0.428 C  
HETATM   22  N   UNL     1     -12.068  13.256  67.102  1.00  0.00    -0.340 N  
HETATM   23  O   UNL     1     -13.130  13.730  65.126  1.00  0.00    -0.762 OA 
HETATM   24  C   UNL     1     -10.875  13.350  67.758  1.00  0.00    -0.252 C  
HETATM   25  H   UNL     1     -12.904  12.924  67.583  1.00  0.00     0.000 HD 
HETATM   26  O   UNL     1     -10.724  13.032  68.931  1.00  0.00    -0.232 OA 
ENDBRANCH  18  19
ENDBRANCH  15  18
ENDBRANCH  11  12
ENDBRANCH  10  11
ENDBRANCH   9  10
ENDBRANCH   2   9
TORSDOF 7
ENDMDL
MODEL      232
REMARK 921   NORMALIZED FREE ENERGY PREDICTED BY IDOCK:   -3.95 KCAL/MOL
REMARK 922        TOTAL FREE ENERGY PREDICTED BY IDOCK:   -6.42 KCAL/MOL
REMARK 923 INTER-LIGAND FREE ENERGY PREDICTED BY IDOCK:   -5.83 KCAL/MOL
REMARK 924 INTRA-LIGAND FREE ENERGY PREDICTED BY IDOCK:   -0.59 KCAL/MOL
REMARK 927      BINDING AFFINITY PREDICTED BY RF-SCORE:    0.00 PKD
ROOT
HETATM    1  C   UNL     1     -10.341   8.957  70.059  1.00  0.00    -0.204 C  
HETATM    2  N   UNL     1      -9.561   7.925  69.376  1.00  0.00    -0.160 NA 
ENDROOT
BRANCH   2   3
HETATM    3  C   UNL     1      -9.375   6.775  70.171  1.00  0.00    -0.159 A  
HETATM    4  C   UNL     1      -8.661   5.751  72.130  1.00  0.00    -0.133 A  
HETATM    5  C   UNL     1      -8.970   4.483  71.675  1.00  0.00    -0.158 A  
HETATM    6  C   UNL     1      -9.712   5.525  69.650  1.00  0.00    -0.230 A  
HETATM    7  C   UNL     1      -9.506   4.370  70.404  1.00  0.00    -0.245 A  
HETATM    8  N   UNL     1      -8.848   6.882  71.411  1.00  0.00    -0.134 NA 
ENDBRANCH   2   3
BRANCH   2   9
HETATM    9  C   UNL     1     -10.015   7.626  68.002  1.00  0.00    -0.175 C  
BRANCH   9  10
HETATM   10  C   UNL     1      -9.024   8.131  66.944  1.00  0.00    -0.140 C  
BRANCH  10  11
HETATM   11  O   UNL     1      -9.689   8.758  65.838  1.00  0.00    -0.237 OA 
BRANCH  11  12
HETATM   12  C   UNL     1      -9.669  10.132  65.852  1.00  0.00    -0.232 A  
HETATM   13  C   UNL     1      -9.015  12.305  66.708  1.00  0.00    -0.209 A  
HETATM   14  C   UNL     1      -8.910  10.914  66.723  1.00  0.00    -0.149 A  
HETATM   15  C   UNL     1      -9.873  12.948  65.810  1.00  0.00    -0.216 A  
HETATM   16  C   UNL     1     -10.595  12.166  64.896  1.00  0.00    -0.332 A  
HETATM   17  C   UNL     1     -10.495  10.768  64.918  1.00  0.00    -0.324 A  
BRANCH  15  18
HETATM   18  C   UNL     1     -10.070  14.439  65.894  1.00  0.00    -0.344 C  
BRANCH  18  19
HETATM   19  C   UNL     1     -11.092  14.973  66.893  1.00  0.00    -0.331 C  
HETATM   20  S   UNL     1     -11.994  13.759  67.909  1.00  0.00    -0.305 SA 
HETATM   21  C   UNL     1     -12.069  14.863  69.263  1.00  0.00    -0.251 C  
HETATM   22  N   UNL     1     -11.192  15.879  69.084  1.00  0.00    -0.309 N  
HETATM   23  O   UNL     1     -12.823  14.729  70.212  1.00  0.00    -0.310 OA 
HETATM   24  C   UNL     1     -10.552  15.983  67.883  1.00  0.00    -0.301 C  
HETATM   25  H   UNL     1     -11.014  16.552  69.829  1.00  0.00     0.000 HD 
HETATM   26  O   UNL     1      -9.728  16.853  67.630  1.00  0.00    -0.243 OA 
ENDBRANCH  18  19
ENDBRANCH  15  18
ENDBRANCH  11  12
ENDBRANCH  10  11
ENDBRANCH   9  10
ENDBRANCH   2   9
TORSDOF 7
ENDMDL
MODEL      233
REMARK 921   NORMALIZED FREE ENERGY PREDICTED BY IDOCK:   -3.94 KCAL/MOL
REMARK 922        TOTAL FREE ENERGY PREDICTED BY IDOCK:   -6.40 KCAL/MOL
REMARK 923 INTER-LIGAND FREE ENERGY PREDICTED BY IDOCK:   -5.90 KCAL/MOL
REMARK 924 INTRA-LIGAND FREE ENERGY PREDICTED BY IDOCK:   -0.50 KCAL/MOL
REMARK 927      BINDING AFFINITY PREDICTED BY RF-SCORE:    0.00 PKD
ROOT
HETATM    1  C   UNL     1     -12.237  14.428  69.749  1.00  0.00    -0.321 C  
HETATM    2  N   UNL     1     -12.269  13.783  68.436  1.00  0.00    -0.268 NA 
ENDROOT
BRANCH   2   3
HETATM    3  C   UNL     1     -11.619  14.547  67.444  1.00  0.00    -0.385 A  
HETATM    4  C   UNL     1     -10.954  14.880  65.244  1.00  0.00    -0.380 A  
HETATM    5  C   UNL     1     -10.276  16.047  65.540  1.00  0.00    -0.389 A  
HETATM    6  C   UNL     1     -10.956  15.719  67.813  1.00  0.00    -0.314 A  
HETATM    7  C   UNL     1     -10.277  16.473  66.857  1.00  0.00    -0.296 A  
HETATM    8  N   UNL     1     -11.613  14.132  66.158  1.00  0.00    -0.358 NA 
ENDBRANCH   2   3
BRANCH   2   9
HETATM    9  C   UNL     1     -11.865  12.362  68.445  1.00  0.00    -0.309 C  
BRANCH   9  10
HETATM   10  C   UNL     1     -10.375  12.188  68.774  1.00  0.00    -0.147 C  
BRANCH  10  11
HETATM   11  O   UNL     1      -9.776  11.129  68.014  1.00  0.00    -0.167 OA 
BRANCH  11  12
HETATM   12  C   UNL     1     -10.068   9.860  68.455  1.00  0.00    -0.168 A  
HETATM   13  C   UNL     1     -10.327   8.130  70.134  1.00  0.00    -0.215 A  
HETATM   14  C   UNL     1     -10.092   9.463  69.791  1.00  0.00    -0.229 A  
HETATM   15  C   UNL     1     -10.558   7.168  69.146  1.00  0.00    -0.227 A  
HETATM   16  C   UNL     1     -10.590   7.577  67.805  1.00  0.00    -0.274 A  
HETATM   17  C   UNL     1     -10.344   8.913  67.462  1.00  0.00    -0.328 A  
BRANCH  15  18
HETATM   18  C   UNL     1     -10.683   5.715  69.527  1.00  0.00    -0.380 C  
BRANCH  18  19
HETATM   19  C   UNL     1      -9.562   4.766  69.113  1.00  0.00    -0.167 C  
HETATM   20  S   UNL     1      -9.475   4.274  67.361  1.00  0.00    -0.183 SA 
HETATM   21  C   UNL     1      -7.730   4.185  67.413  1.00  0.00    -0.084 C  
HETATM   22  N   UNL     1      -7.265   4.814  68.520  1.00  0.00    -0.060 N  
HETATM   23  O   UNL     1      -7.050   3.619  66.575  1.00  0.00    -0.061 OA 
HETATM   24  C   UNL     1      -8.165   5.239  69.454  1.00  0.00    -0.095 C  
HETATM   25  H   UNL     1      -6.266   4.965  68.652  1.00  0.00     0.000 HD 
HETATM   26  O   UNL     1      -7.847   5.834  70.476  1.00  0.00    -0.096 OA 
ENDBRANCH  18  19
ENDBRANCH  15  18
ENDBRANCH  11  12
ENDBRANCH  10  11
ENDBRANCH   9  10
ENDBRANCH   2   9
TORSDOF 7
ENDMDL
MODEL      234
REMARK 921   NORMALIZED FREE ENERGY PREDICTED BY IDOCK:   -3.91 KCAL/MOL
REMARK 922        TOTAL FREE ENERGY PREDICTED BY IDOCK:   -6.36 KCAL/MOL
REMARK 923 INTER-LIGAND FREE ENERGY PREDICTED BY IDOCK:   -5.96 KCAL/MOL
REMARK 924 INTRA-LIGAND FREE ENERGY PREDICTED BY IDOCK:   -0.40 KCAL/MOL
REMARK 927      BINDING AFFINITY PREDICTED BY RF-SCORE:    0.00 PKD
ROOT
HETATM    1  C   UNL     1     -10.811  10.900  66.054  1.00  0.00    -0.085 C  
HETATM    2  N   UNL     1     -10.757   9.895  67.116  1.00  0.00    -0.238 NA 
ENDROOT
BRANCH   2   3
HETATM    3  C   UNL     1     -10.058   8.734  66.724  1.00  0.00    -0.288 A  
HETATM    4  C   UNL     1      -8.377   7.685  65.513  1.00  0.00    -0.135 A  
HETATM    5  C   UNL     1      -8.754   6.422  65.929  1.00  0.00    -0.152 A  
HETATM    6  C   UNL     1     -10.491   7.490  67.185  1.00  0.00    -0.407 A  
HETATM    7  C   UNL     1      -9.838   6.325  66.784  1.00  0.00    -0.208 A  
HETATM    8  N   UNL     1      -9.001   8.825  65.886  1.00  0.00    -0.184 NA 
ENDBRANCH   2   3
BRANCH   2   9
HETATM    9  C   UNL     1     -10.337  10.420  68.432  1.00  0.00    -0.174 C  
BRANCH   9  10
HETATM   10  C   UNL     1     -10.013  11.921  68.377  1.00  0.00    -0.203 C  
BRANCH  10  11
HETATM   11  O   UNL     1      -8.670  12.166  67.937  1.00  0.00    -0.159 OA 
BRANCH  11  12
HETATM   12  C   UNL     1      -8.422  13.452  67.519  1.00  0.00    -0.192 A  
HETATM   13  C   UNL     1      -8.916  15.497  66.313  1.00  0.00    -0.362 A  
HETATM   14  C   UNL     1      -9.291  14.227  66.751  1.00  0.00    -0.290 A  
HETATM   15  C   UNL     1      -7.666  16.028  66.647  1.00  0.00    -0.239 A  
HETATM   16  C   UNL     1      -6.813  15.273  67.465  1.00  0.00    -0.218 A  
HETATM   17  C   UNL     1      -7.187  13.994  67.897  1.00  0.00    -0.164 A  
BRANCH  15  18
HETATM   18  C   UNL     1      -7.227  17.345  66.060  1.00  0.00    -0.269 C  
BRANCH  18  19
HETATM   19  C   UNL     1      -7.810  18.625  66.653  1.00  0.00    -0.255 C  
HETATM   20  S   UNL     1      -9.615  18.855  66.557  1.00  0.00    -0.355 SA 
HETATM   21  C   UNL     1      -9.644  19.714  68.079  1.00  0.00    -0.369 C  
HETATM   22  N   UNL     1      -8.481  19.518  68.746  1.00  0.00    -0.343 N  
HETATM   23  O   UNL     1     -10.577  20.401  68.458  1.00  0.00    -0.195 OA 
HETATM   24  C   UNL     1      -7.463  18.872  68.106  1.00  0.00    -0.270 C  
HETATM   25  H   UNL     1      -8.369  19.845  69.705  1.00  0.00     0.000 HD 
HETATM   26  O   UNL     1      -6.384  18.629  68.629  1.00  0.00    -0.210 OA 
ENDBRANCH  18  19
ENDBRANCH  15  18
ENDBRANCH  11  12
ENDBRANCH  10  11
ENDBRANCH   9  10
ENDBRANCH   2   9
TORSDOF 7
ENDMDL
MODEL      235
REMARK 921   NORMALIZED FREE ENERGY PREDICTED BY IDOCK:   -3.89 KCAL/MOL
REMARK 922        TOTAL FREE ENERGY PREDICTED BY IDOCK:   -6.34 KCAL/MOL
REMARK 923 INTER-LIGAND FREE ENERGY PREDICTED BY IDOCK:   -5.79 KCAL/MOL
REMARK 924 INTRA-LIGAND FREE ENERGY PREDICTED BY IDOCK:   -0.56 KCAL/MOL
REMARK 927      BINDING AFFINITY PREDICTED BY RF-SCORE:    0.00 PKD
ROOT
HETATM    1  C   UNL     1      -6.666  17.217  68.833  1.00  0.00    -0.218 C  
HETATM    2  N   UNL     1      -7.925  16.927  68.147  1.00  0.00    -0.189 NA 
ENDROOT
BRANCH   2   3
HETATM    3  C   UNL     1      -8.615  18.097  67.768  1.00  0.00    -0.255 A  
HETATM    4  C   UNL     1      -9.169  20.328  68.101  1.00  0.00    -0.079 A  
HETATM    5  C   UNL     1     -10.038  20.357  67.026  1.00  0.00    -0.507 A  
HETATM    6  C   UNL     1      -9.475  18.056  66.669  1.00  0.00    -0.300 A  
HETATM    7  C   UNL     1     -10.194  19.191  66.296  1.00  0.00    -0.527 A  
HETATM    8  N   UNL     1      -8.467  19.236  68.481  1.00  0.00    -0.358 NA 
ENDBRANCH   2   3
BRANCH   2   9
HETATM    9  C   UNL     1      -7.812  15.931  67.061  1.00  0.00    -0.232 C  
BRANCH   9  10
HETATM   10  C   UNL     1      -7.949  14.493  67.581  1.00  0.00    -0.177 C  
BRANCH  10  11
HETATM   11  O   UNL     1      -9.170  13.877  67.148  1.00  0.00    -0.219 OA 
BRANCH  11  12
HETATM   12  C   UNL     1      -9.262  12.529  67.402  1.00  0.00    -0.186 A  
HETATM   13  C   UNL     1     -10.152  10.295  67.087  1.00  0.00    -0.259 A  
HETATM   14  C   UNL     1     -10.072  11.635  66.703  1.00  0.00    -0.238 A  
HETATM   15  C   UNL     1      -9.411   9.817  68.173  1.00  0.00    -0.136 A  
HETATM   16  C   UNL     1      -8.553  10.702  68.841  1.00  0.00    -0.158 A  
HETATM   17  C   UNL     1      -8.480  12.049  68.461  1.00  0.00    -0.098 A  
BRANCH  15  18
HETATM   18  C   UNL     1      -9.607   8.402  68.652  1.00  0.00    -0.153 C  
BRANCH  18  19
HETATM   19  C   UNL     1     -10.265   7.406  67.701  1.00  0.00    -0.201 C  
HETATM   20  S   UNL     1      -9.217   6.641  66.422  1.00  0.00    -0.126 SA 
HETATM   21  C   UNL     1     -10.125   5.149  66.490  1.00  0.00    -0.239 C  
HETATM   22  N   UNL     1     -10.888   5.119  67.609  1.00  0.00     0.017 N  
HETATM   23  O   UNL     1     -10.080   4.282  65.634  1.00  0.00    -0.220 OA 
HETATM   24  C   UNL     1     -10.967   6.246  68.374  1.00  0.00    -0.325 C  
HETATM   25  H   UNL     1     -11.392   4.273  67.873  1.00  0.00     0.000 HD 
HETATM   26  O   UNL     1     -11.612   6.313  69.413  1.00  0.00    -0.403 OA 
ENDBRANCH  18  19
ENDBRANCH  15  18
ENDBRANCH  11  12
ENDBRANCH  10  11
ENDBRANCH   9  10
ENDBRANCH   2   9
TORSDOF 7
ENDMDL
MODEL      236
REMARK 921   NORMALIZED FREE ENERGY PREDICTED BY IDOCK:   -3.88 KCAL/MOL
REMARK 922        TOTAL FREE ENERGY PREDICTED BY IDOCK:   -6.32 KCAL/MOL
REMARK 923 INTER-LIGAND FREE ENERGY PREDICTED BY IDOCK:   -5.71 KCAL/MOL
REMARK 924 INTRA-LIGAND FREE ENERGY PREDICTED BY IDOCK:   -0.62 KCAL/MOL
REMARK 927      BINDING AFFINITY PREDICTED BY RF-SCORE:    0.00 PKD
ROOT
HETATM    1  C   UNL     1      -9.671  12.126  68.118  1.00  0.00    -0.208 C  
HETATM    2  N   UNL     1     -11.081  12.039  67.735  1.00  0.00    -0.234 NA 
ENDROOT
BRANCH   2   3
HETATM    3  C   UNL     1     -11.260  12.048  66.336  1.00  0.00    -0.337 A  
HETATM    4  C   UNL     1     -12.477  12.631  64.446  1.00  0.00    -0.428 A  
HETATM    5  C   UNL     1     -11.606  11.988  63.587  1.00  0.00    -0.578 A  
HETATM    6  C   UNL     1     -10.339  11.380  65.527  1.00  0.00    -0.317 A  
HETATM    7  C   UNL     1     -10.513  11.346  64.144  1.00  0.00    -0.421 A  
HETATM    8  N   UNL     1     -12.328  12.671  65.789  1.00  0.00    -0.619 NA 
ENDBRANCH   2   3
BRANCH   2   9
HETATM    9  C   UNL     1     -11.834  10.968  68.420  1.00  0.00    -0.184 C  
BRANCH   9  10
HETATM   10  C   UNL     1     -11.148  10.521  69.718  1.00  0.00    -0.295 C  
BRANCH  10  11
HETATM   11  O   UNL     1     -11.718   9.312  70.240  1.00  0.00    -0.189 OA 
BRANCH  11  12
HETATM   12  C   UNL     1     -10.937   8.190  70.091  1.00  0.00    -0.223 A  
HETATM   13  C   UNL     1     -10.526   5.802  70.006  1.00  0.00    -0.353 A  
HETATM   14  C   UNL     1     -11.410   6.879  70.088  1.00  0.00    -0.364 A  
HETATM   15  C   UNL     1      -9.147   6.015  69.909  1.00  0.00    -0.147 A  
HETATM   16  C   UNL     1      -8.675   7.334  69.855  1.00  0.00    -0.141 A  
HETATM   17  C   UNL     1      -9.562   8.414  69.948  1.00  0.00    -0.171 A  
BRANCH  15  18
HETATM   18  C   UNL     1      -8.201   4.843  69.950  1.00  0.00    -0.073 C  
BRANCH  18  19
HETATM   19  C   UNL     1      -7.665   4.306  68.626  1.00  0.00    -0.066 C  
HETATM   20  S   UNL     1      -5.960   3.664  68.605  1.00  0.00    -0.024 SA 
HETATM   21  C   UNL     1      -6.367   2.463  67.402  1.00  0.00    -0.031 C  
HETATM   22  N   UNL     1      -7.712   2.332  67.312  1.00  0.00    -0.064 N  
HETATM   23  O   UNL     1      -5.545   1.856  66.736  1.00  0.00    -0.016 OA 
HETATM   24  C   UNL     1      -8.500   3.214  67.994  1.00  0.00    -0.087 C  
HETATM   25  H   UNL     1      -8.127   1.591  66.748  1.00  0.00     0.000 HD 
HETATM   26  O   UNL     1      -9.723   3.166  67.993  1.00  0.00    -0.138 OA 
ENDBRANCH  18  19
ENDBRANCH  15  18
ENDBRANCH  11  12
ENDBRANCH  10  11
ENDBRANCH   9  10
ENDBRANCH   2   9
TORSDOF 7
ENDMDL
MODEL      237
REMARK 921   NORMALIZED FREE ENERGY PREDICTED BY IDOCK:   -3.85 KCAL/MOL
REMARK 922        TOTAL FREE ENERGY PREDICTED BY IDOCK:   -6.28 KCAL/MOL
REMARK 923 INTER-LIGAND FREE ENERGY PREDICTED BY IDOCK:   -5.62 KCAL/MOL
REMARK 924 INTRA-LIGAND FREE ENERGY PREDICTED BY IDOCK:   -0.66 KCAL/MOL
REMARK 927      BINDING AFFINITY PREDICTED BY RF-SCORE:    0.00 PKD
ROOT
HETATM    1  C   UNL     1     -13.343   7.237  71.417  1.00  0.00    -0.331 C  
HETATM    2  N   UNL     1     -12.123   8.034  71.556  1.00  0.00    -0.290 NA 
ENDROOT
BRANCH   2   3
HETATM    3  C   UNL     1     -12.362   9.415  71.400  1.00  0.00    -0.357 A  
HETATM    4  C   UNL     1     -11.838  11.477  70.467  1.00  0.00    -0.267 A  
HETATM    5  C   UNL     1     -12.826  12.138  71.172  1.00  0.00    -0.313 A  
HETATM    6  C   UNL     1     -13.380  10.019  72.142  1.00  0.00    -0.469 A  
HETATM    7  C   UNL     1     -13.613  11.389  72.031  1.00  0.00    -0.127 A  
HETATM    8  N   UNL     1     -11.594  10.150  70.566  1.00  0.00    -0.304 NA 
ENDBRANCH   2   3
BRANCH   2   9
HETATM    9  C   UNL     1     -11.312   7.706  72.747  1.00  0.00    -0.367 C  
BRANCH   9  10
HETATM   10  C   UNL     1      -9.947   8.409  72.726  1.00  0.00    -0.215 C  
BRANCH  10  11
HETATM   11  O   UNL     1      -8.907   7.552  72.237  1.00  0.00    -0.123 OA 
BRANCH  11  12
HETATM   12  C   UNL     1      -8.622   7.690  70.899  1.00  0.00    -0.129 A  
HETATM   13  C   UNL     1      -7.788   8.861  68.946  1.00  0.00    -0.096 A  
HETATM   14  C   UNL     1      -7.964   8.779  70.328  1.00  0.00    -0.106 A  
HETATM   15  C   UNL     1      -8.255   7.846  68.104  1.00  0.00    -0.123 A  
HETATM   16  C   UNL     1      -8.867   6.724  68.682  1.00  0.00    -0.123 A  
HETATM   17  C   UNL     1      -9.051   6.647  70.069  1.00  0.00    -0.151 A  
BRANCH  15  18
HETATM   18  C   UNL     1      -8.171   8.011  66.609  1.00  0.00    -0.108 C  
BRANCH  18  19
HETATM   19  C   UNL     1      -9.310   8.739  65.902  1.00  0.00    -0.218 C  
HETATM   20  S   UNL     1     -10.111  10.116  66.787  1.00  0.00    -0.227 SA 
HETATM   21  C   UNL     1     -10.405  10.979  65.295  1.00  0.00    -0.275 C  
HETATM   22  N   UNL     1      -9.655  10.453  64.298  1.00  0.00    -0.294 N  
HETATM   23  O   UNL     1     -11.191  11.904  65.185  1.00  0.00    -0.311 OA 
HETATM   24  C   UNL     1      -8.962   9.302  64.541  1.00  0.00    -0.136 C  
HETATM   25  H   UNL     1      -9.608  10.907  63.386  1.00  0.00     0.000 HD 
HETATM   26  O   UNL     1      -8.240   8.761  63.712  1.00  0.00    -0.163 OA 
ENDBRANCH  18  19
ENDBRANCH  15  18
ENDBRANCH  11  12
ENDBRANCH  10  11
ENDBRANCH   9  10
ENDBRANCH   2   9
TORSDOF 7
ENDMDL
MODEL      238
REMARK 921   NORMALIZED FREE ENERGY PREDICTED BY IDOCK:   -3.85 KCAL/MOL
REMARK 922        TOTAL FREE ENERGY PREDICTED BY IDOCK:   -6.28 KCAL/MOL
REMARK 923 INTER-LIGAND FREE ENERGY PREDICTED BY IDOCK:   -5.61 KCAL/MOL
REMARK 924 INTRA-LIGAND FREE ENERGY PREDICTED BY IDOCK:   -0.66 KCAL/MOL
REMARK 927      BINDING AFFINITY PREDICTED BY RF-SCORE:    0.00 PKD
ROOT
HETATM    1  C   UNL     1      -8.048   9.029  63.050  1.00  0.00    -0.167 C  
HETATM    2  N   UNL     1      -7.910   9.470  64.438  1.00  0.00    -0.121 NA 
ENDROOT
BRANCH   2   3
HETATM    3  C   UNL     1      -9.011  10.237  64.873  1.00  0.00    -0.201 A  
HETATM    4  C   UNL     1     -10.360  11.082  66.564  1.00  0.00    -0.245 A  
HETATM    5  C   UNL     1     -11.222  11.701  65.678  1.00  0.00    -0.275 A  
HETATM    6  C   UNL     1      -9.840  10.838  63.923  1.00  0.00    -0.389 A  
HETATM    7  C   UNL     1     -10.954  11.572  64.326  1.00  0.00    -0.406 A  
HETATM    8  N   UNL     1      -9.278  10.361  66.192  1.00  0.00    -0.164 NA 
ENDBRANCH   2   3
BRANCH   2   9
HETATM    9  C   UNL     1      -7.527   8.400  65.382  1.00  0.00    -0.085 C  
BRANCH   9  10
HETATM   10  C   UNL     1      -8.098   7.035  64.969  1.00  0.00    -0.119 C  
BRANCH  10  11
HETATM   11  O   UNL     1      -7.930   6.048  65.996  1.00  0.00    -0.102 OA 
BRANCH  11  12
HETATM   12  C   UNL     1      -8.908   6.043  66.962  1.00  0.00    -0.113 A  
HETATM   13  C   UNL     1     -11.054   6.657  67.910  1.00  0.00    -0.310 A  
HETATM   14  C   UNL     1     -10.156   6.654  66.842  1.00  0.00    -0.258 A  
HETATM   15  C   UNL     1     -10.728   6.035  69.120  1.00  0.00    -0.399 A  
HETATM   16  C   UNL     1      -9.496   5.373  69.223  1.00  0.00    -0.179 A  
HETATM   17  C   UNL     1      -8.592   5.378  68.153  1.00  0.00    -0.096 A  
BRANCH  15  18
HETATM   18  C   UNL     1     -11.654   6.159  70.302  1.00  0.00    -0.266 C  
BRANCH  18  19
HETATM   19  C   UNL     1     -11.182   6.974  71.502  1.00  0.00    -0.249 C  
HETATM   20  S   UNL     1      -9.687   6.404  72.374  1.00  0.00    -0.151 SA 
HETATM   21  C   UNL     1      -9.217   8.043  72.758  1.00  0.00    -0.252 C  
HETATM   22  N   UNL     1      -9.915   8.918  71.995  1.00  0.00    -0.322 N  
HETATM   23  O   UNL     1      -8.392   8.336  73.607  1.00  0.00    -0.226 OA 
HETATM   24  C   UNL     1     -10.933   8.440  71.222  1.00  0.00    -0.252 C  
HETATM   25  H   UNL     1      -9.685   9.911  71.999  1.00  0.00     0.000 HD 
HETATM   26  O   UNL     1     -11.608   9.146  70.484  1.00  0.00    -0.263 OA 
ENDBRANCH  18  19
ENDBRANCH  15  18
ENDBRANCH  11  12
ENDBRANCH  10  11
ENDBRANCH   9  10
ENDBRANCH   2   9
TORSDOF 7
ENDMDL
MODEL      239
REMARK 921   NORMALIZED FREE ENERGY PREDICTED BY IDOCK:   -3.84 KCAL/MOL
REMARK 922        TOTAL FREE ENERGY PREDICTED BY IDOCK:   -6.27 KCAL/MOL
REMARK 923 INTER-LIGAND FREE ENERGY PREDICTED BY IDOCK:   -5.72 KCAL/MOL
REMARK 924 INTRA-LIGAND FREE ENERGY PREDICTED BY IDOCK:   -0.55 KCAL/MOL
REMARK 927      BINDING AFFINITY PREDICTED BY RF-SCORE:    0.00 PKD
ROOT
HETATM    1  C   UNL     1      -9.523   2.754  69.967  1.00  0.00    -0.098 C  
HETATM    2  N   UNL     1      -9.654   4.144  70.406  1.00  0.00    -0.181 NA 
ENDROOT
BRANCH   2   3
HETATM    3  C   UNL     1      -9.929   4.250  71.785  1.00  0.00    -0.184 A  
HETATM    4  C   UNL     1      -9.970   3.349  73.926  1.00  0.00    -0.118 A  
HETATM    5  C   UNL     1     -10.545   4.478  74.478  1.00  0.00    -0.236 A  
HETATM    6  C   UNL     1     -10.508   5.422  72.277  1.00  0.00    -0.272 A  
HETATM    7  C   UNL     1     -10.821   5.537  73.630  1.00  0.00    -0.294 A  
HETATM    8  N   UNL     1      -9.664   3.216  72.615  1.00  0.00    -0.127 NA 
ENDBRANCH   2   3
BRANCH   2   9
HETATM    9  C   UNL     1      -8.564   5.032  69.952  1.00  0.00    -0.098 C  
BRANCH   9  10
HETATM   10  C   UNL     1      -9.096   6.260  69.199  1.00  0.00    -0.130 C  
BRANCH  10  11
HETATM   11  O   UNL     1      -8.893   7.474  69.937  1.00  0.00    -0.140 OA 
BRANCH  11  12
HETATM   12  C   UNL     1      -9.571   8.567  69.452  1.00  0.00    -0.170 A  
HETATM   13  C   UNL     1     -10.811  10.641  69.651  1.00  0.00    -0.318 A  
HETATM   14  C   UNL     1     -10.070   9.611  70.231  1.00  0.00    -0.331 A  
HETATM   15  C   UNL     1     -11.057  10.659  68.274  1.00  0.00    -0.334 A  
HETATM   16  C   UNL     1     -10.507   9.640  67.483  1.00  0.00    -0.321 A  
HETATM   17  C   UNL     1      -9.771   8.601  68.067  1.00  0.00    -0.184 A  
BRANCH  15  18
HETATM   18  C   UNL     1     -11.965  11.708  67.686  1.00  0.00    -0.086 C  
BRANCH  18  19
HETATM   19  C   UNL     1     -11.334  13.000  67.177  1.00  0.00    -0.305 C  
HETATM   20  S   UNL     1      -9.883  13.641  68.072  1.00  0.00    -0.250 SA 
HETATM   21  C   UNL     1      -9.188  14.285  66.603  1.00  0.00    -0.255 C  
HETATM   22  N   UNL     1      -9.806  13.748  65.523  1.00  0.00    -0.504 N  
HETATM   23  O   UNL     1      -8.292  15.110  66.575  1.00  0.00    -0.203 OA 
HETATM   24  C   UNL     1     -10.914  12.976  65.722  1.00  0.00    -0.277 C  
HETATM   25  H   UNL     1      -9.451  13.917  64.582  1.00  0.00     0.000 HD 
HETATM   26  O   UNL     1     -11.529  12.431  64.815  1.00  0.00    -0.307 OA 
ENDBRANCH  18  19
ENDBRANCH  15  18
ENDBRANCH  11  12
ENDBRANCH  10  11
ENDBRANCH   9  10
ENDBRANCH   2   9
TORSDOF 7
ENDMDL
MODEL      240
REMARK 921   NORMALIZED FREE ENERGY PREDICTED BY IDOCK:   -3.84 KCAL/MOL
REMARK 922        TOTAL FREE ENERGY PREDICTED BY IDOCK:   -6.27 KCAL/MOL
REMARK 923 INTER-LIGAND FREE ENERGY PREDICTED BY IDOCK:   -5.70 KCAL/MOL
REMARK 924 INTRA-LIGAND FREE ENERGY PREDICTED BY IDOCK:   -0.58 KCAL/MOL
REMARK 927      BINDING AFFINITY PREDICTED BY RF-SCORE:    0.00 PKD
ROOT
HETATM    1  C   UNL     1     -10.774  18.266  66.049  1.00  0.00    -0.168 C  
HETATM    2  N   UNL     1      -9.682  17.370  65.665  1.00  0.00    -0.509 NA 
ENDROOT
BRANCH   2   3
HETATM    3  C   UNL     1      -8.540  17.534  66.477  1.00  0.00    -0.263 A  
HETATM    4  C   UNL     1      -6.325  17.059  66.990  1.00  0.00    -0.196 A  
HETATM    5  C   UNL     1      -6.339  17.835  68.134  1.00  0.00    -0.182 A  
HETATM    6  C   UNL     1      -8.624  18.336  67.616  1.00  0.00    -0.261 A  
HETATM    7  C   UNL     1      -7.518  18.486  68.453  1.00  0.00    -0.315 A  
HETATM    8  N   UNL     1      -7.389  16.896  66.170  1.00  0.00    -0.219 NA 
ENDBRANCH   2   3
BRANCH   2   9
HETATM    9  C   UNL     1     -10.084  15.959  65.490  1.00  0.00    -0.320 C  
BRANCH   9  10
HETATM   10  C   UNL     1     -10.322  15.257  66.835  1.00  0.00    -0.278 C  
BRANCH  10  11
HETATM   11  O   UNL     1      -9.304  14.289  67.124  1.00  0.00    -0.210 OA 
BRANCH  11  12
HETATM   12  C   UNL     1      -9.770  13.061  67.534  1.00  0.00    -0.206 A  
HETATM   13  C   UNL     1     -11.467  11.362  67.866  1.00  0.00    -0.361 A  
HETATM   14  C   UNL     1     -11.070  12.594  67.346  1.00  0.00    -0.315 A  
HETATM   15  C   UNL     1     -10.565  10.561  68.575  1.00  0.00    -0.234 A  
HETATM   16  C   UNL     1      -9.242  11.004  68.716  1.00  0.00    -0.167 A  
HETATM   17  C   UNL     1      -8.847  12.246  68.201  1.00  0.00    -0.187 A  
BRANCH  15  18
HETATM   18  C   UNL     1     -11.044   9.295  69.237  1.00  0.00    -0.031 C  
BRANCH  18  19
HETATM   19  C   UNL     1     -10.049   8.151  69.404  1.00  0.00    -0.194 C  
HETATM   20  S   UNL     1      -9.734   7.545  71.093  1.00  0.00    -0.161 SA 
HETATM   21  C   UNL     1      -9.489   5.911  70.523  1.00  0.00    -0.167 C  
HETATM   22  N   UNL     1      -9.958   5.784  69.258  1.00  0.00    -0.168 N  
HETATM   23  O   UNL     1      -8.955   5.032  71.177  1.00  0.00    -0.132 OA 
HETATM   24  C   UNL     1     -10.362   6.908  68.598  1.00  0.00    -0.186 C  
HETATM   25  H   UNL     1     -10.007   4.870  68.810  1.00  0.00     0.000 HD 
HETATM   26  O   UNL     1     -10.818   6.896  67.462  1.00  0.00    -0.266 OA 
ENDBRANCH  18  19
ENDBRANCH  15  18
ENDBRANCH  11  12
ENDBRANCH  10  11
ENDBRANCH   9  10
ENDBRANCH   2   9
TORSDOF 7
ENDMDL
MODEL      241
REMARK 921   NORMALIZED FREE ENERGY PREDICTED BY IDOCK:   -3.84 KCAL/MOL
REMARK 922        TOTAL FREE ENERGY PREDICTED BY IDOCK:   -6.27 KCAL/MOL
REMARK 923 INTER-LIGAND FREE ENERGY PREDICTED BY IDOCK:   -5.38 KCAL/MOL
REMARK 924 INTRA-LIGAND FREE ENERGY PREDICTED BY IDOCK:   -0.88 KCAL/MOL
REMARK 927      BINDING AFFINITY PREDICTED BY RF-SCORE:    0.00 PKD
ROOT
HETATM    1  C   UNL     1     -10.122  10.605  67.426  1.00  0.00    -0.194 C  
HETATM    2  N   UNL     1     -10.255  10.783  65.980  1.00  0.00    -0.247 NA 
ENDROOT
BRANCH   2   3
HETATM    3  C   UNL     1     -11.074  11.882  65.646  1.00  0.00    -0.310 A  
HETATM    4  C   UNL     1     -12.098  13.250  64.073  1.00  0.00    -0.447 A  
HETATM    5  C   UNL     1     -12.637  14.086  65.032  1.00  0.00    -0.416 A  
HETATM    6  C   UNL     1     -11.588  12.684  66.666  1.00  0.00    -0.443 A  
HETATM    7  C   UNL     1     -12.372  13.795  66.359  1.00  0.00    -0.460 A  
HETATM    8  N   UNL     1     -11.331  12.171  64.350  1.00  0.00    -0.328 NA 
ENDBRANCH   2   3
BRANCH   2   9
HETATM    9  C   UNL     1      -8.975  10.755  65.243  1.00  0.00    -0.194 C  
BRANCH   9  10
HETATM   10  C   UNL     1      -8.870   9.535  64.316  1.00  0.00    -0.213 C  
BRANCH  10  11
HETATM   11  O   UNL     1      -7.727   8.723  64.621  1.00  0.00    -0.107 OA 
BRANCH  11  12
HETATM   12  C   UNL     1      -7.735   8.156  65.874  1.00  0.00    -0.091 A  
HETATM   13  C   UNL     1      -6.770   7.568  68.019  1.00  0.00    -0.059 A  
HETATM   14  C   UNL     1      -6.696   8.243  66.800  1.00  0.00    -0.064 A  
HETATM   15  C   UNL     1      -7.894   6.802  68.346  1.00  0.00    -0.114 A  
HETATM   16  C   UNL     1      -8.962   6.760  67.439  1.00  0.00    -0.115 A  
HETATM   17  C   UNL     1      -8.884   7.430  66.211  1.00  0.00    -0.182 A  
BRANCH  15  18
HETATM   18  C   UNL     1      -7.901   5.979  69.608  1.00  0.00    -0.102 C  
BRANCH  18  19
HETATM   19  C   UNL     1      -8.723   6.484  70.790  1.00  0.00    -0.143 C  
HETATM   20  S   UNL     1      -8.575   8.246  71.229  1.00  0.00    -0.162 SA 
HETATM   21  C   UNL     1     -10.243   8.316  71.748  1.00  0.00    -0.230 C  
HETATM   22  N   UNL     1     -10.917   7.233  71.291  1.00  0.00    -0.240 N  
HETATM   23  O   UNL     1     -10.707   9.207  72.437  1.00  0.00    -0.063 OA 
HETATM   24  C   UNL     1     -10.212   6.233  70.687  1.00  0.00    -0.194 C  
HETATM   25  H   UNL     1     -11.929   7.168  71.395  1.00  0.00     0.000 HD 
HETATM   26  O   UNL     1     -10.731   5.225  70.224  1.00  0.00    -0.265 OA 
ENDBRANCH  18  19
ENDBRANCH  15  18
ENDBRANCH  11  12
ENDBRANCH  10  11
ENDBRANCH   9  10
ENDBRANCH   2   9
TORSDOF 7
ENDMDL
MODEL      242
REMARK 921   NORMALIZED FREE ENERGY PREDICTED BY IDOCK:   -3.80 KCAL/MOL
REMARK 922        TOTAL FREE ENERGY PREDICTED BY IDOCK:   -6.21 KCAL/MOL
REMARK 923 INTER-LIGAND FREE ENERGY PREDICTED BY IDOCK:   -5.98 KCAL/MOL
REMARK 924 INTRA-LIGAND FREE ENERGY PREDICTED BY IDOCK:   -0.23 KCAL/MOL
REMARK 927      BINDING AFFINITY PREDICTED BY RF-SCORE:    0.00 PKD
ROOT
HETATM    1  C   UNL     1      -6.788  18.290  69.049  1.00  0.00    -0.254 C  
HETATM    2  N   UNL     1      -7.661  17.452  68.226  1.00  0.00    -0.224 NA 
ENDROOT
BRANCH   2   3
HETATM    3  C   UNL     1      -8.793  18.150  67.759  1.00  0.00    -0.256 A  
HETATM    4  C   UNL     1     -10.744  18.252  66.501  1.00  0.00    -0.170 A  
HETATM    5  C   UNL     1     -10.972  19.579  66.812  1.00  0.00    -0.391 A  
HETATM    6  C   UNL     1      -8.964  19.490  68.115  1.00  0.00    -0.380 A  
HETATM    7  C   UNL     1     -10.057  20.211  67.637  1.00  0.00    -0.542 A  
HETATM    8  N   UNL     1      -9.687  17.537  66.950  1.00  0.00    -0.279 NA 
ENDBRANCH   2   3
BRANCH   2   9
HETATM    9  C   UNL     1      -6.958  16.693  67.171  1.00  0.00    -0.191 C  
BRANCH   9  10
HETATM   10  C   UNL     1      -7.429  15.232  67.102  1.00  0.00    -0.167 C  
BRANCH  10  11
HETATM   11  O   UNL     1      -7.976  14.783  68.350  1.00  0.00    -0.125 OA 
BRANCH  11  12
HETATM   12  C   UNL     1      -8.811  13.694  68.259  1.00  0.00    -0.179 A  
HETATM   13  C   UNL     1     -10.959  12.594  68.025  1.00  0.00    -0.266 A  
HETATM   14  C   UNL     1     -10.184  13.755  68.025  1.00  0.00    -0.248 A  
HETATM   15  C   UNL     1     -10.373  11.343  68.244  1.00  0.00    -0.209 A  
HETATM   16  C   UNL     1      -8.984  11.276  68.424  1.00  0.00    -0.167 A  
HETATM   17  C   UNL     1      -8.208  12.442  68.433  1.00  0.00    -0.144 A  
BRANCH  15  18
HETATM   18  C   UNL     1     -11.241  10.118  68.368  1.00  0.00    -0.238 C  
BRANCH  18  19
HETATM   19  C   UNL     1     -11.032   9.208  69.574  1.00  0.00    -0.123 C  
HETATM   20  S   UNL     1      -9.407   8.404  69.754  1.00  0.00    -0.158 SA 
HETATM   21  C   UNL     1      -9.500   8.477  71.498  1.00  0.00    -0.222 C  
HETATM   22  N   UNL     1     -10.473   9.340  71.876  1.00  0.00    -0.210 N  
HETATM   23  O   UNL     1      -8.795   7.824  72.248  1.00  0.00    -0.117 OA 
HETATM   24  C   UNL     1     -11.296   9.855  70.917  1.00  0.00    -0.370 C  
HETATM   25  H   UNL     1     -10.589   9.599  72.856  1.00  0.00     0.000 HD 
HETATM   26  O   UNL     1     -12.191  10.656  71.154  1.00  0.00    -0.349 OA 
ENDBRANCH  18  19
ENDBRANCH  15  18
ENDBRANCH  11  12
ENDBRANCH  10  11
ENDBRANCH   9  10
ENDBRANCH   2   9
TORSDOF 7
ENDMDL
MODEL      243
REMARK 921   NORMALIZED FREE ENERGY PREDICTED BY IDOCK:   -3.80 KCAL/MOL
REMARK 922        TOTAL FREE ENERGY PREDICTED BY IDOCK:   -6.21 KCAL/MOL
REMARK 923 INTER-LIGAND FREE ENERGY PREDICTED BY IDOCK:   -5.76 KCAL/MOL
REMARK 924 INTRA-LIGAND FREE ENERGY PREDICTED BY IDOCK:   -0.44 KCAL/MOL
REMARK 927      BINDING AFFINITY PREDICTED BY RF-SCORE:    0.00 PKD
ROOT
HETATM    1  C   UNL     1     -11.328  14.404  69.798  1.00  0.00    -0.237 C  
HETATM    2  N   UNL     1     -11.973  13.691  68.695  1.00  0.00    -0.364 NA 
ENDROOT
BRANCH   2   3
HETATM    3  C   UNL     1     -11.306  13.882  67.467  1.00  0.00    -0.318 A  
HETATM    4  C   UNL     1     -10.278  15.258  65.904  1.00  0.00    -0.332 A  
HETATM    5  C   UNL     1     -10.055  14.221  65.017  1.00  0.00    -0.324 A  
HETATM    6  C   UNL     1     -11.111  12.789  66.620  1.00  0.00    -0.313 A  
HETATM    7  C   UNL     1     -10.485  12.958  65.386  1.00  0.00    -0.308 A  
HETATM    8  N   UNL     1     -10.888  15.114  67.102  1.00  0.00    -0.315 NA 
ENDBRANCH   2   3
BRANCH   2   9
HETATM    9  C   UNL     1     -12.286  12.276  68.983  1.00  0.00     0.004 C  
BRANCH   9  10
HETATM   10  C   UNL     1     -12.137  11.946  70.476  1.00  0.00    -0.331 C  
BRANCH  10  11
HETATM   11  O   UNL     1     -12.284  10.542  70.734  1.00  0.00    -0.306 OA 
BRANCH  11  12
HETATM   12  C   UNL     1     -11.104   9.858  70.907  1.00  0.00    -0.348 A  
HETATM   13  C   UNL     1      -8.826   9.242  70.350  1.00  0.00    -0.271 A  
HETATM   14  C   UNL     1      -9.952  10.041  70.144  1.00  0.00    -0.239 A  
HETATM   15  C   UNL     1      -8.824   8.251  71.336  1.00  0.00    -0.204 A  
HETATM   16  C   UNL     1      -9.962   8.104  72.142  1.00  0.00    -0.315 A  
HETATM   17  C   UNL     1     -11.095   8.900  71.928  1.00  0.00    -0.442 A  
BRANCH  15  18
HETATM   18  C   UNL     1      -7.649   7.315  71.458  1.00  0.00    -0.086 C  
BRANCH  18  19
HETATM   19  C   UNL     1      -7.694   6.000  70.685  1.00  0.00    -0.101 C  
HETATM   20  S   UNL     1      -9.096   4.882  71.004  1.00  0.00    -0.145 SA 
HETATM   21  C   UNL     1      -9.098   4.320  69.349  1.00  0.00    -0.117 C  
HETATM   22  N   UNL     1      -8.367   5.156  68.573  1.00  0.00    -0.089 N  
HETATM   23  O   UNL     1      -9.665   3.309  68.971  1.00  0.00    -0.099 OA 
HETATM   24  C   UNL     1      -7.645   6.143  69.179  1.00  0.00    -0.095 C  
HETATM   25  H   UNL     1      -8.357   5.050  67.559  1.00  0.00     0.000 HD 
HETATM   26  O   UNL     1      -6.970   6.959  68.565  1.00  0.00    -0.071 OA 
ENDBRANCH  18  19
ENDBRANCH  15  18
ENDBRANCH  11  12
ENDBRANCH  10  11
ENDBRANCH   9  10
ENDBRANCH   2   9
TORSDOF 7
ENDMDL
MODEL      244
REMARK 921   NORMALIZED FREE ENERGY PREDICTED BY IDOCK:   -3.79 KCAL/MOL
REMARK 922        TOTAL FREE ENERGY PREDICTED BY IDOCK:   -6.20 KCAL/MOL
REMARK 923 INTER-LIGAND FREE ENERGY PREDICTED BY IDOCK:   -5.82 KCAL/MOL
REMARK 924 INTRA-LIGAND FREE ENERGY PREDICTED BY IDOCK:   -0.38 KCAL/MOL
REMARK 927      BINDING AFFINITY PREDICTED BY RF-SCORE:    0.00 PKD
ROOT
HETATM    1  C   UNL     1      -9.096   3.191  67.477  1.00  0.00    -0.177 C  
HETATM    2  N   UNL     1      -8.647   4.348  66.702  1.00  0.00    -0.111 NA 
ENDROOT
BRANCH   2   3
HETATM    3  C   UNL     1      -8.648   4.100  65.314  1.00  0.00    -0.119 A  
HETATM    4  C   UNL     1      -7.529   3.670  63.324  1.00  0.00    -0.054 A  
HETATM    5  C   UNL     1      -8.691   3.678  62.575  1.00  0.00    -0.082 A  
HETATM    6  C   UNL     1      -9.859   4.120  64.619  1.00  0.00    -0.184 A  
HETATM    7  C   UNL     1      -9.882   3.911  63.240  1.00  0.00    -0.155 A  
HETATM    8  N   UNL     1      -7.486   3.876  64.660  1.00  0.00    -0.075 NA 
ENDBRANCH   2   3
BRANCH   2   9
HETATM    9  C   UNL     1      -9.298   5.621  67.074  1.00  0.00    -0.118 C  
BRANCH   9  10
HETATM   10  C   UNL     1      -8.298   6.633  67.654  1.00  0.00    -0.122 C  
BRANCH  10  11
HETATM   11  O   UNL     1      -8.829   7.322  68.794  1.00  0.00    -0.128 OA 
BRANCH  11  12
HETATM   12  C   UNL     1      -9.505   8.485  68.506  1.00  0.00    -0.142 A  
HETATM   13  C   UNL     1     -10.501  10.132  67.031  1.00  0.00    -0.302 A  
HETATM   14  C   UNL     1      -9.883   8.896  67.228  1.00  0.00    -0.256 A  
HETATM   15  C   UNL     1     -10.769  10.978  68.112  1.00  0.00    -0.246 A  
HETATM   16  C   UNL     1     -10.441  10.541  69.403  1.00  0.00    -0.264 A  
HETATM   17  C   UNL     1      -9.811   9.304  69.599  1.00  0.00    -0.196 A  
BRANCH  15  18
HETATM   18  C   UNL     1     -11.319  12.359  67.867  1.00  0.00    -0.344 C  
BRANCH  18  19
HETATM   19  C   UNL     1     -11.109  12.982  66.490  1.00  0.00    -0.288 C  
HETATM   20  S   UNL     1     -12.528  13.004  65.348  1.00  0.00    -0.410 SA 
HETATM   21  C   UNL     1     -12.014  14.520  64.646  1.00  0.00    -0.468 C  
HETATM   22  N   UNL     1     -11.089  15.110  65.441  1.00  0.00    -0.358 N  
HETATM   23  O   UNL     1     -12.425  14.955  63.585  1.00  0.00    -0.699 OA 
HETATM   24  C   UNL     1     -10.600  14.408  66.504  1.00  0.00    -0.296 C  
HETATM   25  H   UNL     1     -10.766  16.058  65.250  1.00  0.00     0.000 HD 
HETATM   26  O   UNL     1      -9.779  14.860  67.292  1.00  0.00    -0.224 OA 
ENDBRANCH  18  19
ENDBRANCH  15  18
ENDBRANCH  11  12
ENDBRANCH  10  11
ENDBRANCH   9  10
ENDBRANCH   2   9
TORSDOF 7
ENDMDL
MODEL      245
REMARK 921   NORMALIZED FREE ENERGY PREDICTED BY IDOCK:   -3.77 KCAL/MOL
REMARK 922        TOTAL FREE ENERGY PREDICTED BY IDOCK:   -6.17 KCAL/MOL
REMARK 923 INTER-LIGAND FREE ENERGY PREDICTED BY IDOCK:   -5.61 KCAL/MOL
REMARK 924 INTRA-LIGAND FREE ENERGY PREDICTED BY IDOCK:   -0.57 KCAL/MOL
REMARK 927      BINDING AFFINITY PREDICTED BY RF-SCORE:    0.00 PKD
ROOT
HETATM    1  C   UNL     1     -10.148  14.434  67.533  1.00  0.00    -0.232 C  
HETATM    2  N   UNL     1     -10.578  13.051  67.326  1.00  0.00    -0.241 NA 
ENDROOT
BRANCH   2   3
HETATM    3  C   UNL     1     -10.992  12.808  66.000  1.00  0.00    -0.278 A  
HETATM    4  C   UNL     1     -10.514  12.364  63.770  1.00  0.00    -0.443 A  
HETATM    5  C   UNL     1     -11.844  12.399  63.394  1.00  0.00    -0.571 A  
HETATM    6  C   UNL     1     -12.352  12.855  65.690  1.00  0.00    -0.482 A  
HETATM    7  C   UNL     1     -12.783  12.653  64.380  1.00  0.00    -0.417 A  
HETATM    8  N   UNL     1     -10.077  12.563  65.035  1.00  0.00    -0.265 NA 
ENDBRANCH   2   3
BRANCH   2   9
HETATM    9  C   UNL     1      -9.640  12.036  67.847  1.00  0.00    -0.196 C  
BRANCH   9  10
HETATM   10  C   UNL     1     -10.269  10.635  67.886  1.00  0.00    -0.177 C  
BRANCH  10  11
HETATM   11  O   UNL     1      -9.534   9.692  67.092  1.00  0.00    -0.143 OA 
BRANCH  11  12
HETATM   12  C   UNL     1      -9.637   8.384  67.503  1.00  0.00    -0.154 A  
HETATM   13  C   UNL     1     -10.787   6.275  67.835  1.00  0.00    -0.417 A  
HETATM   14  C   UNL     1     -10.752   7.569  67.313  1.00  0.00    -0.365 A  
HETATM   15  C   UNL     1      -9.697   5.762  68.546  1.00  0.00    -0.161 A  
HETATM   16  C   UNL     1      -8.554   6.560  68.689  1.00  0.00    -0.124 A  
HETATM   17  C   UNL     1      -8.523   7.862  68.173  1.00  0.00    -0.124 A  
BRANCH  15  18
HETATM   18  C   UNL     1      -9.802   4.413  69.210  1.00  0.00    -0.218 C  
BRANCH  18  19
HETATM   19  C   UNL     1      -9.289   3.195  68.447  1.00  0.00    -0.184 C  
HETATM   20  S   UNL     1      -8.976   3.387  66.663  1.00  0.00    -0.162 SA 
HETATM   21  C   UNL     1      -7.643   2.258  66.716  1.00  0.00    -0.066 C  
HETATM   22  N   UNL     1      -7.257   2.054  67.999  1.00  0.00    -0.046 N  
HETATM   23  O   UNL     1      -7.158   1.726  65.732  1.00  0.00    -0.048 OA 
HETATM   24  C   UNL     1      -8.019   2.583  69.000  1.00  0.00    -0.048 C  
HETATM   25  H   UNL     1      -6.416   1.519  68.211  1.00  0.00     0.000 HD 
HETATM   26  O   UNL     1      -7.744   2.472  70.188  1.00  0.00    -0.043 OA 
ENDBRANCH  18  19
ENDBRANCH  15  18
ENDBRANCH  11  12
ENDBRANCH  10  11
ENDBRANCH   9  10
ENDBRANCH   2   9
TORSDOF 7
ENDMDL
MODEL      246
REMARK 921   NORMALIZED FREE ENERGY PREDICTED BY IDOCK:   -3.74 KCAL/MOL
REMARK 922        TOTAL FREE ENERGY PREDICTED BY IDOCK:   -6.13 KCAL/MOL
REMARK 923 INTER-LIGAND FREE ENERGY PREDICTED BY IDOCK:   -6.18 KCAL/MOL
REMARK 924 INTRA-LIGAND FREE ENERGY PREDICTED BY IDOCK:    0.06 KCAL/MOL
REMARK 927      BINDING AFFINITY PREDICTED BY RF-SCORE:    0.00 PKD
ROOT
HETATM    1  C   UNL     1      -8.708   8.859  67.847  1.00  0.00    -0.129 C  
HETATM    2  N   UNL     1      -9.370   9.822  68.728  1.00  0.00    -0.146 NA 
ENDROOT
BRANCH   2   3
HETATM    3  C   UNL     1     -10.008   9.202  69.822  1.00  0.00    -0.193 A  
HETATM    4  C   UNL     1     -11.376   9.293  71.697  1.00  0.00    -0.397 A  
HETATM    5  C   UNL     1     -11.192   7.956  71.996  1.00  0.00    -0.339 A  
HETATM    6  C   UNL     1      -9.780   7.846  70.064  1.00  0.00    -0.179 A  
HETATM    7  C   UNL     1     -10.372   7.218  71.159  1.00  0.00    -0.207 A  
HETATM    8  N   UNL     1     -10.806   9.921  70.643  1.00  0.00    -0.320 NA 
ENDBRANCH   2   3
BRANCH   2   9
HETATM    9  C   UNL     1      -8.530  10.976  69.111  1.00  0.00    -0.012 C  
BRANCH   9  10
HETATM   10  C   UNL     1      -8.080  11.792  67.890  1.00  0.00    -0.144 C  
BRANCH  10  11
HETATM   11  O   UNL     1      -9.194  12.280  67.129  1.00  0.00    -0.184 OA 
BRANCH  11  12
HETATM   12  C   UNL     1      -9.190  13.636  66.900  1.00  0.00    -0.250 A  
HETATM   13  C   UNL     1      -8.348  15.897  67.144  1.00  0.00    -0.231 A  
HETATM   14  C   UNL     1      -8.222  14.525  67.367  1.00  0.00    -0.220 A  
HETATM   15  C   UNL     1      -9.439  16.410  66.436  1.00  0.00    -0.320 A  
HETATM   16  C   UNL     1     -10.384  15.512  65.919  1.00  0.00    -0.365 A  
HETATM   17  C   UNL     1     -10.262  14.135  66.150  1.00  0.00    -0.313 A  
BRANCH  15  18
HETATM   18  C   UNL     1      -9.625  17.900  66.317  1.00  0.00    -0.252 C  
BRANCH  18  19
HETATM   19  C   UNL     1      -8.576  18.808  66.952  1.00  0.00    -0.284 C  
HETATM   20  S   UNL     1      -8.399  18.754  68.765  1.00  0.00    -0.236 SA 
HETATM   21  C   UNL     1      -6.682  19.063  68.664  1.00  0.00    -0.278 C  
HETATM   22  N   UNL     1      -6.246  18.859  67.398  1.00  0.00    -0.179 N  
HETATM   23  O   UNL     1      -5.997  19.428  69.604  1.00  0.00    -0.243 OA 
HETATM   24  C   UNL     1      -7.170  18.631  66.419  1.00  0.00    -0.241 C  
HETATM   25  H   UNL     1      -5.250  18.876  67.180  1.00  0.00     0.000 HD 
HETATM   26  O   UNL     1      -6.876  18.416  65.250  1.00  0.00    -0.520 OA 
ENDBRANCH  18  19
ENDBRANCH  15  18
ENDBRANCH  11  12
ENDBRANCH  10  11
ENDBRANCH   9  10
ENDBRANCH   2   9
TORSDOF 7
ENDMDL
MODEL      247
REMARK 921   NORMALIZED FREE ENERGY PREDICTED BY IDOCK:   -3.72 KCAL/MOL
REMARK 922        TOTAL FREE ENERGY PREDICTED BY IDOCK:   -6.10 KCAL/MOL
REMARK 923 INTER-LIGAND FREE ENERGY PREDICTED BY IDOCK:   -5.78 KCAL/MOL
REMARK 924 INTRA-LIGAND FREE ENERGY PREDICTED BY IDOCK:   -0.31 KCAL/MOL
REMARK 927      BINDING AFFINITY PREDICTED BY RF-SCORE:    0.00 PKD
ROOT
HETATM    1  C   UNL     1     -13.788   7.317  71.342  1.00  0.00    -0.304 C  
HETATM    2  N   UNL     1     -12.436   7.878  71.327  1.00  0.00    -0.294 NA 
ENDROOT
BRANCH   2   3
HETATM    3  C   UNL     1     -12.434   9.272  71.113  1.00  0.00    -0.272 A  
HETATM    4  C   UNL     1     -11.846  11.136  69.858  1.00  0.00    -0.363 A  
HETATM    5  C   UNL     1     -12.397  12.022  70.766  1.00  0.00    -0.403 A  
HETATM    6  C   UNL     1     -13.011  10.109  72.070  1.00  0.00    -0.508 A  
HETATM    7  C   UNL     1     -12.991  11.492  71.899  1.00  0.00    -0.453 A  
HETATM    8  N   UNL     1     -11.851   9.792  70.010  1.00  0.00    -0.084 NA 
ENDBRANCH   2   3
BRANCH   2   9
HETATM    9  C   UNL     1     -11.587   7.452  72.458  1.00  0.00    -0.275 C  
BRANCH   9  10
HETATM   10  C   UNL     1     -10.154   7.992  72.339  1.00  0.00    -0.266 C  
BRANCH  10  11
HETATM   11  O   UNL     1      -9.423   7.348  71.285  1.00  0.00    -0.154 OA 
BRANCH  11  12
HETATM   12  C   UNL     1      -8.935   8.194  70.317  1.00  0.00    -0.146 A  
HETATM   13  C   UNL     1      -7.977  10.265  69.497  1.00  0.00    -0.171 A  
HETATM   14  C   UNL     1      -8.376   9.448  70.556  1.00  0.00    -0.233 A  
HETATM   15  C   UNL     1      -8.116   9.837  68.173  1.00  0.00    -0.108 A  
HETATM   16  C   UNL     1      -8.627   8.553  67.933  1.00  0.00    -0.134 A  
HETATM   17  C   UNL     1      -9.035   7.738  68.997  1.00  0.00    -0.145 A  
BRANCH  15  18
HETATM   18  C   UNL     1      -7.801  10.781  67.041  1.00  0.00    -0.121 C  
BRANCH  18  19
HETATM   19  C   UNL     1      -7.842  10.234  65.617  1.00  0.00    -0.151 C  
HETATM   20  S   UNL     1      -6.627   8.952  65.170  1.00  0.00    -0.065 SA 
HETATM   21  C   UNL     1      -7.756   8.181  64.081  1.00  0.00    -0.136 C  
HETATM   22  N   UNL     1      -9.012   8.629  64.319  1.00  0.00    -0.381 N  
HETATM   23  O   UNL     1      -7.437   7.373  63.225  1.00  0.00    -0.086 OA 
HETATM   24  C   UNL     1      -9.179   9.669  65.188  1.00  0.00    -0.246 C  
HETATM   25  H   UNL     1      -9.815   8.200  63.859  1.00  0.00     0.000 HD 
HETATM   26  O   UNL     1     -10.273  10.132  65.484  1.00  0.00    -0.286 OA 
ENDBRANCH  18  19
ENDBRANCH  15  18
ENDBRANCH  11  12
ENDBRANCH  10  11
ENDBRANCH   9  10
ENDBRANCH   2   9
TORSDOF 7
ENDMDL
MODEL      248
REMARK 921   NORMALIZED FREE ENERGY PREDICTED BY IDOCK:   -3.72 KCAL/MOL
REMARK 922        TOTAL FREE ENERGY PREDICTED BY IDOCK:   -6.09 KCAL/MOL
REMARK 923 INTER-LIGAND FREE ENERGY PREDICTED BY IDOCK:   -5.13 KCAL/MOL
REMARK 924 INTRA-LIGAND FREE ENERGY PREDICTED BY IDOCK:   -0.96 KCAL/MOL
REMARK 927      BINDING AFFINITY PREDICTED BY RF-SCORE:    0.00 PKD
ROOT
HETATM    1  C   UNL     1      -9.339   2.769  63.232  1.00  0.00    -0.094 C  
HETATM    2  N   UNL     1      -8.871   3.655  64.298  1.00  0.00    -0.104 NA 
ENDROOT
BRANCH   2   3
HETATM    3  C   UNL     1      -7.972   4.635  63.828  1.00  0.00    -0.095 A  
HETATM    4  C   UNL     1      -7.520   6.570  62.626  1.00  0.00    -0.071 A  
HETATM    5  C   UNL     1      -6.161   6.503  62.872  1.00  0.00    -0.034 A  
HETATM    6  C   UNL     1      -6.612   4.507  64.117  1.00  0.00    -0.043 A  
HETATM    7  C   UNL     1      -5.699   5.444  63.635  1.00  0.00    -0.014 A  
HETATM    8  N   UNL     1      -8.419   5.668  63.080  1.00  0.00    -0.058 NA 
ENDBRANCH   2   3
BRANCH   2   9
HETATM    9  C   UNL     1      -9.945   4.201  65.154  1.00  0.00    -0.210 C  
BRANCH   9  10
HETATM   10  C   UNL     1      -9.400   4.758  66.477  1.00  0.00    -0.144 C  
BRANCH  10  11
HETATM   11  O   UNL     1     -10.306   5.691  67.083  1.00  0.00    -0.195 OA 
BRANCH  11  12
HETATM   12  C   UNL     1      -9.979   7.015  66.906  1.00  0.00    -0.217 A  
HETATM   13  C   UNL     1      -8.673   8.847  66.004  1.00  0.00    -0.185 A  
HETATM   14  C   UNL     1      -8.980   7.487  66.056  1.00  0.00    -0.164 A  
HETATM   15  C   UNL     1      -9.371   9.769  66.791  1.00  0.00    -0.190 A  
HETATM   16  C   UNL     1     -10.414   9.302  67.603  1.00  0.00    -0.325 A  
HETATM   17  C   UNL     1     -10.715   7.935  67.663  1.00  0.00    -0.215 A  
BRANCH  15  18
HETATM   18  C   UNL     1      -8.942  11.213  66.816  1.00  0.00    -0.169 C  
BRANCH  18  19
HETATM   19  C   UNL     1      -9.905  12.259  66.261  1.00  0.00    -0.241 C  
HETATM   20  S   UNL     1     -10.884  11.809  64.792  1.00  0.00    -0.304 SA 
HETATM   21  C   UNL     1     -12.237  12.778  65.327  1.00  0.00    -0.483 C  
HETATM   22  N   UNL     1     -12.092  13.097  66.636  1.00  0.00    -0.378 N  
HETATM   23  O   UNL     1     -13.158  13.123  64.607  1.00  0.00    -0.699 OA 
HETATM   24  C   UNL     1     -10.916  12.789  67.255  1.00  0.00    -0.262 C  
HETATM   25  H   UNL     1     -12.846  13.556  67.147  1.00  0.00     0.000 HD 
HETATM   26  O   UNL     1     -10.696  13.017  68.438  1.00  0.00    -0.241 OA 
ENDBRANCH  18  19
ENDBRANCH  15  18
ENDBRANCH  11  12
ENDBRANCH  10  11
ENDBRANCH   9  10
ENDBRANCH   2   9
TORSDOF 7
ENDMDL
MODEL      249
REMARK 921   NORMALIZED FREE ENERGY PREDICTED BY IDOCK:   -3.71 KCAL/MOL
REMARK 922        TOTAL FREE ENERGY PREDICTED BY IDOCK:   -6.09 KCAL/MOL
REMARK 923 INTER-LIGAND FREE ENERGY PREDICTED BY IDOCK:   -5.75 KCAL/MOL
REMARK 924 INTRA-LIGAND FREE ENERGY PREDICTED BY IDOCK:   -0.33 KCAL/MOL
REMARK 927      BINDING AFFINITY PREDICTED BY RF-SCORE:    0.00 PKD
ROOT
HETATM    1  C   UNL     1     -10.503  10.781  63.970  1.00  0.00    -0.217 C  
HETATM    2  N   UNL     1     -10.195  11.078  65.369  1.00  0.00    -0.262 NA 
ENDROOT
BRANCH   2   3
HETATM    3  C   UNL     1     -10.787  12.281  65.807  1.00  0.00    -0.278 A  
HETATM    4  C   UNL     1     -12.624  13.688  66.011  1.00  0.00    -0.386 A  
HETATM    5  C   UNL     1     -11.894  14.686  66.628  1.00  0.00    -0.325 A  
HETATM    6  C   UNL     1      -9.990  13.246  66.427  1.00  0.00    -0.288 A  
HETATM    7  C   UNL     1     -10.545  14.457  66.838  1.00  0.00    -0.278 A  
HETATM    8  N   UNL     1     -12.103  12.509  65.600  1.00  0.00    -0.562 NA 
ENDBRANCH   2   3
BRANCH   2   9
HETATM    9  C   UNL     1     -10.408   9.945  66.294  1.00  0.00    -0.163 C  
BRANCH   9  10
HETATM   10  C   UNL     1      -9.290   9.839  67.342  1.00  0.00    -0.134 C  
BRANCH  10  11
HETATM   11  O   UNL     1      -9.602  10.568  68.537  1.00  0.00    -0.150 OA 
BRANCH  11  12
HETATM   12  C   UNL     1      -9.472   9.852  69.704  1.00  0.00    -0.231 A  
HETATM   13  C   UNL     1     -10.290   8.787  71.723  1.00  0.00    -0.413 A  
HETATM   14  C   UNL     1     -10.530   9.447  70.517  1.00  0.00    -0.335 A  
HETATM   15  C   UNL     1      -8.984   8.504  72.136  1.00  0.00    -0.300 A  
HETATM   16  C   UNL     1      -7.922   8.861  71.292  1.00  0.00    -0.172 A  
HETATM   17  C   UNL     1      -8.164   9.532  70.086  1.00  0.00    -0.192 A  
BRANCH  15  18
HETATM   18  C   UNL     1      -8.739   7.907  73.497  1.00  0.00    -0.321 C  
BRANCH  18  19
HETATM   19  C   UNL     1      -9.141   6.453  73.727  1.00  0.00    -0.132 C  
HETATM   20  S   UNL     1     -10.835   5.964  73.269  1.00  0.00    -0.238 SA 
HETATM   21  C   UNL     1     -10.311   4.359  72.818  1.00  0.00    -0.184 C  
HETATM   22  N   UNL     1      -8.963   4.330  72.684  1.00  0.00    -0.110 N  
HETATM   23  O   UNL     1     -11.063   3.411  72.670  1.00  0.00     0.103 OA 
HETATM   24  C   UNL     1      -8.247   5.429  73.062  1.00  0.00    -0.112 C  
HETATM   25  H   UNL     1      -8.494   3.506  72.308  1.00  0.00     0.000 HD 
HETATM   26  O   UNL     1      -7.030   5.509  72.961  1.00  0.00    -0.076 OA 
ENDBRANCH  18  19
ENDBRANCH  15  18
ENDBRANCH  11  12
ENDBRANCH  10  11
ENDBRANCH   9  10
ENDBRANCH   2   9
TORSDOF 7
ENDMDL
MODEL      250
REMARK 921   NORMALIZED FREE ENERGY PREDICTED BY IDOCK:   -3.68 KCAL/MOL
REMARK 922        TOTAL FREE ENERGY PREDICTED BY IDOCK:   -6.04 KCAL/MOL
REMARK 923 INTER-LIGAND FREE ENERGY PREDICTED BY IDOCK:   -5.35 KCAL/MOL
REMARK 924 INTRA-LIGAND FREE ENERGY PREDICTED BY IDOCK:   -0.70 KCAL/MOL
REMARK 927      BINDING AFFINITY PREDICTED BY RF-SCORE:    0.00 PKD
ROOT
HETATM    1  C   UNL     1     -10.002  10.934  64.465  1.00  0.00    -0.317 C  
HETATM    2  N   UNL     1      -9.537   9.606  64.865  1.00  0.00    -0.244 NA 
ENDROOT
BRANCH   2   3
HETATM    3  C   UNL     1      -8.144   9.452  64.703  1.00  0.00    -0.133 A  
HETATM    4  C   UNL     1      -5.993   9.368  65.575  1.00  0.00    -0.059 A  
HETATM    5  C   UNL     1      -5.408   9.209  64.333  1.00  0.00    -0.054 A  
HETATM    6  C   UNL     1      -7.620   9.292  63.419  1.00  0.00    -0.110 A  
HETATM    7  C   UNL     1      -6.244   9.173  63.230  1.00  0.00    -0.090 A  
HETATM    8  N   UNL     1      -7.324   9.491  65.778  1.00  0.00    -0.095 NA 
ENDBRANCH   2   3
BRANCH   2   9
HETATM    9  C   UNL     1     -10.031   9.158  66.183  1.00  0.00    -0.268 C  
BRANCH   9  10
HETATM   10  C   UNL     1     -11.135  10.076  66.727  1.00  0.00     0.187 C  
BRANCH  10  11
HETATM   11  O   UNL     1     -10.851  10.532  68.057  1.00  0.00    -0.221 OA 
BRANCH  11  12
HETATM   12  C   UNL     1     -10.423  11.836  68.144  1.00  0.00    -0.201 A  
HETATM   13  C   UNL     1      -8.766  13.606  68.097  1.00  0.00    -0.177 A  
HETATM   14  C   UNL     1      -9.118  12.268  67.909  1.00  0.00    -0.190 A  
HETATM   15  C   UNL     1      -9.717  14.544  68.511  1.00  0.00    -0.224 A  
HETATM   16  C   UNL     1     -11.041  14.121  68.693  1.00  0.00    -0.283 A  
HETATM   17  C   UNL     1     -11.392  12.777  68.513  1.00  0.00    -0.326 A  
BRANCH  15  18
HETATM   18  C   UNL     1      -9.291  15.954  68.832  1.00  0.00    -0.233 C  
BRANCH  18  19
HETATM   19  C   UNL     1      -9.989  17.098  68.102  1.00  0.00    -0.297 C  
HETATM   20  S   UNL     1      -9.713  18.788  68.723  1.00  0.00    -0.361 SA 
HETATM   21  C   UNL     1      -9.821  19.460  67.113  1.00  0.00    -0.338 C  
HETATM   22  N   UNL     1      -9.708  18.475  66.190  1.00  0.00    -0.285 N  
HETATM   23  O   UNL     1      -9.993  20.643  66.876  1.00  0.00    -0.418 OA 
HETATM   24  C   UNL     1      -9.703  17.178  66.618  1.00  0.00    -0.276 C  
HETATM   25  H   UNL     1      -9.628  18.697  65.198  1.00  0.00     0.000 HD 
HETATM   26  O   UNL     1      -9.585  16.220  65.865  1.00  0.00    -0.334 OA 
ENDBRANCH  18  19
ENDBRANCH  15  18
ENDBRANCH  11  12
ENDBRANCH  10  11
ENDBRANCH   9  10
ENDBRANCH   2   9
TORSDOF 7
ENDMDL
MODEL      251
REMARK 921   NORMALIZED FREE ENERGY PREDICTED BY IDOCK:   -3.68 KCAL/MOL
REMARK 922        TOTAL FREE ENERGY PREDICTED BY IDOCK:   -6.04 KCAL/MOL
REMARK 923 INTER-LIGAND FREE ENERGY PREDICTED BY IDOCK:   -5.71 KCAL/MOL
REMARK 924 INTRA-LIGAND FREE ENERGY PREDICTED BY IDOCK:   -0.33 KCAL/MOL
REMARK 927      BINDING AFFINITY PREDICTED BY RF-SCORE:    0.00 PKD
ROOT
HETATM    1  C   UNL     1     -12.394  14.537  64.477  1.00  0.00    -0.414 C  
HETATM    2  N   UNL     1     -11.499  14.232  65.595  1.00  0.00    -0.323 NA 
ENDROOT
BRANCH   2   3
HETATM    3  C   UNL     1     -10.991  15.395  66.210  1.00  0.00    -0.278 A  
HETATM    4  C   UNL     1      -9.819  17.398  66.117  1.00  0.00    -0.245 A  
HETATM    5  C   UNL     1      -9.956  17.635  67.472  1.00  0.00    -0.322 A  
HETATM    6  C   UNL     1     -11.168  15.573  67.584  1.00  0.00    -0.291 A  
HETATM    7  C   UNL     1     -10.646  16.697  68.221  1.00  0.00    -0.338 A  
HETATM    8  N   UNL     1     -10.313  16.311  65.482  1.00  0.00    -0.509 NA 
ENDBRANCH   2   3
BRANCH   2   9
HETATM    9  C   UNL     1     -12.035  13.244  66.553  1.00  0.00    -0.391 C  
BRANCH   9  10
HETATM   10  C   UNL     1     -11.021  12.133  66.863  1.00  0.00    -0.270 C  
BRANCH  10  11
HETATM   11  O   UNL     1     -11.150  11.645  68.206  1.00  0.00    -0.201 OA 
BRANCH  11  12
HETATM   12  C   UNL     1     -10.830  10.318  68.374  1.00  0.00    -0.245 A  
HETATM   13  C   UNL     1     -10.339   8.331  69.674  1.00  0.00    -0.218 A  
HETATM   14  C   UNL     1     -10.746   9.664  69.602  1.00  0.00    -0.260 A  
HETATM   15  C   UNL     1     -10.021   7.617  68.513  1.00  0.00    -0.190 A  
HETATM   16  C   UNL     1     -10.159   8.258  67.274  1.00  0.00    -0.315 A  
HETATM   17  C   UNL     1     -10.558   9.599  67.204  1.00  0.00    -0.298 A  
BRANCH  15  18
HETATM   18  C   UNL     1      -9.462   6.222  68.619  1.00  0.00    -0.121 C  
BRANCH  18  19
HETATM   19  C   UNL     1      -8.164   5.910  67.880  1.00  0.00    -0.108 C  
HETATM   20  S   UNL     1      -8.249   5.713  66.071  1.00  0.00    -0.117 SA 
HETATM   21  C   UNL     1      -6.650   6.387  65.864  1.00  0.00    -0.047 C  
HETATM   22  N   UNL     1      -6.263   7.021  66.997  1.00  0.00    -0.039 N  
HETATM   23  O   UNL     1      -5.987   6.274  64.848  1.00  0.00    -0.025 OA 
HETATM   24  C   UNL     1      -7.044   6.901  68.111  1.00  0.00    -0.085 C  
HETATM   25  H   UNL     1      -5.408   7.576  67.018  1.00  0.00     0.000 HD 
HETATM   26  O   UNL     1      -6.791   7.452  69.174  1.00  0.00    -0.057 OA 
ENDBRANCH  18  19
ENDBRANCH  15  18
ENDBRANCH  11  12
ENDBRANCH  10  11
ENDBRANCH   9  10
ENDBRANCH   2   9
TORSDOF 7
ENDMDL
MODEL      252
REMARK 921   NORMALIZED FREE ENERGY PREDICTED BY IDOCK:   -3.67 KCAL/MOL
REMARK 922        TOTAL FREE ENERGY PREDICTED BY IDOCK:   -6.02 KCAL/MOL
REMARK 923 INTER-LIGAND FREE ENERGY PREDICTED BY IDOCK:   -5.54 KCAL/MOL
REMARK 924 INTRA-LIGAND FREE ENERGY PREDICTED BY IDOCK:   -0.48 KCAL/MOL
REMARK 927      BINDING AFFINITY PREDICTED BY RF-SCORE:    0.00 PKD
ROOT
HETATM    1  C   UNL     1     -10.648  16.736  67.012  1.00  0.00    -0.234 C  
HETATM    2  N   UNL     1      -9.284  16.345  66.657  1.00  0.00    -0.236 NA 
ENDROOT
BRANCH   2   3
HETATM    3  C   UNL     1      -8.318  17.243  67.158  1.00  0.00    -0.201 A  
HETATM    4  C   UNL     1      -7.655  18.884  68.663  1.00  0.00    -0.331 A  
HETATM    5  C   UNL     1      -6.415  19.040  68.070  1.00  0.00    -0.241 A  
HETATM    6  C   UNL     1      -7.085  17.348  66.513  1.00  0.00    -0.300 A  
HETATM    7  C   UNL     1      -6.128  18.254  66.968  1.00  0.00    -0.179 A  
HETATM    8  N   UNL     1      -8.598  18.015  68.232  1.00  0.00    -0.280 NA 
ENDBRANCH   2   3
BRANCH   2   9
HETATM    9  C   UNL     1      -8.966  14.927  66.927  1.00  0.00    -0.253 C  
BRANCH   9  10
HETATM   10  C   UNL     1     -10.215  14.120  67.313  1.00  0.00    -0.256 C  
BRANCH  10  11
HETATM   11  O   UNL     1     -10.746  13.385  66.202  1.00  0.00    -0.280 OA 
BRANCH  11  12
HETATM   12  C   UNL     1     -10.554  12.025  66.261  1.00  0.00    -0.252 A  
HETATM   13  C   UNL     1     -10.507   9.865  67.362  1.00  0.00    -0.325 A  
HETATM   14  C   UNL     1     -10.806  11.228  67.377  1.00  0.00    -0.311 A  
HETATM   15  C   UNL     1      -9.963   9.265  66.221  1.00  0.00    -0.357 A  
HETATM   16  C   UNL     1      -9.763  10.054  65.080  1.00  0.00    -0.386 A  
HETATM   17  C   UNL     1     -10.054  11.425  65.099  1.00  0.00    -0.319 A  
BRANCH  15  18
HETATM   18  C   UNL     1      -9.529   7.823  66.265  1.00  0.00    -0.201 C  
BRANCH  18  19
HETATM   19  C   UNL     1      -8.172   7.500  66.882  1.00  0.00    -0.124 C  
HETATM   20  S   UNL     1      -7.110   8.899  67.366  1.00  0.00    -0.080 SA 
HETATM   21  C   UNL     1      -6.448   8.005  68.715  1.00  0.00    -0.049 C  
HETATM   22  N   UNL     1      -7.217   6.921  68.976  1.00  0.00    -0.088 N  
HETATM   23  O   UNL     1      -5.431   8.318  69.309  1.00  0.00    -0.030 OA 
HETATM   24  C   UNL     1      -8.221   6.608  68.104  1.00  0.00    -0.114 C  
HETATM   25  H   UNL     1      -7.050   6.351  69.805  1.00  0.00     0.000 HD 
HETATM   26  O   UNL     1      -8.981   5.662  68.263  1.00  0.00    -0.115 OA 
ENDBRANCH  18  19
ENDBRANCH  15  18
ENDBRANCH  11  12
ENDBRANCH  10  11
ENDBRANCH   9  10
ENDBRANCH   2   9
TORSDOF 7
ENDMDL
MODEL      253
REMARK 921   NORMALIZED FREE ENERGY PREDICTED BY IDOCK:   -3.62 KCAL/MOL
REMARK 922        TOTAL FREE ENERGY PREDICTED BY IDOCK:   -5.96 KCAL/MOL
REMARK 923 INTER-LIGAND FREE ENERGY PREDICTED BY IDOCK:   -5.81 KCAL/MOL
REMARK 924 INTRA-LIGAND FREE ENERGY PREDICTED BY IDOCK:   -0.15 KCAL/MOL
REMARK 927      BINDING AFFINITY PREDICTED BY RF-SCORE:    0.00 PKD
ROOT
HETATM    1  C   UNL     1     -12.484  10.610  71.234  1.00  0.00    -0.410 C  
HETATM    2  N   UNL     1     -11.353   9.991  70.542  1.00  0.00    -0.310 NA 
ENDROOT
BRANCH   2   3
HETATM    3  C   UNL     1     -11.173   8.640  70.905  1.00  0.00    -0.267 A  
HETATM    4  C   UNL     1     -11.053   6.386  70.357  1.00  0.00    -0.339 A  
HETATM    5  C   UNL     1     -10.878   5.993  71.671  1.00  0.00    -0.314 A  
HETATM    6  C   UNL     1     -10.997   8.314  72.251  1.00  0.00    -0.418 A  
HETATM    7  C   UNL     1     -10.852   6.983  72.639  1.00  0.00    -0.303 A  
HETATM    8  N   UNL     1     -11.201   7.671  69.963  1.00  0.00    -0.191 NA 
ENDBRANCH   2   3
BRANCH   2   9
HETATM    9  C   UNL     1     -11.334  10.218  69.082  1.00  0.00    -0.186 C  
BRANCH   9  10
HETATM   10  C   UNL     1     -10.438  11.403  68.695  1.00  0.00    -0.201 C  
BRANCH  10  11
HETATM   11  O   UNL     1     -11.200  12.524  68.225  1.00  0.00    -0.229 OA 
BRANCH  11  12
HETATM   12  C   UNL     1     -10.464  13.514  67.618  1.00  0.00    -0.238 A  
HETATM   13  C   UNL     1      -8.580  15.026  67.407  1.00  0.00    -0.208 A  
HETATM   14  C   UNL     1      -9.216  13.962  68.048  1.00  0.00    -0.193 A  
HETATM   15  C   UNL     1      -9.174  15.656  66.308  1.00  0.00    -0.365 A  
HETATM   16  C   UNL     1     -10.402  15.169  65.839  1.00  0.00    -0.344 A  
HETATM   17  C   UNL     1     -11.044  14.107  66.490  1.00  0.00    -0.318 A  
BRANCH  15  18
HETATM   18  C   UNL     1      -8.535  16.882  65.708  1.00  0.00     0.212 C  
BRANCH  18  19
HETATM   19  C   UNL     1      -7.943  17.920  66.657  1.00  0.00    -0.249 C  
HETATM   20  S   UNL     1      -8.687  18.071  68.313  1.00  0.00    -0.286 SA 
HETATM   21  C   UNL     1      -7.147  18.482  69.031  1.00  0.00    -0.260 C  
HETATM   22  N   UNL     1      -6.140  18.174  68.178  1.00  0.00    -0.175 N  
HETATM   23  O   UNL     1      -7.020  18.990  70.131  1.00  0.00     0.183 OA 
HETATM   24  C   UNL     1      -6.457  17.781  66.910  1.00  0.00    -0.170 C  
HETATM   25  H   UNL     1      -5.167  18.234  68.478  1.00  0.00     0.000 HD 
HETATM   26  O   UNL     1      -5.622  17.463  66.074  1.00  0.00    -0.232 OA 
ENDBRANCH  18  19
ENDBRANCH  15  18
ENDBRANCH  11  12
ENDBRANCH  10  11
ENDBRANCH   9  10
ENDBRANCH   2   9
TORSDOF 7
ENDMDL
MODEL      254
REMARK 921   NORMALIZED FREE ENERGY PREDICTED BY IDOCK:   -3.61 KCAL/MOL
REMARK 922        TOTAL FREE ENERGY PREDICTED BY IDOCK:   -5.95 KCAL/MOL
REMARK 923 INTER-LIGAND FREE ENERGY PREDICTED BY IDOCK:   -5.64 KCAL/MOL
REMARK 924 INTRA-LIGAND FREE ENERGY PREDICTED BY IDOCK:   -0.31 KCAL/MOL
REMARK 927      BINDING AFFINITY PREDICTED BY RF-SCORE:    0.00 PKD
ROOT
HETATM    1  C   UNL     1     -12.921  14.119  65.165  1.00  0.00    -0.177 C  
HETATM    2  N   UNL     1     -11.572  13.661  65.498  1.00  0.00    -0.317 NA 
ENDROOT
BRANCH   2   3
HETATM    3  C   UNL     1     -10.893  14.559  66.349  1.00  0.00    -0.318 A  
HETATM    4  C   UNL     1     -10.574  15.541  68.429  1.00  0.00    -0.252 A  
HETATM    5  C   UNL     1      -9.576  16.380  67.970  1.00  0.00    -0.226 A  
HETATM    6  C   UNL     1      -9.892  15.375  65.819  1.00  0.00    -0.399 A  
HETATM    7  C   UNL     1      -9.231  16.294  66.632  1.00  0.00    -0.271 A  
HETATM    8  N   UNL     1     -11.231  14.647  67.655  1.00  0.00    -0.307 NA 
ENDBRANCH   2   3
BRANCH   2   9
HETATM    9  C   UNL     1     -11.498  12.255  65.944  1.00  0.00    -0.376 C  
BRANCH   9  10
HETATM   10  C   UNL     1     -10.767  11.365  64.927  1.00  0.00    -0.286 C  
BRANCH  10  11
HETATM   11  O   UNL     1      -9.608  10.739  65.495  1.00  0.00    -0.196 OA 
BRANCH  11  12
HETATM   12  C   UNL     1      -9.852   9.965  66.606  1.00  0.00    -0.207 A  
HETATM   13  C   UNL     1     -10.718   8.028  67.779  1.00  0.00    -0.174 A  
HETATM   14  C   UNL     1     -10.443   8.703  66.588  1.00  0.00    -0.239 A  
HETATM   15  C   UNL     1     -10.391   8.596  69.015  1.00  0.00    -0.226 A  
HETATM   16  C   UNL     1      -9.746   9.840  69.031  1.00  0.00    -0.177 A  
HETATM   17  C   UNL     1      -9.479  10.522  67.835  1.00  0.00    -0.157 A  
BRANCH  15  18
HETATM   18  C   UNL     1     -10.810   7.912  70.290  1.00  0.00    -0.241 C  
BRANCH  18  19
HETATM   19  C   UNL     1      -9.792   7.819  71.423  1.00  0.00    -0.167 C  
HETATM   20  S   UNL     1     -10.393   7.281  73.056  1.00  0.00    -0.325 SA 
HETATM   21  C   UNL     1      -8.880   6.482  73.413  1.00  0.00    -0.123 C  
HETATM   22  N   UNL     1      -8.155   6.331  72.279  1.00  0.00    -0.108 N  
HETATM   23  O   UNL     1      -8.537   6.136  74.531  1.00  0.00    -0.122 OA 
HETATM   24  C   UNL     1      -8.597   6.935  71.138  1.00  0.00    -0.131 C  
HETATM   25  H   UNL     1      -7.298   5.778  72.278  1.00  0.00     0.000 HD 
HETATM   26  O   UNL     1      -8.024   6.841  70.059  1.00  0.00    -0.112 OA 
ENDBRANCH  18  19
ENDBRANCH  15  18
ENDBRANCH  11  12
ENDBRANCH  10  11
ENDBRANCH   9  10
ENDBRANCH   2   9
TORSDOF 7
ENDMDL
MODEL      255
REMARK 921   NORMALIZED FREE ENERGY PREDICTED BY IDOCK:   -3.60 KCAL/MOL
REMARK 922        TOTAL FREE ENERGY PREDICTED BY IDOCK:   -5.92 KCAL/MOL
REMARK 923 INTER-LIGAND FREE ENERGY PREDICTED BY IDOCK:   -4.76 KCAL/MOL
REMARK 924 INTRA-LIGAND FREE ENERGY PREDICTED BY IDOCK:   -1.16 KCAL/MOL
REMARK 927      BINDING AFFINITY PREDICTED BY RF-SCORE:    0.00 PKD
ROOT
HETATM    1  C   UNL     1      -6.294  10.963  66.331  1.00  0.00    -0.132 C  
HETATM    2  N   UNL     1      -7.308  11.164  67.366  1.00  0.00    -0.102 NA 
ENDROOT
BRANCH   2   3
HETATM    3  C   UNL     1      -8.375  10.247  67.261  1.00  0.00    -0.121 A  
HETATM    4  C   UNL     1      -9.446   8.489  66.184  1.00  0.00    -0.217 A  
HETATM    5  C   UNL     1     -10.521   8.505  67.054  1.00  0.00    -0.362 A  
HETATM    6  C   UNL     1      -9.427  10.317  68.176  1.00  0.00    -0.155 A  
HETATM    7  C   UNL     1     -10.509   9.444  68.071  1.00  0.00    -0.278 A  
HETATM    8  N   UNL     1      -8.391   9.331  66.266  1.00  0.00    -0.120 NA 
ENDBRANCH   2   3
BRANCH   2   9
HETATM    9  C   UNL     1      -6.766  11.284  68.736  1.00  0.00    -0.070 C  
BRANCH   9  10
HETATM   10  C   UNL     1      -5.457  10.499  68.908  1.00  0.00    -0.041 C  
BRANCH  10  11
HETATM   11  O   UNL     1      -5.678   9.082  68.932  1.00  0.00    -0.039 OA 
BRANCH  11  12
HETATM   12  C   UNL     1      -6.533   8.644  69.915  1.00  0.00    -0.034 A  
HETATM   13  C   UNL     1      -7.386   8.522  72.182  1.00  0.00    -0.106 A  
HETATM   14  C   UNL     1      -6.524   9.084  71.238  1.00  0.00    -0.085 A  
HETATM   15  C   UNL     1      -8.287   7.516  71.818  1.00  0.00    -0.116 A  
HETATM   16  C   UNL     1      -8.335   7.113  70.476  1.00  0.00    -0.131 A  
HETATM   17  C   UNL     1      -7.463   7.671  69.531  1.00  0.00    -0.092 A  
BRANCH  15  18
HETATM   18  C   UNL     1      -9.118   6.834  72.874  1.00  0.00    -0.142 C  
BRANCH  18  19
HETATM   19  C   UNL     1     -10.585   7.232  73.002  1.00  0.00    -0.326 C  
HETATM   20  S   UNL     1     -11.160   8.662  72.030  1.00  0.00    -0.367 SA 
HETATM   21  C   UNL     1     -12.745   7.956  71.821  1.00  0.00    -0.329 C  
HETATM   22  N   UNL     1     -12.712   6.638  72.135  1.00  0.00    -0.553 N  
HETATM   23  O   UNL     1     -13.729   8.580  71.464  1.00  0.00    -0.356 OA 
HETATM   24  C   UNL     1     -11.576   6.129  72.694  1.00  0.00    -0.197 C  
HETATM   25  H   UNL     1     -13.519   6.040  71.956  1.00  0.00     0.000 HD 
HETATM   26  O   UNL     1     -11.441   4.950  72.993  1.00  0.00    -0.293 OA 
ENDBRANCH  18  19
ENDBRANCH  15  18
ENDBRANCH  11  12
ENDBRANCH  10  11
ENDBRANCH   9  10
ENDBRANCH   2   9
TORSDOF 7
ENDMDL
MODEL      256
REMARK 921   NORMALIZED FREE ENERGY PREDICTED BY IDOCK:   -3.57 KCAL/MOL
REMARK 922        TOTAL FREE ENERGY PREDICTED BY IDOCK:   -5.89 KCAL/MOL
REMARK 923 INTER-LIGAND FREE ENERGY PREDICTED BY IDOCK:   -5.35 KCAL/MOL
REMARK 924 INTRA-LIGAND FREE ENERGY PREDICTED BY IDOCK:   -0.54 KCAL/MOL
REMARK 927      BINDING AFFINITY PREDICTED BY RF-SCORE:    0.00 PKD
ROOT
HETATM    1  C   UNL     1     -11.410  15.563  64.649  1.00  0.00    -0.357 C  
HETATM    2  N   UNL     1     -10.590  15.437  65.854  1.00  0.00    -0.322 NA 
ENDROOT
BRANCH   2   3
HETATM    3  C   UNL     1     -10.567  16.623  66.616  1.00  0.00    -0.203 A  
HETATM    4  C   UNL     1     -10.503  17.726  68.659  1.00  0.00    -0.292 A  
HETATM    5  C   UNL     1     -10.589  18.977  68.079  1.00  0.00    -0.387 A  
HETATM    6  C   UNL     1     -10.653  17.854  65.964  1.00  0.00    -0.235 A  
HETATM    7  C   UNL     1     -10.668  19.040  66.698  1.00  0.00    -0.429 A  
HETATM    8  N   UNL     1     -10.494  16.565  67.965  1.00  0.00    -0.300 NA 
ENDBRANCH   2   3
BRANCH   2   9
HETATM    9  C   UNL     1     -10.863  14.226  66.654  1.00  0.00    -0.301 C  
BRANCH   9  10
HETATM   10  C   UNL     1     -12.142  13.509  66.196  1.00  0.00    -0.436 C  
BRANCH  10  11
HETATM   11  O   UNL     1     -11.858  12.248  65.572  1.00  0.00    -0.395 OA 
BRANCH  11  12
HETATM   12  C   UNL     1     -11.460  11.252  66.433  1.00  0.00     0.123 A  
HETATM   13  C   UNL     1     -11.302  10.152  68.588  1.00  0.00    -0.172 A  
HETATM   14  C   UNL     1     -11.820  11.163  67.777  1.00  0.00    -0.098 A  
HETATM   15  C   UNL     1     -10.423   9.197  68.067  1.00  0.00    -0.276 A  
HETATM   16  C   UNL     1     -10.105   9.253  66.702  1.00  0.00    -0.341 A  
HETATM   17  C   UNL     1     -10.618  10.273  65.891  1.00  0.00    -0.083 A  
BRANCH  15  18
HETATM   18  C   UNL     1      -9.775   8.193  68.984  1.00  0.00    -0.163 C  
BRANCH  18  19
HETATM   19  C   UNL     1      -8.728   8.694  69.975  1.00  0.00    -0.141 C  
HETATM   20  S   UNL     1      -8.945   8.252  71.729  1.00  0.00    -0.202 SA 
HETATM   21  C   UNL     1      -7.218   8.172  71.982  1.00  0.00    -0.089 C  
HETATM   22  N   UNL     1      -6.575   8.122  70.790  1.00  0.00    -0.037 N  
HETATM   23  O   UNL     1      -6.687   8.181  73.079  1.00  0.00    -0.085 OA 
HETATM   24  C   UNL     1      -7.302   8.305  69.649  1.00  0.00    -0.073 C  
HETATM   25  H   UNL     1      -5.571   7.952  70.747  1.00  0.00     0.000 HD 
HETATM   26  O   UNL     1      -6.818   8.258  68.526  1.00  0.00    -0.061 OA 
ENDBRANCH  18  19
ENDBRANCH  15  18
ENDBRANCH  11  12
ENDBRANCH  10  11
ENDBRANCH   9  10
ENDBRANCH   2   9
TORSDOF 7
ENDMDL
MODEL      257
REMARK 921   NORMALIZED FREE ENERGY PREDICTED BY IDOCK:   -3.56 KCAL/MOL
REMARK 922        TOTAL FREE ENERGY PREDICTED BY IDOCK:   -5.87 KCAL/MOL
REMARK 923 INTER-LIGAND FREE ENERGY PREDICTED BY IDOCK:   -5.47 KCAL/MOL
REMARK 924 INTRA-LIGAND FREE ENERGY PREDICTED BY IDOCK:   -0.41 KCAL/MOL
REMARK 927      BINDING AFFINITY PREDICTED BY RF-SCORE:    0.00 PKD
ROOT
HETATM    1  C   UNL     1     -11.092   6.128  72.822  1.00  0.00    -0.259 C  
HETATM    2  N   UNL     1      -9.700   5.965  72.400  1.00  0.00    -0.159 NA 
ENDROOT
BRANCH   2   3
HETATM    3  C   UNL     1      -9.589   5.350  71.135  1.00  0.00    -0.164 A  
HETATM    4  C   UNL     1      -8.414   4.071  69.593  1.00  0.00    -0.060 A  
HETATM    5  C   UNL     1      -9.383   4.211  68.617  1.00  0.00    -0.219 A  
HETATM    6  C   UNL     1     -10.607   5.530  70.198  1.00  0.00    -0.367 A  
HETATM    7  C   UNL     1     -10.504   4.961  68.929  1.00  0.00     0.035 A  
HETATM    8  N   UNL     1      -8.494   4.620  70.826  1.00  0.00    -0.095 NA 
ENDBRANCH   2   3
BRANCH   2   9
HETATM    9  C   UNL     1      -8.875   7.183  72.538  1.00  0.00    -0.123 C  
BRANCH   9  10
HETATM   10  C   UNL     1      -9.237   8.247  71.491  1.00  0.00    -0.177 C  
BRANCH  10  11
HETATM   11  O   UNL     1      -8.535   8.047  70.256  1.00  0.00    -0.123 OA 
BRANCH  11  12
HETATM   12  C   UNL     1      -8.817   8.966  69.273  1.00  0.00    -0.139 A  
HETATM   13  C   UNL     1      -9.836   9.721  67.206  1.00  0.00    -0.228 A  
HETATM   14  C   UNL     1      -9.673   8.749  68.194  1.00  0.00    -0.177 A  
HETATM   15  C   UNL     1      -9.157  10.941  67.284  1.00  0.00    -0.146 A  
HETATM   16  C   UNL     1      -8.339  11.183  68.398  1.00  0.00    -0.149 A  
HETATM   17  C   UNL     1      -8.169  10.202  69.384  1.00  0.00    -0.171 A  
BRANCH  15  18
HETATM   18  C   UNL     1      -9.245  11.925  66.146  1.00  0.00    -0.204 C  
BRANCH  18  19
HETATM   19  C   UNL     1     -10.424  11.807  65.185  1.00  0.00    -0.283 C  
HETATM   20  S   UNL     1     -11.556  13.228  65.059  1.00  0.00    -0.332 SA 
HETATM   21  C   UNL     1     -11.857  12.913  63.366  1.00  0.00    -0.507 C  
HETATM   22  N   UNL     1     -10.922  12.061  62.879  1.00  0.00    -0.542 N  
HETATM   23  O   UNL     1     -12.788  13.385  62.738  1.00  0.00    -0.294 OA 
HETATM   24  C   UNL     1     -10.052  11.478  63.755  1.00  0.00    -0.366 C  
HETATM   25  H   UNL     1     -10.870  11.860  61.881  1.00  0.00     0.000 HD 
HETATM   26  O   UNL     1      -9.161  10.712  63.411  1.00  0.00    -0.217 OA 
ENDBRANCH  18  19
ENDBRANCH  15  18
ENDBRANCH  11  12
ENDBRANCH  10  11
ENDBRANCH   9  10
ENDBRANCH   2   9
TORSDOF 7
ENDMDL
MODEL      258
REMARK 921   NORMALIZED FREE ENERGY PREDICTED BY IDOCK:   -3.54 KCAL/MOL
REMARK 922        TOTAL FREE ENERGY PREDICTED BY IDOCK:   -5.84 KCAL/MOL
REMARK 923 INTER-LIGAND FREE ENERGY PREDICTED BY IDOCK:   -5.29 KCAL/MOL
REMARK 924 INTRA-LIGAND FREE ENERGY PREDICTED BY IDOCK:   -0.55 KCAL/MOL
REMARK 927      BINDING AFFINITY PREDICTED BY RF-SCORE:    0.00 PKD
ROOT
HETATM    1  C   UNL     1     -12.097  12.575  65.980  1.00  0.00    -0.321 C  
HETATM    2  N   UNL     1     -10.673  12.885  66.115  1.00  0.00    -0.269 NA 
ENDROOT
BRANCH   2   3
HETATM    3  C   UNL     1     -10.447  14.075  66.837  1.00  0.00    -0.276 A  
HETATM    4  C   UNL     1     -10.468  15.287  68.818  1.00  0.00    -0.237 A  
HETATM    5  C   UNL     1     -10.049  16.453  68.204  1.00  0.00    -0.251 A  
HETATM    6  C   UNL     1     -10.020  15.215  66.153  1.00  0.00    -0.317 A  
HETATM    7  C   UNL     1      -9.822  16.413  66.839  1.00  0.00    -0.266 A  
HETATM    8  N   UNL     1     -10.671  14.118  68.169  1.00  0.00    -0.240 NA 
ENDBRANCH   2   3
BRANCH   2   9
HETATM    9  C   UNL     1      -9.844  11.751  66.572  1.00  0.00    -0.206 C  
BRANCH   9  10
HETATM   10  C   UNL     1     -10.672  10.696  67.322  1.00  0.00    -0.285 C  
BRANCH  10  11
HETATM   11  O   UNL     1     -10.455   9.375  66.807  1.00  0.00    -0.243 OA 
BRANCH  11  12
HETATM   12  C   UNL     1     -10.505   8.371  67.745  1.00  0.00    -0.220 A  
HETATM   13  C   UNL     1     -10.114   7.392  69.929  1.00  0.00    -0.195 A  
HETATM   14  C   UNL     1     -10.093   8.494  69.072  1.00  0.00    -0.207 A  
HETATM   15  C   UNL     1     -10.561   6.145  69.481  1.00  0.00    -0.350 A  
HETATM   16  C   UNL     1     -11.028   6.035  68.163  1.00  0.00    -0.340 A  
HETATM   17  C   UNL     1     -10.998   7.139  67.300  1.00  0.00    -0.333 A  
BRANCH  15  18
HETATM   18  C   UNL     1     -10.456   4.941  70.380  1.00  0.00    -0.164 C  
BRANCH  18  19
HETATM   19  C   UNL     1      -9.076   4.331  70.605  1.00  0.00    -0.112 C  
HETATM   20  S   UNL     1      -8.508   4.139  72.326  1.00  0.00    -0.104 SA 
HETATM   21  C   UNL     1      -7.625   2.682  71.932  1.00  0.00    -0.048 C  
HETATM   22  N   UNL     1      -8.025   2.207  70.728  1.00  0.00    -0.042 N  
HETATM   23  O   UNL     1      -6.765   2.192  72.643  1.00  0.00    -0.017 OA 
HETATM   24  C   UNL     1      -8.868   2.971  69.973  1.00  0.00    -0.089 C  
HETATM   25  H   UNL     1      -7.704   1.299  70.393  1.00  0.00     0.000 HD 
HETATM   26  O   UNL     1      -9.301   2.622  68.883  1.00  0.00    -0.156 OA 
ENDBRANCH  18  19
ENDBRANCH  15  18
ENDBRANCH  11  12
ENDBRANCH  10  11
ENDBRANCH   9  10
ENDBRANCH   2   9
TORSDOF 7
ENDMDL
MODEL      259
REMARK 921   NORMALIZED FREE ENERGY PREDICTED BY IDOCK:   -3.53 KCAL/MOL
REMARK 922        TOTAL FREE ENERGY PREDICTED BY IDOCK:   -5.82 KCAL/MOL
REMARK 923 INTER-LIGAND FREE ENERGY PREDICTED BY IDOCK:   -5.23 KCAL/MOL
REMARK 924 INTRA-LIGAND FREE ENERGY PREDICTED BY IDOCK:   -0.59 KCAL/MOL
REMARK 927      BINDING AFFINITY PREDICTED BY RF-SCORE:    0.00 PKD
ROOT
HETATM    1  C   UNL     1      -9.102   3.227  67.359  1.00  0.00    -0.173 C  
HETATM    2  N   UNL     1      -8.781   4.257  66.371  1.00  0.00    -0.112 NA 
ENDROOT
BRANCH   2   3
HETATM    3  C   UNL     1      -9.094   3.858  65.055  1.00  0.00    -0.142 A  
HETATM    4  C   UNL     1      -8.468   3.019  62.981  1.00  0.00    -0.085 A  
HETATM    5  C   UNL     1      -9.740   3.145  62.456  1.00  0.00    -0.093 A  
HETATM    6  C   UNL     1     -10.401   4.010  64.589  1.00  0.00    -0.220 A  
HETATM    7  C   UNL     1     -10.728   3.654  63.281  1.00  0.00    -0.220 A  
HETATM    8  N   UNL     1      -8.131   3.363  64.245  1.00  0.00    -0.086 NA 
ENDBRANCH   2   3
BRANCH   2   9
HETATM    9  C   UNL     1      -9.279   5.606  66.712  1.00  0.00    -0.128 C  
BRANCH   9  10
HETATM   10  C   UNL     1      -8.137   6.623  66.852  1.00  0.00    -0.113 C  
BRANCH  10  11
HETATM   11  O   UNL     1      -8.275   7.430  68.030  1.00  0.00    -0.122 OA 
BRANCH  11  12
HETATM   12  C   UNL     1      -8.991   8.591  67.858  1.00  0.00    -0.137 A  
HETATM   13  C   UNL     1     -10.996   9.954  67.891  1.00  0.00    -0.281 A  
HETATM   14  C   UNL     1     -10.339   8.757  68.175  1.00  0.00    -0.266 A  
HETATM   15  C   UNL     1     -10.314  11.021  67.297  1.00  0.00    -0.249 A  
HETATM   16  C   UNL     1      -8.945  10.876  67.029  1.00  0.00    -0.148 A  
HETATM   17  C   UNL     1      -8.288   9.669  67.306  1.00  0.00    -0.114 A  
BRANCH  15  18
HETATM   18  C   UNL     1     -11.068  12.258  66.882  1.00  0.00    -0.341 C  
BRANCH  18  19
HETATM   19  C   UNL     1     -10.743  13.569  67.591  1.00  0.00    -0.248 C  
HETATM   20  S   UNL     1     -10.612  15.072  66.569  1.00  0.00    -0.312 SA 
HETATM   21  C   UNL     1     -11.243  16.072  67.856  1.00  0.00    -0.276 C  
HETATM   22  N   UNL     1     -11.825  15.298  68.804  1.00  0.00    -0.481 N  
HETATM   23  O   UNL     1     -11.146  17.286  67.888  1.00  0.00    -0.276 OA 
HETATM   24  C   UNL     1     -11.690  13.943  68.712  1.00  0.00    -0.357 C  
HETATM   25  H   UNL     1     -12.351  15.718  69.569  1.00  0.00     0.000 HD 
HETATM   26  O   UNL     1     -12.194  13.159  69.505  1.00  0.00    -0.258 OA 
ENDBRANCH  18  19
ENDBRANCH  15  18
ENDBRANCH  11  12
ENDBRANCH  10  11
ENDBRANCH   9  10
ENDBRANCH   2   9
TORSDOF 7
ENDMDL
MODEL      260
REMARK 921   NORMALIZED FREE ENERGY PREDICTED BY IDOCK:   -3.47 KCAL/MOL
REMARK 922        TOTAL FREE ENERGY PREDICTED BY IDOCK:   -5.75 KCAL/MOL
REMARK 923 INTER-LIGAND FREE ENERGY PREDICTED BY IDOCK:   -5.57 KCAL/MOL
REMARK 924 INTRA-LIGAND FREE ENERGY PREDICTED BY IDOCK:   -0.18 KCAL/MOL
REMARK 927      BINDING AFFINITY PREDICTED BY RF-SCORE:    0.00 PKD
ROOT
HETATM    1  C   UNL     1      -9.828   5.730  71.015  1.00  0.00    -0.178 C  
HETATM    2  N   UNL     1      -8.949   5.860  69.852  1.00  0.00    -0.138 NA 
ENDROOT
BRANCH   2   3
HETATM    3  C   UNL     1      -8.985   4.722  69.020  1.00  0.00    -0.104 A  
HETATM    4  C   UNL     1      -8.713   3.709  66.947  1.00  0.00    -0.117 A  
HETATM    5  C   UNL     1      -9.131   2.474  67.405  1.00  0.00    -0.201 A  
HETATM    6  C   UNL     1      -9.415   3.504  69.549  1.00  0.00    -0.236 A  
HETATM    7  C   UNL     1      -9.492   2.372  68.738  1.00  0.00    -0.182 A  
HETATM    8  N   UNL     1      -8.637   4.819  67.717  1.00  0.00    -0.103 NA 
ENDBRANCH   2   3
BRANCH   2   9
HETATM    9  C   UNL     1      -9.095   7.134  69.117  1.00  0.00    -0.137 C  
BRANCH   9  10
HETATM   10  C   UNL     1     -10.568   7.493  68.874  1.00  0.00    -0.169 C  
BRANCH  10  11
HETATM   11  O   UNL     1     -10.955   8.683  69.577  1.00  0.00    -0.179 OA 
BRANCH  11  12
HETATM   12  C   UNL     1     -10.789   9.852  68.873  1.00  0.00    -0.210 A  
HETATM   13  C   UNL     1     -11.214  12.186  68.371  1.00  0.00    -0.314 A  
HETATM   14  C   UNL     1     -11.385  11.071  69.193  1.00  0.00    -0.348 A  
HETATM   15  C   UNL     1     -10.428  12.109  67.217  1.00  0.00    -0.238 A  
HETATM   16  C   UNL     1      -9.783  10.900  66.924  1.00  0.00    -0.210 A  
HETATM   17  C   UNL     1      -9.963   9.778  67.745  1.00  0.00    -0.206 A  
BRANCH  15  18
HETATM   18  C   UNL     1     -10.359  13.284  66.275  1.00  0.00    -0.290 C  
BRANCH  18  19
HETATM   19  C   UNL     1      -9.732  14.578  66.787  1.00  0.00    -0.260 C  
HETATM   20  S   UNL     1      -8.057  14.483  67.496  1.00  0.00    -0.201 SA 
HETATM   21  C   UNL     1      -7.656  16.080  66.910  1.00  0.00    -0.233 C  
HETATM   22  N   UNL     1      -8.556  16.473  65.977  1.00  0.00    -0.286 N  
HETATM   23  O   UNL     1      -6.710  16.737  67.310  1.00  0.00    -0.142 OA 
HETATM   24  C   UNL     1      -9.662  15.699  65.772  1.00  0.00    -0.345 C  
HETATM   25  H   UNL     1      -8.411  17.327  65.440  1.00  0.00     0.000 HD 
HETATM   26  O   UNL     1     -10.521  15.957  64.938  1.00  0.00    -0.542 OA 
ENDBRANCH  18  19
ENDBRANCH  15  18
ENDBRANCH  11  12
ENDBRANCH  10  11
ENDBRANCH   9  10
ENDBRANCH   2   9
TORSDOF 7
ENDMDL
MODEL      261
REMARK 921   NORMALIZED FREE ENERGY PREDICTED BY IDOCK:   -3.44 KCAL/MOL
REMARK 922        TOTAL FREE ENERGY PREDICTED BY IDOCK:   -5.71 KCAL/MOL
REMARK 923 INTER-LIGAND FREE ENERGY PREDICTED BY IDOCK:   -4.88 KCAL/MOL
REMARK 924 INTRA-LIGAND FREE ENERGY PREDICTED BY IDOCK:   -0.83 KCAL/MOL
REMARK 927      BINDING AFFINITY PREDICTED BY RF-SCORE:    0.00 PKD
ROOT
HETATM    1  C   UNL     1      -8.697   3.920  64.867  1.00  0.00    -0.116 C  
HETATM    2  N   UNL     1      -8.315   4.837  65.941  1.00  0.00    -0.114 NA 
ENDROOT
BRANCH   2   3
HETATM    3  C   UNL     1      -7.716   6.017  65.455  1.00  0.00    -0.091 A  
HETATM    4  C   UNL     1      -5.875   7.414  65.217  1.00  0.00    -0.037 A  
HETATM    5  C   UNL     1      -6.593   8.378  64.534  1.00  0.00    -0.066 A  
HETATM    6  C   UNL     1      -8.500   6.947  64.770  1.00  0.00     0.100 A  
HETATM    7  C   UNL     1      -7.937   8.137  64.309  1.00  0.00    -0.144 A  
HETATM    8  N   UNL     1      -6.404   6.257  65.676  1.00  0.00    -0.037 NA 
ENDBRANCH   2   3
BRANCH   2   9
HETATM    9  C   UNL     1      -9.376   5.082  66.940  1.00  0.00    -0.131 C  
BRANCH   9  10
HETATM   10  C   UNL     1      -8.900   6.003  68.073  1.00  0.00    -0.110 C  
BRANCH  10  11
HETATM   11  O   UNL     1      -9.996   6.578  68.797  1.00  0.00    -0.137 OA 
BRANCH  11  12
HETATM   12  C   UNL     1     -10.239   7.904  68.524  1.00  0.00    -0.205 A  
HETATM   13  C   UNL     1     -10.791   9.781  67.091  1.00  0.00    -0.207 A  
HETATM   14  C   UNL     1     -10.642   8.407  67.288  1.00  0.00    -0.328 A  
HETATM   15  C   UNL     1     -10.554  10.682  68.135  1.00  0.00    -0.237 A  
HETATM   16  C   UNL     1     -10.204  10.173  69.393  1.00  0.00    -0.246 A  
HETATM   17  C   UNL     1     -10.046   8.795  69.587  1.00  0.00    -0.204 A  
BRANCH  15  18
HETATM   18  C   UNL     1     -10.595  12.165  67.870  1.00  0.00    -0.230 C  
BRANCH  18  19
HETATM   19  C   UNL     1     -10.689  12.634  66.421  1.00  0.00    -0.255 C  
HETATM   20  S   UNL     1     -12.339  13.063  65.779  1.00  0.00    -0.333 SA 
HETATM   21  C   UNL     1     -11.677  14.307  64.745  1.00  0.00    -0.415 C  
HETATM   22  N   UNL     1     -10.410  14.601  65.125  1.00  0.00    -0.395 N  
HETATM   23  O   UNL     1     -12.276  14.809  63.810  1.00  0.00    -0.555 OA 
HETATM   24  C   UNL     1      -9.817  13.822  66.076  1.00  0.00    -0.282 C  
HETATM   25  H   UNL     1      -9.912  15.389  64.711  1.00  0.00     0.000 HD 
HETATM   26  O   UNL     1      -8.685  14.019  66.500  1.00  0.00    -0.101 OA 
ENDBRANCH  18  19
ENDBRANCH  15  18
ENDBRANCH  11  12
ENDBRANCH  10  11
ENDBRANCH   9  10
ENDBRANCH   2   9
TORSDOF 7
ENDMDL
MODEL      262
REMARK 921   NORMALIZED FREE ENERGY PREDICTED BY IDOCK:   -3.41 KCAL/MOL
REMARK 922        TOTAL FREE ENERGY PREDICTED BY IDOCK:   -5.67 KCAL/MOL
REMARK 923 INTER-LIGAND FREE ENERGY PREDICTED BY IDOCK:   -5.97 KCAL/MOL
REMARK 924 INTRA-LIGAND FREE ENERGY PREDICTED BY IDOCK:    0.30 KCAL/MOL
REMARK 927      BINDING AFFINITY PREDICTED BY RF-SCORE:    0.00 PKD
ROOT
HETATM    1  C   UNL     1     -12.820  15.589  70.308  1.00  0.00    -0.195 C  
HETATM    2  N   UNL     1     -12.266  14.511  69.487  1.00  0.00    -0.295 NA 
ENDROOT
BRANCH   2   3
HETATM    3  C   UNL     1     -11.539  14.997  68.380  1.00  0.00    -0.331 A  
HETATM    4  C   UNL     1      -9.968  16.433  67.451  1.00  0.00    -0.251 A  
HETATM    5  C   UNL     1     -10.179  15.964  66.168  1.00  0.00    -0.340 A  
HETATM    6  C   UNL     1     -11.801  14.475  67.112  1.00  0.00    -0.412 A  
HETATM    7  C   UNL     1     -11.120  14.963  65.997  1.00  0.00    -0.334 A  
HETATM    8  N   UNL     1     -10.622  15.976  68.543  1.00  0.00    -0.255 NA 
ENDBRANCH   2   3
BRANCH   2   9
HETATM    9  C   UNL     1     -11.551  13.469  70.252  1.00  0.00    -0.066 C  
BRANCH   9  10
HETATM   10  C   UNL     1     -12.079  12.061  69.941  1.00  0.00    -0.263 C  
BRANCH  10  11
HETATM   11  O   UNL     1     -12.542  11.387  71.120  1.00  0.00    -0.394 OA 
BRANCH  11  12
HETATM   12  C   UNL     1     -12.091  10.096  71.265  1.00  0.00    -0.394 A  
HETATM   13  C   UNL     1     -11.881   7.963  72.400  1.00  0.00    -0.402 A  
HETATM   14  C   UNL     1     -12.453   9.232  72.297  1.00  0.00    -0.377 A  
HETATM   15  C   UNL     1     -10.942   7.525  71.460  1.00  0.00    -0.256 A  
HETATM   16  C   UNL     1     -10.619   8.371  70.390  1.00  0.00    -0.236 A  
HETATM   17  C   UNL     1     -11.187   9.649  70.294  1.00  0.00    -0.324 A  
BRANCH  15  18
HETATM   18  C   UNL     1     -10.241   6.206  71.657  1.00  0.00    -0.235 C  
BRANCH  18  19
HETATM   19  C   UNL     1      -8.844   6.039  71.068  1.00  0.00    -0.139 C  
HETATM   20  S   UNL     1      -8.527   6.768  69.428  1.00  0.00    -0.133 SA 
HETATM   21  C   UNL     1      -6.866   7.121  69.842  1.00  0.00    -0.056 C  
HETATM   22  N   UNL     1      -6.692   7.032  71.183  1.00  0.00    -0.055 N  
HETATM   23  O   UNL     1      -6.000   7.386  69.026  1.00  0.00    -0.028 OA 
HETATM   24  C   UNL     1      -7.717   6.545  71.942  1.00  0.00    -0.098 C  
HETATM   25  H   UNL     1      -5.815   7.322  71.615  1.00  0.00     0.000 HD 
HETATM   26  O   UNL     1      -7.664   6.445  73.161  1.00  0.00    -0.098 OA 
ENDBRANCH  18  19
ENDBRANCH  15  18
ENDBRANCH  11  12
ENDBRANCH  10  11
ENDBRANCH   9  10
ENDBRANCH   2   9
TORSDOF 7
ENDMDL
MODEL      263
REMARK 921   NORMALIZED FREE ENERGY PREDICTED BY IDOCK:   -3.41 KCAL/MOL
REMARK 922        TOTAL FREE ENERGY PREDICTED BY IDOCK:   -5.65 KCAL/MOL
REMARK 923 INTER-LIGAND FREE ENERGY PREDICTED BY IDOCK:   -4.92 KCAL/MOL
REMARK 924 INTRA-LIGAND FREE ENERGY PREDICTED BY IDOCK:   -0.74 KCAL/MOL
REMARK 927      BINDING AFFINITY PREDICTED BY RF-SCORE:    0.00 PKD
ROOT
HETATM    1  C   UNL     1      -8.798  15.813  68.014  1.00  0.00    -0.176 C  
HETATM    2  N   UNL     1      -9.506  14.568  68.313  1.00  0.00    -0.201 NA 
ENDROOT
BRANCH   2   3
HETATM    3  C   UNL     1     -10.547  14.751  69.247  1.00  0.00    -0.240 A  
HETATM    4  C   UNL     1     -12.394  13.963  70.413  1.00  0.00    -0.363 A  
HETATM    5  C   UNL     1     -12.615  15.174  71.043  1.00  0.00    -0.441 A  
HETATM    6  C   UNL     1     -10.710  16.000  69.849  1.00  0.00    -0.334 A  
HETATM    7  C   UNL     1     -11.751  16.215  70.750  1.00  0.00    -0.333 A  
HETATM    8  N   UNL     1     -11.393  13.736  69.533  1.00  0.00    -0.249 NA 
ENDBRANCH   2   3
BRANCH   2   9
HETATM    9  C   UNL     1      -9.914  13.797  67.120  1.00  0.00    -0.243 C  
BRANCH   9  10
HETATM   10  C   UNL     1      -9.161  12.462  67.011  1.00  0.00    -0.208 C  
BRANCH  10  11
HETATM   11  O   UNL     1      -8.326  12.221  68.152  1.00  0.00    -0.160 OA 
BRANCH  11  12
HETATM   12  C   UNL     1      -8.265  10.909  68.559  1.00  0.00    -0.140 A  
HETATM   13  C   UNL     1      -8.927   8.576  68.540  1.00  0.00    -0.139 A  
HETATM   14  C   UNL     1      -9.003   9.863  68.005  1.00  0.00    -0.121 A  
HETATM   15  C   UNL     1      -8.098   8.303  69.633  1.00  0.00    -0.116 A  
HETATM   16  C   UNL     1      -7.314   9.342  70.155  1.00  0.00    -0.096 A  
HETATM   17  C   UNL     1      -7.398  10.636  69.624  1.00  0.00    -0.133 A  
BRANCH  15  18
HETATM   18  C   UNL     1      -8.126   6.940  70.276  1.00  0.00    -0.120 C  
BRANCH  18  19
HETATM   19  C   UNL     1      -8.966   5.852  69.615  1.00  0.00    -0.130 C  
HETATM   20  S   UNL     1      -8.111   4.668  68.526  1.00  0.00    -0.083 SA 
HETATM   21  C   UNL     1      -9.197   3.376  68.982  1.00  0.00    -0.160 C  
HETATM   22  N   UNL     1      -9.883   3.718  70.099  1.00  0.00    -0.140 N  
HETATM   23  O   UNL     1      -9.319   2.335  68.360  1.00  0.00    -0.180 OA 
HETATM   24  C   UNL     1      -9.766   4.993  70.572  1.00  0.00    -0.204 C  
HETATM   25  H   UNL     1     -10.473   3.037  70.577  1.00  0.00     0.000 HD 
HETATM   26  O   UNL     1     -10.328   5.392  71.584  1.00  0.00    -0.205 OA 
ENDBRANCH  18  19
ENDBRANCH  15  18
ENDBRANCH  11  12
ENDBRANCH  10  11
ENDBRANCH   9  10
ENDBRANCH   2   9
TORSDOF 7
ENDMDL
MODEL      264
REMARK 921   NORMALIZED FREE ENERGY PREDICTED BY IDOCK:   -3.40 KCAL/MOL
REMARK 922        TOTAL FREE ENERGY PREDICTED BY IDOCK:   -5.65 KCAL/MOL
REMARK 923 INTER-LIGAND FREE ENERGY PREDICTED BY IDOCK:   -4.94 KCAL/MOL
REMARK 924 INTRA-LIGAND FREE ENERGY PREDICTED BY IDOCK:   -0.72 KCAL/MOL
REMARK 927      BINDING AFFINITY PREDICTED BY RF-SCORE:    0.00 PKD
ROOT
HETATM    1  C   UNL     1      -8.799  15.817  68.005  1.00  0.00    -0.176 C  
HETATM    2  N   UNL     1      -9.535  14.587  68.299  1.00  0.00    -0.201 NA 
ENDROOT
BRANCH   2   3
HETATM    3  C   UNL     1     -10.608  14.802  69.189  1.00  0.00    -0.248 A  
HETATM    4  C   UNL     1     -12.615  14.138  70.152  1.00  0.00    -0.268 A  
HETATM    5  C   UNL     1     -12.730  15.293  70.903  1.00  0.00    -0.496 A  
HETATM    6  C   UNL     1     -10.660  15.991  69.920  1.00  0.00    -0.314 A  
HETATM    7  C   UNL     1     -11.728  16.241  70.780  1.00  0.00    -0.224 A  
HETATM    8  N   UNL     1     -11.590  13.880  69.309  1.00  0.00    -0.288 NA 
ENDBRANCH   2   3
BRANCH   2   9
HETATM    9  C   UNL     1      -9.907  13.799  67.106  1.00  0.00    -0.242 C  
BRANCH   9  10
HETATM   10  C   UNL     1      -9.149  12.465  67.039  1.00  0.00    -0.207 C  
BRANCH  10  11
HETATM   11  O   UNL     1      -8.345  12.242  68.206  1.00  0.00    -0.167 OA 
BRANCH  11  12
HETATM   12  C   UNL     1      -8.275  10.933  68.621  1.00  0.00    -0.146 A  
HETATM   13  C   UNL     1      -8.897   8.590  68.593  1.00  0.00    -0.136 A  
HETATM   14  C   UNL     1      -8.977   9.873  68.050  1.00  0.00    -0.121 A  
HETATM   15  C   UNL     1      -8.098   8.336  69.713  1.00  0.00    -0.118 A  
HETATM   16  C   UNL     1      -7.347   9.390  70.253  1.00  0.00    -0.118 A  
HETATM   17  C   UNL     1      -7.436  10.680  69.714  1.00  0.00    -0.088 A  
BRANCH  15  18
HETATM   18  C   UNL     1      -8.122   6.976  70.361  1.00  0.00    -0.119 C  
BRANCH  18  19
HETATM   19  C   UNL     1      -9.123   6.735  71.488  1.00  0.00    -0.145 C  
HETATM   20  S   UNL     1     -10.685   5.899  71.065  1.00  0.00    -0.265 SA 
HETATM   21  C   UNL     1     -10.756   5.118  72.627  1.00  0.00    -0.237 C  
HETATM   22  N   UNL     1      -9.551   5.195  73.241  1.00  0.00    -0.140 N  
HETATM   23  O   UNL     1     -11.760   4.601  73.088  1.00  0.00    -0.257 OA 
HETATM   24  C   UNL     1      -8.578   5.966  72.673  1.00  0.00    -0.119 C  
HETATM   25  H   UNL     1      -9.374   4.689  74.108  1.00  0.00     0.000 HD 
HETATM   26  O   UNL     1      -7.452   6.084  73.139  1.00  0.00    -0.095 OA 
ENDBRANCH  18  19
ENDBRANCH  15  18
ENDBRANCH  11  12
ENDBRANCH  10  11
ENDBRANCH   9  10
ENDBRANCH   2   9
TORSDOF 7
ENDMDL
MODEL      265
REMARK 921   NORMALIZED FREE ENERGY PREDICTED BY IDOCK:   -3.35 KCAL/MOL
REMARK 922        TOTAL FREE ENERGY PREDICTED BY IDOCK:   -5.58 KCAL/MOL
REMARK 923 INTER-LIGAND FREE ENERGY PREDICTED BY IDOCK:   -5.63 KCAL/MOL
REMARK 924 INTRA-LIGAND FREE ENERGY PREDICTED BY IDOCK:    0.05 KCAL/MOL
REMARK 927      BINDING AFFINITY PREDICTED BY RF-SCORE:    0.00 PKD
ROOT
HETATM    1  C   UNL     1     -11.616  13.302  64.062  1.00  0.00    -0.409 C  
HETATM    2  N   UNL     1     -10.876  12.463  65.006  1.00  0.00    -0.285 NA 
ENDROOT
BRANCH   2   3
HETATM    3  C   UNL     1      -9.962  11.603  64.360  1.00  0.00    -0.262 A  
HETATM    4  C   UNL     1      -8.445  11.156  62.660  1.00  0.00    -0.125 A  
HETATM    5  C   UNL     1      -8.224   9.860  63.087  1.00  0.00    -0.155 A  
HETATM    6  C   UNL     1      -9.785  10.307  64.848  1.00  0.00    -0.385 A  
HETATM    7  C   UNL     1      -8.914   9.428  64.207  1.00  0.00    -0.204 A  
HETATM    8  N   UNL     1      -9.290  12.022  63.265  1.00  0.00    -0.156 NA 
ENDBRANCH   2   3
BRANCH   2   9
HETATM    9  C   UNL     1     -10.290  13.198  66.146  1.00  0.00    -0.284 C  
BRANCH   9  10
HETATM   10  C   UNL     1      -9.863  12.257  67.281  1.00  0.00    -0.205 C  
BRANCH  10  11
HETATM   11  O   UNL     1     -10.814  11.205  67.495  1.00  0.00    -0.219 OA 
BRANCH  11  12
HETATM   12  C   UNL     1     -10.691  10.546  68.696  1.00  0.00    -0.215 A  
HETATM   13  C   UNL     1     -11.296  10.040  70.989  1.00  0.00    -0.434 A  
HETATM   14  C   UNL     1     -11.549  10.697  69.784  1.00  0.00    -0.385 A  
HETATM   15  C   UNL     1     -10.183   9.202  71.126  1.00  0.00    -0.384 A  
HETATM   16  C   UNL     1      -9.351   9.006  70.015  1.00  0.00    -0.198 A  
HETATM   17  C   UNL     1      -9.601   9.674  68.809  1.00  0.00    -0.153 A  
BRANCH  15  18
HETATM   18  C   UNL     1      -9.855   8.603  72.469  1.00  0.00    -0.268 C  
BRANCH  18  19
HETATM   19  C   UNL     1      -9.075   7.292  72.499  1.00  0.00    -0.134 C  
HETATM   20  S   UNL     1      -7.500   7.267  73.413  1.00  0.00    -0.077 SA 
HETATM   21  C   UNL     1      -7.733   5.600  73.884  1.00  0.00    -0.100 C  
HETATM   22  N   UNL     1      -9.022   5.235  73.680  1.00  0.00    -0.124 N  
HETATM   23  O   UNL     1      -6.847   4.881  74.312  1.00  0.00    -0.069 OA 
HETATM   24  C   UNL     1      -9.848   6.101  73.024  1.00  0.00    -0.168 C  
HETATM   25  H   UNL     1      -9.367   4.334  74.011  1.00  0.00     0.000 HD 
HETATM   26  O   UNL     1     -11.032   5.872  72.810  1.00  0.00    -0.235 OA 
ENDBRANCH  18  19
ENDBRANCH  15  18
ENDBRANCH  11  12
ENDBRANCH  10  11
ENDBRANCH   9  10
ENDBRANCH   2   9
TORSDOF 7
ENDMDL
MODEL      266
REMARK 921   NORMALIZED FREE ENERGY PREDICTED BY IDOCK:   -3.35 KCAL/MOL
REMARK 922        TOTAL FREE ENERGY PREDICTED BY IDOCK:   -5.57 KCAL/MOL
REMARK 923 INTER-LIGAND FREE ENERGY PREDICTED BY IDOCK:   -4.95 KCAL/MOL
REMARK 924 INTRA-LIGAND FREE ENERGY PREDICTED BY IDOCK:   -0.63 KCAL/MOL
REMARK 927      BINDING AFFINITY PREDICTED BY RF-SCORE:    0.00 PKD
ROOT
HETATM    1  C   UNL     1      -9.006   2.741  63.149  1.00  0.00    -0.088 C  
HETATM    2  N   UNL     1      -8.568   3.369  64.396  1.00  0.00    -0.093 NA 
ENDROOT
BRANCH   2   3
HETATM    3  C   UNL     1      -7.738   4.487  64.173  1.00  0.00    -0.077 A  
HETATM    4  C   UNL     1      -5.640   5.483  64.114  1.00  0.00    -0.013 A  
HETATM    5  C   UNL     1      -6.150   6.726  63.787  1.00  0.00    -0.035 A  
HETATM    6  C   UNL     1      -8.320   5.713  63.843  1.00  0.00    -0.058 A  
HETATM    7  C   UNL     1      -7.523   6.841  63.651  1.00  0.00    -0.084 A  
HETATM    8  N   UNL     1      -6.397   4.379  64.309  1.00  0.00    -0.029 NA 
ENDBRANCH   2   3
BRANCH   2   9
HETATM    9  C   UNL     1      -9.654   3.624  65.366  1.00  0.00    -0.156 C  
BRANCH   9  10
HETATM   10  C   UNL     1      -9.116   3.861  66.784  1.00  0.00    -0.150 C  
BRANCH  10  11
HETATM   11  O   UNL     1     -10.154   4.246  67.696  1.00  0.00    -0.076 OA 
BRANCH  11  12
HETATM   12  C   UNL     1     -10.277   5.601  67.895  1.00  0.00    -0.187 A  
HETATM   13  C   UNL     1     -10.835   7.869  67.244  1.00  0.00    -0.189 A  
HETATM   14  C   UNL     1     -10.823   6.499  66.979  1.00  0.00    -0.465 A  
HETATM   15  C   UNL     1     -10.315   8.370  68.442  1.00  0.00    -0.239 A  
HETATM   16  C   UNL     1      -9.818   7.463  69.388  1.00  0.00    -0.168 A  
HETATM   17  C   UNL     1      -9.797   6.089  69.117  1.00  0.00    -0.185 A  
BRANCH  15  18
HETATM   18  C   UNL     1     -10.220   9.859  68.656  1.00  0.00    -0.197 C  
BRANCH  18  19
HETATM   19  C   UNL     1     -11.446  10.586  69.200  1.00  0.00    -0.247 C  
HETATM   20  S   UNL     1     -12.057  10.096  70.845  1.00  0.00    -0.386 SA 
HETATM   21  C   UNL     1     -12.579  11.725  71.201  1.00  0.00    -0.309 C  
HETATM   22  N   UNL     1     -12.018  12.595  70.326  1.00  0.00    -0.502 N  
HETATM   23  O   UNL     1     -13.353  12.015  72.097  1.00  0.00    -0.510 OA 
HETATM   24  C   UNL     1     -11.320  12.093  69.266  1.00  0.00    -0.266 C  
HETATM   25  H   UNL     1     -12.116  13.601  70.457  1.00  0.00     0.000 HD 
HETATM   26  O   UNL     1     -10.760  12.795  68.434  1.00  0.00    -0.235 OA 
ENDBRANCH  18  19
ENDBRANCH  15  18
ENDBRANCH  11  12
ENDBRANCH  10  11
ENDBRANCH   9  10
ENDBRANCH   2   9
TORSDOF 7
ENDMDL
MODEL      267
REMARK 921   NORMALIZED FREE ENERGY PREDICTED BY IDOCK:   -3.33 KCAL/MOL
REMARK 922        TOTAL FREE ENERGY PREDICTED BY IDOCK:   -5.55 KCAL/MOL
REMARK 923 INTER-LIGAND FREE ENERGY PREDICTED BY IDOCK:   -4.84 KCAL/MOL
REMARK 924 INTRA-LIGAND FREE ENERGY PREDICTED BY IDOCK:   -0.71 KCAL/MOL
REMARK 927      BINDING AFFINITY PREDICTED BY RF-SCORE:    0.00 PKD
ROOT
HETATM    1  C   UNL     1      -8.423  10.514  69.186  1.00  0.00    -0.147 C  
HETATM    2  N   UNL     1      -9.770  11.067  69.042  1.00  0.00    -0.174 NA 
ENDROOT
BRANCH   2   3
HETATM    3  C   UNL     1     -10.151  11.211  67.692  1.00  0.00    -0.179 A  
HETATM    4  C   UNL     1     -11.490  12.159  66.047  1.00  0.00    -0.370 A  
HETATM    5  C   UNL     1     -10.911  11.417  65.034  1.00  0.00    -0.311 A  
HETATM    6  C   UNL     1      -9.521  10.432  66.719  1.00  0.00    -0.198 A  
HETATM    7  C   UNL     1      -9.904  10.532  65.382  1.00  0.00    -0.335 A  
HETATM    8  N   UNL     1     -11.136  12.072  67.349  1.00  0.00    -0.263 NA 
ENDBRANCH   2   3
BRANCH   2   9
HETATM    9  C   UNL     1     -10.794  10.404  69.876  1.00  0.00    -0.298 C  
BRANCH   9  10
HETATM   10  C   UNL     1     -10.405   8.960  70.226  1.00  0.00    -0.206 C  
BRANCH  10  11
HETATM   11  O   UNL     1     -10.979   8.012  69.315  1.00  0.00    -0.116 OA 
BRANCH  11  12
HETATM   12  C   UNL     1     -10.081   7.145  68.738  1.00  0.00    -0.173 A  
HETATM   13  C   UNL     1      -7.931   6.513  67.813  1.00  0.00    -0.115 A  
HETATM   14  C   UNL     1      -8.745   7.436  68.471  1.00  0.00    -0.127 A  
HETATM   15  C   UNL     1      -8.435   5.268  67.421  1.00  0.00    -0.106 A  
HETATM   16  C   UNL     1      -9.764   4.952  67.739  1.00  0.00    -0.199 A  
HETATM   17  C   UNL     1     -10.582   5.884  68.392  1.00  0.00    -0.314 A  
BRANCH  15  18
HETATM   18  C   UNL     1      -7.582   4.336  66.600  1.00  0.00    -0.085 C  
BRANCH  18  19
HETATM   19  C   UNL     1      -7.998   4.064  65.157  1.00  0.00    -0.093 C  
HETATM   20  S   UNL     1      -9.388   2.920  64.881  1.00  0.00    -0.118 SA 
HETATM   21  C   UNL     1      -9.909   3.803  63.465  1.00  0.00    -0.165 C  
HETATM   22  N   UNL     1      -9.318   5.022  63.434  1.00  0.00    -0.342 N  
HETATM   23  O   UNL     1     -10.677   3.361  62.628  1.00  0.00    -0.176 OA 
HETATM   24  C   UNL     1      -8.342   5.297  64.348  1.00  0.00    -0.137 C  
HETATM   25  H   UNL     1      -9.597   5.719  62.744  1.00  0.00     0.000 HD 
HETATM   26  O   UNL     1      -7.764   6.374  64.415  1.00  0.00    -0.095 OA 
ENDBRANCH  18  19
ENDBRANCH  15  18
ENDBRANCH  11  12
ENDBRANCH  10  11
ENDBRANCH   9  10
ENDBRANCH   2   9
TORSDOF 7
ENDMDL
MODEL      268
REMARK 921   NORMALIZED FREE ENERGY PREDICTED BY IDOCK:   -3.30 KCAL/MOL
REMARK 922        TOTAL FREE ENERGY PREDICTED BY IDOCK:   -5.50 KCAL/MOL
REMARK 923 INTER-LIGAND FREE ENERGY PREDICTED BY IDOCK:   -4.92 KCAL/MOL
REMARK 924 INTRA-LIGAND FREE ENERGY PREDICTED BY IDOCK:   -0.58 KCAL/MOL
REMARK 927      BINDING AFFINITY PREDICTED BY RF-SCORE:    0.00 PKD
ROOT
HETATM    1  C   UNL     1      -8.998  11.810  68.237  1.00  0.00    -0.180 C  
HETATM    2  N   UNL     1     -10.426  12.128  68.242  1.00  0.00    -0.207 NA 
ENDROOT
BRANCH   2   3
HETATM    3  C   UNL     1     -10.951  12.268  66.940  1.00  0.00    -0.267 A  
HETATM    4  C   UNL     1     -11.091  11.596  64.721  1.00  0.00    -0.264 A  
HETATM    5  C   UNL     1     -11.958  12.618  64.382  1.00  0.00    -0.469 A  
HETATM    6  C   UNL     1     -11.825  13.322  66.668  1.00  0.00    -0.447 A  
HETATM    7  C   UNL     1     -12.331  13.501  65.381  1.00  0.00    -0.517 A  
HETATM    8  N   UNL     1     -10.586  11.409  65.962  1.00  0.00    -0.261 NA 
ENDBRANCH   2   3
BRANCH   2   9
HETATM    9  C   UNL     1     -11.241  11.260  69.117  1.00  0.00    -0.273 C  
BRANCH   9  10
HETATM   10  C   UNL     1     -10.443  10.746  70.324  1.00  0.00     0.375 C  
BRANCH  10  11
HETATM   11  O   UNL     1     -11.156   9.734  71.050  1.00  0.00    -0.325 OA 
BRANCH  11  12
HETATM   12  C   UNL     1     -10.844   8.441  70.701  1.00  0.00    -0.231 A  
HETATM   13  C   UNL     1     -11.234   6.051  70.576  1.00  0.00    -0.363 A  
HETATM   14  C   UNL     1     -11.672   7.337  70.896  1.00  0.00    -0.348 A  
HETATM   15  C   UNL     1      -9.959   5.844  70.038  1.00  0.00    -0.239 A  
HETATM   16  C   UNL     1      -9.147   6.959  69.789  1.00  0.00    -0.144 A  
HETATM   17  C   UNL     1      -9.585   8.249  70.120  1.00  0.00    -0.167 A  
BRANCH  15  18
HETATM   18  C   UNL     1      -9.455   4.441  69.818  1.00  0.00    -0.254 C  
BRANCH  18  19
HETATM   19  C   UNL     1      -8.310   3.944  70.695  1.00  0.00    -0.069 C  
HETATM   20  S   UNL     1      -8.708   3.447  72.402  1.00  0.00    -0.085 SA 
HETATM   21  C   UNL     1      -7.474   2.209  72.390  1.00  0.00    -0.043 C  
HETATM   22  N   UNL     1      -7.072   1.964  71.120  1.00  0.00    -0.032 N  
HETATM   23  O   UNL     1      -7.038   1.669  73.392  1.00  0.00    -0.025 OA 
HETATM   24  C   UNL     1      -7.526   2.781  70.124  1.00  0.00    -0.043 C  
HETATM   25  H   UNL     1      -6.445   1.188  70.911  1.00  0.00     0.000 HD 
HETATM   26  O   UNL     1      -7.238   2.630  68.944  1.00  0.00    -0.044 OA 
ENDBRANCH  18  19
ENDBRANCH  15  18
ENDBRANCH  11  12
ENDBRANCH  10  11
ENDBRANCH   9  10
ENDBRANCH   2   9
TORSDOF 7
ENDMDL
MODEL      269
REMARK 921   NORMALIZED FREE ENERGY PREDICTED BY IDOCK:   -3.27 KCAL/MOL
REMARK 922        TOTAL FREE ENERGY PREDICTED BY IDOCK:   -5.47 KCAL/MOL
REMARK 923 INTER-LIGAND FREE ENERGY PREDICTED BY IDOCK:   -4.96 KCAL/MOL
REMARK 924 INTRA-LIGAND FREE ENERGY PREDICTED BY IDOCK:   -0.51 KCAL/MOL
REMARK 927      BINDING AFFINITY PREDICTED BY RF-SCORE:    0.00 PKD
ROOT
HETATM    1  C   UNL     1      -6.618   4.960  69.525  1.00  0.00    -0.040 C  
HETATM    2  N   UNL     1      -7.838   5.316  68.800  1.00  0.00    -0.082 NA 
ENDROOT
BRANCH   2   3
HETATM    3  C   UNL     1      -8.105   4.437  67.730  1.00  0.00    -0.095 A  
HETATM    4  C   UNL     1      -8.607   2.322  66.911  1.00  0.00    -0.109 A  
HETATM    5  C   UNL     1      -8.559   2.733  65.592  1.00  0.00    -0.107 A  
HETATM    6  C   UNL     1      -8.042   4.920  66.421  1.00  0.00    -0.107 A  
HETATM    7  C   UNL     1      -8.268   4.063  65.344  1.00  0.00    -0.101 A  
HETATM    8  N   UNL     1      -8.386   3.137  67.968  1.00  0.00    -0.078 NA 
ENDBRANCH   2   3
BRANCH   2   9
HETATM    9  C   UNL     1      -9.010   5.564  69.665  1.00  0.00    -0.117 C  
BRANCH   9  10
HETATM   10  C   UNL     1      -9.911   6.677  69.109  1.00  0.00    -0.157 C  
BRANCH  10  11
HETATM   11  O   UNL     1      -9.335   7.978  69.292  1.00  0.00    -0.152 OA 
BRANCH  11  12
HETATM   12  C   UNL     1      -9.916   8.979  68.549  1.00  0.00    -0.176 A  
HETATM   13  C   UNL     1     -10.188  10.372  66.584  1.00  0.00    -0.292 A  
HETATM   14  C   UNL     1      -9.593   9.287  67.228  1.00  0.00    -0.200 A  
HETATM   15  C   UNL     1     -11.131  11.166  67.243  1.00  0.00    -0.366 A  
HETATM   16  C   UNL     1     -11.498  10.824  68.552  1.00  0.00    -0.362 A  
HETATM   17  C   UNL     1     -10.894   9.739  69.202  1.00  0.00    -0.231 A  
BRANCH  15  18
HETATM   18  C   UNL     1     -11.666  12.408  66.577  1.00  0.00    -0.443 C  
BRANCH  18  19
HETATM   19  C   UNL     1     -11.298  13.761  67.178  1.00  0.00    -0.324 C  
HETATM   20  S   UNL     1     -12.129  14.254  68.722  1.00  0.00    -0.202 SA 
HETATM   21  C   UNL     1     -10.712  15.112  69.278  1.00  0.00    -0.250 C  
HETATM   22  N   UNL     1      -9.631  14.749  68.547  1.00  0.00    -0.212 N  
HETATM   23  O   UNL     1     -10.719  15.930  70.182  1.00  0.00    -0.311 OA 
HETATM   24  C   UNL     1      -9.822  13.959  67.450  1.00  0.00    -0.237 C  
HETATM   25  H   UNL     1      -8.696  15.059  68.809  1.00  0.00     0.000 HD 
HETATM   26  O   UNL     1      -8.909  13.561  66.738  1.00  0.00    -0.213 OA 
ENDBRANCH  18  19
ENDBRANCH  15  18
ENDBRANCH  11  12
ENDBRANCH  10  11
ENDBRANCH   9  10
ENDBRANCH   2   9
TORSDOF 7
ENDMDL
MODEL      270
REMARK 921   NORMALIZED FREE ENERGY PREDICTED BY IDOCK:   -3.26 KCAL/MOL
REMARK 922        TOTAL FREE ENERGY PREDICTED BY IDOCK:   -5.44 KCAL/MOL
REMARK 923 INTER-LIGAND FREE ENERGY PREDICTED BY IDOCK:   -4.88 KCAL/MOL
REMARK 924 INTRA-LIGAND FREE ENERGY PREDICTED BY IDOCK:   -0.57 KCAL/MOL
REMARK 927      BINDING AFFINITY PREDICTED BY RF-SCORE:    0.00 PKD
ROOT
HETATM    1  C   UNL     1     -11.227  12.418  66.845  1.00  0.00    -0.305 C  
HETATM    2  N   UNL     1     -10.156  13.342  66.470  1.00  0.00    -0.274 NA 
ENDROOT
BRANCH   2   3
HETATM    3  C   UNL     1     -10.332  14.626  67.028  1.00  0.00    -0.263 A  
HETATM    4  C   UNL     1      -9.656  16.830  67.311  1.00  0.00    -0.234 A  
HETATM    5  C   UNL     1     -10.680  17.115  68.195  1.00  0.00    -0.366 A  
HETATM    6  C   UNL     1     -11.390  14.845  67.911  1.00  0.00    -0.340 A  
HETATM    7  C   UNL     1     -11.565  16.096  68.502  1.00  0.00    -0.265 A  
HETATM    8  N   UNL     1      -9.467  15.622  66.733  1.00  0.00    -0.230 NA 
ENDBRANCH   2   3
BRANCH   2   9
HETATM    9  C   UNL     1      -8.793  12.802  66.652  1.00  0.00    -0.108 C  
BRANCH   9  10
HETATM   10  C   UNL     1      -8.810  11.325  67.072  1.00  0.00    -0.153 C  
BRANCH  10  11
HETATM   11  O   UNL     1      -7.532  10.887  67.556  1.00  0.00    -0.093 OA 
BRANCH  11  12
HETATM   12  C   UNL     1      -7.574   9.820  68.422  1.00  0.00    -0.080 A  
HETATM   13  C   UNL     1      -8.043   7.525  69.049  1.00  0.00    -0.127 A  
HETATM   14  C   UNL     1      -7.962   8.525  68.079  1.00  0.00    -0.111 A  
HETATM   15  C   UNL     1      -7.722   7.795  70.383  1.00  0.00    -0.088 A  
HETATM   16  C   UNL     1      -7.277   9.082  70.718  1.00  0.00    -0.098 A  
HETATM   17  C   UNL     1      -7.205  10.088  69.746  1.00  0.00    -0.127 A  
BRANCH  15  18
HETATM   18  C   UNL     1      -7.938   6.739  71.437  1.00  0.00    -0.109 C  
BRANCH  18  19
HETATM   19  C   UNL     1      -9.347   6.557  71.992  1.00  0.00    -0.147 C  
HETATM   20  S   UNL     1     -10.096   4.900  71.867  1.00  0.00    -0.202 SA 
HETATM   21  C   UNL     1     -10.964   5.116  73.369  1.00  0.00    -0.320 C  
HETATM   22  N   UNL     1     -10.451   6.165  74.056  1.00  0.00    -0.336 N  
HETATM   23  O   UNL     1     -11.904   4.425  73.719  1.00  0.00    -0.071 OA 
HETATM   24  C   UNL     1      -9.518   6.952  73.444  1.00  0.00    -0.162 C  
HETATM   25  H   UNL     1     -10.755   6.363  75.008  1.00  0.00     0.000 HD 
HETATM   26  O   UNL     1      -8.981   7.909  73.987  1.00  0.00    -0.267 OA 
ENDBRANCH  18  19
ENDBRANCH  15  18
ENDBRANCH  11  12
ENDBRANCH  10  11
ENDBRANCH   9  10
ENDBRANCH   2   9
TORSDOF 7
ENDMDL
MODEL      271
REMARK 921   NORMALIZED FREE ENERGY PREDICTED BY IDOCK:   -3.26 KCAL/MOL
REMARK 922        TOTAL FREE ENERGY PREDICTED BY IDOCK:   -5.44 KCAL/MOL
REMARK 923 INTER-LIGAND FREE ENERGY PREDICTED BY IDOCK:   -4.91 KCAL/MOL
REMARK 924 INTRA-LIGAND FREE ENERGY PREDICTED BY IDOCK:   -0.53 KCAL/MOL
REMARK 927      BINDING AFFINITY PREDICTED BY RF-SCORE:    0.00 PKD
ROOT
HETATM    1  C   UNL     1      -8.678   6.515  70.384  1.00  0.00    -0.147 C  
HETATM    2  N   UNL     1      -7.955   6.489  69.112  1.00  0.00    -0.110 NA 
ENDROOT
BRANCH   2   3
HETATM    3  C   UNL     1      -8.447   5.502  68.232  1.00  0.00    -0.097 A  
HETATM    4  C   UNL     1      -8.449   4.436  66.169  1.00  0.00    -0.113 A  
HETATM    5  C   UNL     1      -9.488   3.592  66.515  1.00  0.00    -0.172 A  
HETATM    6  C   UNL     1      -9.496   4.681  68.648  1.00  0.00    -0.213 A  
HETATM    7  C   UNL     1     -10.023   3.721  67.785  1.00  0.00     0.130 A  
HETATM    8  N   UNL     1      -7.928   5.376  66.990  1.00  0.00    -0.101 NA 
ENDBRANCH   2   3
BRANCH   2   9
HETATM    9  C   UNL     1      -7.786   7.813  68.479  1.00  0.00    -0.118 C  
BRANCH   9  10
HETATM   10  C   UNL     1      -9.116   8.571  68.364  1.00  0.00    -0.139 C  
BRANCH  10  11
HETATM   11  O   UNL     1      -9.216   9.632  69.324  1.00  0.00    -0.163 OA 
BRANCH  11  12
HETATM   12  C   UNL     1      -9.212  10.900  68.791  1.00  0.00    -0.183 A  
HETATM   13  C   UNL     1     -10.244  12.923  67.942  1.00  0.00    -0.233 A  
HETATM   14  C   UNL     1     -10.347  11.675  68.558  1.00  0.00    -0.224 A  
HETATM   15  C   UNL     1      -8.998  13.430  67.557  1.00  0.00    -0.207 A  
HETATM   16  C   UNL     1      -7.851  12.675  67.841  1.00  0.00    -0.154 A  
HETATM   17  C   UNL     1      -7.956  11.418  68.451  1.00  0.00    -0.142 A  
BRANCH  15  18
HETATM   18  C   UNL     1      -8.918  14.718  66.779  1.00  0.00    -0.292 C  
BRANCH  18  19
HETATM   19  C   UNL     1      -9.908  15.827  67.123  1.00  0.00    -0.226 C  
HETATM   20  S   UNL     1      -9.594  16.801  68.631  1.00  0.00    -0.262 SA 
HETATM   21  C   UNL     1     -10.268  18.243  67.909  1.00  0.00    -0.384 C  
HETATM   22  N   UNL     1     -10.372  18.086  66.567  1.00  0.00    -0.376 N  
HETATM   23  O   UNL     1     -10.608  19.228  68.541  1.00  0.00    -0.241 OA 
HETATM   24  C   UNL     1     -10.119  16.856  66.033  1.00  0.00    -0.319 C  
HETATM   25  H   UNL     1     -10.633  18.870  65.970  1.00  0.00     0.000 HD 
HETATM   26  O   UNL     1     -10.166  16.619  64.833  1.00  0.00    -0.426 OA 
ENDBRANCH  18  19
ENDBRANCH  15  18
ENDBRANCH  11  12
ENDBRANCH  10  11
ENDBRANCH   9  10
ENDBRANCH   2   9
TORSDOF 7
ENDMDL
MODEL      272
REMARK 921   NORMALIZED FREE ENERGY PREDICTED BY IDOCK:   -3.24 KCAL/MOL
REMARK 922        TOTAL FREE ENERGY PREDICTED BY IDOCK:   -5.42 KCAL/MOL
REMARK 923 INTER-LIGAND FREE ENERGY PREDICTED BY IDOCK:   -5.01 KCAL/MOL
REMARK 924 INTRA-LIGAND FREE ENERGY PREDICTED BY IDOCK:   -0.41 KCAL/MOL
REMARK 927      BINDING AFFINITY PREDICTED BY RF-SCORE:    0.00 PKD
ROOT
HETATM    1  C   UNL     1      -9.069  10.668  62.828  1.00  0.00    -0.294 C  
HETATM    2  N   UNL     1      -9.251  10.982  64.246  1.00  0.00    -0.184 NA 
ENDROOT
BRANCH   2   3
HETATM    3  C   UNL     1     -10.188  12.015  64.453  1.00  0.00    -0.302 A  
HETATM    4  C   UNL     1     -11.231  13.568  65.830  1.00  0.00    -0.300 A  
HETATM    5  C   UNL     1     -12.086  13.999  64.833  1.00  0.00    -0.435 A  
HETATM    6  C   UNL     1     -11.019  12.403  63.401  1.00  0.00    -0.442 A  
HETATM    7  C   UNL     1     -11.977  13.398  63.591  1.00  0.00    -0.504 A  
HETATM    8  N   UNL     1     -10.300  12.601  65.667  1.00  0.00    -0.269 NA 
ENDBRANCH   2   3
BRANCH   2   9
HETATM    9  C   UNL     1      -9.473   9.802  65.107  1.00  0.00    -0.273 C  
BRANCH   9  10
HETATM   10  C   UNL     1      -8.290   9.548  66.054  1.00  0.00    -0.119 C  
BRANCH  10  11
HETATM   11  O   UNL     1      -8.669   9.665  67.433  1.00  0.00    -0.128 OA 
BRANCH  11  12
HETATM   12  C   UNL     1      -8.974   8.476  68.053  1.00  0.00    -0.141 A  
HETATM   13  C   UNL     1      -9.722   6.170  68.123  1.00  0.00    -0.125 A  
HETATM   14  C   UNL     1      -9.360   7.307  67.398  1.00  0.00    -0.148 A  
HETATM   15  C   UNL     1      -9.691   6.174  69.521  1.00  0.00    -0.175 A  
HETATM   16  C   UNL     1      -9.250   7.331  70.179  1.00  0.00    -0.152 A  
HETATM   17  C   UNL     1      -8.895   8.475  69.451  1.00  0.00    -0.141 A  
BRANCH  15  18
HETATM   18  C   UNL     1     -10.207   4.983  70.288  1.00  0.00    -0.328 C  
BRANCH  18  19
HETATM   19  C   UNL     1      -9.300   3.763  70.413  1.00  0.00    -0.165 C  
HETATM   20  S   UNL     1      -8.815   2.909  68.878  1.00  0.00    -0.117 SA 
HETATM   21  C   UNL     1      -7.255   2.483  69.540  1.00  0.00    -0.044 C  
HETATM   22  N   UNL     1      -7.002   3.221  70.647  1.00  0.00    -0.033 N  
HETATM   23  O   UNL     1      -6.523   1.629  69.069  1.00  0.00    -0.028 OA 
HETATM   24  C   UNL     1      -8.000   4.005  71.150  1.00  0.00    -0.067 C  
HETATM   25  H   UNL     1      -6.086   3.192  71.095  1.00  0.00     0.000 HD 
HETATM   26  O   UNL     1      -7.864   4.723  72.132  1.00  0.00    -0.099 OA 
ENDBRANCH  18  19
ENDBRANCH  15  18
ENDBRANCH  11  12
ENDBRANCH  10  11
ENDBRANCH   9  10
ENDBRANCH   2   9
TORSDOF 7
ENDMDL
MODEL      273
REMARK 921   NORMALIZED FREE ENERGY PREDICTED BY IDOCK:   -3.24 KCAL/MOL
REMARK 922        TOTAL FREE ENERGY PREDICTED BY IDOCK:   -5.42 KCAL/MOL
REMARK 923 INTER-LIGAND FREE ENERGY PREDICTED BY IDOCK:   -5.20 KCAL/MOL
REMARK 924 INTRA-LIGAND FREE ENERGY PREDICTED BY IDOCK:   -0.22 KCAL/MOL
REMARK 927      BINDING AFFINITY PREDICTED BY RF-SCORE:    0.00 PKD
ROOT
HETATM    1  C   UNL     1     -10.083  15.726  65.843  1.00  0.00    -0.356 C  
HETATM    2  N   UNL     1     -10.490  14.427  66.380  1.00  0.00    -0.289 NA 
ENDROOT
BRANCH   2   3
HETATM    3  C   UNL     1     -11.066  13.595  65.397  1.00  0.00    -0.298 A  
HETATM    4  C   UNL     1     -10.902  12.322  63.462  1.00  0.00    -0.454 A  
HETATM    5  C   UNL     1     -12.250  12.015  63.453  1.00  0.00    -0.627 A  
HETATM    6  C   UNL     1     -12.434  13.323  65.451  1.00  0.00    -0.543 A  
HETATM    7  C   UNL     1     -13.032  12.531  64.472  1.00  0.00    -0.215 A  
HETATM    8  N   UNL     1     -10.305  13.092  64.399  1.00  0.00    -0.400 NA 
ENDBRANCH   2   3
BRANCH   2   9
HETATM    9  C   UNL     1      -9.458  13.753  67.194  1.00  0.00    -0.244 C  
BRANCH   9  10
HETATM   10  C   UNL     1     -10.040  13.157  68.484  1.00  0.00    -0.200 C  
BRANCH  10  11
HETATM   11  O   UNL     1     -10.695  11.902  68.249  1.00  0.00    -0.204 OA 
BRANCH  11  12
HETATM   12  C   UNL     1     -10.018  10.799  68.713  1.00  0.00    -0.193 A  
HETATM   13  C   UNL     1      -8.143   9.647  69.733  1.00  0.00    -0.160 A  
HETATM   14  C   UNL     1      -8.786  10.830  69.367  1.00  0.00     0.027 A  
HETATM   15  C   UNL     1      -8.726   8.404  69.467  1.00  0.00    -0.137 A  
HETATM   16  C   UNL     1      -9.990   8.373  68.860  1.00  0.00    -0.194 A  
HETATM   17  C   UNL     1     -10.631   9.561  68.484  1.00  0.00    -0.247 A  
BRANCH  15  18
HETATM   18  C   UNL     1      -7.961   7.138  69.753  1.00  0.00    -0.123 C  
BRANCH  18  19
HETATM   19  C   UNL     1      -7.604   6.233  68.578  1.00  0.00    -0.092 C  
HETATM   20  S   UNL     1      -8.147   6.752  66.918  1.00  0.00    -0.110 SA 
HETATM   21  C   UNL     1      -6.731   6.048  66.172  1.00  0.00    -0.060 C  
HETATM   22  N   UNL     1      -5.792   5.785  67.113  1.00  0.00    -0.017 N  
HETATM   23  O   UNL     1      -6.630   5.817  64.980  1.00  0.00    -0.041 OA 
HETATM   24  C   UNL     1      -6.128   5.932  68.428  1.00  0.00    -0.021 C  
HETATM   25  H   UNL     1      -4.856   5.484  66.845  1.00  0.00     0.000 HD 
HETATM   26  O   UNL     1      -5.346   5.739  69.350  1.00  0.00    -0.004 OA 
ENDBRANCH  18  19
ENDBRANCH  15  18
ENDBRANCH  11  12
ENDBRANCH  10  11
ENDBRANCH   9  10
ENDBRANCH   2   9
TORSDOF 7
ENDMDL
MODEL      274
REMARK 921   NORMALIZED FREE ENERGY PREDICTED BY IDOCK:   -3.24 KCAL/MOL
REMARK 922        TOTAL FREE ENERGY PREDICTED BY IDOCK:   -5.42 KCAL/MOL
REMARK 923 INTER-LIGAND FREE ENERGY PREDICTED BY IDOCK:   -4.87 KCAL/MOL
REMARK 924 INTRA-LIGAND FREE ENERGY PREDICTED BY IDOCK:   -0.55 KCAL/MOL
REMARK 927      BINDING AFFINITY PREDICTED BY RF-SCORE:    0.00 PKD
ROOT
HETATM    1  C   UNL     1      -8.750   8.664  64.291  1.00  0.00     0.056 C  
HETATM    2  N   UNL     1      -8.198   8.709  65.646  1.00  0.00    -0.116 NA 
ENDROOT
BRANCH   2   3
HETATM    3  C   UNL     1      -8.926   9.568  66.496  1.00  0.00    -0.148 A  
HETATM    4  C   UNL     1     -10.931  10.314  67.399  1.00  0.00    -0.252 A  
HETATM    5  C   UNL     1     -10.322  11.318  68.129  1.00  0.00    -0.205 A  
HETATM    6  C   UNL     1      -8.246  10.559  67.207  1.00  0.00    -0.119 A  
HETATM    7  C   UNL     1      -8.947  11.442  68.027  1.00  0.00    -0.163 A  
HETATM    8  N   UNL     1     -10.269   9.452  66.595  1.00  0.00    -0.258 NA 
ENDBRANCH   2   3
BRANCH   2   9
HETATM    9  C   UNL     1      -7.928   7.383  66.238  1.00  0.00    -0.109 C  
BRANCH   9  10
HETATM   10  C   UNL     1      -8.689   6.262  65.514  1.00  0.00    -0.082 C  
BRANCH  10  11
HETATM   11  O   UNL     1      -8.566   5.003  66.191  1.00  0.00    -0.115 OA 
BRANCH  11  12
HETATM   12  C   UNL     1      -9.120   4.965  67.449  1.00  0.00    -0.117 A  
HETATM   13  C   UNL     1     -10.587   5.731  69.221  1.00  0.00    -0.376 A  
HETATM   14  C   UNL     1     -10.143   5.798  67.900  1.00  0.00    -0.197 A  
HETATM   15  C   UNL     1     -10.027   4.816  70.118  1.00  0.00    -0.321 A  
HETATM   16  C   UNL     1      -9.038   3.939  69.651  1.00  0.00    -0.188 A  
HETATM   17  C   UNL     1      -8.586   4.013  68.326  1.00  0.00    -0.112 A  
BRANCH  15  18
HETATM   18  C   UNL     1     -10.429   4.844  71.570  1.00  0.00    -0.179 C  
BRANCH  18  19
HETATM   19  C   UNL     1      -9.481   5.510  72.564  1.00  0.00    -0.145 C  
HETATM   20  S   UNL     1      -8.738   7.103  72.085  1.00  0.00    -0.121 SA 
HETATM   21  C   UNL     1      -8.739   7.666  73.740  1.00  0.00    -0.239 C  
HETATM   22  N   UNL     1      -9.547   6.885  74.497  1.00  0.00    -0.427 N  
HETATM   23  O   UNL     1      -8.086   8.615  74.139  1.00  0.00    -0.373 OA 
HETATM   24  C   UNL     1     -10.065   5.751  73.940  1.00  0.00    -0.229 C  
HETATM   25  H   UNL     1      -9.762   7.138  75.460  1.00  0.00     0.000 HD 
HETATM   26  O   UNL     1     -10.820   4.992  74.534  1.00  0.00    -0.331 OA 
ENDBRANCH  18  19
ENDBRANCH  15  18
ENDBRANCH  11  12
ENDBRANCH  10  11
ENDBRANCH   9  10
ENDBRANCH   2   9
TORSDOF 7
ENDMDL
MODEL      275
REMARK 921   NORMALIZED FREE ENERGY PREDICTED BY IDOCK:   -3.20 KCAL/MOL
REMARK 922        TOTAL FREE ENERGY PREDICTED BY IDOCK:   -5.37 KCAL/MOL
REMARK 923 INTER-LIGAND FREE ENERGY PREDICTED BY IDOCK:   -4.43 KCAL/MOL
REMARK 924 INTRA-LIGAND FREE ENERGY PREDICTED BY IDOCK:   -0.94 KCAL/MOL
REMARK 927      BINDING AFFINITY PREDICTED BY RF-SCORE:    0.00 PKD
ROOT
HETATM    1  C   UNL     1      -8.584   8.498  65.073  1.00  0.00    -0.135 C  
HETATM    2  N   UNL     1      -8.027   8.913  66.361  1.00  0.00    -0.102 NA 
ENDROOT
BRANCH   2   3
HETATM    3  C   UNL     1      -8.998   9.485  67.209  1.00  0.00    -0.131 A  
HETATM    4  C   UNL     1     -10.591   9.301  68.890  1.00  0.00    -0.199 A  
HETATM    5  C   UNL     1     -10.944  10.636  68.813  1.00  0.00    -0.292 A  
HETATM    6  C   UNL     1      -9.304  10.841  67.079  1.00  0.00    -0.174 A  
HETATM    7  C   UNL     1     -10.284  11.421  67.883  1.00  0.00    -0.201 A  
HETATM    8  N   UNL     1      -9.646   8.720  68.116  1.00  0.00    -0.144 NA 
ENDBRANCH   2   3
BRANCH   2   9
HETATM    9  C   UNL     1      -7.194   7.888  67.024  1.00  0.00    -0.090 C  
BRANCH   9  10
HETATM   10  C   UNL     1      -7.628   6.463  66.650  1.00  0.00    -0.094 C  
BRANCH  10  11
HETATM   11  O   UNL     1      -6.974   5.472  67.456  1.00  0.00    -0.062 OA 
BRANCH  11  12
HETATM   12  C   UNL     1      -7.473   5.339  68.730  1.00  0.00    -0.074 A  
HETATM   13  C   UNL     1      -9.207   4.911  70.370  1.00  0.00    -0.189 A  
HETATM   14  C   UNL     1      -8.773   4.944  69.044  1.00  0.00    -0.105 A  
HETATM   15  C   UNL     1      -8.344   5.259  71.414  1.00  0.00    -0.121 A  
HETATM   16  C   UNL     1      -7.021   5.602  71.103  1.00  0.00    -0.066 A  
HETATM   17  C   UNL     1      -6.588   5.644  69.771  1.00  0.00    -0.050 A  
BRANCH  15  18
HETATM   18  C   UNL     1      -8.866   5.341  72.825  1.00  0.00    -0.122 C  
BRANCH  18  19
HETATM   19  C   UNL     1      -9.943   6.377  73.134  1.00  0.00    -0.176 C  
HETATM   20  S   UNL     1      -9.756   8.034  72.400  1.00  0.00    -0.269 SA 
HETATM   21  C   UNL     1     -11.487   8.227  72.251  1.00  0.00    -0.384 C  
HETATM   22  N   UNL     1     -12.102   7.029  72.398  1.00  0.00    -0.494 N  
HETATM   23  O   UNL     1     -12.041   9.296  72.064  1.00  0.00    -0.366 OA 
HETATM   24  C   UNL     1     -11.354   5.955  72.785  1.00  0.00    -0.263 C  
HETATM   25  H   UNL     1     -13.102   6.932  72.222  1.00  0.00     0.000 HD 
HETATM   26  O   UNL     1     -11.813   4.828  72.925  1.00  0.00    -0.133 OA 
ENDBRANCH  18  19
ENDBRANCH  15  18
ENDBRANCH  11  12
ENDBRANCH  10  11
ENDBRANCH   9  10
ENDBRANCH   2   9
TORSDOF 7
ENDMDL
MODEL      276
REMARK 921   NORMALIZED FREE ENERGY PREDICTED BY IDOCK:   -3.18 KCAL/MOL
REMARK 922        TOTAL FREE ENERGY PREDICTED BY IDOCK:   -5.34 KCAL/MOL
REMARK 923 INTER-LIGAND FREE ENERGY PREDICTED BY IDOCK:   -4.97 KCAL/MOL
REMARK 924 INTRA-LIGAND FREE ENERGY PREDICTED BY IDOCK:   -0.38 KCAL/MOL
REMARK 927      BINDING AFFINITY PREDICTED BY RF-SCORE:    0.00 PKD
ROOT
HETATM    1  C   UNL     1      -6.090   6.022  66.795  1.00  0.00    -0.025 C  
HETATM    2  N   UNL     1      -6.465   6.001  65.381  1.00  0.00    -0.041 NA 
ENDROOT
BRANCH   2   3
HETATM    3  C   UNL     1      -7.720   5.395  65.165  1.00  0.00    -0.086 A  
HETATM    4  C   UNL     1      -9.763   4.616  65.948  1.00  0.00    -0.200 A  
HETATM    5  C   UNL     1     -10.149   4.141  64.708  1.00  0.00    -0.204 A  
HETATM    6  C   UNL     1      -8.047   4.941  63.885  1.00  0.00    -0.112 A  
HETATM    7  C   UNL     1      -9.267   4.308  63.654  1.00  0.00    -0.138 A  
HETATM    8  N   UNL     1      -8.582   5.228  66.193  1.00  0.00    -0.117 NA 
ENDBRANCH   2   3
BRANCH   2   9
HETATM    9  C   UNL     1      -6.309   7.298  64.689  1.00  0.00    -0.037 C  
BRANCH   9  10
HETATM   10  C   UNL     1      -7.493   8.239  64.956  1.00  0.00    -0.090 C  
BRANCH  10  11
HETATM   11  O   UNL     1      -7.340   8.961  66.186  1.00  0.00    -0.088 OA 
BRANCH  11  12
HETATM   12  C   UNL     1      -8.253   9.970  66.384  1.00  0.00    -0.119 A  
HETATM   13  C   UNL     1     -10.368  11.108  66.046  1.00  0.00    -0.308 A  
HETATM   14  C   UNL     1      -9.540  10.002  65.849  1.00  0.00    -0.283 A  
HETATM   15  C   UNL     1      -9.929  12.204  66.798  1.00  0.00    -0.218 A  
HETATM   16  C   UNL     1      -8.656  12.149  67.383  1.00  0.00    -0.175 A  
HETATM   17  C   UNL     1      -7.823  11.041  67.176  1.00  0.00    -0.135 A  
BRANCH  15  18
HETATM   18  C   UNL     1     -10.785  13.440  66.893  1.00  0.00    -0.274 C  
BRANCH  18  19
HETATM   19  C   UNL     1     -11.829  13.507  68.004  1.00  0.00    -0.365 C  
HETATM   20  S   UNL     1     -11.860  12.149  69.217  1.00  0.00    -0.290 SA 
HETATM   21  C   UNL     1     -12.361  13.227  70.498  1.00  0.00    -0.316 C  
HETATM   22  N   UNL     1     -12.165  14.514  70.125  1.00  0.00    -0.323 N  
HETATM   23  O   UNL     1     -12.835  12.855  71.557  1.00  0.00    -0.358 OA 
HETATM   24  C   UNL     1     -11.797  14.771  68.836  1.00  0.00    -0.296 C  
HETATM   25  H   UNL     1     -12.289  15.275  70.793  1.00  0.00     0.000 HD 
HETATM   26  O   UNL     1     -11.576  15.897  68.409  1.00  0.00    -0.371 OA 
ENDBRANCH  18  19
ENDBRANCH  15  18
ENDBRANCH  11  12
ENDBRANCH  10  11
ENDBRANCH   9  10
ENDBRANCH   2   9
TORSDOF 7
ENDMDL
MODEL      277
REMARK 921   NORMALIZED FREE ENERGY PREDICTED BY IDOCK:   -3.09 KCAL/MOL
REMARK 922        TOTAL FREE ENERGY PREDICTED BY IDOCK:   -5.22 KCAL/MOL
REMARK 923 INTER-LIGAND FREE ENERGY PREDICTED BY IDOCK:   -4.79 KCAL/MOL
REMARK 924 INTRA-LIGAND FREE ENERGY PREDICTED BY IDOCK:   -0.43 KCAL/MOL
REMARK 927      BINDING AFFINITY PREDICTED BY RF-SCORE:    0.00 PKD
ROOT
HETATM    1  C   UNL     1      -6.465   4.739  65.626  1.00  0.00    -0.040 C  
HETATM    2  N   UNL     1      -7.484   5.378  64.793  1.00  0.00    -0.068 NA 
ENDROOT
BRANCH   2   3
HETATM    3  C   UNL     1      -8.267   4.442  64.086  1.00  0.00    -0.102 A  
HETATM    4  C   UNL     1     -10.322   3.497  63.556  1.00  0.00    -0.231 A  
HETATM    5  C   UNL     1      -9.761   2.544  62.726  1.00  0.00    -0.092 A  
HETATM    6  C   UNL     1      -7.635   3.509  63.262  1.00  0.00    -0.059 A  
HETATM    7  C   UNL     1      -8.384   2.552  62.579  1.00  0.00    -0.073 A  
HETATM    8  N   UNL     1      -9.611   4.429  64.231  1.00  0.00    -0.121 NA 
ENDBRANCH   2   3
BRANCH   2   9
HETATM    9  C   UNL     1      -8.282   6.409  65.489  1.00  0.00    -0.142 C  
BRANCH   9  10
HETATM   10  C   UNL     1      -8.092   7.801  64.869  1.00  0.00    -0.136 C  
BRANCH  10  11
HETATM   11  O   UNL     1      -7.461   8.714  65.778  1.00  0.00    -0.083 OA 
BRANCH  11  12
HETATM   12  C   UNL     1      -8.216   9.055  66.875  1.00  0.00    -0.116 A  
HETATM   13  C   UNL     1      -9.962  10.267  68.042  1.00  0.00    -0.177 A  
HETATM   14  C   UNL     1      -9.306   9.925  66.859  1.00  0.00    -0.184 A  
HETATM   15  C   UNL     1      -9.552   9.732  69.268  1.00  0.00    -0.204 A  
HETATM   16  C   UNL     1      -8.493   8.813  69.278  1.00  0.00    -0.122 A  
HETATM   17  C   UNL     1      -7.828   8.478  68.091  1.00  0.00    -0.103 A  
BRANCH  15  18
HETATM   18  C   UNL     1     -10.189  10.210  70.547  1.00  0.00    -0.034 C  
BRANCH  18  19
HETATM   19  C   UNL     1     -11.665   9.898  70.775  1.00  0.00    -0.341 C  
HETATM   20  S   UNL     1     -12.075   8.394  71.719  1.00  0.00    -0.351 SA 
HETATM   21  C   UNL     1     -13.494   9.145  72.409  1.00  0.00    -0.476 C  
HETATM   22  N   UNL     1     -13.445  10.486  72.229  1.00  0.00    -0.551 N  
HETATM   23  O   UNL     1     -14.396   8.530  72.952  1.00  0.00    -0.404 OA 
HETATM   24  C   UNL     1     -12.457  11.003  71.441  1.00  0.00    -0.331 C  
HETATM   25  H   UNL     1     -14.130  11.097  72.673  1.00  0.00     0.000 HD 
HETATM   26  O   UNL     1     -12.315  12.201  71.235  1.00  0.00    -0.250 OA 
ENDBRANCH  18  19
ENDBRANCH  15  18
ENDBRANCH  11  12
ENDBRANCH  10  11
ENDBRANCH   9  10
ENDBRANCH   2   9
TORSDOF 7
ENDMDL
MODEL      278
REMARK 921   NORMALIZED FREE ENERGY PREDICTED BY IDOCK:   -3.02 KCAL/MOL
REMARK 922        TOTAL FREE ENERGY PREDICTED BY IDOCK:   -5.11 KCAL/MOL
REMARK 923 INTER-LIGAND FREE ENERGY PREDICTED BY IDOCK:   -4.36 KCAL/MOL
REMARK 924 INTRA-LIGAND FREE ENERGY PREDICTED BY IDOCK:   -0.75 KCAL/MOL
REMARK 927      BINDING AFFINITY PREDICTED BY RF-SCORE:    0.00 PKD
ROOT
HETATM    1  C   UNL     1      -9.256   2.396  62.954  1.00  0.00    -0.091 C  
HETATM    2  N   UNL     1      -8.630   3.004  64.128  1.00  0.00    -0.089 NA 
ENDROOT
BRANCH   2   3
HETATM    3  C   UNL     1      -7.828   4.116  63.797  1.00  0.00    -0.087 A  
HETATM    4  C   UNL     1      -7.592   6.358  63.238  1.00  0.00    -0.083 A  
HETATM    5  C   UNL     1      -6.221   6.259  63.086  1.00  0.00    -0.026 A  
HETATM    6  C   UNL     1      -6.449   3.945  63.662  1.00  0.00    -0.030 A  
HETATM    7  C   UNL     1      -5.639   5.021  63.301  1.00  0.00    -0.013 A  
HETATM    8  N   UNL     1      -8.394   5.324  63.582  1.00  0.00    -0.129 NA 
ENDBRANCH   2   3
BRANCH   2   9
HETATM    9  C   UNL     1      -9.557   3.258  65.251  1.00  0.00    -0.088 C  
BRANCH   9  10
HETATM   10  C   UNL     1      -8.828   3.305  66.601  1.00  0.00    -0.143 C  
BRANCH  10  11
HETATM   11  O   UNL     1      -9.659   3.834  67.644  1.00  0.00    -0.191 OA 
BRANCH  11  12
HETATM   12  C   UNL     1      -9.603   5.200  67.794  1.00  0.00    -0.138 A  
HETATM   13  C   UNL     1      -8.520   7.303  68.327  1.00  0.00    -0.124 A  
HETATM   14  C   UNL     1      -8.458   5.923  68.124  1.00  0.00    -0.114 A  
HETATM   15  C   UNL     1      -9.729   7.992  68.190  1.00  0.00    -0.179 A  
HETATM   16  C   UNL     1     -10.870   7.274  67.804  1.00  0.00    -0.214 A  
HETATM   17  C   UNL     1     -10.809   5.888  67.609  1.00  0.00    -0.331 A  
BRANCH  15  18
HETATM   18  C   UNL     1      -9.803   9.456  68.538  1.00  0.00    -0.171 C  
BRANCH  18  19
HETATM   19  C   UNL     1     -10.893  10.297  67.879  1.00  0.00    -0.284 C  
HETATM   20  S   UNL     1     -11.415  11.820  68.731  1.00  0.00    -0.319 SA 
HETATM   21  C   UNL     1     -11.726  12.630  67.214  1.00  0.00    -0.370 C  
HETATM   22  N   UNL     1     -11.148  11.949  66.196  1.00  0.00    -0.316 N  
HETATM   23  O   UNL     1     -12.386  13.649  67.106  1.00  0.00    -0.336 OA 
HETATM   24  C   UNL     1     -10.598  10.727  66.459  1.00  0.00    -0.218 C  
HETATM   25  H   UNL     1     -11.124  12.340  65.255  1.00  0.00     0.000 HD 
HETATM   26  O   UNL     1     -10.036  10.045  65.612  1.00  0.00    -0.272 OA 
ENDBRANCH  18  19
ENDBRANCH  15  18
ENDBRANCH  11  12
ENDBRANCH  10  11
ENDBRANCH   9  10
ENDBRANCH   2   9
TORSDOF 7
ENDMDL
MODEL      279
REMARK 921   NORMALIZED FREE ENERGY PREDICTED BY IDOCK:   -2.94 KCAL/MOL
REMARK 922        TOTAL FREE ENERGY PREDICTED BY IDOCK:   -5.00 KCAL/MOL
REMARK 923 INTER-LIGAND FREE ENERGY PREDICTED BY IDOCK:   -4.76 KCAL/MOL
REMARK 924 INTRA-LIGAND FREE ENERGY PREDICTED BY IDOCK:   -0.24 KCAL/MOL
REMARK 927      BINDING AFFINITY PREDICTED BY RF-SCORE:    0.00 PKD
ROOT
HETATM    1  C   UNL     1      -5.272   4.847  66.288  1.00  0.00    -0.009 C  
HETATM    2  N   UNL     1      -6.176   5.638  65.452  1.00  0.00    -0.029 NA 
ENDROOT
BRANCH   2   3
HETATM    3  C   UNL     1      -7.070   4.834  64.715  1.00  0.00    -0.062 A  
HETATM    4  C   UNL     1      -8.141   4.278  62.731  1.00  0.00    -0.077 A  
HETATM    5  C   UNL     1      -8.884   3.272  63.319  1.00  0.00    -0.092 A  
HETATM    6  C   UNL     1      -7.786   3.833  65.373  1.00  0.00    -0.089 A  
HETATM    7  C   UNL     1      -8.701   3.048  64.673  1.00  0.00    -0.102 A  
HETATM    8  N   UNL     1      -7.253   5.053  63.394  1.00  0.00    -0.047 NA 
ENDBRANCH   2   3
BRANCH   2   9
HETATM    9  C   UNL     1      -6.832   6.759  66.156  1.00  0.00    -0.060 C  
BRANCH   9  10
HETATM   10  C   UNL     1      -7.961   7.382  65.322  1.00  0.00    -0.127 C  
BRANCH  10  11
HETATM   11  O   UNL     1      -7.693   8.752  64.990  1.00  0.00    -0.097 OA 
BRANCH  11  12
HETATM   12  C   UNL     1      -8.480   9.671  65.643  1.00  0.00    -0.132 A  
HETATM   13  C   UNL     1      -9.392  10.781  67.596  1.00  0.00    -0.156 A  
HETATM   14  C   UNL     1      -8.501   9.873  67.022  1.00  0.00    -0.121 A  
HETATM   15  C   UNL     1     -10.273  11.519  66.800  1.00  0.00    -0.254 A  
HETATM   16  C   UNL     1     -10.214  11.358  65.408  1.00  0.00    -0.320 A  
HETATM   17  C   UNL     1      -9.326  10.439  64.833  1.00  0.00    -0.294 A  
BRANCH  15  18
HETATM   18  C   UNL     1     -11.314  12.397  67.445  1.00  0.00    -0.381 C  
BRANCH  18  19
HETATM   19  C   UNL     1     -10.870  13.748  68.000  1.00  0.00    -0.249 C  
HETATM   20  S   UNL     1     -10.570  15.093  66.808  1.00  0.00    -0.302 SA 
HETATM   21  C   UNL     1     -11.119  16.301  67.947  1.00  0.00    -0.270 C  
HETATM   22  N   UNL     1     -11.792  15.710  68.963  1.00  0.00    -0.474 N  
HETATM   23  O   UNL     1     -10.900  17.494  67.835  1.00  0.00    -0.374 OA 
HETATM   24  C   UNL     1     -11.793  14.347  69.039  1.00  0.00    -0.323 C  
HETATM   25  H   UNL     1     -12.287  16.271  69.656  1.00  0.00     0.000 HD 
HETATM   26  O   UNL     1     -12.388  13.720  69.906  1.00  0.00    -0.322 OA 
ENDBRANCH  18  19
ENDBRANCH  15  18
ENDBRANCH  11  12
ENDBRANCH  10  11
ENDBRANCH   9  10
ENDBRANCH   2   9
TORSDOF 7
ENDMDL
MODEL      280
REMARK 921   NORMALIZED FREE ENERGY PREDICTED BY IDOCK:   -2.72 KCAL/MOL
REMARK 922        TOTAL FREE ENERGY PREDICTED BY IDOCK:   -4.69 KCAL/MOL
REMARK 923 INTER-LIGAND FREE ENERGY PREDICTED BY IDOCK:   -4.11 KCAL/MOL
REMARK 924 INTRA-LIGAND FREE ENERGY PREDICTED BY IDOCK:   -0.58 KCAL/MOL
REMARK 927      BINDING AFFINITY PREDICTED BY RF-SCORE:    0.00 PKD
ROOT
HETATM    1  C   UNL     1      -9.140   8.812  65.715  1.00  0.00    -0.212 C  
HETATM    2  N   UNL     1      -8.470   8.729  67.013  1.00  0.00    -0.109 NA 
ENDROOT
BRANCH   2   3
HETATM    3  C   UNL     1      -9.379   8.746  68.091  1.00  0.00    -0.140 A  
HETATM    4  C   UNL     1     -10.504   7.678  69.819  1.00  0.00    -0.232 A  
HETATM    5  C   UNL     1     -11.222   8.809  70.160  1.00  0.00    -0.162 A  
HETATM    6  C   UNL     1     -10.068   9.925  68.383  1.00  0.00    -0.189 A  
HETATM    7  C   UNL     1     -10.997   9.958  69.421  1.00  0.00    -0.263 A  
HETATM    8  N   UNL     1      -9.603   7.625  68.812  1.00  0.00    -0.152 NA 
ENDBRANCH   2   3
BRANCH   2   9
HETATM    9  C   UNL     1      -7.460   7.655  67.110  1.00  0.00    -0.096 C  
BRANCH   9  10
HETATM   10  C   UNL     1      -7.876   6.400  66.329  1.00  0.00    -0.101 C  
BRANCH  10  11
HETATM   11  O   UNL     1      -7.171   5.232  66.772  1.00  0.00    -0.075 OA 
BRANCH  11  12
HETATM   12  C   UNL     1      -7.745   4.576  67.836  1.00  0.00    -0.081 A  
HETATM   13  C   UNL     1      -9.575   3.541  69.043  1.00  0.00    -0.143 A  
HETATM   14  C   UNL     1      -9.065   4.130  67.886  1.00  0.00    -0.168 A  
HETATM   15  C   UNL     1      -8.770   3.371  70.174  1.00  0.00    -0.123 A  
HETATM   16  C   UNL     1      -7.427   3.768  70.106  1.00  0.00    -0.041 A  
HETATM   17  C   UNL     1      -6.918   4.368  68.947  1.00  0.00    -0.051 A  
BRANCH  15  18
HETATM   18  C   UNL     1      -9.372   2.851  71.454  1.00  0.00    -0.204 C  
BRANCH  18  19
HETATM   19  C   UNL     1      -9.481   3.809  72.637  1.00  0.00    -0.124 C  
HETATM   20  S   UNL     1      -9.377   5.594  72.290  1.00  0.00    -0.144 SA 
HETATM   21  C   UNL     1     -10.483   5.970  73.590  1.00  0.00    -0.269 C  
HETATM   22  N   UNL     1     -11.131   4.849  73.988  1.00  0.00    -0.272 N  
HETATM   23  O   UNL     1     -10.622   7.082  74.070  1.00  0.00    -0.341 OA 
HETATM   24  C   UNL     1     -10.731   3.648  73.476  1.00  0.00    -0.217 C  
HETATM   25  H   UNL     1     -11.901   4.900  74.654  1.00  0.00     0.000 HD 
HETATM   26  O   UNL     1     -11.266   2.583  73.756  1.00  0.00    -0.205 OA 
ENDBRANCH  18  19
ENDBRANCH  15  18
ENDBRANCH  11  12
ENDBRANCH  10  11
ENDBRANCH   9  10
ENDBRANCH   2   9
TORSDOF 7
ENDMDL
MODEL      281
REMARK 921   NORMALIZED FREE ENERGY PREDICTED BY IDOCK:   -2.71 KCAL/MOL
REMARK 922        TOTAL FREE ENERGY PREDICTED BY IDOCK:   -4.68 KCAL/MOL
REMARK 923 INTER-LIGAND FREE ENERGY PREDICTED BY IDOCK:   -3.97 KCAL/MOL
REMARK 924 INTRA-LIGAND FREE ENERGY PREDICTED BY IDOCK:   -0.71 KCAL/MOL
REMARK 927      BINDING AFFINITY PREDICTED BY RF-SCORE:    0.00 PKD
ROOT
HETATM    1  C   UNL     1     -10.198  10.467  64.582  1.00  0.00    -0.294 C  
HETATM    2  N   UNL     1      -9.324  10.830  65.699  1.00  0.00    -0.197 NA 
ENDROOT
BRANCH   2   3
HETATM    3  C   UNL     1      -9.963  11.673  66.631  1.00  0.00    -0.203 A  
HETATM    4  C   UNL     1     -11.663  12.101  68.154  1.00  0.00    -0.341 A  
HETATM    5  C   UNL     1     -11.223  13.387  68.408  1.00  0.00    -0.311 A  
HETATM    6  C   UNL     1      -9.462  12.960  66.841  1.00  0.00    -0.237 A  
HETATM    7  C   UNL     1     -10.096  13.824  67.732  1.00  0.00    -0.245 A  
HETATM    8  N   UNL     1     -11.065  11.250  67.290  1.00  0.00    -0.291 NA 
ENDBRANCH   2   3
BRANCH   2   9
HETATM    9  C   UNL     1      -8.623   9.687  66.320  1.00  0.00    -0.127 C  
BRANCH   9  10
HETATM   10  C   UNL     1      -7.096   9.829  66.231  1.00  0.00    -0.095 C  
BRANCH  10  11
HETATM   11  O   UNL     1      -6.555  10.540  67.353  1.00  0.00    -0.065 OA 
BRANCH  11  12
HETATM   12  C   UNL     1      -6.497   9.819  68.523  1.00  0.00    -0.051 A  
HETATM   13  C   UNL     1      -6.754   9.495  70.912  1.00  0.00    -0.085 A  
HETATM   14  C   UNL     1      -6.925  10.276  69.768  1.00  0.00    -0.129 A  
HETATM   15  C   UNL     1      -6.163   8.230  70.832  1.00  0.00    -0.033 A  
HETATM   16  C   UNL     1      -5.783   7.746  69.572  1.00  0.00    -0.023 A  
HETATM   17  C   UNL     1      -5.947   8.535  68.425  1.00  0.00    -0.042 A  
BRANCH  15  18
HETATM   18  C   UNL     1      -5.870   7.456  72.091  1.00  0.00    -0.037 C  
BRANCH  18  19
HETATM   19  C   UNL     1      -7.048   6.866  72.862  1.00  0.00    -0.074 C  
HETATM   20  S   UNL     1      -8.159   8.026  73.722  1.00  0.00    -0.239 SA 
HETATM   21  C   UNL     1      -9.544   6.999  73.439  1.00  0.00    -0.191 C  
HETATM   22  N   UNL     1      -9.254   6.079  72.488  1.00  0.00    -0.142 N  
HETATM   23  O   UNL     1     -10.603   7.099  74.035  1.00  0.00    -0.317 OA 
HETATM   24  C   UNL     1      -7.966   5.980  72.047  1.00  0.00    -0.107 C  
HETATM   25  H   UNL     1      -9.982   5.473  72.109  1.00  0.00     0.000 HD 
HETATM   26  O   UNL     1      -7.608   5.196  71.178  1.00  0.00    -0.088 OA 
ENDBRANCH  18  19
ENDBRANCH  15  18
ENDBRANCH  11  12
ENDBRANCH  10  11
ENDBRANCH   9  10
ENDBRANCH   2   9
TORSDOF 7
ENDMDL
MODEL      282
REMARK 921   NORMALIZED FREE ENERGY PREDICTED BY IDOCK:   -2.62 KCAL/MOL
REMARK 922        TOTAL FREE ENERGY PREDICTED BY IDOCK:   -4.55 KCAL/MOL
REMARK 923 INTER-LIGAND FREE ENERGY PREDICTED BY IDOCK:   -4.19 KCAL/MOL
REMARK 924 INTRA-LIGAND FREE ENERGY PREDICTED BY IDOCK:   -0.36 KCAL/MOL
REMARK 927      BINDING AFFINITY PREDICTED BY RF-SCORE:    0.00 PKD
ROOT
HETATM    1  C   UNL     1      -7.185   3.320  65.942  1.00  0.00    -0.071 C  
HETATM    2  N   UNL     1      -8.032   4.281  65.235  1.00  0.00    -0.099 NA 
ENDROOT
BRANCH   2   3
HETATM    3  C   UNL     1      -8.953   3.654  64.371  1.00  0.00    -0.121 A  
HETATM    4  C   UNL     1     -11.119   3.328  63.598  1.00  0.00     0.086 A  
HETATM    5  C   UNL     1     -10.737   2.353  62.696  1.00  0.00    -0.166 A  
HETATM    6  C   UNL     1      -8.498   2.679  63.481  1.00  0.00    -0.086 A  
HETATM    7  C   UNL     1      -9.394   2.021  62.641  1.00  0.00    -0.090 A  
HETATM    8  N   UNL     1     -10.265   3.974  64.425  1.00  0.00    -0.212 NA 
ENDBRANCH   2   3
BRANCH   2   9
HETATM    9  C   UNL     1      -8.642   5.309  66.103  1.00  0.00    -0.120 C  
BRANCH   9  10
HETATM   10  C   UNL     1      -8.261   6.732  65.668  1.00  0.00    -0.134 C  
BRANCH  10  11
HETATM   11  O   UNL     1      -7.390   7.369  66.613  1.00  0.00    -0.080 OA 
BRANCH  11  12
HETATM   12  C   UNL     1      -8.005   7.818  67.758  1.00  0.00    -0.124 A  
HETATM   13  C   UNL     1      -9.513   9.232  69.025  1.00  0.00    -0.155 A  
HETATM   14  C   UNL     1      -9.003   8.790  67.803  1.00  0.00    -0.140 A  
HETATM   15  C   UNL     1      -9.044   8.699  70.230  1.00  0.00    -0.172 A  
HETATM   16  C   UNL     1      -8.080   7.682  70.184  1.00  0.00    -0.118 A  
HETATM   17  C   UNL     1      -7.563   7.245  68.957  1.00  0.00    -0.099 A  
BRANCH  15  18
HETATM   18  C   UNL     1      -9.512   9.278  71.541  1.00  0.00    -0.101 C  
BRANCH  18  19
HETATM   19  C   UNL     1     -10.909   8.910  72.030  1.00  0.00    -0.334 C  
HETATM   20  S   UNL     1     -12.229   8.760  70.783  1.00  0.00     0.076 SA 
HETATM   21  C   UNL     1     -13.021   7.493  71.690  1.00  0.00    -0.358 C  
HETATM   22  N   UNL     1     -12.180   6.998  72.630  1.00  0.00    -0.478 N  
HETATM   23  O   UNL     1     -14.171   7.136  71.503  1.00  0.00    -0.400 OA 
HETATM   24  C   UNL     1     -10.988   7.630  72.835  1.00  0.00    -0.400 C  
HETATM   25  H   UNL     1     -12.432   6.172  73.171  1.00  0.00     0.000 HD 
HETATM   26  O   UNL     1     -10.152   7.248  73.645  1.00  0.00    -0.299 OA 
ENDBRANCH  18  19
ENDBRANCH  15  18
ENDBRANCH  11  12
ENDBRANCH  10  11
ENDBRANCH   9  10
ENDBRANCH   2   9
TORSDOF 7
ENDMDL
MODEL      283
REMARK 921   NORMALIZED FREE ENERGY PREDICTED BY IDOCK:   -2.42 KCAL/MOL
REMARK 922        TOTAL FREE ENERGY PREDICTED BY IDOCK:   -4.27 KCAL/MOL
REMARK 923 INTER-LIGAND FREE ENERGY PREDICTED BY IDOCK:   -3.94 KCAL/MOL
REMARK 924 INTRA-LIGAND FREE ENERGY PREDICTED BY IDOCK:   -0.33 KCAL/MOL
REMARK 927      BINDING AFFINITY PREDICTED BY RF-SCORE:    0.00 PKD
ROOT
HETATM    1  C   UNL     1      -8.043  11.925  67.084  1.00  0.00    -0.172 C  
HETATM    2  N   UNL     1      -9.417  11.987  66.586  1.00  0.00    -0.211 NA 
ENDROOT
BRANCH   2   3
HETATM    3  C   UNL     1      -9.510  11.653  65.219  1.00  0.00    -0.151 A  
HETATM    4  C   UNL     1     -10.462  11.930  63.118  1.00  0.00    -0.276 A  
HETATM    5  C   UNL     1      -9.705  10.921  62.552  1.00  0.00    -0.171 A  
HETATM    6  C   UNL     1      -8.713  10.625  64.712  1.00  0.00    -0.170 A  
HETATM    7  C   UNL     1      -8.811  10.253  63.372  1.00  0.00    -0.227 A  
HETATM    8  N   UNL     1     -10.384  12.301  64.417  1.00  0.00    -0.314 NA 
ENDBRANCH   2   3
BRANCH   2   9
HETATM    9  C   UNL     1     -10.405  11.286  67.433  1.00  0.00    -0.200 C  
BRANCH   9  10
HETATM   10  C   UNL     1     -10.118  11.477  68.930  1.00  0.00    -0.127 C  
BRANCH  10  11
HETATM   11  O   UNL     1     -10.586  10.370  69.713  1.00  0.00    -0.247 OA 
BRANCH  11  12
HETATM   12  C   UNL     1     -10.095   9.143  69.334  1.00  0.00    -0.197 A  
HETATM   13  C   UNL     1     -10.195   6.992  68.217  1.00  0.00    -0.206 A  
HETATM   14  C   UNL     1     -10.743   8.248  68.483  1.00  0.00    -0.065 A  
HETATM   15  C   UNL     1      -8.977   6.609  68.788  1.00  0.00    -0.125 A  
HETATM   16  C   UNL     1      -8.297   7.529  69.599  1.00  0.00    -0.131 A  
HETATM   17  C   UNL     1      -8.852   8.786  69.872  1.00  0.00    -0.143 A  
BRANCH  15  18
HETATM   18  C   UNL     1      -8.465   5.205  68.593  1.00  0.00    -0.088 C  
BRANCH  18  19
HETATM   19  C   UNL     1      -8.246   4.711  67.166  1.00  0.00    -0.105 C  
HETATM   20  S   UNL     1      -9.644   4.839  66.005  1.00  0.00    -0.197 SA 
HETATM   21  C   UNL     1      -8.571   5.127  64.656  1.00  0.00    -0.142 C  
HETATM   22  N   UNL     1      -7.336   5.454  65.105  1.00  0.00    -0.067 N  
HETATM   23  O   UNL     1      -8.901   5.025  63.487  1.00  0.00    -0.120 OA 
HETATM   24  C   UNL     1      -7.079   5.348  66.442  1.00  0.00    -0.069 C  
HETATM   25  H   UNL     1      -6.614   5.773  64.460  1.00  0.00     0.000 HD 
HETATM   26  O   UNL     1      -6.003   5.638  66.948  1.00  0.00    -0.017 OA 
ENDBRANCH  18  19
ENDBRANCH  15  18
ENDBRANCH  11  12
ENDBRANCH  10  11
ENDBRANCH   9  10
ENDBRANCH   2   9
TORSDOF 7
ENDMDL
MODEL      284
REMARK 921   NORMALIZED FREE ENERGY PREDICTED BY IDOCK:   -2.29 KCAL/MOL
REMARK 922        TOTAL FREE ENERGY PREDICTED BY IDOCK:   -4.08 KCAL/MOL
REMARK 923 INTER-LIGAND FREE ENERGY PREDICTED BY IDOCK:   -4.00 KCAL/MOL
REMARK 924 INTRA-LIGAND FREE ENERGY PREDICTED BY IDOCK:   -0.08 KCAL/MOL
REMARK 927      BINDING AFFINITY PREDICTED BY RF-SCORE:    0.00 PKD
ROOT
HETATM    1  C   UNL     1     -10.090  17.092  66.593  1.00  0.00    -0.306 C  
HETATM    2  N   UNL     1      -8.844  16.324  66.618  1.00  0.00    -0.228 NA 
ENDROOT
BRANCH   2   3
HETATM    3  C   UNL     1      -7.889  16.874  67.498  1.00  0.00    -0.169 A  
HETATM    4  C   UNL     1      -7.337  18.001  69.453  1.00  0.00     0.089 A  
HETATM    5  C   UNL     1      -5.985  17.998  69.169  1.00  0.00    -0.225 A  
HETATM    6  C   UNL     1      -6.538  16.833  67.150  1.00  0.00    -0.227 A  
HETATM    7  C   UNL     1      -5.579  17.401  67.987  1.00  0.00    -0.132 A  
HETATM    8  N   UNL     1      -8.283  17.460  68.651  1.00  0.00    -0.273 NA 
ENDBRANCH   2   3
BRANCH   2   9
HETATM    9  C   UNL     1      -9.029  14.867  66.783  1.00  0.00    -0.268 C  
BRANCH   9  10
HETATM   10  C   UNL     1      -8.115  14.290  67.873  1.00  0.00    -0.151 C  
BRANCH  10  11
HETATM   11  O   UNL     1      -7.120  13.410  67.332  1.00  0.00    -0.164 OA 
BRANCH  11  12
HETATM   12  C   UNL     1      -7.411  12.070  67.436  1.00  0.00    -0.152 A  
HETATM   13  C   UNL     1      -8.711  10.163  68.179  1.00  0.00    -0.122 A  
HETATM   14  C   UNL     1      -8.542  11.543  68.058  1.00  0.00    -0.150 A  
HETATM   15  C   UNL     1      -7.757   9.278  67.665  1.00  0.00    -0.092 A  
HETATM   16  C   UNL     1      -6.648   9.806  66.990  1.00  0.00    -0.071 A  
HETATM   17  C   UNL     1      -6.474  11.192  66.878  1.00  0.00    -0.117 A  
BRANCH  15  18
HETATM   18  C   UNL     1      -7.892   7.798  67.917  1.00  0.00    -0.127 C  
BRANCH  18  19
HETATM   19  C   UNL     1      -8.643   6.960  66.886  1.00  0.00    -0.116 C  
HETATM   20  S   UNL     1      -7.812   5.471  66.243  1.00  0.00    -0.101 SA 
HETATM   21  C   UNL     1      -9.332   4.624  66.080  1.00  0.00    -0.156 C  
HETATM   22  N   UNL     1     -10.299   5.265  66.779  1.00  0.00    -0.252 N  
HETATM   23  O   UNL     1      -9.484   3.615  65.413  1.00  0.00    -0.153 OA 
HETATM   24  C   UNL     1     -10.011   6.483  67.324  1.00  0.00    -0.147 C  
HETATM   25  H   UNL     1     -11.222   4.847  66.896  1.00  0.00     0.000 HD 
HETATM   26  O   UNL     1     -10.809   7.131  67.989  1.00  0.00    -0.193 OA 
ENDBRANCH  18  19
ENDBRANCH  15  18
ENDBRANCH  11  12
ENDBRANCH  10  11
ENDBRANCH   9  10
ENDBRANCH   2   9
TORSDOF 7
ENDMDL
MODEL      285
REMARK 921   NORMALIZED FREE ENERGY PREDICTED BY IDOCK:   -2.17 KCAL/MOL
REMARK 922        TOTAL FREE ENERGY PREDICTED BY IDOCK:   -3.92 KCAL/MOL
REMARK 923 INTER-LIGAND FREE ENERGY PREDICTED BY IDOCK:   -3.81 KCAL/MOL
REMARK 924 INTRA-LIGAND FREE ENERGY PREDICTED BY IDOCK:   -0.11 KCAL/MOL
REMARK 927      BINDING AFFINITY PREDICTED BY RF-SCORE:    0.00 PKD
ROOT
HETATM    1  C   UNL     1      -9.493  10.382  66.650  1.00  0.00    -0.165 C  
HETATM    2  N   UNL     1      -8.937  11.615  67.209  1.00  0.00    -0.165 NA 
ENDROOT
BRANCH   2   3
HETATM    3  C   UNL     1      -9.808  12.714  67.060  1.00  0.00    -0.225 A  
HETATM    4  C   UNL     1     -10.650  14.489  65.821  1.00  0.00    -0.317 A  
HETATM    5  C   UNL     1     -11.491  14.904  66.836  1.00  0.00    -0.318 A  
HETATM    6  C   UNL     1     -10.634  13.077  68.126  1.00  0.00    -0.257 A  
HETATM    7  C   UNL     1     -11.479  14.180  68.016  1.00  0.00    -0.342 A  
HETATM    8  N   UNL     1      -9.820  13.425  65.911  1.00  0.00    -0.270 NA 
ENDBRANCH   2   3
BRANCH   2   9
HETATM    9  C   UNL     1      -8.391  11.474  68.574  1.00  0.00    -0.146 C  
BRANCH   9  10
HETATM   10  C   UNL     1      -8.351  10.008  69.031  1.00  0.00    -0.134 C  
BRANCH  10  11
HETATM   11  O   UNL     1      -8.327   9.890  70.461  1.00  0.00    -0.182 OA 
BRANCH  11  12
HETATM   12  C   UNL     1      -7.964   8.651  70.934  1.00  0.00    -0.122 A  
HETATM   13  C   UNL     1      -7.304   6.328  70.713  1.00  0.00    -0.076 A  
HETATM   14  C   UNL     1      -7.583   7.570  70.140  1.00  0.00    -0.088 A  
HETATM   15  C   UNL     1      -7.387   6.144  72.097  1.00  0.00    -0.093 A  
HETATM   16  C   UNL     1      -7.715   7.245  72.901  1.00  0.00    -0.102 A  
HETATM   17  C   UNL     1      -8.004   8.489  72.324  1.00  0.00    -0.135 A  
BRANCH  15  18
HETATM   18  C   UNL     1      -7.208   4.768  72.685  1.00  0.00    -0.083 C  
BRANCH  18  19
HETATM   19  C   UNL     1      -8.415   4.106  73.343  1.00  0.00    -0.089 C  
HETATM   20  S   UNL     1      -9.950   5.079  73.465  1.00  0.00    -0.167 SA 
HETATM   21  C   UNL     1     -10.939   3.650  73.281  1.00  0.00    -0.175 C  
HETATM   22  N   UNL     1     -10.189   2.623  72.814  1.00  0.00    -0.148 N  
HETATM   23  O   UNL     1     -12.125   3.599  73.558  1.00  0.00     0.124 OA 
HETATM   24  C   UNL     1      -8.837   2.790  72.727  1.00  0.00    -0.082 C  
HETATM   25  H   UNL     1     -10.625   1.745  72.533  1.00  0.00     0.000 HD 
HETATM   26  O   UNL     1      -8.077   1.930  72.299  1.00  0.00    -0.051 OA 
ENDBRANCH  18  19
ENDBRANCH  15  18
ENDBRANCH  11  12
ENDBRANCH  10  11
ENDBRANCH   9  10
ENDBRANCH   2   9
TORSDOF 7
ENDMDL
MODEL      286
REMARK 921   NORMALIZED FREE ENERGY PREDICTED BY IDOCK:   -1.84 KCAL/MOL
REMARK 922        TOTAL FREE ENERGY PREDICTED BY IDOCK:   -3.44 KCAL/MOL
REMARK 923 INTER-LIGAND FREE ENERGY PREDICTED BY IDOCK:   -2.89 KCAL/MOL
REMARK 924 INTRA-LIGAND FREE ENERGY PREDICTED BY IDOCK:   -0.55 KCAL/MOL
REMARK 927      BINDING AFFINITY PREDICTED BY RF-SCORE:    0.00 PKD
ROOT
HETATM    1  C   UNL     1     -10.759  12.084  66.741  1.00  0.00    -0.243 C  
HETATM    2  N   UNL     1      -9.785  13.144  66.479  1.00  0.00    -0.264 NA 
ENDROOT
BRANCH   2   3
HETATM    3  C   UNL     1     -10.030  14.303  67.245  1.00  0.00    -0.252 A  
HETATM    4  C   UNL     1      -9.392  16.393  68.032  1.00  0.00    -0.216 A  
HETATM    5  C   UNL     1     -10.524  16.534  68.813  1.00  0.00    -0.309 A  
HETATM    6  C   UNL     1     -11.196  14.380  68.009  1.00  0.00    -0.298 A  
HETATM    7  C   UNL     1     -11.445  15.500  68.801  1.00  0.00    -0.363 A  
HETATM    8  N   UNL     1      -9.131  15.312  67.262  1.00  0.00    -0.191 NA 
ENDBRANCH   2   3
BRANCH   2   9
HETATM    9  C   UNL     1      -8.376  12.700  66.515  1.00  0.00     0.194 C  
BRANCH   9  10
HETATM   10  C   UNL     1      -8.255  11.170  66.566  1.00  0.00    -0.167 C  
BRANCH  10  11
HETATM   11  O   UNL     1      -6.887  10.738  66.579  1.00  0.00    -0.113 OA 
BRANCH  11  12
HETATM   12  C   UNL     1      -6.705   9.394  66.810  1.00  0.00    -0.072 A  
HETATM   13  C   UNL     1      -7.131   7.034  66.456  1.00  0.00    -0.077 A  
HETATM   14  C   UNL     1      -7.323   8.368  66.096  1.00  0.00    -0.084 A  
HETATM   15  C   UNL     1      -6.303   6.695  67.531  1.00  0.00    -0.044 A  
HETATM   16  C   UNL     1      -5.637   7.723  68.214  1.00  0.00    -0.032 A  
HETATM   17  C   UNL     1      -5.838   9.063  67.858  1.00  0.00    -0.042 A  
BRANCH  15  18
HETATM   18  C   UNL     1      -6.208   5.261  67.984  1.00  0.00    -0.034 C  
BRANCH  18  19
HETATM   19  C   UNL     1      -7.128   4.803  69.113  1.00  0.00    -0.052 C  
HETATM   20  S   UNL     1      -8.203   3.367  68.795  1.00  0.00    -0.061 SA 
HETATM   21  C   UNL     1      -8.095   2.845  70.460  1.00  0.00    -0.045 C  
HETATM   22  N   UNL     1      -7.070   3.478  71.080  1.00  0.00    -0.032 N  
HETATM   23  O   UNL     1      -8.854   2.043  70.975  1.00  0.00    -0.058 OA 
HETATM   24  C   UNL     1      -6.429   4.484  70.417  1.00  0.00    -0.034 C  
HETATM   25  H   UNL     1      -6.784   3.208  72.021  1.00  0.00     0.000 HD 
HETATM   26  O   UNL     1      -5.480   5.102  70.883  1.00  0.00    -0.004 OA 
ENDBRANCH  18  19
ENDBRANCH  15  18
ENDBRANCH  11  12
ENDBRANCH  10  11
ENDBRANCH   9  10
ENDBRANCH   2   9
TORSDOF 7
ENDMDL
MODEL      287
REMARK 921   NORMALIZED FREE ENERGY PREDICTED BY IDOCK:   -1.09 KCAL/MOL
REMARK 922        TOTAL FREE ENERGY PREDICTED BY IDOCK:   -2.39 KCAL/MOL
REMARK 923 INTER-LIGAND FREE ENERGY PREDICTED BY IDOCK:   -4.07 KCAL/MOL
REMARK 924 INTRA-LIGAND FREE ENERGY PREDICTED BY IDOCK:    1.69 KCAL/MOL
REMARK 927      BINDING AFFINITY PREDICTED BY RF-SCORE:    0.00 PKD
ROOT
HETATM    1  C   UNL     1     -11.600  13.331  64.054  1.00  0.00    -0.409 C  
HETATM    2  N   UNL     1     -10.823  12.405  64.878  1.00  0.00    -0.286 NA 
ENDROOT
BRANCH   2   3
HETATM    3  C   UNL     1      -9.946  11.608  64.113  1.00  0.00    -0.277 A  
HETATM    4  C   UNL     1      -8.458  11.341  62.349  1.00  0.00    -0.126 A  
HETATM    5  C   UNL     1      -8.281   9.993  62.597  1.00  0.00    -0.152 A  
HETATM    6  C   UNL     1      -9.812  10.253  64.420  1.00  0.00    -0.374 A  
HETATM    7  C   UNL     1      -8.977   9.438  63.657  1.00  0.00    -0.151 A  
HETATM    8  N   UNL     1      -9.267  12.146  63.075  1.00  0.00     0.106 NA 
ENDBRANCH   2   3
BRANCH   2   9
HETATM    9  C   UNL     1     -10.182  13.026  66.055  1.00  0.00    -0.287 C  
BRANCH   9  10
HETATM   10  C   UNL     1      -9.477  11.989  66.942  1.00  0.00    -0.203 C  
BRANCH  10  11
HETATM   11  O   UNL     1     -10.168  10.732  66.955  1.00  0.00    -0.210 OA 
BRANCH  11  12
HETATM   12  C   UNL     1      -9.808   9.882  67.974  1.00  0.00    -0.147 A  
HETATM   13  C   UNL     1      -9.257   9.322  70.268  1.00  0.00    -0.273 A  
HETATM   14  C   UNL     1      -9.704  10.241  69.317  1.00  0.00    -0.240 A  
HETATM   15  C   UNL     1      -8.918   8.017  69.897  1.00  0.00    -0.145 A  
HETATM   16  C   UNL     1      -9.075   7.639  68.556  1.00  0.00    -0.131 A  
HETATM   17  C   UNL     1      -9.515   8.565  67.600  1.00  0.00    -0.173 A  
BRANCH  15  18
HETATM   18  C   UNL     1      -8.316   7.079  70.912  1.00  0.00    -0.129 C  
BRANCH  18  19
HETATM   19  C   UNL     1      -8.112   5.621  70.510  1.00  0.00    -0.105 C  
HETATM   20  S   UNL     1      -9.236   4.925  69.257  1.00  0.00    -0.120 SA 
HETATM   21  C   UNL     1      -7.979   3.893  68.618  1.00  0.00    -0.067 C  
HETATM   22  N   UNL     1      -6.768   4.305  69.064  1.00  0.00    -0.045 N  
HETATM   23  O   UNL     1      -8.184   2.934  67.895  1.00  0.00    -0.076 OA 
HETATM   24  C   UNL     1      -6.722   5.284  70.015  1.00  0.00    -0.044 C  
HETATM   25  H   UNL     1      -5.910   3.894  68.697  1.00  0.00     0.000 HD 
HETATM   26  O   UNL     1      -5.678   5.738  70.466  1.00  0.00    -0.012 OA 
ENDBRANCH  18  19
ENDBRANCH  15  18
ENDBRANCH  11  12
ENDBRANCH  10  11
ENDBRANCH   9  10
ENDBRANCH   2   9
TORSDOF 7
ENDMDL
MODEL      288
REMARK 921   NORMALIZED FREE ENERGY PREDICTED BY IDOCK:    0.14 KCAL/MOL
REMARK 922        TOTAL FREE ENERGY PREDICTED BY IDOCK:   -0.67 KCAL/MOL
REMARK 923 INTER-LIGAND FREE ENERGY PREDICTED BY IDOCK:   -4.57 KCAL/MOL
REMARK 924 INTRA-LIGAND FREE ENERGY PREDICTED BY IDOCK:    3.91 KCAL/MOL
REMARK 927      BINDING AFFINITY PREDICTED BY RF-SCORE:    0.00 PKD
ROOT
HETATM    1  C   UNL     1      -8.154  16.806  66.232  1.00  0.00    -0.330 C  
HETATM    2  N   UNL     1      -7.689  17.934  67.040  1.00  0.00    -0.205 NA 
ENDROOT
BRANCH   2   3
HETATM    3  C   UNL     1      -8.728  18.833  67.358  1.00  0.00    -0.273 A  
HETATM    4  C   UNL     1      -9.732  20.354  68.799  1.00  0.00     0.200 A  
HETATM    5  C   UNL     1     -10.822  20.543  67.970  1.00  0.00     0.401 A  
HETATM    6  C   UNL     1      -9.798  18.978  66.473  1.00  0.00    -0.415 A  
HETATM    7  C   UNL     1     -10.854  19.836  66.781  1.00  0.00    -0.436 A  
HETATM    8  N   UNL     1      -8.702  19.523  68.520  1.00  0.00    -0.359 NA 
ENDBRANCH   2   3
BRANCH   2   9
HETATM    9  C   UNL     1      -6.863  17.551  68.204  1.00  0.00    -0.197 C  
BRANCH   9  10
HETATM   10  C   UNL     1      -6.564  16.045  68.228  1.00  0.00    -0.118 C  
BRANCH  10  11
HETATM   11  O   UNL     1      -7.181  15.356  67.131  1.00  0.00    -0.204 OA 
BRANCH  11  12
HETATM   12  C   UNL     1      -8.240  14.550  67.475  1.00  0.00    -0.187 A  
HETATM   13  C   UNL     1      -9.926  12.855  67.069  1.00  0.00    -0.244 A  
HETATM   14  C   UNL     1      -8.801  13.571  66.656  1.00  0.00    -0.080 A  
HETATM   15  C   UNL     1     -10.505  13.092  68.320  1.00  0.00    -0.258 A  
HETATM   16  C   UNL     1      -9.908  14.035  69.167  1.00  0.00     0.107 A  
HETATM   17  C   UNL     1      -8.785  14.761  68.748  1.00  0.00    -0.178 A  
BRANCH  15  18
HETATM   18  C   UNL     1     -11.791  12.401  68.695  1.00  0.00    -0.348 C  
BRANCH  18  19
HETATM   19  C   UNL     1     -11.851  10.881  68.579  1.00  0.00    -0.166 C  
HETATM   20  S   UNL     1     -10.351  10.019  68.008  1.00  0.00    -0.213 SA 
HETATM   21  C   UNL     1     -10.702   8.628  69.007  1.00  0.00    -0.101 C  
HETATM   22  N   UNL     1     -11.640   8.944  69.932  1.00  0.00    -0.438 N  
HETATM   23  O   UNL     1     -10.181   7.535  68.864  1.00  0.00    -0.197 OA 
HETATM   24  C   UNL     1     -12.257  10.159  69.845  1.00  0.00     0.018 C  
HETATM   25  H   UNL     1     -11.879   8.290  70.677  1.00  0.00     0.000 HD 
HETATM   26  O   UNL     1     -13.102  10.545  70.643  1.00  0.00    -0.353 OA 
ENDBRANCH  18  19
ENDBRANCH  15  18
ENDBRANCH  11  12
ENDBRANCH  10  11
ENDBRANCH   9  10
ENDBRANCH   2   9
TORSDOF 7
ENDMDL
MODEL      289
REMARK 921   NORMALIZED FREE ENERGY PREDICTED BY IDOCK:    2.10 KCAL/MOL
REMARK 922        TOTAL FREE ENERGY PREDICTED BY IDOCK:    2.10 KCAL/MOL
REMARK 923 INTER-LIGAND FREE ENERGY PREDICTED BY IDOCK:    0.19 KCAL/MOL
REMARK 924 INTRA-LIGAND FREE ENERGY PREDICTED BY IDOCK:    1.91 KCAL/MOL
REMARK 927      BINDING AFFINITY PREDICTED BY RF-SCORE:    0.00 PKD
ROOT
HETATM    1  C   UNL     1     -10.736  13.850  63.763  1.00  0.00     0.936 C  
HETATM    2  N   UNL     1     -10.273  12.757  64.619  1.00  0.00    -0.316 NA 
ENDROOT
BRANCH   2   3
HETATM    3  C   UNL     1      -9.820  11.646  63.877  1.00  0.00    -0.281 A  
HETATM    4  C   UNL     1      -9.965   9.408  63.272  1.00  0.00     2.029 A  
HETATM    5  C   UNL     1      -8.857   9.475  62.449  1.00  0.00    -0.256 A  
HETATM    6  C   UNL     1      -8.695  11.785  63.062  1.00  0.00     0.523 A  
HETATM    7  C   UNL     1      -8.207  10.693  62.345  1.00  0.00    -0.249 A  
HETATM    8  N   UNL     1     -10.450  10.455  63.979  1.00  0.00     0.066 NA 
ENDBRANCH   2   3
BRANCH   2   9
HETATM    9  C   UNL     1      -9.342  13.172  65.688  1.00  0.00     0.241 C  
BRANCH   9  10
HETATM   10  C   UNL     1      -8.294  12.091  65.992  1.00  0.00     0.356 C  
BRANCH  10  11
HETATM   11  O   UNL     1      -8.878  10.783  66.074  1.00  0.00    -0.168 OA 
BRANCH  11  12
HETATM   12  C   UNL     1      -9.393  10.453  67.305  1.00  0.00    -0.146 A  
HETATM   13  C   UNL     1     -10.317  10.937  69.494  1.00  0.00    -0.136 A  
HETATM   14  C   UNL     1      -9.883  11.365  68.239  1.00  0.00    -0.202 A  
HETATM   15  C   UNL     1     -10.285   9.581  69.837  1.00  0.00    -0.261 A  
HETATM   16  C   UNL     1      -9.846   8.657  68.879  1.00  0.00    -0.184 A  
HETATM   17  C   UNL     1      -9.401   9.089  67.622  1.00  0.00    -0.154 A  
BRANCH  15  18
HETATM   18  C   UNL     1     -10.636   9.152  71.239  1.00  0.00    -0.399 C  
BRANCH  18  19
HETATM   19  C   UNL     1     -11.071   7.706  71.459  1.00  0.00    -0.236 C  
HETATM   20  S   UNL     1     -10.263   6.777  72.802  1.00  0.00    -0.201 SA 
HETATM   21  C   UNL     1     -11.721   5.869  73.128  1.00  0.00     0.228 C  
HETATM   22  N   UNL     1     -12.783   6.467  72.537  1.00  0.00    -0.423 N  
HETATM   23  O   UNL     1     -11.753   4.839  73.779  1.00  0.00    -0.069 OA 
HETATM   24  C   UNL     1     -12.554   7.513  71.690  1.00  0.00    -0.348 C  
HETATM   25  H   UNL     1     -13.732   6.143  72.720  1.00  0.00     0.000 HD 
HETATM   26  O   UNL     1     -13.447   8.131  71.125  1.00  0.00    -0.160 OA 
ENDBRANCH  18  19
ENDBRANCH  15  18
ENDBRANCH  11  12
ENDBRANCH  10  11
ENDBRANCH   9  10
ENDBRANCH   2   9
TORSDOF 7
ENDMDL
MODEL      290
REMARK 921   NORMALIZED FREE ENERGY PREDICTED BY IDOCK:    3.79 KCAL/MOL
REMARK 922        TOTAL FREE ENERGY PREDICTED BY IDOCK:    4.49 KCAL/MOL
REMARK 923 INTER-LIGAND FREE ENERGY PREDICTED BY IDOCK:    0.22 KCAL/MOL
REMARK 924 INTRA-LIGAND FREE ENERGY PREDICTED BY IDOCK:    4.27 KCAL/MOL
REMARK 927      BINDING AFFINITY PREDICTED BY RF-SCORE:    0.00 PKD
ROOT
HETATM    1  C   UNL     1     -11.601  11.845  70.436  1.00  0.00     0.033 C  
HETATM    2  N   UNL     1     -10.351  11.218  70.004  1.00  0.00     0.546 NA 
ENDROOT
BRANCH   2   3
HETATM    3  C   UNL     1     -10.459   9.815  69.905  1.00  0.00    -0.261 A  
HETATM    4  C   UNL     1     -10.870   7.890  68.672  1.00  0.00     0.068 A  
HETATM    5  C   UNL     1     -10.723   7.060  69.768  1.00  0.00    -0.265 A  
HETATM    6  C   UNL     1     -10.295   9.036  71.052  1.00  0.00    -0.348 A  
HETATM    7  C   UNL     1     -10.430   7.650  70.985  1.00  0.00    -0.218 A  
HETATM    8  N   UNL     1     -10.748   9.236  68.718  1.00  0.00    -0.194 NA 
ENDBRANCH   2   3
BRANCH   2   9
HETATM    9  C   UNL     1      -9.730  11.848  68.821  1.00  0.00    -0.039 C  
BRANCH   9  10
HETATM   10  C   UNL     1      -8.199  11.901  68.934  1.00  0.00     0.093 C  
BRANCH  10  11
HETATM   11  O   UNL     1      -7.750  11.687  70.279  1.00  0.00     1.195 OA 
BRANCH  11  12
HETATM   12  C   UNL     1      -7.319  10.409  70.550  1.00  0.00     0.425 A  
HETATM   13  C   UNL     1      -7.446   7.990  70.462  1.00  0.00    -0.071 A  
HETATM   14  C   UNL     1      -7.914   9.244  70.068  1.00  0.00    -0.124 A  
HETATM   15  C   UNL     1      -6.360   7.874  71.337  1.00  0.00    -0.035 A  
HETATM   16  C   UNL     1      -5.726   9.044  71.777  1.00  0.00    -0.063 A  
HETATM   17  C   UNL     1      -6.203  10.303  71.389  1.00  0.00     0.341 A  
BRANCH  15  18
HETATM   18  C   UNL     1      -5.951   6.517  71.850  1.00  0.00    -0.038 C  
BRANCH  18  19
HETATM   19  C   UNL     1      -7.043   5.585  72.366  1.00  0.00    -0.084 C  
HETATM   20  S   UNL     1      -8.216   6.253  73.590  1.00  0.00    -0.112 SA 
HETATM   21  C   UNL     1      -9.518   5.268  72.965  1.00  0.00    -0.139 C  
HETATM   22  N   UNL     1      -9.187   4.778  71.747  1.00  0.00    -0.135 N  
HETATM   23  O   UNL     1     -10.557   5.050  73.564  1.00  0.00    -0.205 OA 
HETATM   24  C   UNL     1      -7.912   4.964  71.293  1.00  0.00    -0.101 C  
HETATM   25  H   UNL     1      -9.874   4.281  71.181  1.00  0.00     0.000 HD 
HETATM   26  O   UNL     1      -7.522   4.578  70.199  1.00  0.00    -0.049 OA 
ENDBRANCH  18  19
ENDBRANCH  15  18
ENDBRANCH  11  12
ENDBRANCH  10  11
ENDBRANCH   9  10
ENDBRANCH   2   9
TORSDOF 7
ENDMDL
MODEL      291
REMARK 921   NORMALIZED FREE ENERGY PREDICTED BY IDOCK:    8.13 KCAL/MOL
REMARK 922        TOTAL FREE ENERGY PREDICTED BY IDOCK:   10.60 KCAL/MOL
REMARK 923 INTER-LIGAND FREE ENERGY PREDICTED BY IDOCK:    4.50 KCAL/MOL
REMARK 924 INTRA-LIGAND FREE ENERGY PREDICTED BY IDOCK:    6.10 KCAL/MOL
REMARK 927      BINDING AFFINITY PREDICTED BY RF-SCORE:    0.00 PKD
ROOT
HETATM    1  C   UNL     1      -8.771  17.037  65.528  1.00  0.00     0.866 C  
HETATM    2  N   UNL     1      -8.237  18.230  66.186  1.00  0.00    -0.469 NA 
ENDROOT
BRANCH   2   3
HETATM    3  C   UNL     1      -9.214  18.911  66.942  1.00  0.00    -0.303 A  
HETATM    4  C   UNL     1      -9.826  20.251  68.738  1.00  0.00    -0.000 A  
HETATM    5  C   UNL     1     -11.173  20.180  68.436  1.00  0.00     1.166 A  
HETATM    6  C   UNL     1     -10.558  18.799  66.578  1.00  0.00    -0.436 A  
HETATM    7  C   UNL     1     -11.545  19.434  67.330  1.00  0.00     0.903 A  
HETATM    8  N   UNL     1      -8.855  19.637  68.024  1.00  0.00    -0.315 NA 
ENDBRANCH   2   3
BRANCH   2   9
HETATM    9  C   UNL     1      -6.973  18.010  66.917  1.00  0.00    -0.191 C  
BRANCH   9  10
HETATM   10  C   UNL     1      -6.406  16.602  66.678  1.00  0.00    -0.036 C  
BRANCH  10  11
HETATM   11  O   UNL     1      -7.344  15.752  66.003  1.00  0.00     0.678 OA 
BRANCH  11  12
HETATM   12  C   UNL     1      -8.269  15.145  66.820  1.00  0.00    -0.137 A  
HETATM   13  C   UNL     1     -10.069  13.599  67.322  1.00  0.00    -0.239 A  
HETATM   14  C   UNL     1      -9.109  14.098  66.440  1.00  0.00    -0.143 A  
HETATM   15  C   UNL     1     -10.200  14.128  68.610  1.00  0.00    -0.238 A  
HETATM   16  C   UNL     1      -9.319  15.142  69.012  1.00  0.00    -0.219 A  
HETATM   17  C   UNL     1      -8.362  15.649  68.123  1.00  0.00    -0.146 A  
BRANCH  15  18
HETATM   18  C   UNL     1     -11.324  13.665  69.501  1.00  0.00    -0.276 C  
BRANCH  18  19
HETATM   19  C   UNL     1     -11.709  14.545  70.687  1.00  0.00    -0.270 C  
HETATM   20  S   UNL     1     -10.476  15.747  71.282  1.00  0.00     1.080 SA 
HETATM   21  C   UNL     1     -11.721  16.887  71.734  1.00  0.00     0.563 C  
HETATM   22  N   UNL     1     -12.898  16.543  71.158  1.00  0.00     0.484 N  
HETATM   23  O   UNL     1     -11.541  17.837  72.477  1.00  0.00     1.177 OA 
HETATM   24  C   UNL     1     -12.978  15.349  70.501  1.00  0.00    -0.332 C  
HETATM   25  H   UNL     1     -13.706  17.162  71.214  1.00  0.00     0.000 HD 
HETATM   26  O   UNL     1     -13.989  14.959  69.931  1.00  0.00     1.332 OA 
ENDBRANCH  18  19
ENDBRANCH  15  18
ENDBRANCH  11  12
ENDBRANCH  10  11
ENDBRANCH   9  10
ENDBRANCH   2   9
TORSDOF 7
ENDMDL
