MODEL        1
REMARK 921   NORMALIZED FREE ENERGY PREDICTED BY IDOCK:   -7.27 KCAL/MOL
REMARK 922        TOTAL FREE ENERGY PREDICTED BY IDOCK:   -8.54 KCAL/MOL
REMARK 923 INTER-LIGAND FREE ENERGY PREDICTED BY IDOCK:   -8.12 KCAL/MOL
REMARK 924 INTRA-LIGAND FREE ENERGY PREDICTED BY IDOCK:   -0.42 KCAL/MOL
REMARK 927      BINDING AFFINITY PREDICTED BY RF-SCORE:    0.00 PKD
ROOT
HETATM    1  C   UNL     1      -9.320  16.195  65.984  1.00  0.00    -0.368 C  
HETATM    2  C   UNL     1     -10.773  15.784  66.185  1.00  0.00    -0.290 C  
ENDROOT
BRANCH   2   3
HETATM    3  N   UNL     1     -10.900  14.316  66.284  1.00  0.00    -0.305 NA 
HETATM    4  C   UNL     1     -10.454  13.503  65.248  1.00  0.00    -0.336 C  
HETATM    5  C   UNL     1     -10.377  12.165  65.259  1.00  0.00    -0.310 C  
HETATM    6  C   UNL     1     -10.787  11.486  66.501  1.00  0.00    -0.288 C  
HETATM    7  C   UNL     1      -9.882  11.454  64.061  1.00  0.00    -0.278 C  
HETATM    8  O   UNL     1      -9.507  12.024  63.047  1.00  0.00    -0.332 OA 
HETATM    9  O   UNL     1      -9.874  10.107  64.174  1.00  0.00    -0.305 OA 
HETATM   10  O   UNL     1     -10.776  10.258  66.561  1.00  0.00    -0.176 OA 
HETATM   11  C   UNL     1     -11.200  12.320  67.653  1.00  0.00    -0.346 A  
HETATM   12  C   UNL     1     -11.277  13.718  67.510  1.00  0.00    -0.294 A  
HETATM   13  C   UNL     1     -11.743  14.443  68.626  1.00  0.00    -0.367 A  
HETATM   14  C   UNL     1     -12.051  13.841  69.869  1.00  0.00    -0.412 A  
HETATM   15  C   UNL     1     -11.495  11.690  68.865  1.00  0.00    -0.349 A  
HETATM   16  C   UNL     1     -11.896  12.450  69.963  1.00  0.00    -0.363 A  
BRANCH  14  17
HETATM   17  C   UNL     1     -12.523  14.648  71.025  1.00  0.00    -0.399 A  
HETATM   18  C   UNL     1     -13.885  14.738  71.352  1.00  0.00    -0.509 A  
HETATM   19  C   UNL     1     -14.281  15.501  72.442  1.00  0.00    -0.481 A  
HETATM   20  N   UNL     1     -13.430  16.193  73.223  1.00  0.00    -0.546 NA 
HETATM   21  C   UNL     1     -12.124  16.109  72.905  1.00  0.00    -0.541 A  
HETATM   22  C   UNL     1     -11.633  15.360  71.844  1.00  0.00    -0.521 A  
ENDBRANCH  14  17
ENDBRANCH   2   3
TORSDOF 2
ENDMDL
MODEL        2
REMARK 921   NORMALIZED FREE ENERGY PREDICTED BY IDOCK:   -7.27 KCAL/MOL
REMARK 922        TOTAL FREE ENERGY PREDICTED BY IDOCK:   -8.54 KCAL/MOL
REMARK 923 INTER-LIGAND FREE ENERGY PREDICTED BY IDOCK:   -8.20 KCAL/MOL
REMARK 924 INTRA-LIGAND FREE ENERGY PREDICTED BY IDOCK:   -0.33 KCAL/MOL
REMARK 927      BINDING AFFINITY PREDICTED BY RF-SCORE:    0.00 PKD
ROOT
HETATM    1  C   UNL     1     -11.664  16.043  71.027  1.00  0.00    -0.458 C  
HETATM    2  C   UNL     1     -10.475  15.649  70.159  1.00  0.00    -0.303 C  
ENDROOT
BRANCH   2   3
HETATM    3  N   UNL     1     -10.914  15.276  68.798  1.00  0.00    -0.248 NA 
HETATM    4  C   UNL     1     -10.810  16.189  67.754  1.00  0.00    -0.318 C  
HETATM    5  C   UNL     1     -11.035  15.946  66.456  1.00  0.00    -0.121 C  
HETATM    6  C   UNL     1     -11.411  14.568  66.093  1.00  0.00    -0.357 C  
HETATM    7  C   UNL     1     -10.882  17.040  65.473  1.00  0.00    -0.069 C  
HETATM    8  O   UNL     1     -10.534  18.172  65.775  1.00  0.00    -0.584 OA 
HETATM    9  O   UNL     1     -11.162  16.689  64.198  1.00  0.00    -1.103 OA 
HETATM   10  O   UNL     1     -11.668  14.290  64.923  1.00  0.00    -0.359 OA 
HETATM   11  C   UNL     1     -11.463  13.549  67.166  1.00  0.00    -0.368 A  
HETATM   12  C   UNL     1     -11.243  13.932  68.503  1.00  0.00    -0.270 A  
HETATM   13  C   UNL     1     -11.374  12.924  69.479  1.00  0.00    -0.221 A  
HETATM   14  C   UNL     1     -11.635  11.569  69.166  1.00  0.00    -0.382 A  
HETATM   15  C   UNL     1     -11.721  12.221  66.818  1.00  0.00    -0.411 A  
HETATM   16  C   UNL     1     -11.785  11.242  67.809  1.00  0.00    -0.254 A  
BRANCH  14  17
HETATM   17  C   UNL     1     -11.749  10.535  70.227  1.00  0.00    -0.420 A  
HETATM   18  C   UNL     1     -12.943  10.339  70.939  1.00  0.00    -0.456 A  
HETATM   19  C   UNL     1     -13.006   9.361  71.922  1.00  0.00    -0.417 A  
HETATM   20  N   UNL     1     -11.969   8.572  72.262  1.00  0.00    -0.380 NA 
HETATM   21  C   UNL     1     -10.823   8.764  71.582  1.00  0.00    -0.329 A  
HETATM   22  C   UNL     1     -10.670   9.707  70.575  1.00  0.00    -0.374 A  
ENDBRANCH  14  17
ENDBRANCH   2   3
TORSDOF 2
ENDMDL
MODEL        3
REMARK 921   NORMALIZED FREE ENERGY PREDICTED BY IDOCK:   -7.17 KCAL/MOL
REMARK 922        TOTAL FREE ENERGY PREDICTED BY IDOCK:   -8.43 KCAL/MOL
REMARK 923 INTER-LIGAND FREE ENERGY PREDICTED BY IDOCK:   -8.01 KCAL/MOL
REMARK 924 INTRA-LIGAND FREE ENERGY PREDICTED BY IDOCK:   -0.42 KCAL/MOL
REMARK 927      BINDING AFFINITY PREDICTED BY RF-SCORE:    0.00 PKD
ROOT
HETATM    1  C   UNL     1     -12.142  12.374  64.677  1.00  0.00    -0.487 C  
HETATM    2  C   UNL     1     -11.344  12.058  65.937  1.00  0.00    -0.337 C  
ENDROOT
BRANCH   2   3
HETATM    3  N   UNL     1     -11.209  13.254  66.793  1.00  0.00    -0.296 NA 
HETATM    4  C   UNL     1     -11.001  14.504  66.221  1.00  0.00    -0.323 C  
HETATM    5  C   UNL     1     -10.999  15.683  66.858  1.00  0.00    -0.243 C  
HETATM    6  C   UNL     1     -11.265  15.656  68.307  1.00  0.00    -0.353 C  
HETATM    7  C   UNL     1     -10.755  16.924  66.093  1.00  0.00    -0.109 C  
HETATM    8  O   UNL     1     -10.573  16.945  64.885  1.00  0.00    -0.702 OA 
HETATM    9  O   UNL     1     -10.748  18.050  66.841  1.00  0.00    -0.316 OA 
HETATM   10  O   UNL     1     -11.239  16.700  68.956  1.00  0.00    -0.271 OA 
HETATM   11  C   UNL     1     -11.562  14.351  68.942  1.00  0.00    -0.340 A  
HETATM   12  C   UNL     1     -11.497  13.172  68.175  1.00  0.00    -0.314 A  
HETATM   13  C   UNL     1     -11.725  11.960  68.859  1.00  0.00    -0.381 A  
HETATM   14  C   UNL     1     -12.081  11.896  70.227  1.00  0.00    -0.409 A  
HETATM   15  C   UNL     1     -11.912  14.327  70.295  1.00  0.00    -0.398 A  
HETATM   16  C   UNL     1     -12.187  13.112  70.920  1.00  0.00    -0.330 A  
BRANCH  14  17
HETATM   17  C   UNL     1     -12.329  10.596  70.903  1.00  0.00    -0.502 A  
HETATM   18  C   UNL     1     -11.525   9.472  70.656  1.00  0.00    -0.362 A  
HETATM   19  C   UNL     1     -11.791   8.278  71.311  1.00  0.00    -0.288 A  
HETATM   20  N   UNL     1     -12.803   8.110  72.183  1.00  0.00    -0.307 NA 
HETATM   21  C   UNL     1     -13.577   9.187  72.416  1.00  0.00    -0.483 A  
HETATM   22  C   UNL     1     -13.379  10.425  71.819  1.00  0.00    -0.456 A  
ENDBRANCH  14  17
ENDBRANCH   2   3
TORSDOF 2
ENDMDL
MODEL        4
REMARK 921   NORMALIZED FREE ENERGY PREDICTED BY IDOCK:   -7.14 KCAL/MOL
REMARK 922        TOTAL FREE ENERGY PREDICTED BY IDOCK:   -8.39 KCAL/MOL
REMARK 923 INTER-LIGAND FREE ENERGY PREDICTED BY IDOCK:   -7.98 KCAL/MOL
REMARK 924 INTRA-LIGAND FREE ENERGY PREDICTED BY IDOCK:   -0.41 KCAL/MOL
REMARK 927      BINDING AFFINITY PREDICTED BY RF-SCORE:    0.00 PKD
ROOT
HETATM    1  C   UNL     1     -12.658  15.428  73.352  1.00  0.00    -0.645 C  
HETATM    2  C   UNL     1     -12.947  15.633  71.870  1.00  0.00    -0.463 C  
ENDROOT
BRANCH   2   3
HETATM    3  N   UNL     1     -12.411  14.515  71.066  1.00  0.00    -0.317 NA 
HETATM    4  C   UNL     1     -12.692  13.200  71.421  1.00  0.00    -0.297 C  
HETATM    5  C   UNL     1     -12.394  12.102  70.713  1.00  0.00    -0.391 C  
HETATM    6  C   UNL     1     -11.719  12.307  69.419  1.00  0.00    -0.330 C  
HETATM    7  C   UNL     1     -12.762  10.772  71.243  1.00  0.00    -0.441 C  
HETATM    8  O   UNL     1     -13.356  10.609  72.299  1.00  0.00    -0.386 OA 
HETATM    9  O   UNL     1     -12.388   9.735  70.461  1.00  0.00    -0.214 OA 
HETATM   10  O   UNL     1     -11.385  11.338  68.740  1.00  0.00    -0.220 OA 
HETATM   11  C   UNL     1     -11.467  13.697  68.972  1.00  0.00    -0.346 A  
HETATM   12  C   UNL     1     -11.791  14.772  69.821  1.00  0.00    -0.316 A  
HETATM   13  C   UNL     1     -11.462  16.063  69.359  1.00  0.00    -0.336 A  
HETATM   14  C   UNL     1     -10.905  16.312  68.082  1.00  0.00    -0.342 A  
HETATM   15  C   UNL     1     -10.918  13.904  67.704  1.00  0.00    -0.278 A  
HETATM   16  C   UNL     1     -10.662  15.200  67.261  1.00  0.00    -0.305 A  
BRANCH  14  17
HETATM   17  C   UNL     1     -10.589  17.692  67.630  1.00  0.00    -0.364 A  
HETATM   18  C   UNL     1     -10.208  18.694  68.537  1.00  0.00    -0.398 A  
HETATM   19  C   UNL     1      -9.920  19.970  68.071  1.00  0.00    -0.416 A  
HETATM   20  N   UNL     1      -9.995  20.330  66.776  1.00  0.00    -0.460 NA 
HETATM   21  C   UNL     1     -10.366  19.369  65.908  1.00  0.00    -0.451 A  
HETATM   22  C   UNL     1     -10.659  18.064  66.279  1.00  0.00    -0.262 A  
ENDBRANCH  14  17
ENDBRANCH   2   3
TORSDOF 2
ENDMDL
MODEL        5
REMARK 921   NORMALIZED FREE ENERGY PREDICTED BY IDOCK:   -7.10 KCAL/MOL
REMARK 922        TOTAL FREE ENERGY PREDICTED BY IDOCK:   -8.35 KCAL/MOL
REMARK 923 INTER-LIGAND FREE ENERGY PREDICTED BY IDOCK:   -7.93 KCAL/MOL
REMARK 924 INTRA-LIGAND FREE ENERGY PREDICTED BY IDOCK:   -0.42 KCAL/MOL
REMARK 927      BINDING AFFINITY PREDICTED BY RF-SCORE:    0.00 PKD
ROOT
HETATM    1  C   UNL     1     -12.193  12.546  64.697  1.00  0.00    -0.524 C  
HETATM    2  C   UNL     1     -11.439  12.179  65.970  1.00  0.00    -0.370 C  
ENDROOT
BRANCH   2   3
HETATM    3  N   UNL     1     -11.267  13.359  66.843  1.00  0.00    -0.300 NA 
HETATM    4  C   UNL     1     -11.045  14.615  66.286  1.00  0.00    -0.336 C  
HETATM    5  C   UNL     1     -11.011  15.783  66.942  1.00  0.00    -0.207 C  
HETATM    6  C   UNL     1     -11.252  15.738  68.395  1.00  0.00    -0.362 C  
HETATM    7  C   UNL     1     -10.757  17.032  66.192  1.00  0.00    -0.099 C  
HETATM    8  O   UNL     1     -10.595  17.068  64.981  1.00  0.00    -0.703 OA 
HETATM    9  O   UNL     1     -10.716  18.145  66.957  1.00  0.00    -0.353 OA 
HETATM   10  O   UNL     1     -11.196  16.771  69.059  1.00  0.00    -0.228 OA 
HETATM   11  C   UNL     1     -11.562  14.428  69.014  1.00  0.00    -0.330 A  
HETATM   12  C   UNL     1     -11.532  13.261  68.228  1.00  0.00    -0.316 A  
HETATM   13  C   UNL     1     -11.771  12.043  68.897  1.00  0.00    -0.383 A  
HETATM   14  C   UNL     1     -12.105  11.963  70.270  1.00  0.00    -0.409 A  
HETATM   15  C   UNL     1     -11.889  14.389  70.372  1.00  0.00    -0.381 A  
HETATM   16  C   UNL     1     -12.177  13.170  70.983  1.00  0.00    -0.257 A  
BRANCH  14  17
HETATM   17  C   UNL     1     -12.365  10.657  70.930  1.00  0.00    -0.502 A  
HETATM   18  C   UNL     1     -13.410  10.495  71.853  1.00  0.00    -0.461 A  
HETATM   19  C   UNL     1     -13.619   9.257  72.445  1.00  0.00    -0.463 A  
HETATM   20  N   UNL     1     -12.862   8.171  72.201  1.00  0.00    -0.307 NA 
HETATM   21  C   UNL     1     -11.857   8.329  71.318  1.00  0.00    -0.288 A  
HETATM   22  C   UNL     1     -11.581   9.524  70.667  1.00  0.00    -0.350 A  
ENDBRANCH  14  17
ENDBRANCH   2   3
TORSDOF 2
ENDMDL
MODEL        6
REMARK 921   NORMALIZED FREE ENERGY PREDICTED BY IDOCK:   -7.06 KCAL/MOL
REMARK 922        TOTAL FREE ENERGY PREDICTED BY IDOCK:   -8.30 KCAL/MOL
REMARK 923 INTER-LIGAND FREE ENERGY PREDICTED BY IDOCK:   -7.92 KCAL/MOL
REMARK 924 INTRA-LIGAND FREE ENERGY PREDICTED BY IDOCK:   -0.39 KCAL/MOL
REMARK 927      BINDING AFFINITY PREDICTED BY RF-SCORE:    0.00 PKD
ROOT
HETATM    1  C   UNL     1     -13.044  14.797  73.119  1.00  0.00    -0.598 C  
HETATM    2  C   UNL     1     -13.835  14.116  72.008  1.00  0.00    -0.485 C  
ENDROOT
BRANCH   2   3
HETATM    3  N   UNL     1     -13.107  12.943  71.481  1.00  0.00    -0.351 NA 
HETATM    4  C   UNL     1     -13.390  11.669  71.963  1.00  0.00    -0.300 C  
HETATM    5  C   UNL     1     -12.914  10.512  71.484  1.00  0.00    -0.565 C  
HETATM    6  C   UNL     1     -12.018  10.593  70.317  1.00  0.00    -0.339 C  
HETATM    7  C   UNL     1     -13.315   9.240  72.122  1.00  0.00    -0.468 C  
HETATM    8  O   UNL     1     -14.088   9.176  73.066  1.00  0.00    -0.406 OA 
HETATM    9  O   UNL     1     -12.753   8.139  71.576  1.00  0.00    -0.311 OA 
HETATM   10  O   UNL     1     -11.518   9.569  69.854  1.00  0.00    -0.184 OA 
HETATM   11  C   UNL     1     -11.750  11.926  69.730  1.00  0.00    -0.403 A  
HETATM   12  C   UNL     1     -12.276  13.078  70.345  1.00  0.00    -0.310 A  
HETATM   13  C   UNL     1     -11.925  14.317  69.771  1.00  0.00    -0.394 A  
HETATM   14  C   UNL     1     -11.150  14.435  68.594  1.00  0.00    -0.269 A  
HETATM   15  C   UNL     1     -10.981  12.004  68.565  1.00  0.00    -0.280 A  
HETATM   16  C   UNL     1     -10.705  13.246  67.996  1.00  0.00    -0.254 A  
BRANCH  14  17
HETATM   17  C   UNL     1     -10.817  15.763  68.015  1.00  0.00    -0.309 A  
HETATM   18  C   UNL     1     -10.705  15.955  66.628  1.00  0.00    -0.270 A  
HETATM   19  C   UNL     1     -10.395  17.213  66.130  1.00  0.00    -0.322 A  
HETATM   20  N   UNL     1     -10.174  18.292  66.904  1.00  0.00    -0.356 NA 
HETATM   21  C   UNL     1     -10.278  18.106  68.234  1.00  0.00    -0.389 A  
HETATM   22  C   UNL     1     -10.597  16.890  68.822  1.00  0.00    -0.355 A  
ENDBRANCH  14  17
ENDBRANCH   2   3
TORSDOF 2
ENDMDL
MODEL        7
REMARK 921   NORMALIZED FREE ENERGY PREDICTED BY IDOCK:   -7.04 KCAL/MOL
REMARK 922        TOTAL FREE ENERGY PREDICTED BY IDOCK:   -8.28 KCAL/MOL
REMARK 923 INTER-LIGAND FREE ENERGY PREDICTED BY IDOCK:   -7.89 KCAL/MOL
REMARK 924 INTRA-LIGAND FREE ENERGY PREDICTED BY IDOCK:   -0.39 KCAL/MOL
REMARK 927      BINDING AFFINITY PREDICTED BY RF-SCORE:    0.00 PKD
ROOT
HETATM    1  C   UNL     1     -10.068  10.072  69.685  1.00  0.00    -0.263 C  
HETATM    2  C   UNL     1     -11.286  10.418  68.836  1.00  0.00    -0.235 C  
ENDROOT
BRANCH   2   3
HETATM    3  N   UNL     1     -10.949  11.430  67.814  1.00  0.00    -0.229 NA 
HETATM    4  C   UNL     1     -10.544  11.035  66.544  1.00  0.00    -0.254 C  
HETATM    5  C   UNL     1     -10.345  11.833  65.486  1.00  0.00    -0.304 C  
HETATM    6  C   UNL     1     -10.598  13.271  65.680  1.00  0.00    -0.283 C  
HETATM    7  C   UNL     1      -9.907  11.244  64.202  1.00  0.00    -0.279 C  
HETATM    8  O   UNL     1      -9.734  10.045  64.036  1.00  0.00    -0.273 OA 
HETATM    9  O   UNL     1      -9.709  12.143  63.213  1.00  0.00    -0.370 OA 
HETATM   10  O   UNL     1     -10.397  14.060  64.759  1.00  0.00    -0.423 OA 
HETATM   11  C   UNL     1     -11.100  13.723  66.999  1.00  0.00    -0.313 A  
HETATM   12  C   UNL     1     -11.235  12.796  68.049  1.00  0.00    -0.270 A  
HETATM   13  C   UNL     1     -11.653  13.308  69.294  1.00  0.00    -0.370 A  
HETATM   14  C   UNL     1     -12.003  14.663  69.499  1.00  0.00    -0.361 A  
HETATM   15  C   UNL     1     -11.437  15.070  67.162  1.00  0.00    -0.304 A  
HETATM   16  C   UNL     1     -11.903  15.524  68.394  1.00  0.00    -0.241 A  
BRANCH  14  17
HETATM   17  C   UNL     1     -12.455  15.156  70.826  1.00  0.00    -0.429 A  
HETATM   18  C   UNL     1     -13.776  14.978  71.267  1.00  0.00    -0.523 A  
HETATM   19  C   UNL     1     -14.154  15.452  72.515  1.00  0.00    -0.499 A  
HETATM   20  N   UNL     1     -13.326  16.102  73.353  1.00  0.00    -0.597 NA 
HETATM   21  C   UNL     1     -12.060  16.277  72.927  1.00  0.00    -0.527 A  
HETATM   22  C   UNL     1     -11.587  15.825  71.703  1.00  0.00    -0.537 A  
ENDBRANCH  14  17
ENDBRANCH   2   3
TORSDOF 2
ENDMDL
MODEL        8
REMARK 921   NORMALIZED FREE ENERGY PREDICTED BY IDOCK:   -6.99 KCAL/MOL
REMARK 922        TOTAL FREE ENERGY PREDICTED BY IDOCK:   -8.22 KCAL/MOL
REMARK 923 INTER-LIGAND FREE ENERGY PREDICTED BY IDOCK:   -7.84 KCAL/MOL
REMARK 924 INTRA-LIGAND FREE ENERGY PREDICTED BY IDOCK:   -0.38 KCAL/MOL
REMARK 927      BINDING AFFINITY PREDICTED BY RF-SCORE:    0.00 PKD
ROOT
HETATM    1  C   UNL     1     -13.107  10.724  71.933  1.00  0.00    -0.557 C  
HETATM    2  C   UNL     1     -12.531  11.220  70.612  1.00  0.00    -0.348 C  
ENDROOT
BRANCH   2   3
HETATM    3  N   UNL     1     -12.393  12.691  70.613  1.00  0.00    -0.342 NA 
HETATM    4  C   UNL     1     -12.449  13.398  71.809  1.00  0.00    -0.023 C  
HETATM    5  C   UNL     1     -12.202  14.704  71.976  1.00  0.00    -0.372 C  
HETATM    6  C   UNL     1     -11.812  15.466  70.776  1.00  0.00    -0.353 C  
HETATM    7  C   UNL     1     -12.313  15.301  73.324  1.00  0.00    -0.475 C  
HETATM    8  O   UNL     1     -12.600  14.657  74.323  1.00  0.00    -0.416 OA 
HETATM    9  O   UNL     1     -12.070  16.629  73.370  1.00  0.00    -0.473 OA 
HETATM   10  O   UNL     1     -11.609  16.676  70.856  1.00  0.00    -0.160 OA 
HETATM   11  C   UNL     1     -11.671  14.734  69.496  1.00  0.00    -0.358 A  
HETATM   12  C   UNL     1     -11.995  13.366  69.436  1.00  0.00    -0.315 A  
HETATM   13  C   UNL     1     -11.903  12.750  68.171  1.00  0.00    -0.372 A  
HETATM   14  C   UNL     1     -11.437  13.418  67.014  1.00  0.00    -0.372 A  
HETATM   15  C   UNL     1     -11.206  15.427  68.375  1.00  0.00    -0.318 A  
HETATM   16  C   UNL     1     -11.072  14.766  67.156  1.00  0.00    -0.333 A  
BRANCH  14  17
HETATM   17  C   UNL     1     -11.340  12.723  65.704  1.00  0.00    -0.354 A  
HETATM   18  C   UNL     1     -12.306  12.903  64.702  1.00  0.00    -0.501 A  
HETATM   19  C   UNL     1     -12.175  12.236  63.492  1.00  0.00    -0.568 A  
HETATM   20  N   UNL     1     -11.165  11.393  63.205  1.00  0.00    -0.195 NA 
HETATM   21  C   UNL     1     -10.241  11.218  64.169  1.00  0.00    -0.335 A  
HETATM   22  C   UNL     1     -10.281  11.852  65.403  1.00  0.00    -0.300 A  
ENDBRANCH  14  17
ENDBRANCH   2   3
TORSDOF 2
ENDMDL
MODEL        9
REMARK 921   NORMALIZED FREE ENERGY PREDICTED BY IDOCK:   -6.88 KCAL/MOL
REMARK 922        TOTAL FREE ENERGY PREDICTED BY IDOCK:   -8.11 KCAL/MOL
REMARK 923 INTER-LIGAND FREE ENERGY PREDICTED BY IDOCK:   -7.71 KCAL/MOL
REMARK 924 INTRA-LIGAND FREE ENERGY PREDICTED BY IDOCK:   -0.39 KCAL/MOL
REMARK 927      BINDING AFFINITY PREDICTED BY RF-SCORE:    0.00 PKD
ROOT
HETATM    1  C   UNL     1     -13.622  13.200  72.329  1.00  0.00    -0.677 C  
HETATM    2  C   UNL     1     -12.897  13.471  71.016  1.00  0.00    -0.267 C  
ENDROOT
BRANCH   2   3
HETATM    3  N   UNL     1     -12.256  12.243  70.502  1.00  0.00    -0.350 NA 
HETATM    4  C   UNL     1     -12.287  11.071  71.250  1.00  0.00    -0.321 C  
HETATM    5  C   UNL     1     -11.875   9.859  70.853  1.00  0.00    -0.443 C  
HETATM    6  C   UNL     1     -11.354   9.752  69.478  1.00  0.00    -0.083 C  
HETATM    7  C   UNL     1     -11.976   8.714  71.782  1.00  0.00    -0.336 C  
HETATM    8  O   UNL     1     -12.443   8.801  72.908  1.00  0.00    -0.264 OA 
HETATM    9  O   UNL     1     -11.505   7.548  71.287  1.00  0.00    -0.262 OA 
HETATM   10  O   UNL     1     -10.925   8.675  69.066  1.00  0.00    -0.079 OA 
HETATM   11  C   UNL     1     -11.371  10.962  68.625  1.00  0.00    -0.360 A  
HETATM   12  C   UNL     1     -11.793  12.191  69.166  1.00  0.00    -0.305 A  
HETATM   13  C   UNL     1     -11.719  13.314  68.317  1.00  0.00    -0.388 A  
HETATM   14  C   UNL     1     -11.320  13.238  66.962  1.00  0.00    -0.346 A  
HETATM   15  C   UNL     1     -10.972  10.848  67.290  1.00  0.00    -0.355 A  
HETATM   16  C   UNL     1     -10.969  11.973  66.467  1.00  0.00    -0.337 A  
BRANCH  14  17
HETATM   17  C   UNL     1     -11.273  14.447  66.099  1.00  0.00    -0.336 A  
HETATM   18  C   UNL     1     -11.954  14.503  64.872  1.00  0.00    -0.425 A  
HETATM   19  C   UNL     1     -11.884  15.653  64.098  1.00  0.00    -0.068 A  
HETATM   20  N   UNL     1     -11.178  16.747  64.442  1.00  0.00    -1.107 NA 
HETATM   21  C   UNL     1     -10.521  16.690  65.616  1.00  0.00    -0.297 A  
HETATM   22  C   UNL     1     -10.544  15.590  66.462  1.00  0.00    -0.307 A  
ENDBRANCH  14  17
ENDBRANCH   2   3
TORSDOF 2
ENDMDL
MODEL       10
REMARK 921   NORMALIZED FREE ENERGY PREDICTED BY IDOCK:   -6.86 KCAL/MOL
REMARK 922        TOTAL FREE ENERGY PREDICTED BY IDOCK:   -8.08 KCAL/MOL
REMARK 923 INTER-LIGAND FREE ENERGY PREDICTED BY IDOCK:   -7.66 KCAL/MOL
REMARK 924 INTRA-LIGAND FREE ENERGY PREDICTED BY IDOCK:   -0.42 KCAL/MOL
REMARK 927      BINDING AFFINITY PREDICTED BY RF-SCORE:    0.00 PKD
ROOT
HETATM    1  C   UNL     1     -10.486  17.063  68.337  1.00  0.00    -0.370 C  
HETATM    2  C   UNL     1     -11.304  15.929  67.731  1.00  0.00    -0.199 C  
ENDROOT
BRANCH   2   3
HETATM    3  N   UNL     1     -11.556  14.867  68.726  1.00  0.00    -0.308 NA 
HETATM    4  C   UNL     1     -12.108  15.183  69.963  1.00  0.00    -0.345 C  
HETATM    5  C   UNL     1     -12.517  14.316  70.900  1.00  0.00    -0.424 C  
HETATM    6  C   UNL     1     -12.387  12.883  70.581  1.00  0.00    -0.302 C  
HETATM    7  C   UNL     1     -13.079  14.825  72.168  1.00  0.00    -0.341 C  
HETATM    8  O   UNL     1     -13.219  16.014  72.412  1.00  0.00    -0.439 OA 
HETATM    9  O   UNL     1     -13.431  13.863  73.050  1.00  0.00    -0.637 OA 
HETATM   10  O   UNL     1     -12.708  12.037  71.413  1.00  0.00    -0.362 OA 
HETATM   11  C   UNL     1     -11.870  12.505  69.245  1.00  0.00    -0.360 A  
HETATM   12  C   UNL     1     -11.436  13.507  68.357  1.00  0.00    -0.311 A  
HETATM   13  C   UNL     1     -10.893  13.072  67.130  1.00  0.00    -0.278 A  
HETATM   14  C   UNL     1     -10.842  11.712  66.743  1.00  0.00    -0.322 A  
HETATM   15  C   UNL     1     -11.837  11.152  68.897  1.00  0.00    -0.406 A  
HETATM   16  C   UNL     1     -11.346  10.768  67.650  1.00  0.00    -0.328 A  
BRANCH  14  17
HETATM   17  C   UNL     1     -10.276  11.301  65.431  1.00  0.00    -0.323 A  
HETATM   18  C   UNL     1      -9.616  10.072  65.268  1.00  0.00    -0.355 A  
HETATM   19  C   UNL     1      -9.104   9.727  64.024  1.00  0.00    -0.237 A  
HETATM   20  N   UNL     1      -9.185  10.514  62.935  1.00  0.00    -0.270 NA 
HETATM   21  C   UNL     1      -9.814  11.694  63.095  1.00  0.00    -0.382 A  
HETATM   22  C   UNL     1     -10.369  12.118  64.294  1.00  0.00    -0.363 A  
ENDBRANCH  14  17
ENDBRANCH   2   3
TORSDOF 2
ENDMDL
MODEL       11
REMARK 921   NORMALIZED FREE ENERGY PREDICTED BY IDOCK:   -6.80 KCAL/MOL
REMARK 922        TOTAL FREE ENERGY PREDICTED BY IDOCK:   -8.01 KCAL/MOL
REMARK 923 INTER-LIGAND FREE ENERGY PREDICTED BY IDOCK:   -7.60 KCAL/MOL
REMARK 924 INTRA-LIGAND FREE ENERGY PREDICTED BY IDOCK:   -0.41 KCAL/MOL
REMARK 927      BINDING AFFINITY PREDICTED BY RF-SCORE:    0.00 PKD
ROOT
HETATM    1  C   UNL     1     -11.672  15.302  69.004  1.00  0.00    -0.368 C  
HETATM    2  C   UNL     1     -12.276  13.907  69.112  1.00  0.00    -0.267 C  
ENDROOT
BRANCH   2   3
HETATM    3  N   UNL     1     -12.020  13.123  67.886  1.00  0.00    -0.338 NA 
HETATM    4  C   UNL     1     -12.144  13.718  66.635  1.00  0.00    -0.429 C  
HETATM    5  C   UNL     1     -11.811  13.175  65.456  1.00  0.00    -0.420 C  
HETATM    6  C   UNL     1     -11.238  11.818  65.488  1.00  0.00    -0.258 C  
HETATM    7  C   UNL     1     -12.014  13.950  64.214  1.00  0.00    -0.444 C  
HETATM    8  O   UNL     1     -12.455  15.090  64.197  1.00  0.00    -0.756 OA 
HETATM    9  O   UNL     1     -11.671  13.294  63.083  1.00  0.00    -0.310 OA 
HETATM   10  O   UNL     1     -10.948  11.249  64.437  1.00  0.00    -0.332 OA 
HETATM   11  C   UNL     1     -11.024  11.177  66.806  1.00  0.00    -0.309 A  
HETATM   12  C   UNL     1     -11.449  11.832  67.977  1.00  0.00    -0.319 A  
HETATM   13  C   UNL     1     -11.275  11.135  69.190  1.00  0.00    -0.328 A  
HETATM   14  C   UNL     1     -10.639   9.874  69.276  1.00  0.00    -0.245 A  
HETATM   15  C   UNL     1     -10.390   9.932  66.852  1.00  0.00    -0.300 A  
HETATM   16  C   UNL     1     -10.184   9.302  68.078  1.00  0.00    -0.255 A  
BRANCH  14  17
HETATM   17  C   UNL     1     -10.461   9.182  70.580  1.00  0.00    -0.289 A  
HETATM   18  C   UNL     1      -9.198   9.052  71.178  1.00  0.00    -0.326 A  
HETATM   19  C   UNL     1      -9.078   8.400  72.398  1.00  0.00    -0.256 A  
HETATM   20  N   UNL     1     -10.115   7.855  73.062  1.00  0.00    -0.307 NA 
HETATM   21  C   UNL     1     -11.325   7.976  72.484  1.00  0.00    -0.406 A  
HETATM   22  C   UNL     1     -11.544   8.622  71.275  1.00  0.00    -0.340 A  
ENDBRANCH  14  17
ENDBRANCH   2   3
TORSDOF 2
ENDMDL
MODEL       12
REMARK 921   NORMALIZED FREE ENERGY PREDICTED BY IDOCK:   -6.77 KCAL/MOL
REMARK 922        TOTAL FREE ENERGY PREDICTED BY IDOCK:   -7.98 KCAL/MOL
REMARK 923 INTER-LIGAND FREE ENERGY PREDICTED BY IDOCK:   -7.58 KCAL/MOL
REMARK 924 INTRA-LIGAND FREE ENERGY PREDICTED BY IDOCK:   -0.40 KCAL/MOL
REMARK 927      BINDING AFFINITY PREDICTED BY RF-SCORE:    0.00 PKD
ROOT
HETATM    1  C   UNL     1     -12.210   9.898  71.348  1.00  0.00    -0.499 C  
HETATM    2  C   UNL     1     -11.708  10.342  69.979  1.00  0.00    -0.254 C  
ENDROOT
BRANCH   2   3
HETATM    3  N   UNL     1     -11.948  11.784  69.768  1.00  0.00    -0.324 NA 
HETATM    4  C   UNL     1     -12.398  12.580  70.817  1.00  0.00    -0.286 C  
HETATM    5  C   UNL     1     -12.523  13.914  70.809  1.00  0.00    -0.445 C  
HETATM    6  C   UNL     1     -12.126  14.612  69.574  1.00  0.00    -0.295 C  
HETATM    7  C   UNL     1     -13.024  14.605  72.016  1.00  0.00    -0.334 C  
HETATM    8  O   UNL     1     -13.317  14.024  73.051  1.00  0.00    -0.641 OA 
HETATM    9  O   UNL     1     -13.137  15.946  71.886  1.00  0.00    -0.459 OA 
HETATM   10  O   UNL     1     -12.253  15.832  69.490  1.00  0.00    -0.325 OA 
HETATM   11  C   UNL     1     -11.574  13.807  68.460  1.00  0.00    -0.373 A  
HETATM   12  C   UNL     1     -11.526  12.405  68.569  1.00  0.00    -0.306 A  
HETATM   13  C   UNL     1     -11.052  11.699  67.445  1.00  0.00    -0.337 A  
HETATM   14  C   UNL     1     -10.567  12.334  66.277  1.00  0.00    -0.282 A  
HETATM   15  C   UNL     1     -11.103  14.470  67.323  1.00  0.00    -0.317 A  
HETATM   16  C   UNL     1     -10.587  13.737  66.255  1.00  0.00    -0.289 A  
BRANCH  14  17
HETATM   17  C   UNL     1     -10.061  11.549  65.121  1.00  0.00    -0.313 A  
HETATM   18  C   UNL     1      -9.413  10.316  65.295  1.00  0.00    -0.296 A  
HETATM   19  C   UNL     1      -8.957   9.615  64.187  1.00  0.00    -0.229 A  
HETATM   20  N   UNL     1      -9.084  10.051  62.920  1.00  0.00    -0.267 NA 
HETATM   21  C   UNL     1      -9.702  11.236  62.754  1.00  0.00    -0.256 A  
HETATM   22  C   UNL     1     -10.202  12.000  63.799  1.00  0.00    -0.447 A  
ENDBRANCH  14  17
ENDBRANCH   2   3
TORSDOF 2
ENDMDL
MODEL       13
REMARK 921   NORMALIZED FREE ENERGY PREDICTED BY IDOCK:   -6.74 KCAL/MOL
REMARK 922        TOTAL FREE ENERGY PREDICTED BY IDOCK:   -7.95 KCAL/MOL
REMARK 923 INTER-LIGAND FREE ENERGY PREDICTED BY IDOCK:   -7.53 KCAL/MOL
REMARK 924 INTRA-LIGAND FREE ENERGY PREDICTED BY IDOCK:   -0.41 KCAL/MOL
REMARK 927      BINDING AFFINITY PREDICTED BY RF-SCORE:    0.00 PKD
ROOT
HETATM    1  C   UNL     1     -10.365   8.783  67.175  1.00  0.00    -0.364 C  
HETATM    2  C   UNL     1      -9.886   9.997  67.962  1.00  0.00    -0.142 C  
ENDROOT
BRANCH   2   3
HETATM    3  N   UNL     1     -10.859  10.367  69.010  1.00  0.00    -0.220 NA 
HETATM    4  C   UNL     1     -11.217   9.446  69.989  1.00  0.00    -0.190 C  
HETATM    5  C   UNL     1     -11.972   9.685  71.071  1.00  0.00    -0.427 C  
HETATM    6  C   UNL     1     -12.455  11.065  71.253  1.00  0.00    -0.370 C  
HETATM    7  C   UNL     1     -12.261   8.584  72.014  1.00  0.00    -0.366 C  
HETATM    8  O   UNL     1     -11.826   7.449  71.878  1.00  0.00    -0.280 OA 
HETATM    9  O   UNL     1     -13.054   8.930  73.052  1.00  0.00    -0.309 OA 
HETATM   10  O   UNL     1     -13.184  11.339  72.205  1.00  0.00    -0.481 OA 
HETATM   11  C   UNL     1     -12.036  12.091  70.270  1.00  0.00    -0.395 A  
HETATM   12  C   UNL     1     -11.271  11.712  69.151  1.00  0.00    -0.263 A  
HETATM   13  C   UNL     1     -10.966  12.728  68.222  1.00  0.00    -0.278 A  
HETATM   14  C   UNL     1     -11.324  14.084  68.408  1.00  0.00    -0.321 A  
HETATM   15  C   UNL     1     -12.407  13.420  70.489  1.00  0.00    -0.401 A  
HETATM   16  C   UNL     1     -12.035  14.405  69.576  1.00  0.00    -0.376 A  
BRANCH  14  17
HETATM   17  C   UNL     1     -10.966  15.125  67.410  1.00  0.00    -0.314 A  
HETATM   18  C   UNL     1     -10.557  16.410  67.800  1.00  0.00    -0.321 A  
HETATM   19  C   UNL     1     -10.230  17.352  66.834  1.00  0.00    -0.322 A  
HETATM   20  N   UNL     1     -10.291  17.119  65.509  1.00  0.00    -0.631 NA 
HETATM   21  C   UNL     1     -10.688  15.888  65.136  1.00  0.00    -0.429 A  
HETATM   22  C   UNL     1     -11.021  14.879  66.029  1.00  0.00    -0.334 A  
ENDBRANCH  14  17
ENDBRANCH   2   3
TORSDOF 2
ENDMDL
MODEL       14
REMARK 921   NORMALIZED FREE ENERGY PREDICTED BY IDOCK:   -6.73 KCAL/MOL
REMARK 922        TOTAL FREE ENERGY PREDICTED BY IDOCK:   -7.94 KCAL/MOL
REMARK 923 INTER-LIGAND FREE ENERGY PREDICTED BY IDOCK:   -7.53 KCAL/MOL
REMARK 924 INTRA-LIGAND FREE ENERGY PREDICTED BY IDOCK:   -0.41 KCAL/MOL
REMARK 927      BINDING AFFINITY PREDICTED BY RF-SCORE:    0.00 PKD
ROOT
HETATM    1  C   UNL     1     -11.366  11.800  67.303  1.00  0.00    -0.379 C  
HETATM    2  C   UNL     1     -10.548  12.063  68.562  1.00  0.00    -0.231 C  
ENDROOT
BRANCH   2   3
HETATM    3  N   UNL     1     -11.426  12.255  69.735  1.00  0.00    -0.215 NA 
HETATM    4  C   UNL     1     -11.992  13.500  69.990  1.00  0.00    -0.340 C  
HETATM    5  C   UNL     1     -12.909  13.783  70.925  1.00  0.00    -0.341 C  
HETATM    6  C   UNL     1     -13.382  12.661  71.754  1.00  0.00    -0.310 C  
HETATM    7  C   UNL     1     -13.402  15.170  71.065  1.00  0.00    -0.443 C  
HETATM    8  O   UNL     1     -13.034  16.090  70.349  1.00  0.00    -0.283 OA 
HETATM    9  O   UNL     1     -14.302  15.346  72.057  1.00  0.00    -0.533 OA 
HETATM   10  O   UNL     1     -14.194  12.862  72.655  1.00  0.00    -0.523 OA 
HETATM   11  C   UNL     1     -12.857  11.306  71.466  1.00  0.00    -0.519 A  
HETATM   12  C   UNL     1     -11.865  11.137  70.481  1.00  0.00    -0.351 A  
HETATM   13  C   UNL     1     -11.364   9.831  70.308  1.00  0.00    -0.333 A  
HETATM   14  C   UNL     1     -11.860   8.708  71.012  1.00  0.00    -0.303 A  
HETATM   15  C   UNL     1     -13.373  10.221  72.181  1.00  0.00    -0.404 A  
HETATM   16  C   UNL     1     -12.890   8.936  71.937  1.00  0.00    -0.437 A  
BRANCH  14  17
HETATM   17  C   UNL     1     -11.312   7.346  70.784  1.00  0.00    -0.303 A  
HETATM   18  C   UNL     1     -10.998   6.490  71.852  1.00  0.00    -0.288 A  
HETATM   19  C   UNL     1     -10.490   5.225  71.593  1.00  0.00    -0.214 A  
HETATM   20  N   UNL     1     -10.256   4.748  70.355  1.00  0.00    -0.228 NA 
HETATM   21  C   UNL     1     -10.553   5.572  69.332  1.00  0.00    -0.279 A  
HETATM   22  C   UNL     1     -11.077   6.847  69.493  1.00  0.00    -0.270 A  
ENDBRANCH  14  17
ENDBRANCH   2   3
TORSDOF 2
ENDMDL
MODEL       15
REMARK 921   NORMALIZED FREE ENERGY PREDICTED BY IDOCK:   -6.69 KCAL/MOL
REMARK 922        TOTAL FREE ENERGY PREDICTED BY IDOCK:   -7.89 KCAL/MOL
REMARK 923 INTER-LIGAND FREE ENERGY PREDICTED BY IDOCK:   -7.46 KCAL/MOL
REMARK 924 INTRA-LIGAND FREE ENERGY PREDICTED BY IDOCK:   -0.43 KCAL/MOL
REMARK 927      BINDING AFFINITY PREDICTED BY RF-SCORE:    0.00 PKD
ROOT
HETATM    1  C   UNL     1     -10.094  12.374  68.681  1.00  0.00    -0.143 C  
HETATM    2  C   UNL     1      -9.044  13.373  68.210  1.00  0.00    -0.181 C  
ENDROOT
BRANCH   2   3
HETATM    3  N   UNL     1      -9.566  14.214  67.113  1.00  0.00    -0.236 NA 
HETATM    4  C   UNL     1     -10.511  13.704  66.230  1.00  0.00    -0.291 C  
HETATM    5  C   UNL     1     -11.170  14.388  65.284  1.00  0.00    -0.345 C  
HETATM    6  C   UNL     1     -10.879  15.829  65.182  1.00  0.00    -0.428 C  
HETATM    7  C   UNL     1     -12.143  13.686  64.422  1.00  0.00    -0.427 C  
HETATM    8  O   UNL     1     -12.408  12.497  64.535  1.00  0.00    -0.438 OA 
HETATM    9  O   UNL     1     -12.727  14.466  63.485  1.00  0.00    -0.742 OA 
HETATM   10  O   UNL     1     -11.423  16.505  64.310  1.00  0.00    -1.000 OA 
HETATM   11  C   UNL     1      -9.932  16.424  66.152  1.00  0.00    -0.360 A  
HETATM   12  C   UNL     1      -9.271  15.597  67.079  1.00  0.00    -0.222 A  
HETATM   13  C   UNL     1      -8.333  16.220  67.927  1.00  0.00    -0.170 A  
HETATM   14  C   UNL     1      -8.097  17.615  67.931  1.00  0.00    -0.233 A  
HETATM   15  C   UNL     1      -9.726  17.807  66.127  1.00  0.00    -0.230 A  
HETATM   16  C   UNL     1      -8.833  18.393  67.023  1.00  0.00    -0.271 A  
BRANCH  14  17
HETATM   17  C   UNL     1      -7.110  18.232  68.855  1.00  0.00    -0.286 A  
HETATM   18  C   UNL     1      -7.050  19.622  69.047  1.00  0.00    -0.387 A  
HETATM   19  C   UNL     1      -6.113  20.156  69.922  1.00  0.00    -0.357 A  
HETATM   20  N   UNL     1      -5.222  19.417  70.609  1.00  0.00    -0.207 NA 
HETATM   21  C   UNL     1      -5.277  18.085  70.420  1.00  0.00    -0.257 A  
HETATM   22  C   UNL     1      -6.187  17.460  69.578  1.00  0.00    -0.249 A  
ENDBRANCH  14  17
ENDBRANCH   2   3
TORSDOF 2
ENDMDL
MODEL       16
REMARK 921   NORMALIZED FREE ENERGY PREDICTED BY IDOCK:   -6.60 KCAL/MOL
REMARK 922        TOTAL FREE ENERGY PREDICTED BY IDOCK:   -7.79 KCAL/MOL
REMARK 923 INTER-LIGAND FREE ENERGY PREDICTED BY IDOCK:   -7.37 KCAL/MOL
REMARK 924 INTRA-LIGAND FREE ENERGY PREDICTED BY IDOCK:   -0.43 KCAL/MOL
REMARK 927      BINDING AFFINITY PREDICTED BY RF-SCORE:    0.00 PKD
ROOT
HETATM    1  C   UNL     1     -13.278  10.929  71.870  1.00  0.00    -0.508 C  
HETATM    2  C   UNL     1     -12.379  11.527  70.794  1.00  0.00    -0.375 C  
ENDROOT
BRANCH   2   3
HETATM    3  N   UNL     1     -11.364  10.552  70.349  1.00  0.00    -0.321 NA 
HETATM    4  C   UNL     1     -10.896   9.578  71.225  1.00  0.00    -0.343 C  
HETATM    5  C   UNL     1     -10.089   8.552  70.922  1.00  0.00    -0.246 C  
HETATM    6  C   UNL     1      -9.670   8.430  69.514  1.00  0.00    -0.177 C  
HETATM    7  C   UNL     1      -9.682   7.607  71.983  1.00  0.00    -0.166 C  
HETATM    8  O   UNL     1     -10.063   7.691  73.141  1.00  0.00    -0.268 OA 
HETATM    9  O   UNL     1      -8.845   6.629  71.570  1.00  0.00    -0.138 OA 
HETATM   10  O   UNL     1      -8.899   7.532  69.179  1.00  0.00    -0.136 OA 
HETATM   11  C   UNL     1     -10.204   9.405  68.536  1.00  0.00    -0.223 A  
HETATM   12  C   UNL     1     -11.016  10.465  68.980  1.00  0.00    -0.238 A  
HETATM   13  C   UNL     1     -11.433  11.394  68.005  1.00  0.00    -0.377 A  
HETATM   14  C   UNL     1     -11.137  11.259  66.628  1.00  0.00    -0.299 A  
HETATM   15  C   UNL     1      -9.892   9.239  67.184  1.00  0.00    -0.251 A  
HETATM   16  C   UNL     1     -10.373  10.147  66.242  1.00  0.00    -0.245 A  
BRANCH  14  17
HETATM   17  C   UNL     1     -11.612  12.255  65.632  1.00  0.00    -0.433 A  
HETATM   18  C   UNL     1     -11.593  11.984  64.254  1.00  0.00    -0.435 A  
HETATM   19  C   UNL     1     -12.049  12.942  63.359  1.00  0.00    -0.530 A  
HETATM   20  N   UNL     1     -12.508  14.153  63.725  1.00  0.00    -0.806 NA 
HETATM   21  C   UNL     1     -12.521  14.413  65.046  1.00  0.00    -0.359 A  
HETATM   22  C   UNL     1     -12.100  13.513  66.016  1.00  0.00    -0.489 A  
ENDBRANCH  14  17
ENDBRANCH   2   3
TORSDOF 2
ENDMDL
MODEL       17
REMARK 921   NORMALIZED FREE ENERGY PREDICTED BY IDOCK:   -6.60 KCAL/MOL
REMARK 922        TOTAL FREE ENERGY PREDICTED BY IDOCK:   -7.79 KCAL/MOL
REMARK 923 INTER-LIGAND FREE ENERGY PREDICTED BY IDOCK:   -7.39 KCAL/MOL
REMARK 924 INTRA-LIGAND FREE ENERGY PREDICTED BY IDOCK:   -0.40 KCAL/MOL
REMARK 927      BINDING AFFINITY PREDICTED BY RF-SCORE:    0.00 PKD
ROOT
HETATM    1  C   UNL     1      -8.837   9.186  64.784  1.00  0.00    -0.200 C  
HETATM    2  C   UNL     1      -9.738   9.050  66.006  1.00  0.00    -0.269 C  
ENDROOT
BRANCH   2   3
HETATM    3  N   UNL     1     -10.368  10.343  66.346  1.00  0.00    -0.232 NA 
HETATM    4  C   UNL     1     -10.755  11.219  65.338  1.00  0.00    -0.227 C  
HETATM    5  C   UNL     1     -11.457  12.351  65.491  1.00  0.00    -0.404 C  
HETATM    6  C   UNL     1     -11.879  12.691  66.861  1.00  0.00    -0.355 C  
HETATM    7  C   UNL     1     -11.780  13.173  64.305  1.00  0.00    -0.395 C  
HETATM    8  O   UNL     1     -11.459  12.866  63.166  1.00  0.00    -0.361 OA 
HETATM    9  O   UNL     1     -12.466  14.305  64.580  1.00  0.00    -0.607 OA 
HETATM   10  O   UNL     1     -12.493  13.736  67.072  1.00  0.00    -0.315 OA 
HETATM   11  C   UNL     1     -11.549  11.746  67.952  1.00  0.00    -0.377 A  
HETATM   12  C   UNL     1     -10.772  10.606  67.676  1.00  0.00    -0.267 A  
HETATM   13  C   UNL     1     -10.439   9.787  68.774  1.00  0.00    -0.240 A  
HETATM   14  C   UNL     1     -10.907  10.022  70.088  1.00  0.00    -0.365 A  
HETATM   15  C   UNL     1     -12.030  12.011  69.237  1.00  0.00    -0.329 A  
HETATM   16  C   UNL     1     -11.727  11.144  70.285  1.00  0.00    -0.431 A  
BRANCH  14  17
HETATM   17  C   UNL     1     -10.543   9.122  71.214  1.00  0.00    -0.399 A  
HETATM   18  C   UNL     1     -11.523   8.496  72.001  1.00  0.00    -0.431 A  
HETATM   19  C   UNL     1     -11.139   7.661  73.041  1.00  0.00    -0.381 A  
HETATM   20  N   UNL     1      -9.857   7.411  73.369  1.00  0.00    -0.265 NA 
HETATM   21  C   UNL     1      -8.918   8.015  72.615  1.00  0.00    -0.218 A  
HETATM   22  C   UNL     1      -9.207   8.855  71.548  1.00  0.00    -0.322 A  
ENDBRANCH  14  17
ENDBRANCH   2   3
TORSDOF 2
ENDMDL
MODEL       18
REMARK 921   NORMALIZED FREE ENERGY PREDICTED BY IDOCK:   -6.57 KCAL/MOL
REMARK 922        TOTAL FREE ENERGY PREDICTED BY IDOCK:   -7.76 KCAL/MOL
REMARK 923 INTER-LIGAND FREE ENERGY PREDICTED BY IDOCK:   -7.31 KCAL/MOL
REMARK 924 INTRA-LIGAND FREE ENERGY PREDICTED BY IDOCK:   -0.45 KCAL/MOL
REMARK 927      BINDING AFFINITY PREDICTED BY RF-SCORE:    0.00 PKD
ROOT
HETATM    1  C   UNL     1      -8.498   9.916  68.600  1.00  0.00    -0.114 C  
HETATM    2  C   UNL     1      -9.894  10.030  68.000  1.00  0.00    -0.142 C  
ENDROOT
BRANCH   2   3
HETATM    3  N   UNL     1     -10.887  10.391  69.032  1.00  0.00    -0.220 NA 
HETATM    4  C   UNL     1     -11.236   9.475  70.018  1.00  0.00    -0.209 C  
HETATM    5  C   UNL     1     -12.008   9.709  71.088  1.00  0.00    -0.452 C  
HETATM    6  C   UNL     1     -12.525  11.080  71.247  1.00  0.00    -0.370 C  
HETATM    7  C   UNL     1     -12.284   8.614  72.041  1.00  0.00    -0.373 C  
HETATM    8  O   UNL     1     -11.823   7.488  71.924  1.00  0.00    -0.278 OA 
HETATM    9  O   UNL     1     -13.097   8.955  73.066  1.00  0.00    -0.309 OA 
HETATM   10  O   UNL     1     -13.271  11.350  72.187  1.00  0.00    -0.490 OA 
HETATM   11  C   UNL     1     -12.118  12.103  70.257  1.00  0.00    -0.385 A  
HETATM   12  C   UNL     1     -11.331  11.728  69.151  1.00  0.00    -0.279 A  
HETATM   13  C   UNL     1     -11.038  12.739  68.213  1.00  0.00    -0.288 A  
HETATM   14  C   UNL     1     -11.429  14.089  68.378  1.00  0.00    -0.340 A  
HETATM   15  C   UNL     1     -12.521  13.426  70.454  1.00  0.00    -0.322 A  
HETATM   16  C   UNL     1     -12.160  14.408  69.533  1.00  0.00    -0.366 A  
BRANCH  14  17
HETATM   17  C   UNL     1     -11.083  15.126  67.371  1.00  0.00    -0.325 A  
HETATM   18  C   UNL     1     -11.102  14.849  65.994  1.00  0.00    -0.334 A  
HETATM   19  C   UNL     1     -10.773  15.848  65.088  1.00  0.00    -0.429 A  
HETATM   20  N   UNL     1     -10.414  17.096  65.444  1.00  0.00    -0.651 NA 
HETATM   21  C   UNL     1     -10.392  17.358  66.765  1.00  0.00    -0.305 A  
HETATM   22  C   UNL     1     -10.718  16.428  67.743  1.00  0.00    -0.328 A  
ENDBRANCH  14  17
ENDBRANCH   2   3
TORSDOF 2
ENDMDL
MODEL       19
REMARK 921   NORMALIZED FREE ENERGY PREDICTED BY IDOCK:   -6.55 KCAL/MOL
REMARK 922        TOTAL FREE ENERGY PREDICTED BY IDOCK:   -7.74 KCAL/MOL
REMARK 923 INTER-LIGAND FREE ENERGY PREDICTED BY IDOCK:   -7.30 KCAL/MOL
REMARK 924 INTRA-LIGAND FREE ENERGY PREDICTED BY IDOCK:   -0.44 KCAL/MOL
REMARK 927      BINDING AFFINITY PREDICTED BY RF-SCORE:    0.00 PKD
ROOT
HETATM    1  C   UNL     1      -7.853  15.525  69.404  1.00  0.00    -0.231 C  
HETATM    2  C   UNL     1      -9.376  15.486  69.443  1.00  0.00    -0.279 C  
ENDROOT
BRANCH   2   3
HETATM    3  N   UNL     1      -9.951  15.899  68.147  1.00  0.00    -0.221 NA 
HETATM    4  C   UNL     1     -10.065  17.249  67.830  1.00  0.00    -0.317 C  
HETATM    5  C   UNL     1     -10.433  17.763  66.649  1.00  0.00    -0.300 C  
HETATM    6  C   UNL     1     -10.727  16.804  65.569  1.00  0.00    -0.196 C  
HETATM    7  C   UNL     1     -10.508  19.230  66.484  1.00  0.00    -0.462 C  
HETATM    8  O   UNL     1     -10.227  20.022  67.372  1.00  0.00    -0.394 OA 
HETATM    9  O   UNL     1     -10.917  19.636  65.261  1.00  0.00    -0.422 OA 
HETATM   10  O   UNL     1     -11.107  17.211  64.472  1.00  0.00    -1.105 OA 
HETATM   11  C   UNL     1     -10.548  15.360  65.845  1.00  0.00    -0.349 A  
HETATM   12  C   UNL     1     -10.193  14.936  67.140  1.00  0.00    -0.245 A  
HETATM   13  C   UNL     1     -10.106  13.545  67.347  1.00  0.00    -0.237 A  
HETATM   14  C   UNL     1     -10.282  12.593  66.315  1.00  0.00    -0.264 A  
HETATM   15  C   UNL     1     -10.728  14.450  64.800  1.00  0.00    -0.423 A  
HETATM   16  C   UNL     1     -10.575  13.084  65.033  1.00  0.00    -0.336 A  
BRANCH  14  17
HETATM   17  C   UNL     1     -10.164  11.135  66.577  1.00  0.00    -0.275 A  
HETATM   18  C   UNL     1      -9.631  10.256  65.620  1.00  0.00    -0.289 A  
HETATM   19  C   UNL     1      -9.538   8.901  65.907  1.00  0.00    -0.223 A  
HETATM   20  N   UNL     1      -9.945   8.350  67.066  1.00  0.00    -0.226 NA 
HETATM   21  C   UNL     1     -10.460   9.193  67.981  1.00  0.00    -0.224 A  
HETATM   22  C   UNL     1     -10.580  10.563  67.789  1.00  0.00    -0.285 A  
ENDBRANCH  14  17
ENDBRANCH   2   3
TORSDOF 2
ENDMDL
MODEL       20
REMARK 921   NORMALIZED FREE ENERGY PREDICTED BY IDOCK:   -6.55 KCAL/MOL
REMARK 922        TOTAL FREE ENERGY PREDICTED BY IDOCK:   -7.74 KCAL/MOL
REMARK 923 INTER-LIGAND FREE ENERGY PREDICTED BY IDOCK:   -7.28 KCAL/MOL
REMARK 924 INTRA-LIGAND FREE ENERGY PREDICTED BY IDOCK:   -0.46 KCAL/MOL
REMARK 927      BINDING AFFINITY PREDICTED BY RF-SCORE:    0.00 PKD
ROOT
HETATM    1  C   UNL     1     -14.376   7.446  71.577  1.00  0.00    -0.594 C  
HETATM    2  C   UNL     1     -13.127   8.073  72.186  1.00  0.00    -0.202 C  
ENDROOT
BRANCH   2   3
HETATM    3  N   UNL     1     -12.048   8.184  71.184  1.00  0.00    -0.289 NA 
HETATM    4  C   UNL     1     -11.459   7.038  70.659  1.00  0.00    -0.324 C  
HETATM    5  C   UNL     1     -10.576   6.984  69.652  1.00  0.00    -0.253 C  
HETATM    6  C   UNL     1     -10.207   8.264  69.023  1.00  0.00    -0.217 C  
HETATM    7  C   UNL     1     -10.042   5.675  69.221  1.00  0.00    -0.214 C  
HETATM    8  O   UNL     1     -10.381   4.613  69.722  1.00  0.00    -0.182 OA 
HETATM    9  O   UNL     1      -9.139   5.742  68.218  1.00  0.00    -0.118 OA 
HETATM   10  O   UNL     1      -9.373   8.286  68.119  1.00  0.00    -0.134 OA 
HETATM   11  C   UNL     1     -10.866   9.500  69.505  1.00  0.00    -0.243 A  
HETATM   12  C   UNL     1     -11.751   9.437  70.598  1.00  0.00    -0.240 A  
HETATM   13  C   UNL     1     -12.290  10.660  71.046  1.00  0.00    -0.507 A  
HETATM   14  C   UNL     1     -12.040  11.898  70.409  1.00  0.00    -0.421 A  
HETATM   15  C   UNL     1     -10.597  10.704  68.849  1.00  0.00    -0.241 A  
HETATM   16  C   UNL     1     -11.197  11.883  69.287  1.00  0.00    -0.304 A  
BRANCH  14  17
HETATM   17  C   UNL     1     -12.644  13.162  70.906  1.00  0.00    -0.377 A  
HETATM   18  C   UNL     1     -12.381  14.396  70.290  1.00  0.00    -0.410 A  
HETATM   19  C   UNL     1     -12.968  15.552  70.787  1.00  0.00    -0.434 A  
HETATM   20  N   UNL     1     -13.785  15.578  71.857  1.00  0.00    -0.491 NA 
HETATM   21  C   UNL     1     -14.032  14.395  72.450  1.00  0.00    -0.486 A  
HETATM   22  C   UNL     1     -13.503  13.187  72.016  1.00  0.00    -0.598 A  
ENDBRANCH  14  17
ENDBRANCH   2   3
TORSDOF 2
ENDMDL
MODEL       21
REMARK 921   NORMALIZED FREE ENERGY PREDICTED BY IDOCK:   -6.54 KCAL/MOL
REMARK 922        TOTAL FREE ENERGY PREDICTED BY IDOCK:   -7.73 KCAL/MOL
REMARK 923 INTER-LIGAND FREE ENERGY PREDICTED BY IDOCK:   -7.30 KCAL/MOL
REMARK 924 INTRA-LIGAND FREE ENERGY PREDICTED BY IDOCK:   -0.43 KCAL/MOL
REMARK 927      BINDING AFFINITY PREDICTED BY RF-SCORE:    0.00 PKD
ROOT
HETATM    1  C   UNL     1      -9.104  10.110  66.911  1.00  0.00    -0.160 C  
HETATM    2  C   UNL     1      -9.294  10.495  68.373  1.00  0.00    -0.158 C  
ENDROOT
BRANCH   2   3
HETATM    3  N   UNL     1     -10.122   9.496  69.081  1.00  0.00    -0.187 NA 
HETATM    4  C   UNL     1      -9.792   8.146  69.024  1.00  0.00    -0.176 C  
HETATM    5  C   UNL     1     -10.363   7.155  69.722  1.00  0.00    -0.224 C  
HETATM    6  C   UNL     1     -11.435   7.535  70.660  1.00  0.00    -0.269 C  
HETATM    7  C   UNL     1      -9.892   5.767  69.536  1.00  0.00    -0.178 C  
HETATM    8  O   UNL     1      -8.977   5.463  68.784  1.00  0.00    -0.114 OA 
HETATM    9  O   UNL     1     -10.557   4.847  70.269  1.00  0.00    -0.184 OA 
HETATM   10  O   UNL     1     -12.025   6.667  71.302  1.00  0.00    -0.336 OA 
HETATM   11  C   UNL     1     -11.767   8.971  70.803  1.00  0.00    -0.286 A  
HETATM   12  C   UNL     1     -11.123   9.920  69.986  1.00  0.00    -0.285 A  
HETATM   13  C   UNL     1     -11.537  11.260  70.128  1.00  0.00    -0.393 A  
HETATM   14  C   UNL     1     -12.490  11.682  71.085  1.00  0.00    -0.412 A  
HETATM   15  C   UNL     1     -12.711   9.350  71.761  1.00  0.00    -0.476 A  
HETATM   16  C   UNL     1     -13.049  10.693  71.910  1.00  0.00    -0.563 A  
BRANCH  14  17
HETATM   17  C   UNL     1     -12.883  13.109  71.211  1.00  0.00    -0.384 A  
HETATM   18  C   UNL     1     -13.900  13.518  72.090  1.00  0.00    -0.628 A  
HETATM   19  C   UNL     1     -14.234  14.862  72.177  1.00  0.00    -0.522 A  
HETATM   20  N   UNL     1     -13.646  15.830  71.449  1.00  0.00    -0.491 NA 
HETATM   21  C   UNL     1     -12.674  15.436  70.604  1.00  0.00    -0.437 A  
HETATM   22  C   UNL     1     -12.263  14.118  70.459  1.00  0.00    -0.431 A  
ENDBRANCH  14  17
ENDBRANCH   2   3
TORSDOF 2
ENDMDL
MODEL       22
REMARK 921   NORMALIZED FREE ENERGY PREDICTED BY IDOCK:   -6.46 KCAL/MOL
REMARK 922        TOTAL FREE ENERGY PREDICTED BY IDOCK:   -7.64 KCAL/MOL
REMARK 923 INTER-LIGAND FREE ENERGY PREDICTED BY IDOCK:   -7.24 KCAL/MOL
REMARK 924 INTRA-LIGAND FREE ENERGY PREDICTED BY IDOCK:   -0.40 KCAL/MOL
REMARK 927      BINDING AFFINITY PREDICTED BY RF-SCORE:    0.00 PKD
ROOT
HETATM    1  C   UNL     1     -10.444  13.176  67.755  1.00  0.00    -0.232 C  
HETATM    2  C   UNL     1     -10.518  11.917  68.611  1.00  0.00    -0.212 C  
ENDROOT
BRANCH   2   3
HETATM    3  N   UNL     1     -11.370  12.133  69.799  1.00  0.00    -0.163 NA 
HETATM    4  C   UNL     1     -11.924  13.385  70.044  1.00  0.00    -0.337 C  
HETATM    5  C   UNL     1     -12.820  13.689  70.994  1.00  0.00    -0.360 C  
HETATM    6  C   UNL     1     -13.280  12.583  71.852  1.00  0.00    -0.392 C  
HETATM    7  C   UNL     1     -13.304  15.080  71.120  1.00  0.00    -0.445 C  
HETATM    8  O   UNL     1     -12.947  15.986  70.381  1.00  0.00    -0.283 OA 
HETATM    9  O   UNL     1     -14.182  15.277  72.129  1.00  0.00    -0.503 OA 
HETATM   10  O   UNL     1     -14.072  12.803  72.766  1.00  0.00    -0.372 OA 
HETATM   11  C   UNL     1     -12.767  11.221  71.576  1.00  0.00    -0.481 A  
HETATM   12  C   UNL     1     -11.798  11.030  70.573  1.00  0.00    -0.367 A  
HETATM   13  C   UNL     1     -11.306   9.719  70.412  1.00  0.00    -0.362 A  
HETATM   14  C   UNL     1     -11.792   8.611  71.145  1.00  0.00    -0.331 A  
HETATM   15  C   UNL     1     -13.272  10.150  72.320  1.00  0.00    -0.359 A  
HETATM   16  C   UNL     1     -12.801   8.859  72.088  1.00  0.00    -0.471 A  
BRANCH  14  17
HETATM   17  C   UNL     1     -11.255   7.242  70.929  1.00  0.00    -0.298 A  
HETATM   18  C   UNL     1     -10.928   6.773  69.646  1.00  0.00    -0.336 A  
HETATM   19  C   UNL     1     -10.428   5.488  69.490  1.00  0.00    -0.297 A  
HETATM   20  N   UNL     1     -10.239   4.627  70.508  1.00  0.00    -0.195 NA 
HETATM   21  C   UNL     1     -10.558   5.077  71.737  1.00  0.00    -0.134 A  
HETATM   22  C   UNL     1     -11.050   6.349  71.992  1.00  0.00    -0.306 A  
ENDBRANCH  14  17
ENDBRANCH   2   3
TORSDOF 2
ENDMDL
MODEL       23
REMARK 921   NORMALIZED FREE ENERGY PREDICTED BY IDOCK:   -6.44 KCAL/MOL
REMARK 922        TOTAL FREE ENERGY PREDICTED BY IDOCK:   -7.62 KCAL/MOL
REMARK 923 INTER-LIGAND FREE ENERGY PREDICTED BY IDOCK:   -7.21 KCAL/MOL
REMARK 924 INTRA-LIGAND FREE ENERGY PREDICTED BY IDOCK:   -0.41 KCAL/MOL
REMARK 927      BINDING AFFINITY PREDICTED BY RF-SCORE:    0.00 PKD
ROOT
HETATM    1  C   UNL     1     -10.469  16.325  67.888  1.00  0.00    -0.295 C  
HETATM    2  C   UNL     1     -11.316  15.142  67.433  1.00  0.00    -0.306 C  
ENDROOT
BRANCH   2   3
HETATM    3  N   UNL     1     -11.564  14.208  68.550  1.00  0.00    -0.296 NA 
HETATM    4  C   UNL     1     -12.199  14.651  69.706  1.00  0.00    -0.302 C  
HETATM    5  C   UNL     1     -12.611  13.893  70.731  1.00  0.00    -0.424 C  
HETATM    6  C   UNL     1     -12.389  12.441  70.615  1.00  0.00    -0.279 C  
HETATM    7  C   UNL     1     -13.267  14.532  71.891  1.00  0.00    -0.359 C  
HETATM    8  O   UNL     1     -13.483  15.733  71.966  1.00  0.00    -0.466 OA 
HETATM    9  O   UNL     1     -13.615  13.676  72.878  1.00  0.00    -0.665 OA 
HETATM   10  O   UNL     1     -12.710  11.695  71.539  1.00  0.00    -0.370 OA 
HETATM   11  C   UNL     1     -11.781  11.921  69.369  1.00  0.00    -0.401 A  
HETATM   12  C   UNL     1     -11.353  12.821  68.374  1.00  0.00    -0.295 A  
HETATM   13  C   UNL     1     -10.722  12.260  67.245  1.00  0.00    -0.263 A  
HETATM   14  C   UNL     1     -10.578  10.867  67.047  1.00  0.00    -0.307 A  
HETATM   15  C   UNL     1     -11.657  10.538  69.208  1.00  0.00    -0.308 A  
HETATM   16  C   UNL     1     -11.081  10.022  68.049  1.00  0.00    -0.263 A  
BRANCH  14  17
HETATM   17  C   UNL     1      -9.921  10.319  65.832  1.00  0.00    -0.321 A  
HETATM   18  C   UNL     1     -10.262  10.767  64.545  1.00  0.00    -0.428 A  
HETATM   19  C   UNL     1      -9.621  10.229  63.437  1.00  0.00    -0.264 A  
HETATM   20  N   UNL     1      -8.678   9.272  63.508  1.00  0.00    -0.201 NA 
HETATM   21  C   UNL     1      -8.355   8.840  64.742  1.00  0.00    -0.168 A  
HETATM   22  C   UNL     1      -8.931   9.328  65.907  1.00  0.00    -0.225 A  
ENDBRANCH  14  17
ENDBRANCH   2   3
TORSDOF 2
ENDMDL
MODEL       24
REMARK 921   NORMALIZED FREE ENERGY PREDICTED BY IDOCK:   -6.38 KCAL/MOL
REMARK 922        TOTAL FREE ENERGY PREDICTED BY IDOCK:   -7.55 KCAL/MOL
REMARK 923 INTER-LIGAND FREE ENERGY PREDICTED BY IDOCK:   -7.09 KCAL/MOL
REMARK 924 INTRA-LIGAND FREE ENERGY PREDICTED BY IDOCK:   -0.46 KCAL/MOL
REMARK 927      BINDING AFFINITY PREDICTED BY RF-SCORE:    0.00 PKD
ROOT
HETATM    1  C   UNL     1     -12.758  11.977  63.472  1.00  0.00    -0.567 C  
HETATM    2  C   UNL     1     -11.282  11.808  63.815  1.00  0.00    -0.436 C  
ENDROOT
BRANCH   2   3
HETATM    3  N   UNL     1     -10.888  12.709  64.917  1.00  0.00    -0.287 NA 
HETATM    4  C   UNL     1     -10.941  14.088  64.747  1.00  0.00    -0.402 C  
HETATM    5  C   UNL     1     -10.749  15.017  65.693  1.00  0.00    -0.365 C  
HETATM    6  C   UNL     1     -10.474  14.530  67.057  1.00  0.00    -0.268 C  
HETATM    7  C   UNL     1     -10.838  16.449  65.338  1.00  0.00    -0.239 C  
HETATM    8  O   UNL     1     -11.104  16.848  64.213  1.00  0.00    -1.135 OA 
HETATM    9  O   UNL     1     -10.599  17.297  66.363  1.00  0.00    -0.281 OA 
HETATM   10  O   UNL     1     -10.252  15.332  67.962  1.00  0.00    -0.227 OA 
HETATM   11  C   UNL     1     -10.480  13.068  67.294  1.00  0.00    -0.238 A  
HETATM   12  C   UNL     1     -10.656  12.187  66.211  1.00  0.00    -0.250 A  
HETATM   13  C   UNL     1     -10.583  10.809  66.499  1.00  0.00    -0.279 A  
HETATM   14  C   UNL     1     -10.420  10.297  67.808  1.00  0.00    -0.269 A  
HETATM   15  C   UNL     1     -10.318  12.600  68.601  1.00  0.00    -0.192 A  
HETATM   16  C   UNL     1     -10.311  11.229  68.852  1.00  0.00    -0.214 A  
BRANCH  14  17
HETATM   17  C   UNL     1     -10.365   8.834  68.068  1.00  0.00    -0.273 A  
HETATM   18  C   UNL     1     -10.743   7.899  67.092  1.00  0.00    -0.306 A  
HETATM   19  C   UNL     1     -10.674   6.542  67.376  1.00  0.00    -0.340 A  
HETATM   20  N   UNL     1     -10.272   6.043  68.561  1.00  0.00    -0.167 NA 
HETATM   21  C   UNL     1      -9.915   6.942  69.498  1.00  0.00    -0.164 A  
HETATM   22  C   UNL     1      -9.938   8.316  69.300  1.00  0.00    -0.192 A  
ENDBRANCH  14  17
ENDBRANCH   2   3
TORSDOF 2
ENDMDL
MODEL       25
REMARK 921   NORMALIZED FREE ENERGY PREDICTED BY IDOCK:   -6.37 KCAL/MOL
REMARK 922        TOTAL FREE ENERGY PREDICTED BY IDOCK:   -7.53 KCAL/MOL
REMARK 923 INTER-LIGAND FREE ENERGY PREDICTED BY IDOCK:   -7.14 KCAL/MOL
REMARK 924 INTRA-LIGAND FREE ENERGY PREDICTED BY IDOCK:   -0.40 KCAL/MOL
REMARK 927      BINDING AFFINITY PREDICTED BY RF-SCORE:    0.00 PKD
ROOT
HETATM    1  C   UNL     1      -9.092   8.102  66.527  1.00  0.00    -0.216 C  
HETATM    2  C   UNL     1     -10.032   9.292  66.375  1.00  0.00    -0.286 C  
ENDROOT
BRANCH   2   3
HETATM    3  N   UNL     1     -10.645   9.653  67.670  1.00  0.00    -0.262 NA 
HETATM    4  C   UNL     1     -10.648   8.742  68.721  1.00  0.00    -0.145 C  
HETATM    5  C   UNL     1     -11.038   8.978  69.981  1.00  0.00    -0.197 C  
HETATM    6  C   UNL     1     -11.490  10.346  70.291  1.00  0.00    -0.325 C  
HETATM    7  C   UNL     1     -10.982   7.889  70.978  1.00  0.00    -0.244 C  
HETATM    8  O   UNL     1     -10.571   6.766  70.724  1.00  0.00    -0.215 OA 
HETATM    9  O   UNL     1     -11.426   8.232  72.207  1.00  0.00    -0.331 OA 
HETATM   10  O   UNL     1     -11.897  10.618  71.419  1.00  0.00    -0.263 OA 
HETATM   11  C   UNL     1     -11.434  11.365  69.217  1.00  0.00    -0.370 A  
HETATM   12  C   UNL     1     -11.041  10.988  67.919  1.00  0.00    -0.288 A  
HETATM   13  C   UNL     1     -11.075  11.993  66.931  1.00  0.00    -0.352 A  
HETATM   14  C   UNL     1     -11.406  13.341  67.206  1.00  0.00    -0.347 A  
HETATM   15  C   UNL     1     -11.766  12.686  69.527  1.00  0.00    -0.374 A  
HETATM   16  C   UNL     1     -11.730  13.663  68.534  1.00  0.00    -0.392 A  
BRANCH  14  17
HETATM   17  C   UNL     1     -11.413  14.372  66.136  1.00  0.00    -0.357 A  
HETATM   18  C   UNL     1     -10.525  15.459  66.156  1.00  0.00    -0.325 A  
HETATM   19  C   UNL     1     -10.564  16.398  65.134  1.00  0.00    -0.264 A  
HETATM   20  N   UNL     1     -11.427  16.348  64.102  1.00  0.00    -1.032 NA 
HETATM   21  C   UNL     1     -12.282  15.308  64.087  1.00  0.00    -0.114 A  
HETATM   22  C   UNL     1     -12.307  14.314  65.056  1.00  0.00    -0.434 A  
ENDBRANCH  14  17
ENDBRANCH   2   3
TORSDOF 2
ENDMDL
MODEL       26
REMARK 921   NORMALIZED FREE ENERGY PREDICTED BY IDOCK:   -6.36 KCAL/MOL
REMARK 922        TOTAL FREE ENERGY PREDICTED BY IDOCK:   -7.52 KCAL/MOL
REMARK 923 INTER-LIGAND FREE ENERGY PREDICTED BY IDOCK:   -7.10 KCAL/MOL
REMARK 924 INTRA-LIGAND FREE ENERGY PREDICTED BY IDOCK:   -0.42 KCAL/MOL
REMARK 927      BINDING AFFINITY PREDICTED BY RF-SCORE:    0.00 PKD
ROOT
HETATM    1  C   UNL     1     -13.166  11.460  71.848  1.00  0.00    -0.485 C  
HETATM    2  C   UNL     1     -12.978  10.427  70.744  1.00  0.00    -0.341 C  
ENDROOT
BRANCH   2   3
HETATM    3  N   UNL     1     -11.552  10.072  70.587  1.00  0.00    -0.314 NA 
HETATM    4  C   UNL     1     -10.913   9.300  71.551  1.00  0.00    -0.375 C  
HETATM    5  C   UNL     1      -9.676   8.790  71.474  1.00  0.00    -0.361 C  
HETATM    6  C   UNL     1      -8.924   9.055  70.235  1.00  0.00    -0.198 C  
HETATM    7  C   UNL     1      -9.146   7.991  72.598  1.00  0.00    -0.227 C  
HETATM    8  O   UNL     1      -9.788   7.742  73.608  1.00  0.00    -0.290 OA 
HETATM    9  O   UNL     1      -7.880   7.551  72.424  1.00  0.00    -0.092 OA 
HETATM   10  O   UNL     1      -7.770   8.647  70.117  1.00  0.00    -0.073 OA 
HETATM   11  C   UNL     1      -9.596   9.813  69.154  1.00  0.00    -0.192 A  
HETATM   12  C   UNL     1     -10.887  10.333  69.366  1.00  0.00    -0.245 A  
HETATM   13  C   UNL     1     -11.439  11.101  68.321  1.00  0.00    -0.373 A  
HETATM   14  C   UNL     1     -10.793  11.297  67.077  1.00  0.00    -0.332 A  
HETATM   15  C   UNL     1      -8.928   9.985  67.939  1.00  0.00    -0.131 A  
HETATM   16  C   UNL     1      -9.533  10.701  66.908  1.00  0.00    -0.189 A  
BRANCH  14  17
HETATM   17  C   UNL     1     -11.420  12.101  65.996  1.00  0.00    -0.427 A  
HETATM   18  C   UNL     1     -12.082  13.309  66.266  1.00  0.00    -0.472 A  
HETATM   19  C   UNL     1     -12.652  14.029  65.225  1.00  0.00    -0.470 A  
HETATM   20  N   UNL     1     -12.627  13.635  63.938  1.00  0.00    -0.694 NA 
HETATM   21  C   UNL     1     -11.997  12.473  63.681  1.00  0.00    -0.537 A  
HETATM   22  C   UNL     1     -11.386  11.693  64.653  1.00  0.00    -0.284 A  
ENDBRANCH  14  17
ENDBRANCH   2   3
TORSDOF 2
ENDMDL
MODEL       27
REMARK 921   NORMALIZED FREE ENERGY PREDICTED BY IDOCK:   -6.35 KCAL/MOL
REMARK 922        TOTAL FREE ENERGY PREDICTED BY IDOCK:   -7.51 KCAL/MOL
REMARK 923 INTER-LIGAND FREE ENERGY PREDICTED BY IDOCK:   -7.11 KCAL/MOL
REMARK 924 INTRA-LIGAND FREE ENERGY PREDICTED BY IDOCK:   -0.41 KCAL/MOL
REMARK 927      BINDING AFFINITY PREDICTED BY RF-SCORE:    0.00 PKD
ROOT
HETATM    1  C   UNL     1     -11.615  12.348  65.716  1.00  0.00    -0.449 C  
HETATM    2  C   UNL     1     -10.592  12.462  66.840  1.00  0.00    -0.229 C  
ENDROOT
BRANCH   2   3
HETATM    3  N   UNL     1     -11.237  12.880  68.102  1.00  0.00    -0.253 NA 
HETATM    4  C   UNL     1     -11.780  11.928  68.959  1.00  0.00    -0.331 C  
HETATM    5  C   UNL     1     -12.265  12.146  70.189  1.00  0.00    -0.308 C  
HETATM    6  C   UNL     1     -12.200  13.529  70.694  1.00  0.00    -0.358 C  
HETATM    7  C   UNL     1     -12.813  11.016  70.968  1.00  0.00    -0.346 C  
HETATM    8  O   UNL     1     -12.830   9.864  70.559  1.00  0.00    -0.187 OA 
HETATM    9  O   UNL     1     -13.300  11.355  72.181  1.00  0.00    -0.469 OA 
HETATM   10  O   UNL     1     -12.663  13.802  71.800  1.00  0.00    -0.324 OA 
HETATM   11  C   UNL     1     -11.564  14.559  69.840  1.00  0.00    -0.340 A  
HETATM   12  C   UNL     1     -11.123  14.217  68.547  1.00  0.00    -0.257 A  
HETATM   13  C   UNL     1     -10.590  15.262  67.765  1.00  0.00    -0.266 A  
HETATM   14  C   UNL     1     -10.416  16.582  68.246  1.00  0.00    -0.313 A  
HETATM   15  C   UNL     1     -11.408  15.851  70.350  1.00  0.00    -0.399 A  
HETATM   16  C   UNL     1     -10.821  16.842  69.565  1.00  0.00    -0.225 A  
BRANCH  14  17
HETATM   17  C   UNL     1      -9.833  17.648  67.391  1.00  0.00    -0.305 A  
HETATM   18  C   UNL     1      -8.448  17.753  67.187  1.00  0.00    -0.239 A  
HETATM   19  C   UNL     1      -7.946  18.764  66.378  1.00  0.00    -0.282 A  
HETATM   20  N   UNL     1      -8.713  19.687  65.769  1.00  0.00    -0.367 NA 
HETATM   21  C   UNL     1     -10.041  19.588  65.969  1.00  0.00    -0.436 A  
HETATM   22  C   UNL     1     -10.635  18.605  66.748  1.00  0.00    -0.422 A  
ENDBRANCH  14  17
ENDBRANCH   2   3
TORSDOF 2
ENDMDL
MODEL       28
REMARK 921   NORMALIZED FREE ENERGY PREDICTED BY IDOCK:   -6.26 KCAL/MOL
REMARK 922        TOTAL FREE ENERGY PREDICTED BY IDOCK:   -7.42 KCAL/MOL
REMARK 923 INTER-LIGAND FREE ENERGY PREDICTED BY IDOCK:   -7.03 KCAL/MOL
REMARK 924 INTRA-LIGAND FREE ENERGY PREDICTED BY IDOCK:   -0.39 KCAL/MOL
REMARK 927      BINDING AFFINITY PREDICTED BY RF-SCORE:    0.00 PKD
ROOT
HETATM    1  C   UNL     1      -9.171   9.178  65.223  1.00  0.00    -0.243 C  
HETATM    2  C   UNL     1     -10.137   8.984  66.386  1.00  0.00    -0.281 C  
ENDROOT
BRANCH   2   3
HETATM    3  N   UNL     1     -10.536  10.283  66.966  1.00  0.00    -0.242 NA 
HETATM    4  C   UNL     1     -10.685  11.398  66.149  1.00  0.00    -0.267 C  
HETATM    5  C   UNL     1     -11.172  12.593  66.510  1.00  0.00    -0.342 C  
HETATM    6  C   UNL     1     -11.612  12.736  67.909  1.00  0.00    -0.351 C  
HETATM    7  C   UNL     1     -11.257  13.678  65.510  1.00  0.00    -0.293 C  
HETATM    8  O   UNL     1     -10.925  13.543  64.341  1.00  0.00    -0.378 OA 
HETATM    9  O   UNL     1     -11.736  14.847  65.992  1.00  0.00    -0.295 OA 
HETATM   10  O   UNL     1     -12.033  13.818  68.313  1.00  0.00    -0.357 OA 
HETATM   11  C   UNL     1     -11.537  11.550  68.793  1.00  0.00    -0.379 A  
HETATM   12  C   UNL     1     -10.970  10.355  68.310  1.00  0.00    -0.270 A  
HETATM   13  C   UNL     1     -10.869   9.288  69.226  1.00  0.00    -0.170 A  
HETATM   14  C   UNL     1     -11.370   9.349  70.548  1.00  0.00    -0.328 A  
HETATM   15  C   UNL     1     -12.044  11.647  70.092  1.00  0.00    -0.414 A  
HETATM   16  C   UNL     1     -11.977  10.550  70.948  1.00  0.00    -0.481 A  
BRANCH  14  17
HETATM   17  C   UNL     1     -11.256   8.193  71.474  1.00  0.00    -0.307 A  
HETATM   18  C   UNL     1     -10.367   8.205  72.562  1.00  0.00    -0.401 A  
HETATM   19  C   UNL     1     -10.295   7.104  73.403  1.00  0.00    -0.349 A  
HETATM   20  N   UNL     1     -11.026   5.986  73.240  1.00  0.00    -0.246 NA 
HETATM   21  C   UNL     1     -11.875   5.973  72.195  1.00  0.00    -0.247 A  
HETATM   22  C   UNL     1     -12.026   7.031  71.309  1.00  0.00    -0.388 A  
ENDBRANCH  14  17
ENDBRANCH   2   3
TORSDOF 2
ENDMDL
MODEL       29
REMARK 921   NORMALIZED FREE ENERGY PREDICTED BY IDOCK:   -6.19 KCAL/MOL
REMARK 922        TOTAL FREE ENERGY PREDICTED BY IDOCK:   -7.33 KCAL/MOL
REMARK 923 INTER-LIGAND FREE ENERGY PREDICTED BY IDOCK:   -6.93 KCAL/MOL
REMARK 924 INTRA-LIGAND FREE ENERGY PREDICTED BY IDOCK:   -0.40 KCAL/MOL
REMARK 927      BINDING AFFINITY PREDICTED BY RF-SCORE:    0.00 PKD
ROOT
HETATM    1  C   UNL     1     -10.864   7.828  72.710  1.00  0.00    -0.438 C  
HETATM    2  C   UNL     1     -11.851   8.694  71.937  1.00  0.00    -0.351 C  
ENDROOT
BRANCH   2   3
HETATM    3  N   UNL     1     -11.340   9.004  70.586  1.00  0.00    -0.264 NA 
HETATM    4  C   UNL     1     -10.905   7.980  69.751  1.00  0.00    -0.194 C  
HETATM    5  C   UNL     1     -10.552   8.097  68.463  1.00  0.00    -0.142 C  
HETATM    6  C   UNL     1     -10.653   9.440  67.865  1.00  0.00    -0.237 C  
HETATM    7  C   UNL     1     -10.105   6.900  67.719  1.00  0.00    -0.161 C  
HETATM    8  O   UNL     1     -10.059   5.782  68.210  1.00  0.00    -0.142 OA 
HETATM    9  O   UNL     1      -9.747   7.139  66.438  1.00  0.00    -0.159 OA 
HETATM   10  O   UNL     1     -10.308   9.620  66.698  1.00  0.00    -0.239 OA 
HETATM   11  C   UNL     1     -11.181  10.542  68.701  1.00  0.00    -0.328 A  
HETATM   12  C   UNL     1     -11.485  10.307  70.055  1.00  0.00    -0.296 A  
HETATM   13  C   UNL     1     -11.918  11.417  70.808  1.00  0.00    -0.355 A  
HETATM   14  C   UNL     1     -12.125  12.701  70.250  1.00  0.00    -0.372 A  
HETATM   15  C   UNL     1     -11.374  11.796  68.114  1.00  0.00    -0.348 A  
HETATM   16  C   UNL     1     -11.861  12.854  68.880  1.00  0.00    -0.352 A  
BRANCH  14  17
HETATM   17  C   UNL     1     -12.599  13.840  71.079  1.00  0.00    -0.446 A  
HETATM   18  C   UNL     1     -11.772  14.938  71.363  1.00  0.00    -0.387 A  
HETATM   19  C   UNL     1     -12.257  15.982  72.140  1.00  0.00    -0.516 A  
HETATM   20  N   UNL     1     -13.495  16.011  72.668  1.00  0.00    -0.430 NA 
HETATM   21  C   UNL     1     -14.285  14.955  72.398  1.00  0.00    -0.398 A  
HETATM   22  C   UNL     1     -13.893  13.874  71.621  1.00  0.00    -0.376 A  
ENDBRANCH  14  17
ENDBRANCH   2   3
TORSDOF 2
ENDMDL
MODEL       30
REMARK 921   NORMALIZED FREE ENERGY PREDICTED BY IDOCK:   -6.17 KCAL/MOL
REMARK 922        TOTAL FREE ENERGY PREDICTED BY IDOCK:   -7.31 KCAL/MOL
REMARK 923 INTER-LIGAND FREE ENERGY PREDICTED BY IDOCK:   -6.91 KCAL/MOL
REMARK 924 INTRA-LIGAND FREE ENERGY PREDICTED BY IDOCK:   -0.40 KCAL/MOL
REMARK 927      BINDING AFFINITY PREDICTED BY RF-SCORE:    0.00 PKD
ROOT
HETATM    1  C   UNL     1      -7.545  16.070  66.785  1.00  0.00    -0.247 C  
HETATM    2  C   UNL     1      -8.043  14.834  67.524  1.00  0.00    -0.181 C  
ENDROOT
BRANCH   2   3
HETATM    3  N   UNL     1      -9.385  14.438  67.050  1.00  0.00    -0.232 NA 
HETATM    4  C   UNL     1     -10.031  15.186  66.072  1.00  0.00    -0.311 C  
HETATM    5  C   UNL     1     -11.176  14.870  65.452  1.00  0.00    -0.359 C  
HETATM    6  C   UNL     1     -11.805  13.592  65.829  1.00  0.00    -0.372 C  
HETATM    7  C   UNL     1     -11.731  15.787  64.434  1.00  0.00    -0.201 C  
HETATM    8  O   UNL     1     -11.185  16.828  64.098  1.00  0.00    -1.155 OA 
HETATM    9  O   UNL     1     -12.903  15.382  63.895  1.00  0.00    -0.604 OA 
HETATM   10  O   UNL     1     -12.878  13.262  65.325  1.00  0.00    -0.629 OA 
HETATM   11  C   UNL     1     -11.111  12.732  66.815  1.00  0.00    -0.314 A  
HETATM   12  C   UNL     1      -9.929  13.188  67.429  1.00  0.00    -0.229 A  
HETATM   13  C   UNL     1      -9.359  12.348  68.406  1.00  0.00    -0.158 A  
HETATM   14  C   UNL     1      -9.874  11.069  68.727  1.00  0.00    -0.206 A  
HETATM   15  C   UNL     1     -11.648  11.475  67.105  1.00  0.00    -0.249 A  
HETATM   16  C   UNL     1     -11.021  10.648  68.036  1.00  0.00    -0.336 A  
BRANCH  14  17
HETATM   17  C   UNL     1      -9.230  10.209  69.754  1.00  0.00    -0.175 A  
HETATM   18  C   UNL     1      -7.839  10.205  69.943  1.00  0.00    -0.164 A  
HETATM   19  C   UNL     1      -7.279   9.387  70.916  1.00  0.00    -0.081 A  
HETATM   20  N   UNL     1      -7.994   8.563  71.704  1.00  0.00    -0.136 NA 
HETATM   21  C   UNL     1      -9.328   8.564  71.518  1.00  0.00    -0.222 A  
HETATM   22  C   UNL     1      -9.977   9.357  70.582  1.00  0.00    -0.349 A  
ENDBRANCH  14  17
ENDBRANCH   2   3
TORSDOF 2
ENDMDL
MODEL       31
REMARK 921   NORMALIZED FREE ENERGY PREDICTED BY IDOCK:   -6.16 KCAL/MOL
REMARK 922        TOTAL FREE ENERGY PREDICTED BY IDOCK:   -7.30 KCAL/MOL
REMARK 923 INTER-LIGAND FREE ENERGY PREDICTED BY IDOCK:   -6.88 KCAL/MOL
REMARK 924 INTRA-LIGAND FREE ENERGY PREDICTED BY IDOCK:   -0.42 KCAL/MOL
REMARK 927      BINDING AFFINITY PREDICTED BY RF-SCORE:    0.00 PKD
ROOT
HETATM    1  C   UNL     1     -13.792   8.923  71.770  1.00  0.00    -0.465 C  
HETATM    2  C   UNL     1     -12.448   9.628  71.907  1.00  0.00    -0.377 C  
ENDROOT
BRANCH   2   3
HETATM    3  N   UNL     1     -12.416  10.868  71.104  1.00  0.00    -0.390 NA 
HETATM    4  C   UNL     1     -12.810  12.077  71.667  1.00  0.00    -0.294 C  
HETATM    5  C   UNL     1     -12.701  13.290  71.109  1.00  0.00    -0.404 C  
HETATM    6  C   UNL     1     -12.084  13.354  69.772  1.00  0.00    -0.310 C  
HETATM    7  C   UNL     1     -13.178  14.478  71.848  1.00  0.00    -0.359 C  
HETATM    8  O   UNL     1     -13.655  14.424  72.972  1.00  0.00    -0.619 OA 
HETATM    9  O   UNL     1     -13.046  15.644  71.178  1.00  0.00    -0.496 OA 
HETATM   10  O   UNL     1     -11.990  14.433  69.190  1.00  0.00    -0.316 OA 
HETATM   11  C   UNL     1     -11.585  12.096  69.169  1.00  0.00    -0.374 A  
HETATM   12  C   UNL     1     -11.790  10.874  69.836  1.00  0.00    -0.349 A  
HETATM   13  C   UNL     1     -11.350   9.711  69.172  1.00  0.00     0.029 A  
HETATM   14  C   UNL     1     -10.664   9.735  67.935  1.00  0.00    -0.312 A  
HETATM   15  C   UNL     1     -10.910  12.160  67.947  1.00  0.00    -0.254 A  
HETATM   16  C   UNL     1     -10.438  10.992  67.352  1.00  0.00    -0.255 A  
BRANCH  14  17
HETATM   17  C   UNL     1     -10.203   8.483  67.279  1.00  0.00    -0.346 A  
HETATM   18  C   UNL     1     -10.845   7.255  67.504  1.00  0.00    -0.284 A  
HETATM   19  C   UNL     1     -10.382   6.111  66.869  1.00  0.00    -0.248 A  
HETATM   20  N   UNL     1      -9.322   6.090  66.039  1.00  0.00    -0.122 NA 
HETATM   21  C   UNL     1      -8.704   7.268  65.828  1.00  0.00    -0.109 A  
HETATM   22  C   UNL     1      -9.103   8.465  66.407  1.00  0.00    -0.231 A  
ENDBRANCH  14  17
ENDBRANCH   2   3
TORSDOF 2
ENDMDL
MODEL       32
REMARK 921   NORMALIZED FREE ENERGY PREDICTED BY IDOCK:   -6.13 KCAL/MOL
REMARK 922        TOTAL FREE ENERGY PREDICTED BY IDOCK:   -7.26 KCAL/MOL
REMARK 923 INTER-LIGAND FREE ENERGY PREDICTED BY IDOCK:   -6.87 KCAL/MOL
REMARK 924 INTRA-LIGAND FREE ENERGY PREDICTED BY IDOCK:   -0.39 KCAL/MOL
REMARK 927      BINDING AFFINITY PREDICTED BY RF-SCORE:    0.00 PKD
ROOT
HETATM    1  C   UNL     1     -13.435  13.246  72.135  1.00  0.00    -0.655 C  
HETATM    2  C   UNL     1     -13.155  11.768  71.887  1.00  0.00    -0.376 C  
ENDROOT
BRANCH   2   3
HETATM    3  N   UNL     1     -12.279  11.584  70.712  1.00  0.00    -0.381 NA 
HETATM    4  C   UNL     1     -12.136  12.606  69.778  1.00  0.00    -0.233 C  
HETATM    5  C   UNL     1     -11.278  12.632  68.750  1.00  0.00    -0.325 C  
HETATM    6  C   UNL     1     -10.380  11.473  68.603  1.00  0.00    -0.210 C  
HETATM    7  C   UNL     1     -11.261  13.801  67.845  1.00  0.00    -0.274 C  
HETATM    8  O   UNL     1     -11.983  14.777  67.993  1.00  0.00    -0.316 OA 
HETATM    9  O   UNL     1     -10.377  13.708  66.827  1.00  0.00    -0.263 OA 
HETATM   10  O   UNL     1      -9.596  11.420  67.657  1.00  0.00    -0.166 OA 
HETATM   11  C   UNL     1     -10.451  10.397  69.619  1.00  0.00    -0.279 A  
HETATM   12  C   UNL     1     -11.423  10.462  70.636  1.00  0.00    -0.349 A  
HETATM   13  C   UNL     1     -11.477   9.371  71.527  1.00  0.00    -0.467 A  
HETATM   14  C   UNL     1     -10.570   8.286  71.483  1.00  0.00    -0.296 A  
HETATM   15  C   UNL     1      -9.537   9.343  69.544  1.00  0.00    -0.188 A  
HETATM   16  C   UNL     1      -9.587   8.312  70.481  1.00  0.00    -0.180 A  
BRANCH  14  17
HETATM   17  C   UNL     1     -10.654   7.165  72.455  1.00  0.00    -0.257 A  
HETATM   18  C   UNL     1      -9.943   7.184  73.665  1.00  0.00    -0.367 A  
HETATM   19  C   UNL     1     -10.053   6.116  74.545  1.00  0.00    -0.329 A  
HETATM   20  N   UNL     1     -10.803   5.024  74.309  1.00  0.00    -0.316 NA 
HETATM   21  C   UNL     1     -11.481   5.004  73.145  1.00  0.00    -0.282 A  
HETATM   22  C   UNL     1     -11.444   6.030  72.212  1.00  0.00    -0.364 A  
ENDBRANCH  14  17
ENDBRANCH   2   3
TORSDOF 2
ENDMDL
MODEL       33
REMARK 921   NORMALIZED FREE ENERGY PREDICTED BY IDOCK:   -6.11 KCAL/MOL
REMARK 922        TOTAL FREE ENERGY PREDICTED BY IDOCK:   -7.24 KCAL/MOL
REMARK 923 INTER-LIGAND FREE ENERGY PREDICTED BY IDOCK:   -6.83 KCAL/MOL
REMARK 924 INTRA-LIGAND FREE ENERGY PREDICTED BY IDOCK:   -0.42 KCAL/MOL
REMARK 927      BINDING AFFINITY PREDICTED BY RF-SCORE:    0.00 PKD
ROOT
HETATM    1  C   UNL     1     -10.776  19.635  67.177  1.00  0.00    -0.587 C  
HETATM    2  C   UNL     1      -9.964  18.747  66.242  1.00  0.00    -0.385 C  
ENDROOT
BRANCH   2   3
HETATM    3  N   UNL     1      -8.937  17.991  66.987  1.00  0.00    -0.252 NA 
HETATM    4  C   UNL     1      -8.064  18.653  67.844  1.00  0.00    -0.264 C  
HETATM    5  C   UNL     1      -7.184  18.087  68.682  1.00  0.00    -0.276 C  
HETATM    6  C   UNL     1      -7.151  16.614  68.714  1.00  0.00    -0.194 C  
HETATM    7  C   UNL     1      -6.324  18.944  69.524  1.00  0.00    -0.259 C  
HETATM    8  O   UNL     1      -6.382  20.165  69.520  1.00  0.00    -0.328 OA 
HETATM    9  O   UNL     1      -5.456  18.268  70.308  1.00  0.00    -0.228 OA 
HETATM   10  O   UNL     1      -6.340  16.034  69.434  1.00  0.00    -0.147 OA 
HETATM   11  C   UNL     1      -8.115  15.871  67.869  1.00  0.00    -0.149 A  
HETATM   12  C   UNL     1      -8.967  16.577  66.999  1.00  0.00    -0.204 A  
HETATM   13  C   UNL     1      -9.811  15.803  66.176  1.00  0.00    -0.341 A  
HETATM   14  C   UNL     1      -9.882  14.392  66.246  1.00  0.00    -0.321 A  
HETATM   15  C   UNL     1      -8.158  14.478  67.967  1.00  0.00    -0.139 A  
HETATM   16  C   UNL     1      -9.049  13.753  67.178  1.00  0.00    -0.243 A  
BRANCH  14  17
HETATM   17  C   UNL     1     -10.800  13.617  65.370  1.00  0.00    -0.302 A  
HETATM   18  C   UNL     1     -10.323  12.879  64.275  1.00  0.00    -0.396 A  
HETATM   19  C   UNL     1     -11.215  12.168  63.484  1.00  0.00    -0.458 A  
HETATM   20  N   UNL     1     -12.545  12.146  63.687  1.00  0.00    -0.707 NA 
HETATM   21  C   UNL     1     -13.002  12.859  64.735  1.00  0.00    -0.145 A  
HETATM   22  C   UNL     1     -12.185  13.588  65.589  1.00  0.00    -0.500 A  
ENDBRANCH  14  17
ENDBRANCH   2   3
TORSDOF 2
ENDMDL
MODEL       34
REMARK 921   NORMALIZED FREE ENERGY PREDICTED BY IDOCK:   -6.04 KCAL/MOL
REMARK 922        TOTAL FREE ENERGY PREDICTED BY IDOCK:   -7.17 KCAL/MOL
REMARK 923 INTER-LIGAND FREE ENERGY PREDICTED BY IDOCK:   -6.77 KCAL/MOL
REMARK 924 INTRA-LIGAND FREE ENERGY PREDICTED BY IDOCK:   -0.40 KCAL/MOL
REMARK 927      BINDING AFFINITY PREDICTED BY RF-SCORE:    0.00 PKD
ROOT
HETATM    1  C   UNL     1     -13.332  10.104  71.911  1.00  0.00    -0.505 C  
HETATM    2  C   UNL     1     -12.300  10.725  70.978  1.00  0.00    -0.404 C  
ENDROOT
BRANCH   2   3
HETATM    3  N   UNL     1     -11.507   9.683  70.294  1.00  0.00    -0.251 NA 
HETATM    4  C   UNL     1     -11.335   8.435  70.884  1.00  0.00    -0.268 C  
HETATM    5  C   UNL     1     -10.767   7.359  70.323  1.00  0.00    -0.250 C  
HETATM    6  C   UNL     1     -10.293   7.505  68.935  1.00  0.00    -0.211 C  
HETATM    7  C   UNL     1     -10.660   6.104  71.097  1.00  0.00    -0.246 C  
HETATM    8  O   UNL     1     -11.088   5.978  72.235  1.00  0.00    -0.248 OA 
HETATM    9  O   UNL     1     -10.044   5.094  70.444  1.00  0.00    -0.223 OA 
HETATM   10  O   UNL     1      -9.728   6.566  68.377  1.00  0.00    -0.131 OA 
HETATM   11  C   UNL     1     -10.522   8.797  68.248  1.00  0.00    -0.236 A  
HETATM   12  C   UNL     1     -11.098   9.870  68.954  1.00  0.00    -0.140 A  
HETATM   13  C   UNL     1     -11.224  11.089  68.257  1.00  0.00    -0.340 A  
HETATM   14  C   UNL     1     -10.875  11.245  66.895  1.00  0.00    -0.333 A  
HETATM   15  C   UNL     1     -10.166   8.912  66.901  1.00  0.00    -0.347 A  
HETATM   16  C   UNL     1     -10.362  10.119  66.232  1.00  0.00    -0.245 A  
BRANCH  14  17
HETATM   17  C   UNL     1     -11.041  12.546  66.196  1.00  0.00    -0.336 A  
HETATM   18  C   UNL     1     -12.281  12.948  65.674  1.00  0.00    -0.519 A  
HETATM   19  C   UNL     1     -12.391  14.173  65.030  1.00  0.00    -0.440 A  
HETATM   20  N   UNL     1     -11.363  15.023  64.852  1.00  0.00    -0.408 NA 
HETATM   21  C   UNL     1     -10.173  14.634  65.349  1.00  0.00    -0.387 A  
HETATM   22  C   UNL     1      -9.969  13.435  66.019  1.00  0.00    -0.300 A  
ENDBRANCH  14  17
ENDBRANCH   2   3
TORSDOF 2
ENDMDL
MODEL       35
REMARK 921   NORMALIZED FREE ENERGY PREDICTED BY IDOCK:   -5.88 KCAL/MOL
REMARK 922        TOTAL FREE ENERGY PREDICTED BY IDOCK:   -6.99 KCAL/MOL
REMARK 923 INTER-LIGAND FREE ENERGY PREDICTED BY IDOCK:   -6.56 KCAL/MOL
REMARK 924 INTRA-LIGAND FREE ENERGY PREDICTED BY IDOCK:   -0.43 KCAL/MOL
REMARK 927      BINDING AFFINITY PREDICTED BY RF-SCORE:    0.00 PKD
ROOT
HETATM    1  C   UNL     1     -12.785  11.971  63.219  1.00  0.00    -0.437 C  
HETATM    2  C   UNL     1     -11.279  11.735  63.225  1.00  0.00    -0.267 C  
ENDROOT
BRANCH   2   3
HETATM    3  N   UNL     1     -10.641  12.407  64.376  1.00  0.00    -0.314 NA 
HETATM    4  C   UNL     1     -10.678  13.793  64.486  1.00  0.00    -0.390 C  
HETATM    5  C   UNL     1     -10.269  14.521  65.534  1.00  0.00    -0.394 C  
HETATM    6  C   UNL     1      -9.746  13.780  66.695  1.00  0.00    -0.289 C  
HETATM    7  C   UNL     1     -10.376  15.995  65.482  1.00  0.00    -0.390 C  
HETATM    8  O   UNL     1     -10.845  16.602  64.531  1.00  0.00    -0.847 OA 
HETATM    9  O   UNL     1      -9.908  16.628  66.581  1.00  0.00    -0.250 OA 
HETATM   10  O   UNL     1      -9.320  14.392  67.673  1.00  0.00    -0.192 OA 
HETATM   11  C   UNL     1      -9.757  12.300  66.646  1.00  0.00    -0.229 A  
HETATM   12  C   UNL     1     -10.176  11.644  65.473  1.00  0.00    -0.260 A  
HETATM   13  C   UNL     1     -10.096  10.237  65.473  1.00  0.00    -0.351 A  
HETATM   14  C   UNL     1      -9.695   9.482  66.600  1.00  0.00    -0.270 A  
HETATM   15  C   UNL     1      -9.356  11.588  67.780  1.00  0.00    -0.168 A  
HETATM   16  C   UNL     1      -9.347  10.194  67.758  1.00  0.00    -0.153 A  
BRANCH  14  17
HETATM   17  C   UNL     1      -9.642   7.997  66.560  1.00  0.00    -0.295 A  
HETATM   18  C   UNL     1      -8.704   7.315  65.769  1.00  0.00    -0.129 A  
HETATM   19  C   UNL     1      -8.688   5.927  65.763  1.00  0.00    -0.151 A  
HETATM   20  N   UNL     1      -9.542   5.164  66.471  1.00  0.00    -0.146 NA 
HETATM   21  C   UNL     1     -10.445   5.819  67.226  1.00  0.00    -0.266 A  
HETATM   22  C   UNL     1     -10.527   7.203  67.306  1.00  0.00    -0.372 A  
ENDBRANCH  14  17
ENDBRANCH   2   3
TORSDOF 2
ENDMDL
MODEL       36
REMARK 921   NORMALIZED FREE ENERGY PREDICTED BY IDOCK:   -5.85 KCAL/MOL
REMARK 922        TOTAL FREE ENERGY PREDICTED BY IDOCK:   -6.95 KCAL/MOL
REMARK 923 INTER-LIGAND FREE ENERGY PREDICTED BY IDOCK:   -6.53 KCAL/MOL
REMARK 924 INTRA-LIGAND FREE ENERGY PREDICTED BY IDOCK:   -0.43 KCAL/MOL
REMARK 927      BINDING AFFINITY PREDICTED BY RF-SCORE:    0.00 PKD
ROOT
HETATM    1  C   UNL     1     -11.169  13.933  69.177  1.00  0.00    -0.311 C  
HETATM    2  C   UNL     1     -12.116  12.771  68.902  1.00  0.00    -0.135 C  
ENDROOT
BRANCH   2   3
HETATM    3  N   UNL     1     -11.634  11.951  67.772  1.00  0.00    -0.433 NA 
HETATM    4  C   UNL     1     -11.488  12.514  66.509  1.00  0.00    -0.362 C  
HETATM    5  C   UNL     1     -10.935  11.935  65.435  1.00  0.00    -0.352 C  
HETATM    6  C   UNL     1     -10.409  10.570  65.613  1.00  0.00    -0.204 C  
HETATM    7  C   UNL     1     -10.865  12.679  64.160  1.00  0.00    -0.396 C  
HETATM    8  O   UNL     1     -11.269  13.825  64.027  1.00  0.00    -0.281 OA 
HETATM    9  O   UNL     1     -10.314  11.988  63.138  1.00  0.00    -0.404 OA 
HETATM   10  O   UNL     1      -9.924   9.968  64.657  1.00  0.00    -0.309 OA 
HETATM   11  C   UNL     1     -10.481   9.961  66.962  1.00  0.00    -0.296 A  
HETATM   12  C   UNL     1     -11.121  10.654  68.007  1.00  0.00    -0.301 A  
HETATM   13  C   UNL     1     -11.211   9.986  69.245  1.00  0.00    -0.213 A  
HETATM   14  C   UNL     1     -10.633   8.718  69.488  1.00  0.00    -0.224 A  
HETATM   15  C   UNL     1      -9.896   8.707  67.164  1.00  0.00    -0.269 A  
HETATM   16  C   UNL     1      -9.956   8.107  68.420  1.00  0.00    -0.210 A  
BRANCH  14  17
HETATM   17  C   UNL     1     -10.739   8.058  70.815  1.00  0.00    -0.236 A  
HETATM   18  C   UNL     1     -11.457   6.865  70.989  1.00  0.00    -0.358 A  
HETATM   19  C   UNL     1     -11.528   6.282  72.247  1.00  0.00    -0.306 A  
HETATM   20  N   UNL     1     -10.953   6.801  73.348  1.00  0.00    -0.233 NA 
HETATM   21  C   UNL     1     -10.268   7.948  73.181  1.00  0.00    -0.291 A  
HETATM   22  C   UNL     1     -10.130   8.595  71.961  1.00  0.00    -0.401 A  
ENDBRANCH  14  17
ENDBRANCH   2   3
TORSDOF 2
ENDMDL
MODEL       37
REMARK 921   NORMALIZED FREE ENERGY PREDICTED BY IDOCK:   -5.84 KCAL/MOL
REMARK 922        TOTAL FREE ENERGY PREDICTED BY IDOCK:   -6.95 KCAL/MOL
REMARK 923 INTER-LIGAND FREE ENERGY PREDICTED BY IDOCK:   -6.52 KCAL/MOL
REMARK 924 INTRA-LIGAND FREE ENERGY PREDICTED BY IDOCK:   -0.43 KCAL/MOL
REMARK 927      BINDING AFFINITY PREDICTED BY RF-SCORE:    0.00 PKD
ROOT
HETATM    1  C   UNL     1      -7.777   8.323  68.825  1.00  0.00    -0.114 C  
HETATM    2  C   UNL     1      -9.157   8.776  68.361  1.00  0.00    -0.141 C  
ENDROOT
BRANCH   2   3
HETATM    3  N   UNL     1     -10.176   8.517  69.398  1.00  0.00    -0.206 NA 
HETATM    4  C   UNL     1     -10.213   7.291  70.054  1.00  0.00    -0.201 C  
HETATM    5  C   UNL     1     -10.983   6.969  71.102  1.00  0.00    -0.275 C  
HETATM    6  C   UNL     1     -11.867   8.025  71.626  1.00  0.00    -0.289 C  
HETATM    7  C   UNL     1     -10.899   5.610  71.677  1.00  0.00    -0.237 C  
HETATM    8  O   UNL     1     -10.137   4.750  71.262  1.00  0.00    -0.191 OA 
HETATM    9  O   UNL     1     -11.741   5.388  72.711  1.00  0.00    -0.295 OA 
HETATM   10  O   UNL     1     -12.627   7.782  72.562  1.00  0.00    -0.134 OA 
HETATM   11  C   UNL     1     -11.805   9.367  71.001  1.00  0.00    -0.396 A  
HETATM   12  C   UNL     1     -10.982   9.575  69.878  1.00  0.00    -0.238 A  
HETATM   13  C   UNL     1     -11.025  10.858  69.293  1.00  0.00    -0.295 A  
HETATM   14  C   UNL     1     -11.782  11.928  69.824  1.00  0.00    -0.403 A  
HETATM   15  C   UNL     1     -12.566  10.400  71.554  1.00  0.00    -0.544 A  
HETATM   16  C   UNL     1     -12.535  11.670  70.981  1.00  0.00    -0.436 A  
BRANCH  14  17
HETATM   17  C   UNL     1     -11.784  13.270  69.184  1.00  0.00    -0.379 A  
HETATM   18  C   UNL     1     -11.769  13.419  67.788  1.00  0.00    -0.394 A  
HETATM   19  C   UNL     1     -11.773  14.690  67.231  1.00  0.00    -0.385 A  
HETATM   20  N   UNL     1     -11.776  15.826  67.955  1.00  0.00    -0.212 NA 
HETATM   21  C   UNL     1     -11.785  15.681  69.294  1.00  0.00    -0.375 A  
HETATM   22  C   UNL     1     -11.796  14.452  69.939  1.00  0.00    -0.382 A  
ENDBRANCH  14  17
ENDBRANCH   2   3
TORSDOF 2
ENDMDL
MODEL       38
REMARK 921   NORMALIZED FREE ENERGY PREDICTED BY IDOCK:   -5.82 KCAL/MOL
REMARK 922        TOTAL FREE ENERGY PREDICTED BY IDOCK:   -6.92 KCAL/MOL
REMARK 923 INTER-LIGAND FREE ENERGY PREDICTED BY IDOCK:   -6.51 KCAL/MOL
REMARK 924 INTRA-LIGAND FREE ENERGY PREDICTED BY IDOCK:   -0.42 KCAL/MOL
REMARK 927      BINDING AFFINITY PREDICTED BY RF-SCORE:    0.00 PKD
ROOT
HETATM    1  C   UNL     1     -10.993  12.373  63.501  1.00  0.00    -0.506 C  
HETATM    2  C   UNL     1     -10.330  13.360  64.455  1.00  0.00    -0.373 C  
ENDROOT
BRANCH   2   3
HETATM    3  N   UNL     1     -10.571  12.980  65.862  1.00  0.00    -0.271 NA 
HETATM    4  C   UNL     1     -10.627  11.639  66.226  1.00  0.00    -0.258 C  
HETATM    5  C   UNL     1     -10.698  11.152  67.472  1.00  0.00    -0.280 C  
HETATM    6  C   UNL     1     -10.697  12.135  68.571  1.00  0.00    -0.232 C  
HETATM    7  C   UNL     1     -10.757   9.690  67.681  1.00  0.00    -0.262 C  
HETATM    8  O   UNL     1     -10.720   8.878  66.768  1.00  0.00    -0.198 OA 
HETATM    9  O   UNL     1     -10.855   9.313  68.975  1.00  0.00    -0.200 OA 
HETATM   10  O   UNL     1     -10.798  11.754  69.736  1.00  0.00    -0.006 OA 
HETATM   11  C   UNL     1     -10.565  13.570  68.228  1.00  0.00    -0.259 A  
HETATM   12  C   UNL     1     -10.536  13.964  66.878  1.00  0.00    -0.280 A  
HETATM   13  C   UNL     1     -10.479  15.350  66.626  1.00  0.00    -0.293 A  
HETATM   14  C   UNL     1     -10.374  16.322  67.649  1.00  0.00    -0.284 A  
HETATM   15  C   UNL     1     -10.463  14.500  69.266  1.00  0.00    -0.185 A  
HETATM   16  C   UNL     1     -10.348  15.858  68.973  1.00  0.00    -0.231 A  
BRANCH  14  17
HETATM   17  C   UNL     1     -10.299  17.773  67.336  1.00  0.00    -0.370 A  
HETATM   18  C   UNL     1     -10.524  18.259  66.038  1.00  0.00    -0.380 A  
HETATM   19  C   UNL     1     -10.445  19.622  65.790  1.00  0.00    -0.444 A  
HETATM   20  N   UNL     1     -10.146  20.539  66.729  1.00  0.00    -0.343 NA 
HETATM   21  C   UNL     1      -9.926  20.072  67.973  1.00  0.00    -0.416 A  
HETATM   22  C   UNL     1      -9.996  18.729  68.318  1.00  0.00    -0.432 A  
ENDBRANCH  14  17
ENDBRANCH   2   3
TORSDOF 2
ENDMDL
MODEL       39
REMARK 921   NORMALIZED FREE ENERGY PREDICTED BY IDOCK:   -5.82 KCAL/MOL
REMARK 922        TOTAL FREE ENERGY PREDICTED BY IDOCK:   -6.92 KCAL/MOL
REMARK 923 INTER-LIGAND FREE ENERGY PREDICTED BY IDOCK:   -6.50 KCAL/MOL
REMARK 924 INTRA-LIGAND FREE ENERGY PREDICTED BY IDOCK:   -0.43 KCAL/MOL
REMARK 927      BINDING AFFINITY PREDICTED BY RF-SCORE:    0.00 PKD
ROOT
HETATM    1  C   UNL     1     -10.138  10.302  66.272  1.00  0.00    -0.300 C  
HETATM    2  C   UNL     1      -9.441  10.648  67.582  1.00  0.00    -0.153 C  
ENDROOT
BRANCH   2   3
HETATM    3  N   UNL     1     -10.193  11.679  68.326  1.00  0.00    -0.193 NA 
HETATM    4  C   UNL     1     -10.335  12.959  67.800  1.00  0.00    -0.222 C  
HETATM    5  C   UNL     1     -11.099  13.944  68.292  1.00  0.00    -0.280 C  
HETATM    6  C   UNL     1     -11.885  13.635  69.500  1.00  0.00    -0.337 C  
HETATM    7  C   UNL     1     -11.130  15.253  67.607  1.00  0.00    -0.323 C  
HETATM    8  O   UNL     1     -10.505  15.492  66.583  1.00  0.00    -0.287 OA 
HETATM    9  O   UNL     1     -11.911  16.180  68.205  1.00  0.00    -0.152 OA 
HETATM   10  O   UNL     1     -12.577  14.508  70.021  1.00  0.00    -0.318 OA 
HETATM   11  C   UNL     1     -11.817  12.262  70.049  1.00  0.00    -0.372 A  
HETATM   12  C   UNL     1     -10.947  11.320  69.468  1.00  0.00    -0.191 A  
HETATM   13  C   UNL     1     -10.884  10.054  70.084  1.00  0.00    -0.365 A  
HETATM   14  C   UNL     1     -11.694   9.683  71.183  1.00  0.00    -0.450 A  
HETATM   15  C   UNL     1     -12.634  11.932  71.134  1.00  0.00    -0.390 A  
HETATM   16  C   UNL     1     -12.584  10.650  71.678  1.00  0.00    -0.482 A  
BRANCH  14  17
HETATM   17  C   UNL     1     -11.606   8.330  71.791  1.00  0.00    -0.356 A  
HETATM   18  C   UNL     1     -12.341   7.246  71.284  1.00  0.00    -0.401 A  
HETATM   19  C   UNL     1     -12.227   5.998  71.881  1.00  0.00     0.033 A  
HETATM   20  N   UNL     1     -11.450   5.747  72.952  1.00  0.00    -0.252 NA 
HETATM   21  C   UNL     1     -10.749   6.789  73.439  1.00  0.00    -0.305 A  
HETATM   22  C   UNL     1     -10.788   8.067  72.901  1.00  0.00    -0.399 A  
ENDBRANCH  14  17
ENDBRANCH   2   3
TORSDOF 2
ENDMDL
MODEL       40
REMARK 921   NORMALIZED FREE ENERGY PREDICTED BY IDOCK:   -5.82 KCAL/MOL
REMARK 922        TOTAL FREE ENERGY PREDICTED BY IDOCK:   -6.92 KCAL/MOL
REMARK 923 INTER-LIGAND FREE ENERGY PREDICTED BY IDOCK:   -6.52 KCAL/MOL
REMARK 924 INTRA-LIGAND FREE ENERGY PREDICTED BY IDOCK:   -0.40 KCAL/MOL
REMARK 927      BINDING AFFINITY PREDICTED BY RF-SCORE:    0.00 PKD
ROOT
HETATM    1  C   UNL     1     -13.968  13.236  72.040  1.00  0.00    -0.353 C  
HETATM    2  C   UNL     1     -12.961  14.024  71.210  1.00  0.00    -0.347 C  
ENDROOT
BRANCH   2   3
HETATM    3  N   UNL     1     -12.068  13.117  70.460  1.00  0.00    -0.346 NA 
HETATM    4  C   UNL     1     -12.104  11.747  70.695  1.00  0.00    -0.311 C  
HETATM    5  C   UNL     1     -11.459  10.801  69.998  1.00  0.00    -0.412 C  
HETATM    6  C   UNL     1     -10.646  11.254  68.856  1.00  0.00    -0.207 C  
HETATM    7  C   UNL     1     -11.605   9.382  70.388  1.00  0.00    -0.192 C  
HETATM    8  O   UNL     1     -12.311   9.008  71.314  1.00  0.00    -0.306 OA 
HETATM    9  O   UNL     1     -10.889   8.518  69.635  1.00  0.00    -0.225 OA 
HETATM   10  O   UNL     1     -10.000  10.439  68.200  1.00  0.00    -0.145 OA 
HETATM   11  C   UNL     1     -10.640  12.699  68.529  1.00  0.00    -0.262 A  
HETATM   12  C   UNL     1     -11.327  13.604  69.358  1.00  0.00    -0.245 A  
HETATM   13  C   UNL     1     -11.221  14.971  69.026  1.00  0.00    -0.279 A  
HETATM   14  C   UNL     1     -10.535  15.441  67.882  1.00  0.00    -0.256 A  
HETATM   15  C   UNL     1      -9.952  13.125  67.389  1.00  0.00    -0.229 A  
HETATM   16  C   UNL     1      -9.921  14.480  67.063  1.00  0.00    -0.255 A  
BRANCH  14  17
HETATM   17  C   UNL     1     -10.464  16.890  67.561  1.00  0.00    -0.328 A  
HETATM   18  C   UNL     1     -10.211  17.852  68.552  1.00  0.00    -0.393 A  
HETATM   19  C   UNL     1     -10.151  19.195  68.208  1.00  0.00    -0.416 A  
HETATM   20  N   UNL     1     -10.337  19.658  66.957  1.00  0.00    -0.428 NA 
HETATM   21  C   UNL     1     -10.583  18.735  66.008  1.00  0.00    -0.386 A  
HETATM   22  C   UNL     1     -10.648  17.370  66.255  1.00  0.00    -0.194 A  
ENDBRANCH  14  17
ENDBRANCH   2   3
TORSDOF 2
ENDMDL
MODEL       41
REMARK 921   NORMALIZED FREE ENERGY PREDICTED BY IDOCK:   -5.82 KCAL/MOL
REMARK 922        TOTAL FREE ENERGY PREDICTED BY IDOCK:   -6.92 KCAL/MOL
REMARK 923 INTER-LIGAND FREE ENERGY PREDICTED BY IDOCK:   -6.50 KCAL/MOL
REMARK 924 INTRA-LIGAND FREE ENERGY PREDICTED BY IDOCK:   -0.41 KCAL/MOL
REMARK 927      BINDING AFFINITY PREDICTED BY RF-SCORE:    0.00 PKD
ROOT
HETATM    1  C   UNL     1     -12.320  12.364  64.274  1.00  0.00    -0.544 C  
HETATM    2  C   UNL     1     -12.388  13.202  65.545  1.00  0.00    -0.474 C  
ENDROOT
BRANCH   2   3
HETATM    3  N   UNL     1     -11.386  12.749  66.532  1.00  0.00    -0.305 NA 
HETATM    4  C   UNL     1     -11.136  11.392  66.703  1.00  0.00    -0.271 C  
HETATM    5  C   UNL     1     -10.167  10.847  67.452  1.00  0.00    -0.236 C  
HETATM    6  C   UNL     1      -9.263  11.779  68.150  1.00  0.00    -0.186 C  
HETATM    7  C   UNL     1     -10.044   9.376  67.527  1.00  0.00    -0.215 C  
HETATM    8  O   UNL     1     -10.773   8.608  66.916  1.00  0.00    -0.252 OA 
HETATM    9  O   UNL     1      -9.052   8.938  68.333  1.00  0.00    -0.137 OA 
HETATM   10  O   UNL     1      -8.378  11.342  68.884  1.00  0.00    -0.143 OA 
HETATM   11  C   UNL     1      -9.453  13.232  67.937  1.00  0.00    -0.214 A  
HETATM   12  C   UNL     1     -10.531  13.688  67.156  1.00  0.00    -0.264 A  
HETATM   13  C   UNL     1     -10.690  15.085  67.051  1.00  0.00    -0.304 A  
HETATM   14  C   UNL     1      -9.788  16.014  67.622  1.00  0.00    -0.235 A  
HETATM   15  C   UNL     1      -8.540  14.119  68.515  1.00  0.00    -0.163 A  
HETATM   16  C   UNL     1      -8.699  15.493  68.338  1.00  0.00    -0.174 A  
BRANCH  14  17
HETATM   17  C   UNL     1      -9.986  17.479  67.472  1.00  0.00    -0.315 A  
HETATM   18  C   UNL     1     -10.047  18.332  68.586  1.00  0.00    -0.407 A  
HETATM   19  C   UNL     1     -10.231  19.695  68.399  1.00  0.00    -0.441 A  
HETATM   20  N   UNL     1     -10.373  20.275  67.193  1.00  0.00    -0.355 NA 
HETATM   21  C   UNL     1     -10.320  19.455  66.125  1.00  0.00    -0.504 A  
HETATM   22  C   UNL     1     -10.125  18.083  66.213  1.00  0.00    -0.363 A  
ENDBRANCH  14  17
ENDBRANCH   2   3
TORSDOF 2
ENDMDL
MODEL       42
REMARK 921   NORMALIZED FREE ENERGY PREDICTED BY IDOCK:   -5.81 KCAL/MOL
REMARK 922        TOTAL FREE ENERGY PREDICTED BY IDOCK:   -6.91 KCAL/MOL
REMARK 923 INTER-LIGAND FREE ENERGY PREDICTED BY IDOCK:   -6.49 KCAL/MOL
REMARK 924 INTRA-LIGAND FREE ENERGY PREDICTED BY IDOCK:   -0.42 KCAL/MOL
REMARK 927      BINDING AFFINITY PREDICTED BY RF-SCORE:    0.00 PKD
ROOT
HETATM    1  C   UNL     1      -9.912   6.930  66.788  1.00  0.00    -0.248 C  
HETATM    2  C   UNL     1      -9.414   7.977  67.777  1.00  0.00    -0.145 C  
ENDROOT
BRANCH   2   3
HETATM    3  N   UNL     1     -10.230   7.974  69.008  1.00  0.00    -0.207 NA 
HETATM    4  C   UNL     1     -10.193   6.882  69.870  1.00  0.00    -0.199 C  
HETATM    5  C   UNL     1     -10.765   6.800  71.079  1.00  0.00    -0.265 C  
HETATM    6  C   UNL     1     -11.489   7.993  71.554  1.00  0.00    -0.264 C  
HETATM    7  C   UNL     1     -10.631   5.556  71.865  1.00  0.00    -0.234 C  
HETATM    8  O   UNL     1      -9.998   4.583  71.482  1.00  0.00    -0.180 OA 
HETATM    9  O   UNL     1     -11.271   5.575  73.055  1.00  0.00    -0.285 OA 
HETATM   10  O   UNL     1     -12.068   7.968  72.638  1.00  0.00    -0.328 OA 
HETATM   11  C   UNL     1     -11.491   9.201  70.697  1.00  0.00    -0.310 A  
HETATM   12  C   UNL     1     -10.886   9.155  69.426  1.00  0.00    -0.151 A  
HETATM   13  C   UNL     1     -10.984  10.319  68.637  1.00  0.00    -0.289 A  
HETATM   14  C   UNL     1     -11.583  11.518  69.093  1.00  0.00    -0.382 A  
HETATM   15  C   UNL     1     -12.090  10.367  71.181  1.00  0.00    -0.487 A  
HETATM   16  C   UNL     1     -12.114  11.515  70.392  1.00  0.00    -0.471 A  
BRANCH  14  17
HETATM   17  C   UNL     1     -11.649  12.728  68.232  1.00  0.00    -0.375 A  
HETATM   18  C   UNL     1     -11.838  12.634  66.844  1.00  0.00    -0.425 A  
HETATM   19  C   UNL     1     -11.895  13.790  66.078  1.00  0.00    -0.390 A  
HETATM   20  N   UNL     1     -11.765  15.032  66.583  1.00  0.00    -0.217 NA 
HETATM   21  C   UNL     1     -11.579  15.120  67.914  1.00  0.00    -0.311 A  
HETATM   22  C   UNL     1     -11.522  14.021  68.761  1.00  0.00    -0.327 A  
ENDBRANCH  14  17
ENDBRANCH   2   3
TORSDOF 2
ENDMDL
MODEL       43
REMARK 921   NORMALIZED FREE ENERGY PREDICTED BY IDOCK:   -5.76 KCAL/MOL
REMARK 922        TOTAL FREE ENERGY PREDICTED BY IDOCK:   -6.85 KCAL/MOL
REMARK 923 INTER-LIGAND FREE ENERGY PREDICTED BY IDOCK:   -6.42 KCAL/MOL
REMARK 924 INTRA-LIGAND FREE ENERGY PREDICTED BY IDOCK:   -0.42 KCAL/MOL
REMARK 927      BINDING AFFINITY PREDICTED BY RF-SCORE:    0.00 PKD
ROOT
HETATM    1  C   UNL     1      -7.059  15.104  67.439  1.00  0.00    -0.219 C  
HETATM    2  C   UNL     1      -8.047  14.019  67.853  1.00  0.00    -0.156 C  
ENDROOT
BRANCH   2   3
HETATM    3  N   UNL     1      -9.134  13.886  66.863  1.00  0.00    -0.248 NA 
HETATM    4  C   UNL     1      -9.680  15.018  66.265  1.00  0.00    -0.291 C  
HETATM    5  C   UNL     1     -10.564  15.041  65.258  1.00  0.00    -0.418 C  
HETATM    6  C   UNL     1     -10.987  13.738  64.715  1.00  0.00    -0.392 C  
HETATM    7  C   UNL     1     -11.047  16.339  64.743  1.00  0.00    -0.281 C  
HETATM    8  O   UNL     1     -10.664  17.418  65.173  1.00  0.00    -0.684 OA 
HETATM    9  O   UNL     1     -11.957  16.243  63.748  1.00  0.00    -0.973 OA 
HETATM   10  O   UNL     1     -11.825  13.690  63.816  1.00  0.00    -0.405 OA 
HETATM   11  C   UNL     1     -10.374  12.512  65.276  1.00  0.00    -0.310 A  
HETATM   12  C   UNL     1      -9.483  12.611  66.361  1.00  0.00    -0.231 A  
HETATM   13  C   UNL     1      -8.991  11.399  66.887  1.00  0.00    -0.171 A  
HETATM   14  C   UNL     1      -9.293  10.132  66.333  1.00  0.00    -0.209 A  
HETATM   15  C   UNL     1     -10.694  11.279  64.701  1.00  0.00    -0.371 A  
HETATM   16  C   UNL     1     -10.140  10.107  65.214  1.00  0.00    -0.344 A  
BRANCH  14  17
HETATM   17  C   UNL     1      -8.737   8.881  66.911  1.00  0.00    -0.128 A  
HETATM   18  C   UNL     1      -8.512   8.743  68.290  1.00  0.00    -0.130 A  
HETATM   19  C   UNL     1      -7.994   7.556  68.788  1.00  0.00    -0.126 A  
HETATM   20  N   UNL     1      -7.669   6.499  68.019  1.00  0.00    -0.103 NA 
HETATM   21  C   UNL     1      -7.881   6.634  66.696  1.00  0.00    -0.104 A  
HETATM   22  C   UNL     1      -8.407   7.777  66.110  1.00  0.00    -0.129 A  
ENDBRANCH  14  17
ENDBRANCH   2   3
TORSDOF 2
ENDMDL
MODEL       44
REMARK 921   NORMALIZED FREE ENERGY PREDICTED BY IDOCK:   -5.71 KCAL/MOL
REMARK 922        TOTAL FREE ENERGY PREDICTED BY IDOCK:   -6.80 KCAL/MOL
REMARK 923 INTER-LIGAND FREE ENERGY PREDICTED BY IDOCK:   -6.40 KCAL/MOL
REMARK 924 INTRA-LIGAND FREE ENERGY PREDICTED BY IDOCK:   -0.40 KCAL/MOL
REMARK 927      BINDING AFFINITY PREDICTED BY RF-SCORE:    0.00 PKD
ROOT
HETATM    1  C   UNL     1      -9.311   7.427  67.595  1.00  0.00    -0.145 C  
HETATM    2  C   UNL     1      -9.953   8.728  68.064  1.00  0.00    -0.182 C  
ENDROOT
BRANCH   2   3
HETATM    3  N   UNL     1      -9.865   9.769  67.019  1.00  0.00    -0.182 NA 
HETATM    4  C   UNL     1      -9.370   9.455  65.758  1.00  0.00    -0.239 C  
HETATM    5  C   UNL     1      -9.362  10.253  64.682  1.00  0.00    -0.320 C  
HETATM    6  C   UNL     1      -9.956  11.592  64.843  1.00  0.00    -0.259 C  
HETATM    7  C   UNL     1      -8.789   9.759  63.412  1.00  0.00    -0.241 C  
HETATM    8  O   UNL     1      -8.331   8.634  63.273  1.00  0.00    -0.182 OA 
HETATM    9  O   UNL     1      -8.808  10.658  62.402  1.00  0.00    -0.223 OA 
HETATM   10  O   UNL     1      -9.946  12.386  63.904  1.00  0.00    -0.337 OA 
HETATM   11  C   UNL     1     -10.559  11.939  66.151  1.00  0.00    -0.295 A  
HETATM   12  C   UNL     1     -10.473  11.029  67.222  1.00  0.00    -0.231 A  
HETATM   13  C   UNL     1     -11.008  11.453  68.455  1.00  0.00    -0.267 A  
HETATM   14  C   UNL     1     -11.676  12.689  68.629  1.00  0.00    -0.364 A  
HETATM   15  C   UNL     1     -11.212  13.167  66.284  1.00  0.00    -0.328 A  
HETATM   16  C   UNL     1     -11.781  13.524  67.505  1.00  0.00    -0.403 A  
BRANCH  14  17
HETATM   17  C   UNL     1     -12.241  13.087  69.945  1.00  0.00    -0.271 A  
HETATM   18  C   UNL     1     -12.682  12.133  70.875  1.00  0.00    -0.280 A  
HETATM   19  C   UNL     1     -13.201  12.550  72.093  1.00  0.00    -0.403 A  
HETATM   20  N   UNL     1     -13.328  13.841  72.453  1.00  0.00    -0.501 NA 
HETATM   21  C   UNL     1     -12.908  14.755  71.557  1.00  0.00    -0.331 A  
HETATM   22  C   UNL     1     -12.363  14.433  70.322  1.00  0.00    -0.410 A  
ENDBRANCH  14  17
ENDBRANCH   2   3
TORSDOF 2
ENDMDL
MODEL       45
REMARK 921   NORMALIZED FREE ENERGY PREDICTED BY IDOCK:   -5.71 KCAL/MOL
REMARK 922        TOTAL FREE ENERGY PREDICTED BY IDOCK:   -6.80 KCAL/MOL
REMARK 923 INTER-LIGAND FREE ENERGY PREDICTED BY IDOCK:   -6.38 KCAL/MOL
REMARK 924 INTRA-LIGAND FREE ENERGY PREDICTED BY IDOCK:   -0.42 KCAL/MOL
REMARK 927      BINDING AFFINITY PREDICTED BY RF-SCORE:    0.00 PKD
ROOT
HETATM    1  C   UNL     1     -13.037  15.544  70.913  1.00  0.00    -0.508 C  
HETATM    2  C   UNL     1     -11.527  15.642  70.725  1.00  0.00    -0.379 C  
ENDROOT
BRANCH   2   3
HETATM    3  N   UNL     1     -11.068  14.743  69.647  1.00  0.00    -0.268 NA 
HETATM    4  C   UNL     1     -11.489  13.418  69.613  1.00  0.00    -0.207 C  
HETATM    5  C   UNL     1     -11.268  12.535  68.629  1.00  0.00    -0.319 C  
HETATM    6  C   UNL     1     -10.522  13.021  67.455  1.00  0.00    -0.227 C  
HETATM    7  C   UNL     1     -11.785  11.156  68.758  1.00  0.00    -0.326 C  
HETATM    8  O   UNL     1     -12.436  10.769  69.717  1.00  0.00    -0.309 OA 
HETATM    9  O   UNL     1     -11.479  10.345  67.721  1.00  0.00    -0.406 OA 
HETATM   10  O   UNL     1     -10.254  12.250  66.535  1.00  0.00    -0.211 OA 
HETATM   11  C   UNL     1     -10.118  14.446  67.421  1.00  0.00    -0.243 A  
HETATM   12  C   UNL     1     -10.373  15.270  68.533  1.00  0.00    -0.231 A  
HETATM   13  C   UNL     1      -9.902  16.596  68.458  1.00  0.00    -0.252 A  
HETATM   14  C   UNL     1      -9.269  17.132  67.311  1.00  0.00    -0.232 A  
HETATM   15  C   UNL     1      -9.498  14.940  66.269  1.00  0.00    -0.339 A  
HETATM   16  C   UNL     1      -9.099  16.274  66.213  1.00  0.00    -0.366 A  
BRANCH  14  17
HETATM   17  C   UNL     1      -8.803  18.543  67.270  1.00  0.00    -0.276 A  
HETATM   18  C   UNL     1      -7.441  18.865  67.155  1.00  0.00    -0.238 A  
HETATM   19  C   UNL     1      -7.050  20.196  67.118  1.00  0.00    -0.254 A  
HETATM   20  N   UNL     1      -7.906  21.232  67.202  1.00  0.00    -0.180 NA 
HETATM   21  C   UNL     1      -9.211  20.922  67.317  1.00  0.00    -0.140 A  
HETATM   22  C   UNL     1      -9.697  19.622  67.348  1.00  0.00    -0.471 A  
ENDBRANCH  14  17
ENDBRANCH   2   3
TORSDOF 2
ENDMDL
MODEL       46
REMARK 921   NORMALIZED FREE ENERGY PREDICTED BY IDOCK:   -5.69 KCAL/MOL
REMARK 922        TOTAL FREE ENERGY PREDICTED BY IDOCK:   -6.77 KCAL/MOL
REMARK 923 INTER-LIGAND FREE ENERGY PREDICTED BY IDOCK:   -6.37 KCAL/MOL
REMARK 924 INTRA-LIGAND FREE ENERGY PREDICTED BY IDOCK:   -0.40 KCAL/MOL
REMARK 927      BINDING AFFINITY PREDICTED BY RF-SCORE:    0.00 PKD
ROOT
HETATM    1  C   UNL     1      -6.320   9.523  70.568  1.00  0.00    -0.080 C  
HETATM    2  C   UNL     1      -7.564   9.526  69.688  1.00  0.00    -0.103 C  
ENDROOT
BRANCH   2   3
HETATM    3  N   UNL     1      -8.757   9.114  70.454  1.00  0.00    -0.194 NA 
HETATM    4  C   UNL     1      -8.630   8.249  71.536  1.00  0.00    -0.155 C  
HETATM    5  C   UNL     1      -9.595   7.904  72.399  1.00  0.00    -0.270 C  
HETATM    6  C   UNL     1     -10.919   8.517  72.196  1.00  0.00    -0.357 C  
HETATM    7  C   UNL     1      -9.288   6.962  73.497  1.00  0.00    -0.169 C  
HETATM    8  O   UNL     1      -8.178   6.485  73.683  1.00  0.00    -0.113 OA 
HETATM    9  O   UNL     1     -10.341   6.663  74.288  1.00  0.00    -0.361 OA 
HETATM   10  O   UNL     1     -11.857   8.211  72.931  1.00  0.00    -0.352 OA 
HETATM   11  C   UNL     1     -11.077   9.498  71.098  1.00  0.00    -0.450 A  
HETATM   12  C   UNL     1      -9.999   9.753  70.230  1.00  0.00    -0.253 A  
HETATM   13  C   UNL     1     -10.241  10.647  69.167  1.00  0.00    -0.238 A  
HETATM   14  C   UNL     1     -11.466  11.334  68.994  1.00  0.00    -0.369 A  
HETATM   15  C   UNL     1     -12.302  10.158  70.959  1.00  0.00    -0.474 A  
HETATM   16  C   UNL     1     -12.481  11.080  69.930  1.00  0.00    -0.286 A  
BRANCH  14  17
HETATM   17  C   UNL     1     -11.671  12.282  67.868  1.00  0.00    -0.410 A  
HETATM   18  C   UNL     1     -11.768  11.837  66.539  1.00  0.00    -0.149 A  
HETATM   19  C   UNL     1     -11.961  12.757  65.518  1.00  0.00    -0.449 A  
HETATM   20  N   UNL     1     -12.052  14.086  65.713  1.00  0.00    -0.404 NA 
HETATM   21  C   UNL     1     -11.954  14.512  66.987  1.00  0.00    -0.345 A  
HETATM   22  C   UNL     1     -11.774  13.666  68.073  1.00  0.00    -0.387 A  
ENDBRANCH  14  17
ENDBRANCH   2   3
TORSDOF 2
ENDMDL
MODEL       47
REMARK 921   NORMALIZED FREE ENERGY PREDICTED BY IDOCK:   -5.61 KCAL/MOL
REMARK 922        TOTAL FREE ENERGY PREDICTED BY IDOCK:   -6.68 KCAL/MOL
REMARK 923 INTER-LIGAND FREE ENERGY PREDICTED BY IDOCK:   -6.25 KCAL/MOL
REMARK 924 INTRA-LIGAND FREE ENERGY PREDICTED BY IDOCK:   -0.43 KCAL/MOL
REMARK 927      BINDING AFFINITY PREDICTED BY RF-SCORE:    0.00 PKD
ROOT
HETATM    1  C   UNL     1     -10.163  10.760  66.095  1.00  0.00    -0.308 C  
HETATM    2  C   UNL     1      -9.471  11.048  67.421  1.00  0.00    -0.160 C  
ENDROOT
BRANCH   2   3
HETATM    3  N   UNL     1     -10.256  12.000  68.233  1.00  0.00    -0.202 NA 
HETATM    4  C   UNL     1     -10.457  13.302  67.787  1.00  0.00    -0.239 C  
HETATM    5  C   UNL     1     -11.255  14.222  68.345  1.00  0.00    -0.291 C  
HETATM    6  C   UNL     1     -12.014  13.809  69.538  1.00  0.00    -0.345 C  
HETATM    7  C   UNL     1     -11.348  15.568  67.741  1.00  0.00    -0.286 C  
HETATM    8  O   UNL     1     -10.745  15.894  66.728  1.00  0.00    -0.321 OA 
HETATM    9  O   UNL     1     -12.160  16.423  68.401  1.00  0.00     0.145 OA 
HETATM   10  O   UNL     1     -12.735  14.619  70.119  1.00  0.00    -0.314 OA 
HETATM   11  C   UNL     1     -11.883  12.409  70.003  1.00  0.00    -0.363 A  
HETATM   12  C   UNL     1     -10.982  11.541  69.358  1.00  0.00    -0.176 A  
HETATM   13  C   UNL     1     -10.859  10.244  69.895  1.00  0.00    -0.355 A  
HETATM   14  C   UNL     1     -11.640   9.774  70.977  1.00  0.00    -0.455 A  
HETATM   15  C   UNL     1     -12.673  11.980  71.074  1.00  0.00    -0.337 A  
HETATM   16  C   UNL     1     -12.564  10.671  71.537  1.00  0.00    -0.517 A  
BRANCH  14  17
HETATM   17  C   UNL     1     -11.489   8.391  71.501  1.00  0.00    -0.335 A  
HETATM   18  C   UNL     1     -11.000   8.143  72.793  1.00  0.00    -0.401 A  
HETATM   19  C   UNL     1     -10.877   6.835  73.242  1.00  0.00    -0.272 A  
HETATM   20  N   UNL     1     -11.188   5.755  72.501  1.00  0.00    -0.283 NA 
HETATM   21  C   UNL     1     -11.653   5.995  71.260  1.00  0.00    -0.116 A  
HETATM   22  C   UNL     1     -11.823   7.267  70.731  1.00  0.00    -0.324 A  
ENDBRANCH  14  17
ENDBRANCH   2   3
TORSDOF 2
ENDMDL
MODEL       48
REMARK 921   NORMALIZED FREE ENERGY PREDICTED BY IDOCK:   -5.58 KCAL/MOL
REMARK 922        TOTAL FREE ENERGY PREDICTED BY IDOCK:   -6.65 KCAL/MOL
REMARK 923 INTER-LIGAND FREE ENERGY PREDICTED BY IDOCK:   -6.23 KCAL/MOL
REMARK 924 INTRA-LIGAND FREE ENERGY PREDICTED BY IDOCK:   -0.42 KCAL/MOL
REMARK 927      BINDING AFFINITY PREDICTED BY RF-SCORE:    0.00 PKD
ROOT
HETATM    1  C   UNL     1     -14.301   8.155  71.823  1.00  0.00    -0.582 C  
HETATM    2  C   UNL     1     -12.923   8.704  72.172  1.00  0.00    -0.387 C  
ENDROOT
BRANCH   2   3
HETATM    3  N   UNL     1     -12.622   9.919  71.388  1.00  0.00    -0.366 NA 
HETATM    4  C   UNL     1     -13.152  11.148  71.769  1.00  0.00    -0.431 C  
HETATM    5  C   UNL     1     -12.855  12.343  71.241  1.00  0.00    -0.337 C  
HETATM    6  C   UNL     1     -11.852  12.363  70.162  1.00  0.00    -0.262 C  
HETATM    7  C   UNL     1     -13.518  13.556  71.766  1.00  0.00    -0.380 C  
HETATM    8  O   UNL     1     -14.321  13.538  72.687  1.00  0.00    -0.716 OA 
HETATM    9  O   UNL     1     -13.165  14.701  71.141  1.00  0.00    -0.346 OA 
HETATM   10  O   UNL     1     -11.565  13.424  69.610  1.00  0.00    -0.285 OA 
HETATM   11  C   UNL     1     -11.212  11.084  69.775  1.00  0.00    -0.339 A  
HETATM   12  C   UNL     1     -11.634   9.884  70.376  1.00  0.00    -0.282 A  
HETATM   13  C   UNL     1     -11.029   8.698  69.912  1.00  0.00    -0.169 A  
HETATM   14  C   UNL     1      -9.992   8.681  68.949  1.00  0.00    -0.197 A  
HETATM   15  C   UNL     1     -10.190  11.107  68.822  1.00  0.00    -0.219 A  
HETATM   16  C   UNL     1      -9.576   9.918  68.433  1.00  0.00    -0.157 A  
BRANCH  14  17
HETATM   17  C   UNL     1      -9.371   7.407  68.501  1.00  0.00    -0.141 A  
HETATM   18  C   UNL     1     -10.104   6.210  68.446  1.00  0.00    -0.186 A  
HETATM   19  C   UNL     1      -9.484   5.044  68.019  1.00  0.00    -0.131 A  
HETATM   20  N   UNL     1      -8.189   4.971  67.656  1.00  0.00    -0.105 NA 
HETATM   21  C   UNL     1      -7.487   6.119  67.714  1.00  0.00    -0.089 A  
HETATM   22  C   UNL     1      -8.024   7.335  68.114  1.00  0.00    -0.123 A  
ENDBRANCH  14  17
ENDBRANCH   2   3
TORSDOF 2
ENDMDL
MODEL       49
REMARK 921   NORMALIZED FREE ENERGY PREDICTED BY IDOCK:   -5.58 KCAL/MOL
REMARK 922        TOTAL FREE ENERGY PREDICTED BY IDOCK:   -6.65 KCAL/MOL
REMARK 923 INTER-LIGAND FREE ENERGY PREDICTED BY IDOCK:   -6.25 KCAL/MOL
REMARK 924 INTRA-LIGAND FREE ENERGY PREDICTED BY IDOCK:   -0.40 KCAL/MOL
REMARK 927      BINDING AFFINITY PREDICTED BY RF-SCORE:    0.00 PKD
ROOT
HETATM    1  C   UNL     1      -9.072   5.642  67.787  1.00  0.00    -0.106 C  
HETATM    2  C   UNL     1      -9.504   7.087  67.569  1.00  0.00    -0.126 C  
ENDROOT
BRANCH   2   3
HETATM    3  N   UNL     1     -10.143   7.638  68.782  1.00  0.00    -0.189 NA 
HETATM    4  C   UNL     1     -10.101   6.930  69.979  1.00  0.00    -0.182 C  
HETATM    5  C   UNL     1     -10.511   7.365  71.178  1.00  0.00    -0.220 C  
HETATM    6  C   UNL     1     -11.041   8.738  71.242  1.00  0.00    -0.278 C  
HETATM    7  C   UNL     1     -10.398   6.475  72.353  1.00  0.00    -0.188 C  
HETATM    8  O   UNL     1      -9.922   5.350  72.302  1.00  0.00    -0.169 OA 
HETATM    9  O   UNL     1     -10.867   7.006  73.504  1.00  0.00    -0.341 OA 
HETATM   10  O   UNL     1     -11.468   9.183  72.306  1.00  0.00    -0.281 OA 
HETATM   11  C   UNL     1     -11.036   9.550  70.003  1.00  0.00    -0.268 A  
HETATM   12  C   UNL     1     -10.615   8.971  68.791  1.00  0.00    -0.169 A  
HETATM   13  C   UNL     1     -10.701   9.781  67.640  1.00  0.00    -0.334 A  
HETATM   14  C   UNL     1     -11.110  11.135  67.673  1.00  0.00    -0.348 A  
HETATM   15  C   UNL     1     -11.444  10.885  70.074  1.00  0.00    -0.411 A  
HETATM   16  C   UNL     1     -11.459  11.670  68.923  1.00  0.00    -0.349 A  
BRANCH  14  17
HETATM   17  C   UNL     1     -11.169  11.957  66.436  1.00  0.00    -0.387 A  
HETATM   18  C   UNL     1     -10.359  11.675  65.325  1.00  0.00    -0.316 A  
HETATM   19  C   UNL     1     -10.448  12.467  64.189  1.00  0.00    -0.403 A  
HETATM   20  N   UNL     1     -11.270  13.528  64.076  1.00  0.00    -0.306 NA 
HETATM   21  C   UNL     1     -12.043  13.800  65.145  1.00  0.00    -0.399 A  
HETATM   22  C   UNL     1     -12.033  13.057  66.317  1.00  0.00    -0.477 A  
ENDBRANCH  14  17
ENDBRANCH   2   3
TORSDOF 2
ENDMDL
MODEL       50
REMARK 921   NORMALIZED FREE ENERGY PREDICTED BY IDOCK:   -5.56 KCAL/MOL
REMARK 922        TOTAL FREE ENERGY PREDICTED BY IDOCK:   -6.63 KCAL/MOL
REMARK 923 INTER-LIGAND FREE ENERGY PREDICTED BY IDOCK:   -6.22 KCAL/MOL
REMARK 924 INTRA-LIGAND FREE ENERGY PREDICTED BY IDOCK:   -0.41 KCAL/MOL
REMARK 927      BINDING AFFINITY PREDICTED BY RF-SCORE:    0.00 PKD
ROOT
HETATM    1  C   UNL     1     -12.877  15.066  71.939  1.00  0.00    -0.414 C  
HETATM    2  C   UNL     1     -12.756  13.611  71.500  1.00  0.00    -0.332 C  
ENDROOT
BRANCH   2   3
HETATM    3  N   UNL     1     -12.066  13.506  70.198  1.00  0.00    -0.349 NA 
HETATM    4  C   UNL     1     -11.809  14.648  69.447  1.00  0.00    -0.329 C  
HETATM    5  C   UNL     1     -11.077  14.719  68.327  1.00  0.00    -0.284 C  
HETATM    6  C   UNL     1     -10.466  13.465  67.853  1.00  0.00    -0.240 C  
HETATM    7  C   UNL     1     -10.909  16.021  67.649  1.00  0.00    -0.311 C  
HETATM    8  O   UNL     1     -11.387  17.065  68.068  1.00  0.00    -0.147 OA 
HETATM    9  O   UNL     1     -10.176  15.970  66.514  1.00  0.00    -0.273 OA 
HETATM   10  O   UNL     1      -9.814  13.456  66.810  1.00  0.00    -0.250 OA 
HETATM   11  C   UNL     1     -10.656  12.240  68.663  1.00  0.00    -0.249 A  
HETATM   12  C   UNL     1     -11.480  12.280  69.804  1.00  0.00    -0.166 A  
HETATM   13  C   UNL     1     -11.670  11.063  70.489  1.00  0.00    -0.416 A  
HETATM   14  C   UNL     1     -11.023   9.858  70.126  1.00  0.00    -0.356 A  
HETATM   15  C   UNL     1      -9.999  11.070  68.275  1.00  0.00    -0.190 A  
HETATM   16  C   UNL     1     -10.167   9.900  69.014  1.00  0.00    -0.213 A  
BRANCH  14  17
HETATM   17  C   UNL     1     -11.240   8.601  70.888  1.00  0.00    -0.311 A  
HETATM   18  C   UNL     1     -11.428   8.606  72.279  1.00  0.00    -0.423 A  
HETATM   19  C   UNL     1     -11.630   7.408  72.951  1.00  0.00    -0.152 A  
HETATM   20  N   UNL     1     -11.646   6.204  72.349  1.00  0.00    -0.303 NA 
HETATM   21  C   UNL     1     -11.462   6.200  71.015  1.00  0.00    -0.248 A  
HETATM   22  C   UNL     1     -11.267   7.347  70.258  1.00  0.00    -0.268 A  
ENDBRANCH  14  17
ENDBRANCH   2   3
TORSDOF 2
ENDMDL
MODEL       51
REMARK 921   NORMALIZED FREE ENERGY PREDICTED BY IDOCK:   -5.53 KCAL/MOL
REMARK 922        TOTAL FREE ENERGY PREDICTED BY IDOCK:   -6.59 KCAL/MOL
REMARK 923 INTER-LIGAND FREE ENERGY PREDICTED BY IDOCK:   -6.19 KCAL/MOL
REMARK 924 INTRA-LIGAND FREE ENERGY PREDICTED BY IDOCK:   -0.41 KCAL/MOL
REMARK 927      BINDING AFFINITY PREDICTED BY RF-SCORE:    0.00 PKD
ROOT
HETATM    1  C   UNL     1      -7.967   7.641  67.647  1.00  0.00    -0.121 C  
HETATM    2  C   UNL     1      -9.165   8.507  67.274  1.00  0.00    -0.141 C  
ENDROOT
BRANCH   2   3
HETATM    3  N   UNL     1     -10.012   8.777  68.453  1.00  0.00    -0.173 NA 
HETATM    4  C   UNL     1     -10.040   7.879  69.515  1.00  0.00    -0.195 C  
HETATM    5  C   UNL     1     -10.646   8.058  70.696  1.00  0.00    -0.227 C  
HETATM    6  C   UNL     1     -11.337   9.344  70.900  1.00  0.00    -0.319 C  
HETATM    7  C   UNL     1     -10.581   6.993  71.719  1.00  0.00    -0.210 C  
HETATM    8  O   UNL     1      -9.975   5.943  71.558  1.00  0.00    -0.175 OA 
HETATM    9  O   UNL     1     -11.251   7.269  72.859  1.00  0.00    -0.310 OA 
HETATM   10  O   UNL     1     -11.945   9.555  71.948  1.00  0.00    -0.370 OA 
HETATM   11  C   UNL     1     -11.269  10.356  69.821  1.00  0.00    -0.353 A  
HETATM   12  C   UNL     1     -10.634  10.038  68.606  1.00  0.00    -0.212 A  
HETATM   13  C   UNL     1     -10.667  11.024  67.599  1.00  0.00    -0.281 A  
HETATM   14  C   UNL     1     -11.231  12.308  67.787  1.00  0.00    -0.331 A  
HETATM   15  C   UNL     1     -11.836  11.614  70.044  1.00  0.00    -0.435 A  
HETATM   16  C   UNL     1     -11.795  12.582  69.042  1.00  0.00    -0.344 A  
BRANCH  14  17
HETATM   17  C   UNL     1     -11.228  13.323  66.701  1.00  0.00    -0.332 A  
HETATM   18  C   UNL     1     -12.421  13.854  66.186  1.00  0.00    -0.478 A  
HETATM   19  C   UNL     1     -12.372  14.801  65.173  1.00  0.00    -0.158 A  
HETATM   20  N   UNL     1     -11.229  15.252  64.622  1.00  0.00    -0.384 NA 
HETATM   21  C   UNL     1     -10.085  14.738  65.114  1.00  0.00    -0.323 A  
HETATM   22  C   UNL     1     -10.035  13.798  66.134  1.00  0.00    -0.318 A  
ENDBRANCH  14  17
ENDBRANCH   2   3
TORSDOF 2
ENDMDL
MODEL       52
REMARK 921   NORMALIZED FREE ENERGY PREDICTED BY IDOCK:   -5.49 KCAL/MOL
REMARK 922        TOTAL FREE ENERGY PREDICTED BY IDOCK:   -6.55 KCAL/MOL
REMARK 923 INTER-LIGAND FREE ENERGY PREDICTED BY IDOCK:   -6.12 KCAL/MOL
REMARK 924 INTRA-LIGAND FREE ENERGY PREDICTED BY IDOCK:   -0.43 KCAL/MOL
REMARK 927      BINDING AFFINITY PREDICTED BY RF-SCORE:    0.00 PKD
ROOT
HETATM    1  C   UNL     1     -10.748   8.812  71.731  1.00  0.00    -0.413 C  
HETATM    2  C   UNL     1     -11.091   8.819  70.247  1.00  0.00    -0.222 C  
ENDROOT
BRANCH   2   3
HETATM    3  N   UNL     1     -11.485  10.170  69.800  1.00  0.00    -0.246 NA 
HETATM    4  C   UNL     1     -12.098  11.050  70.687  1.00  0.00    -0.373 C  
HETATM    5  C   UNL     1     -12.380  12.341  70.464  1.00  0.00    -0.349 C  
HETATM    6  C   UNL     1     -11.984  12.891  69.155  1.00  0.00    -0.259 C  
HETATM    7  C   UNL     1     -13.041  13.135  71.520  1.00  0.00    -0.315 C  
HETATM    8  O   UNL     1     -13.334  12.683  72.618  1.00  0.00    -0.386 OA 
HETATM    9  O   UNL     1     -13.304  14.415  71.176  1.00  0.00    -0.355 OA 
HETATM   10  O   UNL     1     -12.249  14.058  68.874  1.00  0.00    -0.345 OA 
HETATM   11  C   UNL     1     -11.265  12.006  68.210  1.00  0.00    -0.315 A  
HETATM   12  C   UNL     1     -11.058  10.653  68.541  1.00  0.00    -0.263 A  
HETATM   13  C   UNL     1     -10.428   9.853  67.566  1.00  0.00    -0.310 A  
HETATM   14  C   UNL     1      -9.943  10.363  66.339  1.00  0.00    -0.277 A  
HETATM   15  C   UNL     1     -10.799  12.545  67.008  1.00  0.00    -0.287 A  
HETATM   16  C   UNL     1     -10.127  11.733  66.096  1.00  0.00    -0.255 A  
BRANCH  14  17
HETATM   17  C   UNL     1      -9.268   9.485  65.347  1.00  0.00    -0.306 A  
HETATM   18  C   UNL     1      -9.045   9.903  64.025  1.00  0.00    -0.300 A  
HETATM   19  C   UNL     1      -8.409   9.051  63.133  1.00  0.00    -0.195 A  
HETATM   20  N   UNL     1      -7.991   7.811  63.447  1.00  0.00    -0.132 NA 
HETATM   21  C   UNL     1      -8.209   7.410  64.714  1.00  0.00    -0.057 A  
HETATM   22  C   UNL     1      -8.824   8.196  65.679  1.00  0.00    -0.160 A  
ENDBRANCH  14  17
ENDBRANCH   2   3
TORSDOF 2
ENDMDL
MODEL       53
REMARK 921   NORMALIZED FREE ENERGY PREDICTED BY IDOCK:   -5.47 KCAL/MOL
REMARK 922        TOTAL FREE ENERGY PREDICTED BY IDOCK:   -6.53 KCAL/MOL
REMARK 923 INTER-LIGAND FREE ENERGY PREDICTED BY IDOCK:   -6.10 KCAL/MOL
REMARK 924 INTRA-LIGAND FREE ENERGY PREDICTED BY IDOCK:   -0.43 KCAL/MOL
REMARK 927      BINDING AFFINITY PREDICTED BY RF-SCORE:    0.00 PKD
ROOT
HETATM    1  C   UNL     1     -11.854  15.180  71.184  1.00  0.00    -0.393 C  
HETATM    2  C   UNL     1     -12.410  14.441  69.972  1.00  0.00    -0.336 C  
ENDROOT
BRANCH   2   3
HETATM    3  N   UNL     1     -11.602  14.716  68.767  1.00  0.00    -0.300 NA 
HETATM    4  C   UNL     1     -11.416  16.024  68.332  1.00  0.00    -0.331 C  
HETATM    5  C   UNL     1     -10.601  16.430  67.349  1.00  0.00    -0.306 C  
HETATM    6  C   UNL     1      -9.807  15.390  66.671  1.00  0.00    -0.255 C  
HETATM    7  C   UNL     1     -10.527  17.867  67.010  1.00  0.00    -0.340 C  
HETATM    8  O   UNL     1     -11.160  18.730  67.600  1.00  0.00    -0.300 OA 
HETATM    9  O   UNL     1      -9.697  18.158  65.984  1.00  0.00    -0.497 OA 
HETATM   10  O   UNL     1      -9.069  15.692  65.735  1.00  0.00    -0.303 OA 
HETATM   11  C   UNL     1      -9.923  13.994  67.153  1.00  0.00    -0.252 A  
HETATM   12  C   UNL     1     -10.843  13.682  68.172  1.00  0.00    -0.246 A  
HETATM   13  C   UNL     1     -10.949  12.323  68.533  1.00  0.00    -0.275 A  
HETATM   14  C   UNL     1     -10.135  11.307  67.979  1.00  0.00    -0.192 A  
HETATM   15  C   UNL     1      -9.101  13.017  66.583  1.00  0.00    -0.181 A  
HETATM   16  C   UNL     1      -9.195  11.694  67.011  1.00  0.00    -0.185 A  
BRANCH  14  17
HETATM   17  C   UNL     1     -10.270   9.889  68.403  1.00  0.00    -0.203 A  
HETATM   18  C   UNL     1     -10.269   9.522  69.758  1.00  0.00    -0.249 A  
HETATM   19  C   UNL     1     -10.399   8.185  70.109  1.00  0.00    -0.215 A  
HETATM   20  N   UNL     1     -10.516   7.183  69.218  1.00  0.00    -0.207 NA 
HETATM   21  C   UNL     1     -10.512   7.536  67.918  1.00  0.00    -0.204 A  
HETATM   22  C   UNL     1     -10.401   8.846  67.473  1.00  0.00    -0.328 A  
ENDBRANCH  14  17
ENDBRANCH   2   3
TORSDOF 2
ENDMDL
MODEL       54
REMARK 921   NORMALIZED FREE ENERGY PREDICTED BY IDOCK:   -5.44 KCAL/MOL
REMARK 922        TOTAL FREE ENERGY PREDICTED BY IDOCK:   -6.50 KCAL/MOL
REMARK 923 INTER-LIGAND FREE ENERGY PREDICTED BY IDOCK:   -6.08 KCAL/MOL
REMARK 924 INTRA-LIGAND FREE ENERGY PREDICTED BY IDOCK:   -0.41 KCAL/MOL
REMARK 927      BINDING AFFINITY PREDICTED BY RF-SCORE:    0.00 PKD
ROOT
HETATM    1  C   UNL     1     -10.848   7.657  73.191  1.00  0.00    -0.440 C  
HETATM    2  C   UNL     1     -11.378   8.302  71.916  1.00  0.00    -0.308 C  
ENDROOT
BRANCH   2   3
HETATM    3  N   UNL     1     -10.781   7.676  70.718  1.00  0.00    -0.222 NA 
HETATM    4  C   UNL     1     -10.457   6.323  70.723  1.00  0.00    -0.222 C  
HETATM    5  C   UNL     1     -10.045   5.598  69.674  1.00  0.00    -0.289 C  
HETATM    6  C   UNL     1      -9.942   6.297  68.381  1.00  0.00    -0.140 C  
HETATM    7  C   UNL     1      -9.737   4.163  69.857  1.00  0.00    -0.210 C  
HETATM    8  O   UNL     1      -9.860   3.579  70.923  1.00  0.00    -0.171 OA 
HETATM    9  O   UNL     1      -9.302   3.538  68.740  1.00  0.00    -0.152 OA 
HETATM   10  O   UNL     1      -9.533   5.696  67.389  1.00  0.00    -0.112 OA 
HETATM   11  C   UNL     1     -10.346   7.721  68.319  1.00  0.00    -0.239 A  
HETATM   12  C   UNL     1     -10.728   8.389  69.498  1.00  0.00    -0.175 A  
HETATM   13  C   UNL     1     -11.034   9.760  69.376  1.00  0.00    -0.241 A  
HETATM   14  C   UNL     1     -11.046  10.446  68.138  1.00  0.00    -0.344 A  
HETATM   15  C   UNL     1     -10.346   8.364  67.079  1.00  0.00    -0.385 A  
HETATM   16  C   UNL     1     -10.713   9.706  66.992  1.00  0.00    -0.225 A  
BRANCH  14  17
HETATM   17  C   UNL     1     -11.392  11.889  68.055  1.00  0.00    -0.352 A  
HETATM   18  C   UNL     1     -11.605  12.524  66.821  1.00  0.00    -0.446 A  
HETATM   19  C   UNL     1     -11.929  13.874  66.790  1.00  0.00    -0.438 A  
HETATM   20  N   UNL     1     -12.043  14.644  67.888  1.00  0.00    -0.258 NA 
HETATM   21  C   UNL     1     -11.834  14.034  69.070  1.00  0.00    -0.354 A  
HETATM   22  C   UNL     1     -11.520  12.688  69.201  1.00  0.00    -0.359 A  
ENDBRANCH  14  17
ENDBRANCH   2   3
TORSDOF 2
ENDMDL
MODEL       55
REMARK 921   NORMALIZED FREE ENERGY PREDICTED BY IDOCK:   -5.37 KCAL/MOL
REMARK 922        TOTAL FREE ENERGY PREDICTED BY IDOCK:   -6.41 KCAL/MOL
REMARK 923 INTER-LIGAND FREE ENERGY PREDICTED BY IDOCK:   -6.00 KCAL/MOL
REMARK 924 INTRA-LIGAND FREE ENERGY PREDICTED BY IDOCK:   -0.42 KCAL/MOL
REMARK 927      BINDING AFFINITY PREDICTED BY RF-SCORE:    0.00 PKD
ROOT
HETATM    1  C   UNL     1      -6.560  12.694  68.896  1.00  0.00    -0.095 C  
HETATM    2  C   UNL     1      -6.587  13.757  67.805  1.00  0.00    -0.172 C  
ENDROOT
BRANCH   2   3
HETATM    3  N   UNL     1      -7.973  14.063  67.396  1.00  0.00    -0.181 NA 
HETATM    4  C   UNL     1      -8.858  13.033  67.096  1.00  0.00    -0.218 C  
HETATM    5  C   UNL     1     -10.169  13.153  66.849  1.00  0.00    -0.245 C  
HETATM    6  C   UNL     1     -10.737  14.511  66.923  1.00  0.00    -0.288 C  
HETATM    7  C   UNL     1     -10.967  11.947  66.541  1.00  0.00    -0.292 C  
HETATM    8  O   UNL     1     -10.498  10.819  66.518  1.00  0.00    -0.241 OA 
HETATM    9  O   UNL     1     -12.271  12.190  66.281  1.00  0.00    -0.604 OA 
HETATM   10  O   UNL     1     -11.927  14.694  66.670  1.00  0.00    -0.368 OA 
HETATM   11  C   UNL     1      -9.842  15.626  67.310  1.00  0.00    -0.225 A  
HETATM   12  C   UNL     1      -8.470  15.382  67.508  1.00  0.00    -0.173 A  
HETATM   13  C   UNL     1      -7.666  16.501  67.807  1.00  0.00    -0.165 A  
HETATM   14  C   UNL     1      -8.186  17.805  67.986  1.00  0.00    -0.248 A  
HETATM   15  C   UNL     1     -10.392  16.900  67.478  1.00  0.00    -0.318 A  
HETATM   16  C   UNL     1      -9.572  17.969  67.833  1.00  0.00    -0.284 A  
BRANCH  14  17
HETATM   17  C   UNL     1      -7.303  18.953  68.318  1.00  0.00    -0.306 A  
HETATM   18  C   UNL     1      -6.657  19.050  69.561  1.00  0.00    -0.280 A  
HETATM   19  C   UNL     1      -5.839  20.139  69.829  1.00  0.00    -0.331 A  
HETATM   20  N   UNL     1      -5.624  21.146  68.962  1.00  0.00    -0.320 NA 
HETATM   21  C   UNL     1      -6.247  21.054  67.772  1.00  0.00    -0.357 A  
HETATM   22  C   UNL     1      -7.071  19.998  67.410  1.00  0.00    -0.286 A  
ENDBRANCH  14  17
ENDBRANCH   2   3
TORSDOF 2
ENDMDL
MODEL       56
REMARK 921   NORMALIZED FREE ENERGY PREDICTED BY IDOCK:   -5.36 KCAL/MOL
REMARK 922        TOTAL FREE ENERGY PREDICTED BY IDOCK:   -6.40 KCAL/MOL
REMARK 923 INTER-LIGAND FREE ENERGY PREDICTED BY IDOCK:   -5.97 KCAL/MOL
REMARK 924 INTRA-LIGAND FREE ENERGY PREDICTED BY IDOCK:   -0.43 KCAL/MOL
REMARK 927      BINDING AFFINITY PREDICTED BY RF-SCORE:    0.00 PKD
ROOT
HETATM    1  C   UNL     1     -11.394  13.191  69.477  1.00  0.00    -0.227 C  
HETATM    2  C   UNL     1     -11.911  11.810  69.090  1.00  0.00    -0.326 C  
ENDROOT
BRANCH   2   3
HETATM    3  N   UNL     1     -11.597  11.503  67.680  1.00  0.00    -0.515 NA 
HETATM    4  C   UNL     1     -11.996  12.370  66.668  1.00  0.00    -0.229 C  
HETATM    5  C   UNL     1     -11.663  12.292  65.373  1.00  0.00    -0.424 C  
HETATM    6  C   UNL     1     -10.768  11.189  64.981  1.00  0.00    -0.231 C  
HETATM    7  C   UNL     1     -12.183  13.301  64.425  1.00  0.00    -0.390 C  
HETATM    8  O   UNL     1     -12.895  14.236  64.762  1.00  0.00    -0.671 OA 
HETATM    9  O   UNL     1     -11.807  13.109  63.141  1.00  0.00    -0.459 OA 
HETATM   10  O   UNL     1     -10.456  11.041  63.801  1.00  0.00    -0.363 OA 
HETATM   11  C   UNL     1     -10.263  10.286  66.041  1.00  0.00    -0.298 A  
HETATM   12  C   UNL     1     -10.714  10.444  67.365  1.00  0.00    -0.283 A  
HETATM   13  C   UNL     1     -10.244   9.507  68.308  1.00  0.00    -0.225 A  
HETATM   14  C   UNL     1      -9.307   8.494  67.996  1.00  0.00    -0.147 A  
HETATM   15  C   UNL     1      -9.336   9.298  65.695  1.00  0.00    -0.308 A  
HETATM   16  C   UNL     1      -8.851   8.429  66.670  1.00  0.00    -0.164 A  
BRANCH  14  17
HETATM   17  C   UNL     1      -8.826   7.538  69.027  1.00  0.00    -0.132 A  
HETATM   18  C   UNL     1      -8.461   6.223  68.699  1.00  0.00    -0.122 A  
HETATM   19  C   UNL     1      -8.015   5.363  69.694  1.00  0.00    -0.095 A  
HETATM   20  N   UNL     1      -7.917   5.705  70.992  1.00  0.00    -0.108 NA 
HETATM   21  C   UNL     1      -8.273   6.966  71.307  1.00  0.00    -0.114 A  
HETATM   22  C   UNL     1      -8.716   7.899  70.379  1.00  0.00    -0.137 A  
ENDBRANCH  14  17
ENDBRANCH   2   3
TORSDOF 2
ENDMDL
MODEL       57
REMARK 921   NORMALIZED FREE ENERGY PREDICTED BY IDOCK:   -5.32 KCAL/MOL
REMARK 922        TOTAL FREE ENERGY PREDICTED BY IDOCK:   -6.36 KCAL/MOL
REMARK 923 INTER-LIGAND FREE ENERGY PREDICTED BY IDOCK:   -5.95 KCAL/MOL
REMARK 924 INTRA-LIGAND FREE ENERGY PREDICTED BY IDOCK:   -0.41 KCAL/MOL
REMARK 927      BINDING AFFINITY PREDICTED BY RF-SCORE:    0.00 PKD
ROOT
HETATM    1  C   UNL     1      -9.389  16.546  67.356  1.00  0.00    -0.223 C  
HETATM    2  C   UNL     1      -8.905  15.135  67.668  1.00  0.00    -0.173 C  
ENDROOT
BRANCH   2   3
HETATM    3  N   UNL     1      -9.847  14.438  68.568  1.00  0.00    -0.229 NA 
HETATM    4  C   UNL     1     -10.474  15.130  69.598  1.00  0.00    -0.250 C  
HETATM    5  C   UNL     1     -11.446  14.667  70.395  1.00  0.00    -0.283 C  
HETATM    6  C   UNL     1     -11.914  13.292  70.142  1.00  0.00    -0.318 C  
HETATM    7  C   UNL     1     -12.001  15.540  71.450  1.00  0.00    -0.394 C  
HETATM    8  O   UNL     1     -11.635  16.693  71.631  1.00  0.00    -0.316 OA 
HETATM    9  O   UNL     1     -12.956  14.961  72.212  1.00  0.00    -0.306 OA 
HETATM   10  O   UNL     1     -12.778  12.796  70.863  1.00  0.00    -0.288 OA 
HETATM   11  C   UNL     1     -11.322  12.547  69.008  1.00  0.00    -0.342 A  
HETATM   12  C   UNL     1     -10.277  13.125  68.263  1.00  0.00    -0.250 A  
HETATM   13  C   UNL     1      -9.715  12.332  67.242  1.00  0.00    -0.195 A  
HETATM   14  C   UNL     1     -10.200  11.047  66.900  1.00  0.00    -0.263 A  
HETATM   15  C   UNL     1     -11.828  11.281  68.700  1.00  0.00    -0.369 A  
HETATM   16  C   UNL     1     -11.284  10.553  67.643  1.00  0.00    -0.338 A  
BRANCH  14  17
HETATM   17  C   UNL     1      -9.587  10.253  65.804  1.00  0.00    -0.279 A  
HETATM   18  C   UNL     1      -9.696  10.647  64.460  1.00  0.00    -0.367 A  
HETATM   19  C   UNL     1      -9.106   9.876  63.468  1.00  0.00    -0.256 A  
HETATM   20  N   UNL     1      -8.429   8.737  63.706  1.00  0.00    -0.144 NA 
HETATM   21  C   UNL     1      -8.329   8.358  64.994  1.00  0.00    -0.158 A  
HETATM   22  C   UNL     1      -8.873   9.071  66.054  1.00  0.00    -0.208 A  
ENDBRANCH  14  17
ENDBRANCH   2   3
TORSDOF 2
ENDMDL
MODEL       58
REMARK 921   NORMALIZED FREE ENERGY PREDICTED BY IDOCK:   -5.27 KCAL/MOL
REMARK 922        TOTAL FREE ENERGY PREDICTED BY IDOCK:   -6.31 KCAL/MOL
REMARK 923 INTER-LIGAND FREE ENERGY PREDICTED BY IDOCK:   -5.91 KCAL/MOL
REMARK 924 INTRA-LIGAND FREE ENERGY PREDICTED BY IDOCK:   -0.39 KCAL/MOL
REMARK 927      BINDING AFFINITY PREDICTED BY RF-SCORE:    0.00 PKD
ROOT
HETATM    1  C   UNL     1      -6.026  12.629  69.403  1.00  0.00    -0.101 C  
HETATM    2  C   UNL     1      -6.908  13.486  68.503  1.00  0.00    -0.099 C  
ENDROOT
BRANCH   2   3
HETATM    3  N   UNL     1      -8.254  12.895  68.361  1.00  0.00    -0.145 NA 
HETATM    4  C   UNL     1      -8.446  11.533  68.564  1.00  0.00    -0.143 C  
HETATM    5  C   UNL     1      -9.621  10.890  68.607  1.00  0.00    -0.192 C  
HETATM    6  C   UNL     1     -10.834  11.710  68.442  1.00  0.00    -0.219 C  
HETATM    7  C   UNL     1      -9.644   9.428  68.829  1.00  0.00    -0.154 C  
HETATM    8  O   UNL     1      -8.636   8.759  69.003  1.00  0.00    -0.129 OA 
HETATM    9  O   UNL     1     -10.879   8.881  68.825  1.00  0.00    -0.135 OA 
HETATM   10  O   UNL     1     -11.941  11.174  68.433  1.00  0.00    -0.561 OA 
HETATM   11  C   UNL     1     -10.676  13.175  68.295  1.00  0.00    -0.261 A  
HETATM   12  C   UNL     1      -9.386  13.734  68.226  1.00  0.00    -0.209 A  
HETATM   13  C   UNL     1      -9.310  15.126  68.017  1.00  0.00    -0.187 A  
HETATM   14  C   UNL     1     -10.448  15.964  67.953  1.00  0.00    -0.288 A  
HETATM   15  C   UNL     1     -11.823  13.971  68.237  1.00  0.00    -0.406 A  
HETATM   16  C   UNL     1     -11.704  15.352  68.089  1.00  0.00    -0.276 A  
BRANCH  14  17
HETATM   17  C   UNL     1     -10.320  17.431  67.749  1.00  0.00    -0.358 A  
HETATM   18  C   UNL     1     -10.482  18.014  66.482  1.00  0.00    -0.341 A  
HETATM   19  C   UNL     1     -10.356  19.389  66.337  1.00  0.00    -0.483 A  
HETATM   20  N   UNL     1     -10.068  20.227  67.350  1.00  0.00    -0.412 NA 
HETATM   21  C   UNL     1      -9.909  19.666  68.564  1.00  0.00    -0.424 A  
HETATM   22  C   UNL     1     -10.030  18.305  68.808  1.00  0.00    -0.391 A  
ENDBRANCH  14  17
ENDBRANCH   2   3
TORSDOF 2
ENDMDL
MODEL       59
REMARK 921   NORMALIZED FREE ENERGY PREDICTED BY IDOCK:   -5.25 KCAL/MOL
REMARK 922        TOTAL FREE ENERGY PREDICTED BY IDOCK:   -6.29 KCAL/MOL
REMARK 923 INTER-LIGAND FREE ENERGY PREDICTED BY IDOCK:   -5.85 KCAL/MOL
REMARK 924 INTRA-LIGAND FREE ENERGY PREDICTED BY IDOCK:   -0.44 KCAL/MOL
REMARK 927      BINDING AFFINITY PREDICTED BY RF-SCORE:    0.00 PKD
ROOT
HETATM    1  C   UNL     1      -6.497  14.424  68.178  1.00  0.00    -0.139 C  
HETATM    2  C   UNL     1      -7.009  15.136  69.425  1.00  0.00    -0.178 C  
ENDROOT
BRANCH   2   3
HETATM    3  N   UNL     1      -7.982  16.190  69.071  1.00  0.00    -0.227 NA 
HETATM    4  C   UNL     1      -7.544  17.394  68.529  1.00  0.00    -0.254 C  
HETATM    5  C   UNL     1      -8.314  18.374  68.037  1.00  0.00    -0.287 C  
HETATM    6  C   UNL     1      -9.770  18.146  68.051  1.00  0.00    -0.311 C  
HETATM    7  C   UNL     1      -7.681  19.597  67.500  1.00  0.00    -0.267 C  
HETATM    8  O   UNL     1      -6.471  19.765  67.456  1.00  0.00    -0.200 OA 
HETATM    9  O   UNL     1      -8.553  20.530  67.056  1.00  0.00    -0.311 OA 
HETATM   10  O   UNL     1     -10.532  19.023  67.648  1.00  0.00    -0.397 OA 
HETATM   11  C   UNL     1     -10.272  16.847  68.554  1.00  0.00    -0.310 A  
HETATM   12  C   UNL     1      -9.368  15.907  69.083  1.00  0.00    -0.252 A  
HETATM   13  C   UNL     1      -9.923  14.721  69.605  1.00  0.00     0.038 A  
HETATM   14  C   UNL     1     -11.304  14.419  69.548  1.00  0.00    -0.318 A  
HETATM   15  C   UNL     1     -11.643  16.584  68.479  1.00  0.00    -0.010 A  
HETATM   16  C   UNL     1     -12.144  15.373  68.953  1.00  0.00    -0.226 A  
BRANCH  14  17
HETATM   17  C   UNL     1     -11.843  13.147  70.097  1.00  0.00    -0.328 A  
HETATM   18  C   UNL     1     -12.655  13.125  71.242  1.00  0.00    -0.382 A  
HETATM   19  C   UNL     1     -13.139  11.915  71.719  1.00  0.00    -0.360 A  
HETATM   20  N   UNL     1     -12.866  10.723  71.155  1.00  0.00    -0.394 NA 
HETATM   21  C   UNL     1     -12.083  10.745  70.060  1.00  0.00    -0.345 A  
HETATM   22  C   UNL     1     -11.565  11.907  69.502  1.00  0.00    -0.394 A  
ENDBRANCH  14  17
ENDBRANCH   2   3
TORSDOF 2
ENDMDL
MODEL       60
REMARK 921   NORMALIZED FREE ENERGY PREDICTED BY IDOCK:   -5.25 KCAL/MOL
REMARK 922        TOTAL FREE ENERGY PREDICTED BY IDOCK:   -6.28 KCAL/MOL
REMARK 923 INTER-LIGAND FREE ENERGY PREDICTED BY IDOCK:   -5.87 KCAL/MOL
REMARK 924 INTRA-LIGAND FREE ENERGY PREDICTED BY IDOCK:   -0.41 KCAL/MOL
REMARK 927      BINDING AFFINITY PREDICTED BY RF-SCORE:    0.00 PKD
ROOT
HETATM    1  C   UNL     1     -12.566  12.575  71.084  1.00  0.00    -0.349 C  
HETATM    2  C   UNL     1     -12.084  11.165  70.764  1.00  0.00    -0.357 C  
ENDROOT
BRANCH   2   3
HETATM    3  N   UNL     1     -11.730  11.037  69.336  1.00  0.00    -0.296 NA 
HETATM    4  C   UNL     1     -11.800  12.143  68.495  1.00  0.00    -0.310 C  
HETATM    5  C   UNL     1     -11.380  12.208  67.224  1.00  0.00    -0.398 C  
HETATM    6  C   UNL     1     -10.763  10.992  66.666  1.00  0.00    -0.249 C  
HETATM    7  C   UNL     1     -11.537  13.468  66.469  1.00  0.00    -0.359 C  
HETATM    8  O   UNL     1     -12.015  14.486  66.949  1.00  0.00    -0.403 OA 
HETATM    9  O   UNL     1     -11.106  13.411  65.189  1.00  0.00    -0.290 OA 
HETATM   10  O   UNL     1     -10.392  10.975  65.493  1.00  0.00    -0.255 OA 
HETATM   11  C   UNL     1     -10.604   9.815  67.551  1.00  0.00    -0.335 A  
HETATM   12  C   UNL     1     -11.120   9.853  68.860  1.00  0.00    -0.140 A  
HETATM   13  C   UNL     1     -10.993   8.674  69.623  1.00  0.00    -0.099 A  
HETATM   14  C   UNL     1     -10.320   7.519  69.161  1.00  0.00    -0.215 A  
HETATM   15  C   UNL     1      -9.931   8.693  67.060  1.00  0.00    -0.317 A  
HETATM   16  C   UNL     1      -9.775   7.568  67.868  1.00  0.00    -0.170 A  
BRANCH  14  17
HETATM   17  C   UNL     1     -10.195   6.303  70.008  1.00  0.00    -0.237 A  
HETATM   18  C   UNL     1      -9.777   5.074  69.474  1.00  0.00    -0.259 A  
HETATM   19  C   UNL     1      -9.673   3.964  70.301  1.00  0.00    -0.175 A  
HETATM   20  N   UNL     1      -9.965   3.978  71.615  1.00  0.00    -0.182 NA 
HETATM   21  C   UNL     1     -10.370   5.157  72.125  1.00  0.00    -0.214 A  
HETATM   22  C   UNL     1     -10.491   6.322  71.380  1.00  0.00    -0.264 A  
ENDBRANCH  14  17
ENDBRANCH   2   3
TORSDOF 2
ENDMDL
MODEL       61
REMARK 921   NORMALIZED FREE ENERGY PREDICTED BY IDOCK:   -5.24 KCAL/MOL
REMARK 922        TOTAL FREE ENERGY PREDICTED BY IDOCK:   -6.27 KCAL/MOL
REMARK 923 INTER-LIGAND FREE ENERGY PREDICTED BY IDOCK:   -5.86 KCAL/MOL
REMARK 924 INTRA-LIGAND FREE ENERGY PREDICTED BY IDOCK:   -0.40 KCAL/MOL
REMARK 927      BINDING AFFINITY PREDICTED BY RF-SCORE:    0.00 PKD
ROOT
HETATM    1  C   UNL     1     -10.280   9.179  71.526  1.00  0.00    -0.403 C  
HETATM    2  C   UNL     1     -11.554   9.226  70.691  1.00  0.00    -0.252 C  
ENDROOT
BRANCH   2   3
HETATM    3  N   UNL     1     -11.445  10.231  69.613  1.00  0.00    -0.249 NA 
HETATM    4  C   UNL     1     -11.734  11.567  69.870  1.00  0.00    -0.343 C  
HETATM    5  C   UNL     1     -11.546  12.599  69.037  1.00  0.00    -0.367 C  
HETATM    6  C   UNL     1     -10.955  12.292  67.722  1.00  0.00    -0.232 C  
HETATM    7  C   UNL     1     -11.916  13.963  69.470  1.00  0.00    -0.343 C  
HETATM    8  O   UNL     1     -12.371  14.217  70.576  1.00  0.00    -0.320 OA 
HETATM    9  O   UNL     1     -11.710  14.921  68.540  1.00  0.00    -0.306 OA 
HETATM   10  O   UNL     1     -10.792  13.190  66.897  1.00  0.00    -0.262 OA 
HETATM   11  C   UNL     1     -10.566  10.892  67.437  1.00  0.00    -0.285 A  
HETATM   12  C   UNL     1     -10.848   9.884  68.379  1.00  0.00    -0.221 A  
HETATM   13  C   UNL     1     -10.512   8.565  68.013  1.00  0.00    -0.249 A  
HETATM   14  C   UNL     1      -9.852   8.239  66.804  1.00  0.00    -0.333 A  
HETATM   15  C   UNL     1      -9.914  10.608  66.234  1.00  0.00    -0.274 A  
HETATM   16  C   UNL     1      -9.545   9.298  65.936  1.00  0.00    -0.345 A  
BRANCH  14  17
HETATM   17  C   UNL     1      -9.501   6.834  66.467  1.00  0.00    -0.193 A  
HETATM   18  C   UNL     1      -8.215   6.482  66.028  1.00  0.00    -0.127 A  
HETATM   19  C   UNL     1      -7.930   5.158  65.726  1.00  0.00    -0.108 A  
HETATM   20  N   UNL     1      -8.828   4.158  65.812  1.00  0.00    -0.118 NA 
HETATM   21  C   UNL     1     -10.063   4.498  66.229  1.00  0.00    -0.254 A  
HETATM   22  C   UNL     1     -10.436   5.792  66.567  1.00  0.00    -0.280 A  
ENDBRANCH  14  17
ENDBRANCH   2   3
TORSDOF 2
ENDMDL
MODEL       62
REMARK 921   NORMALIZED FREE ENERGY PREDICTED BY IDOCK:   -5.22 KCAL/MOL
REMARK 922        TOTAL FREE ENERGY PREDICTED BY IDOCK:   -6.25 KCAL/MOL
REMARK 923 INTER-LIGAND FREE ENERGY PREDICTED BY IDOCK:   -5.85 KCAL/MOL
REMARK 924 INTRA-LIGAND FREE ENERGY PREDICTED BY IDOCK:   -0.41 KCAL/MOL
REMARK 927      BINDING AFFINITY PREDICTED BY RF-SCORE:    0.00 PKD
ROOT
HETATM    1  C   UNL     1     -10.094  10.291  66.967  1.00  0.00    -0.268 C  
HETATM    2  C   UNL     1      -9.765   9.186  67.963  1.00  0.00    -0.154 C  
ENDROOT
BRANCH   2   3
HETATM    3  N   UNL     1     -10.506   9.374  69.227  1.00  0.00    -0.213 NA 
HETATM    4  C   UNL     1     -11.081  10.605  69.525  1.00  0.00    -0.274 C  
HETATM    5  C   UNL     1     -11.891  10.879  70.557  1.00  0.00    -0.457 C  
HETATM    6  C   UNL     1     -12.224   9.759  71.456  1.00  0.00    -0.406 C  
HETATM    7  C   UNL     1     -12.413  12.251  70.730  1.00  0.00    -0.265 C  
HETATM    8  O   UNL     1     -12.163  13.167  69.960  1.00  0.00    -0.306 OA 
HETATM    9  O   UNL     1     -13.196  12.419  71.818  1.00  0.00    -0.440 OA 
HETATM   10  O   UNL     1     -12.932   9.953  72.442  1.00  0.00    -0.347 OA 
HETATM   11  C   UNL     1     -11.690   8.416  71.131  1.00  0.00    -0.315 A  
HETATM   12  C   UNL     1     -10.815   8.258  70.040  1.00  0.00    -0.232 A  
HETATM   13  C   UNL     1     -10.292   6.966  69.831  1.00  0.00    -0.223 A  
HETATM   14  C   UNL     1     -10.663   5.843  70.608  1.00  0.00    -0.353 A  
HETATM   15  C   UNL     1     -12.080   7.331  71.921  1.00  0.00    -0.349 A  
HETATM   16  C   UNL     1     -11.586   6.057  71.644  1.00  0.00    -0.263 A  
BRANCH  14  17
HETATM   17  C   UNL     1     -10.098   4.495  70.341  1.00  0.00    -0.229 A  
HETATM   18  C   UNL     1      -9.752   4.086  69.043  1.00  0.00    -0.161 A  
HETATM   19  C   UNL     1      -9.226   2.817  68.839  1.00  0.00    -0.161 A  
HETATM   20  N   UNL     1      -9.030   1.919  69.823  1.00  0.00    -0.075 NA 
HETATM   21  C   UNL     1      -9.368   2.311  71.066  1.00  0.00    -0.139 A  
HETATM   22  C   UNL     1      -9.887   3.563  71.368  1.00  0.00    -0.214 A  
ENDBRANCH  14  17
ENDBRANCH   2   3
TORSDOF 2
ENDMDL
MODEL       63
REMARK 921   NORMALIZED FREE ENERGY PREDICTED BY IDOCK:   -5.22 KCAL/MOL
REMARK 922        TOTAL FREE ENERGY PREDICTED BY IDOCK:   -6.24 KCAL/MOL
REMARK 923 INTER-LIGAND FREE ENERGY PREDICTED BY IDOCK:   -5.83 KCAL/MOL
REMARK 924 INTRA-LIGAND FREE ENERGY PREDICTED BY IDOCK:   -0.41 KCAL/MOL
REMARK 927      BINDING AFFINITY PREDICTED BY RF-SCORE:    0.00 PKD
ROOT
HETATM    1  C   UNL     1      -6.597  12.713  68.472  1.00  0.00    -0.081 C  
HETATM    2  C   UNL     1      -7.982  13.348  68.423  1.00  0.00    -0.139 C  
ENDROOT
BRANCH   2   3
HETATM    3  N   UNL     1      -8.630  13.107  67.118  1.00  0.00    -0.202 NA 
HETATM    4  C   UNL     1      -8.697  11.819  66.598  1.00  0.00    -0.186 C  
HETATM    5  C   UNL     1      -9.370  11.433  65.505  1.00  0.00    -0.228 C  
HETATM    6  C   UNL     1     -10.134  12.474  64.793  1.00  0.00    -0.227 C  
HETATM    7  C   UNL     1      -9.330  10.016  65.086  1.00  0.00    -0.245 C  
HETATM    8  O   UNL     1      -8.726   9.150  65.701  1.00  0.00    -0.153 OA 
HETATM    9  O   UNL     1     -10.020   9.747  63.956  1.00  0.00     0.141 OA 
HETATM   10  O   UNL     1     -10.741  12.192  63.762  1.00  0.00    -0.357 OA 
HETATM   11  C   UNL     1     -10.146  13.844  65.357  1.00  0.00    -0.328 A  
HETATM   12  C   UNL     1      -9.368  14.138  66.492  1.00  0.00    -0.265 A  
HETATM   13  C   UNL     1      -9.375  15.477  66.933  1.00  0.00    -0.252 A  
HETATM   14  C   UNL     1     -10.171  16.486  66.340  1.00  0.00    -0.324 A  
HETATM   15  C   UNL     1     -10.946  14.813  64.745  1.00  0.00    -0.393 A  
HETATM   16  C   UNL     1     -10.971  16.112  65.249  1.00  0.00    -0.280 A  
BRANCH  14  17
HETATM   17  C   UNL     1     -10.160  17.882  66.850  1.00  0.00    -0.348 A  
HETATM   18  C   UNL     1     -10.207  18.983  65.980  1.00  0.00    -0.462 A  
HETATM   19  C   UNL     1     -10.196  20.270  66.499  1.00  0.00    -0.349 A  
HETATM   20  N   UNL     1     -10.128  20.548  67.815  1.00  0.00    -0.317 NA 
HETATM   21  C   UNL     1     -10.078  19.491  68.648  1.00  0.00    -0.442 A  
HETATM   22  C   UNL     1     -10.098  18.170  68.222  1.00  0.00    -0.398 A  
ENDBRANCH  14  17
ENDBRANCH   2   3
TORSDOF 2
ENDMDL
MODEL       64
REMARK 921   NORMALIZED FREE ENERGY PREDICTED BY IDOCK:   -5.19 KCAL/MOL
REMARK 922        TOTAL FREE ENERGY PREDICTED BY IDOCK:   -6.22 KCAL/MOL
REMARK 923 INTER-LIGAND FREE ENERGY PREDICTED BY IDOCK:   -5.82 KCAL/MOL
REMARK 924 INTRA-LIGAND FREE ENERGY PREDICTED BY IDOCK:   -0.40 KCAL/MOL
REMARK 927      BINDING AFFINITY PREDICTED BY RF-SCORE:    0.00 PKD
ROOT
HETATM    1  C   UNL     1     -12.981  10.042  71.100  1.00  0.00    -0.478 C  
HETATM    2  C   UNL     1     -11.466   9.894  71.185  1.00  0.00    -0.383 C  
ENDROOT
BRANCH   2   3
HETATM    3  N   UNL     1     -10.916   9.341  69.931  1.00  0.00    -0.230 NA 
HETATM    4  C   UNL     1     -10.835   7.964  69.749  1.00  0.00    -0.202 C  
HETATM    5  C   UNL     1     -10.492   7.327  68.621  1.00  0.00    -0.214 C  
HETATM    6  C   UNL     1     -10.191   8.167  67.448  1.00  0.00    -0.258 C  
HETATM    7  C   UNL     1     -10.451   5.850  68.603  1.00  0.00    -0.240 C  
HETATM    8  O   UNL     1     -10.739   5.157  69.568  1.00  0.00    -0.195 OA 
HETATM    9  O   UNL     1     -10.066   5.315  67.423  1.00  0.00    -0.164 OA 
HETATM   10  O   UNL     1      -9.833   7.644  66.394  1.00  0.00    -0.191 OA 
HETATM   11  C   UNL     1     -10.335   9.635  67.581  1.00  0.00    -0.290 A  
HETATM   12  C   UNL     1     -10.666  10.193  68.830  1.00  0.00    -0.223 A  
HETATM   13  C   UNL     1     -10.720  11.600  68.899  1.00  0.00    -0.244 A  
HETATM   14  C   UNL     1     -10.536  12.441  67.776  1.00  0.00    -0.231 A  
HETATM   15  C   UNL     1     -10.148  10.433  66.449  1.00  0.00    -0.287 A  
HETATM   16  C   UNL     1     -10.269  11.818  66.547  1.00  0.00    -0.240 A  
BRANCH  14  17
HETATM   17  C   UNL     1     -10.619  13.920  67.892  1.00  0.00    -0.248 A  
HETATM   18  C   UNL     1     -11.051  14.542  69.074  1.00  0.00    -0.279 A  
HETATM   19  C   UNL     1     -11.112  15.928  69.139  1.00  0.00    -0.302 A  
HETATM   20  N   UNL     1     -10.790  16.742  68.116  1.00  0.00    -0.360 NA 
HETATM   21  C   UNL     1     -10.380  16.143  66.982  1.00  0.00    -0.290 A  
HETATM   22  C   UNL     1     -10.274  14.768  66.828  1.00  0.00    -0.266 A  
ENDBRANCH  14  17
ENDBRANCH   2   3
TORSDOF 2
ENDMDL
MODEL       65
REMARK 921   NORMALIZED FREE ENERGY PREDICTED BY IDOCK:   -5.15 KCAL/MOL
REMARK 922        TOTAL FREE ENERGY PREDICTED BY IDOCK:   -6.17 KCAL/MOL
REMARK 923 INTER-LIGAND FREE ENERGY PREDICTED BY IDOCK:   -5.91 KCAL/MOL
REMARK 924 INTRA-LIGAND FREE ENERGY PREDICTED BY IDOCK:   -0.26 KCAL/MOL
REMARK 927      BINDING AFFINITY PREDICTED BY RF-SCORE:    0.00 PKD
ROOT
HETATM    1  C   UNL     1     -12.978  13.861  65.252  1.00  0.00    -0.341 C  
HETATM    2  C   UNL     1     -11.725  14.261  64.483  1.00  0.00    -0.418 C  
ENDROOT
BRANCH   2   3
HETATM    3  N   UNL     1     -10.690  14.789  65.395  1.00  0.00    -0.344 NA 
HETATM    4  C   UNL     1     -10.540  16.161  65.564  1.00  0.00    -0.377 C  
HETATM    5  C   UNL     1      -9.746  16.773  66.454  1.00  0.00    -0.309 C  
HETATM    6  C   UNL     1      -8.969  15.907  67.358  1.00  0.00    -0.192 C  
HETATM    7  C   UNL     1      -9.703  18.250  66.497  1.00  0.00    -0.343 C  
HETATM    8  O   UNL     1     -10.379  18.964  65.770  1.00  0.00    -0.549 OA 
HETATM    9  O   UNL     1      -8.848  18.759  67.412  1.00  0.00    -0.267 OA 
HETATM   10  O   UNL     1      -8.193  16.407  68.171  1.00  0.00    -0.163 OA 
HETATM   11  C   UNL     1      -9.155  14.441  67.257  1.00  0.00    -0.221 A  
HETATM   12  C   UNL     1      -9.989  13.912  66.255  1.00  0.00    -0.306 A  
HETATM   13  C   UNL     1     -10.066  12.506  66.175  1.00  0.00    -0.265 A  
HETATM   14  C   UNL     1      -9.416  11.640  67.085  1.00  0.00    -0.183 A  
HETATM   15  C   UNL     1      -8.497  13.617  68.175  1.00  0.00    -0.175 A  
HETATM   16  C   UNL     1      -8.647  12.234  68.098  1.00  0.00    -0.181 A  
BRANCH  14  17
HETATM   17  C   UNL     1      -9.539  10.163  66.973  1.00  0.00    -0.209 A  
HETATM   18  C   UNL     1     -10.410   9.432  67.796  1.00  0.00    -0.291 A  
HETATM   19  C   UNL     1     -10.495   8.054  67.656  1.00  0.00    -0.232 A  
HETATM   20  N   UNL     1      -9.772   7.344  66.770  1.00  0.00    -0.197 NA 
HETATM   21  C   UNL     1      -8.933   8.045  65.984  1.00  0.00    -0.163 A  
HETATM   22  C   UNL     1      -8.791   9.425  66.042  1.00  0.00    -0.185 A  
ENDBRANCH  14  17
ENDBRANCH   2   3
TORSDOF 2
ENDMDL
MODEL       66
REMARK 921   NORMALIZED FREE ENERGY PREDICTED BY IDOCK:   -5.09 KCAL/MOL
REMARK 922        TOTAL FREE ENERGY PREDICTED BY IDOCK:   -6.10 KCAL/MOL
REMARK 923 INTER-LIGAND FREE ENERGY PREDICTED BY IDOCK:   -5.69 KCAL/MOL
REMARK 924 INTRA-LIGAND FREE ENERGY PREDICTED BY IDOCK:   -0.41 KCAL/MOL
REMARK 927      BINDING AFFINITY PREDICTED BY RF-SCORE:    0.00 PKD
ROOT
HETATM    1  C   UNL     1      -6.273  11.446  68.335  1.00  0.00    -0.045 C  
HETATM    2  C   UNL     1      -7.593  10.917  67.787  1.00  0.00    -0.095 C  
ENDROOT
BRANCH   2   3
HETATM    3  N   UNL     1      -8.706  11.833  68.110  1.00  0.00    -0.163 NA 
HETATM    4  C   UNL     1      -8.830  13.047  67.443  1.00  0.00    -0.203 C  
HETATM    5  C   UNL     1      -9.855  13.905  67.531  1.00  0.00    -0.236 C  
HETATM    6  C   UNL     1     -10.975  13.515  68.407  1.00  0.00    -0.266 C  
HETATM    7  C   UNL     1      -9.824  15.161  66.752  1.00  0.00    -0.241 C  
HETATM    8  O   UNL     1      -8.910  15.462  65.998  1.00  0.00    -0.281 OA 
HETATM    9  O   UNL     1     -10.895  15.963  66.940  1.00  0.00    -0.314 OA 
HETATM   10  O   UNL     1     -11.928  14.277  68.560  1.00  0.00    -0.341 OA 
HETATM   11  C   UNL     1     -10.914  12.197  69.079  1.00  0.00    -0.255 A  
HETATM   12  C   UNL     1      -9.764  11.396  68.940  1.00  0.00    -0.090 A  
HETATM   13  C   UNL     1      -9.747  10.185  69.662  1.00  0.00    -0.250 A  
HETATM   14  C   UNL     1     -10.840   9.726  70.435  1.00  0.00    -0.370 A  
HETATM   15  C   UNL     1     -12.014  11.776  69.832  1.00  0.00    -0.405 A  
HETATM   16  C   UNL     1     -11.980  10.544  70.483  1.00  0.00    -0.436 A  
BRANCH  14  17
HETATM   17  C   UNL     1     -10.784   8.433  71.166  1.00  0.00    -0.280 A  
HETATM   18  C   UNL     1     -11.343   7.261  70.632  1.00  0.00    -0.311 A  
HETATM   19  C   UNL     1     -11.266   6.074  71.349  1.00  0.00    -0.262 A  
HETATM   20  N   UNL     1     -10.689   5.966  72.561  1.00  0.00    -0.221 NA 
HETATM   21  C   UNL     1     -10.158   7.092  73.073  1.00  0.00    -0.228 A  
HETATM   22  C   UNL     1     -10.175   8.320  72.425  1.00  0.00    -0.397 A  
ENDBRANCH  14  17
ENDBRANCH   2   3
TORSDOF 2
ENDMDL
MODEL       67
REMARK 921   NORMALIZED FREE ENERGY PREDICTED BY IDOCK:   -5.05 KCAL/MOL
REMARK 922        TOTAL FREE ENERGY PREDICTED BY IDOCK:   -6.06 KCAL/MOL
REMARK 923 INTER-LIGAND FREE ENERGY PREDICTED BY IDOCK:   -5.67 KCAL/MOL
REMARK 924 INTRA-LIGAND FREE ENERGY PREDICTED BY IDOCK:   -0.39 KCAL/MOL
REMARK 927      BINDING AFFINITY PREDICTED BY RF-SCORE:    0.00 PKD
ROOT
HETATM    1  C   UNL     1      -5.887  14.320  68.300  1.00  0.00    -0.117 C  
HETATM    2  C   UNL     1      -6.923  13.217  68.486  1.00  0.00    -0.103 C  
ENDROOT
BRANCH   2   3
HETATM    3  N   UNL     1      -8.237  13.629  67.952  1.00  0.00    -0.156 NA 
HETATM    4  C   UNL     1      -8.365  14.823  67.250  1.00  0.00    -0.212 C  
HETATM    5  C   UNL     1      -9.453  15.251  66.596  1.00  0.00    -0.281 C  
HETATM    6  C   UNL     1     -10.626  14.360  66.601  1.00  0.00    -0.282 C  
HETATM    7  C   UNL     1      -9.419  16.556  65.902  1.00  0.00    -0.219 C  
HETATM    8  O   UNL     1      -8.430  17.275  65.869  1.00  0.00    -0.533 OA 
HETATM    9  O   UNL     1     -10.579  16.901  65.300  1.00  0.00    -0.633 OA 
HETATM   10  O   UNL     1     -11.668  14.713  66.051  1.00  0.00    -0.359 OA 
HETATM   11  C   UNL     1     -10.507  13.047  67.277  1.00  0.00    -0.238 A  
HETATM   12  C   UNL     1      -9.323  12.722  67.965  1.00  0.00    -0.213 A  
HETATM   13  C   UNL     1      -9.304  11.486  68.642  1.00  0.00    -0.142 A  
HETATM   14  C   UNL     1     -10.370  10.557  68.591  1.00  0.00    -0.201 A  
HETATM   15  C   UNL     1     -11.580  12.155  67.203  1.00  0.00    -0.405 A  
HETATM   16  C   UNL     1     -11.498  10.916  67.837  1.00  0.00    -0.344 A  
BRANCH  14  17
HETATM   17  C   UNL     1     -10.300   9.256  69.306  1.00  0.00    -0.222 A  
HETATM   18  C   UNL     1      -9.331   8.292  68.987  1.00  0.00    -0.147 A  
HETATM   19  C   UNL     1      -9.300   7.091  69.683  1.00  0.00    -0.149 A  
HETATM   20  N   UNL     1     -10.167   6.768  70.661  1.00  0.00    -0.195 NA 
HETATM   21  C   UNL     1     -11.100   7.692  70.962  1.00  0.00    -0.257 A  
HETATM   22  C   UNL     1     -11.199   8.924  70.332  1.00  0.00    -0.259 A  
ENDBRANCH  14  17
ENDBRANCH   2   3
TORSDOF 2
ENDMDL
MODEL       68
REMARK 921   NORMALIZED FREE ENERGY PREDICTED BY IDOCK:   -5.04 KCAL/MOL
REMARK 922        TOTAL FREE ENERGY PREDICTED BY IDOCK:   -6.05 KCAL/MOL
REMARK 923 INTER-LIGAND FREE ENERGY PREDICTED BY IDOCK:   -5.66 KCAL/MOL
REMARK 924 INTRA-LIGAND FREE ENERGY PREDICTED BY IDOCK:   -0.39 KCAL/MOL
REMARK 927      BINDING AFFINITY PREDICTED BY RF-SCORE:    0.00 PKD
ROOT
HETATM    1  C   UNL     1      -7.111   7.875  64.602  1.00  0.00    -0.076 C  
HETATM    2  C   UNL     1      -8.374   8.728  64.636  1.00  0.00    -0.166 C  
ENDROOT
BRANCH   2   3
HETATM    3  N   UNL     1      -9.176   8.441  65.843  1.00  0.00    -0.184 NA 
HETATM    4  C   UNL     1      -9.039   7.223  66.501  1.00  0.00    -0.155 C  
HETATM    5  C   UNL     1      -9.591   6.883  67.673  1.00  0.00    -0.143 C  
HETATM    6  C   UNL     1     -10.411   7.907  68.344  1.00  0.00    -0.199 C  
HETATM    7  C   UNL     1      -9.345   5.536  68.231  1.00  0.00    -0.111 C  
HETATM    8  O   UNL     1      -8.634   4.703  67.689  1.00  0.00    -0.103 OA 
HETATM    9  O   UNL     1      -9.974   5.292  69.402  1.00  0.00    -0.178 OA 
HETATM   10  O   UNL     1     -10.976   7.644  69.404  1.00  0.00    -0.178 OA 
HETATM   11  C   UNL     1     -10.523   9.242  67.711  1.00  0.00    -0.313 A  
HETATM   12  C   UNL     1      -9.927   9.470  66.456  1.00  0.00    -0.261 A  
HETATM   13  C   UNL     1     -10.131  10.742  65.882  1.00  0.00    -0.314 A  
HETATM   14  C   UNL     1     -10.826  11.786  66.536  1.00  0.00    -0.323 A  
HETATM   15  C   UNL     1     -11.215  10.250  68.388  1.00  0.00    -0.284 A  
HETATM   16  C   UNL     1     -11.344  11.512  67.811  1.00  0.00    -0.364 A  
BRANCH  14  17
HETATM   17  C   UNL     1     -11.003  13.118  65.899  1.00  0.00    -0.288 A  
HETATM   18  C   UNL     1     -10.062  14.146  66.071  1.00  0.00    -0.330 A  
HETATM   19  C   UNL     1     -10.266  15.374  65.456  1.00  0.00    -0.382 A  
HETATM   20  N   UNL     1     -11.338  15.663  64.695  1.00  0.00    -0.406 NA 
HETATM   21  C   UNL     1     -12.242  14.678  64.536  1.00  0.00    -0.456 A  
HETATM   22  C   UNL     1     -12.116  13.415  65.099  1.00  0.00    -0.442 A  
ENDBRANCH  14  17
ENDBRANCH   2   3
TORSDOF 2
ENDMDL
MODEL       69
REMARK 921   NORMALIZED FREE ENERGY PREDICTED BY IDOCK:   -5.01 KCAL/MOL
REMARK 922        TOTAL FREE ENERGY PREDICTED BY IDOCK:   -6.02 KCAL/MOL
REMARK 923 INTER-LIGAND FREE ENERGY PREDICTED BY IDOCK:   -5.63 KCAL/MOL
REMARK 924 INTRA-LIGAND FREE ENERGY PREDICTED BY IDOCK:   -0.39 KCAL/MOL
REMARK 927      BINDING AFFINITY PREDICTED BY RF-SCORE:    0.00 PKD
ROOT
HETATM    1  C   UNL     1      -5.222  15.945  67.657  1.00  0.00    -0.125 C  
HETATM    2  C   UNL     1      -6.339  14.934  67.890  1.00  0.00    -0.159 C  
ENDROOT
BRANCH   2   3
HETATM    3  N   UNL     1      -7.649  15.607  67.996  1.00  0.00    -0.120 NA 
HETATM    4  C   UNL     1      -7.716  16.977  68.222  1.00  0.00    -0.209 C  
HETATM    5  C   UNL     1      -8.820  17.737  68.201  1.00  0.00    -0.267 C  
HETATM    6  C   UNL     1     -10.089  17.056  67.888  1.00  0.00    -0.306 C  
HETATM    7  C   UNL     1      -8.713  19.186  68.470  1.00  0.00    -0.365 C  
HETATM    8  O   UNL     1      -7.653  19.752  68.693  1.00  0.00    -0.330 OA 
HETATM    9  O   UNL     1      -9.891  19.848  68.452  1.00  0.00    -0.384 OA 
HETATM   10  O   UNL     1     -11.143  17.690  67.891  1.00  0.00    -0.226 OA 
HETATM   11  C   UNL     1     -10.050  15.610  67.570  1.00  0.00    -0.253 A  
HETATM   12  C   UNL     1      -8.833  14.909  67.662  1.00  0.00    -0.181 A  
HETATM   13  C   UNL     1      -8.883  13.522  67.411  1.00  0.00    -0.221 A  
HETATM   14  C   UNL     1     -10.060  12.847  67.010  1.00  0.00    -0.245 A  
HETATM   15  C   UNL     1     -11.233  14.978  67.175  1.00  0.00    -0.336 A  
HETATM   16  C   UNL     1     -11.227  13.616  66.879  1.00  0.00    -0.326 A  
BRANCH  14  17
HETATM   17  C   UNL     1     -10.061  11.385  66.740  1.00  0.00    -0.250 A  
HETATM   18  C   UNL     1     -10.576  10.466  67.668  1.00  0.00    -0.304 A  
HETATM   19  C   UNL     1     -10.560   9.110  67.374  1.00  0.00    -0.244 A  
HETATM   20  N   UNL     1     -10.059   8.595  66.236  1.00  0.00    -0.237 NA 
HETATM   21  C   UNL     1      -9.561   9.477  65.348  1.00  0.00    -0.272 A  
HETATM   22  C   UNL     1      -9.547  10.851  65.549  1.00  0.00    -0.266 A  
ENDBRANCH  14  17
ENDBRANCH   2   3
TORSDOF 2
ENDMDL
MODEL       70
REMARK 921   NORMALIZED FREE ENERGY PREDICTED BY IDOCK:   -4.94 KCAL/MOL
REMARK 922        TOTAL FREE ENERGY PREDICTED BY IDOCK:   -5.93 KCAL/MOL
REMARK 923 INTER-LIGAND FREE ENERGY PREDICTED BY IDOCK:   -5.54 KCAL/MOL
REMARK 924 INTRA-LIGAND FREE ENERGY PREDICTED BY IDOCK:   -0.40 KCAL/MOL
REMARK 927      BINDING AFFINITY PREDICTED BY RF-SCORE:    0.00 PKD
ROOT
HETATM    1  C   UNL     1     -13.314  11.461  71.916  1.00  0.00    -0.409 C  
HETATM    2  C   UNL     1     -12.615  12.333  70.880  1.00  0.00    -0.241 C  
ENDROOT
BRANCH   2   3
HETATM    3  N   UNL     1     -11.622  11.553  70.114  1.00  0.00    -0.286 NA 
HETATM    4  C   UNL     1     -11.580  10.167  70.229  1.00  0.00    -0.302 C  
HETATM    5  C   UNL     1     -10.835   9.328  69.497  1.00  0.00    -0.211 C  
HETATM    6  C   UNL     1      -9.989   9.929  68.451  1.00  0.00    -0.158 C  
HETATM    7  C   UNL     1     -10.908   7.874  69.756  1.00  0.00    -0.202 C  
HETATM    8  O   UNL     1     -11.640   7.377  70.599  1.00  0.00    -0.291 OA 
HETATM    9  O   UNL     1     -10.094   7.126  68.979  1.00  0.00    -0.173 OA 
HETATM   10  O   UNL     1      -9.253   9.216  67.771  1.00  0.00    -0.133 OA 
HETATM   11  C   UNL     1     -10.059  11.395  68.249  1.00  0.00    -0.204 A  
HETATM   12  C   UNL     1     -10.852  12.180  69.107  1.00  0.00    -0.115 A  
HETATM   13  C   UNL     1     -10.818  13.574  68.899  1.00  0.00    -0.255 A  
HETATM   14  C   UNL     1     -10.098  14.185  67.845  1.00  0.00    -0.235 A  
HETATM   15  C   UNL     1      -9.336  11.962  67.196  1.00  0.00    -0.180 A  
HETATM   16  C   UNL     1      -9.376  13.339  66.988  1.00  0.00    -0.242 A  
BRANCH  14  17
HETATM   17  C   UNL     1     -10.105  15.658  67.653  1.00  0.00    -0.248 A  
HETATM   18  C   UNL     1     -10.268  16.235  66.383  1.00  0.00    -0.322 A  
HETATM   19  C   UNL     1     -10.270  17.617  66.250  1.00  0.00    -0.362 A  
HETATM   20  N   UNL     1     -10.108  18.470  67.279  1.00  0.00    -0.334 NA 
HETATM   21  C   UNL     1      -9.947  17.915  68.496  1.00  0.00    -0.379 A  
HETATM   22  C   UNL     1      -9.946  16.547  68.728  1.00  0.00    -0.255 A  
ENDBRANCH  14  17
ENDBRANCH   2   3
TORSDOF 2
ENDMDL
MODEL       71
REMARK 921   NORMALIZED FREE ENERGY PREDICTED BY IDOCK:   -4.91 KCAL/MOL
REMARK 922        TOTAL FREE ENERGY PREDICTED BY IDOCK:   -5.90 KCAL/MOL
REMARK 923 INTER-LIGAND FREE ENERGY PREDICTED BY IDOCK:   -5.50 KCAL/MOL
REMARK 924 INTRA-LIGAND FREE ENERGY PREDICTED BY IDOCK:   -0.40 KCAL/MOL
REMARK 927      BINDING AFFINITY PREDICTED BY RF-SCORE:    0.00 PKD
ROOT
HETATM    1  C   UNL     1     -12.666  13.712  65.776  1.00  0.00    -0.470 C  
HETATM    2  C   UNL     1     -12.101  14.137  67.126  1.00  0.00    -0.397 C  
ENDROOT
BRANCH   2   3
HETATM    3  N   UNL     1     -10.645  14.374  67.041  1.00  0.00    -0.272 NA 
HETATM    4  C   UNL     1     -10.159  15.634  66.710  1.00  0.00    -0.272 C  
HETATM    5  C   UNL     1      -8.878  16.026  66.732  1.00  0.00    -0.288 C  
HETATM    6  C   UNL     1      -7.885  15.029  67.170  1.00  0.00    -0.190 C  
HETATM    7  C   UNL     1      -8.532  17.410  66.343  1.00  0.00    -0.257 C  
HETATM    8  O   UNL     1      -9.364  18.244  66.016  1.00  0.00    -0.505 OA 
HETATM    9  O   UNL     1      -7.210  17.686  66.375  1.00  0.00    -0.229 OA 
HETATM   10  O   UNL     1      -6.689  15.315  67.176  1.00  0.00    -0.276 OA 
HETATM   11  C   UNL     1      -8.370  13.697  67.599  1.00  0.00    -0.182 A  
HETATM   12  C   UNL     1      -9.739  13.387  67.496  1.00  0.00    -0.224 A  
HETATM   13  C   UNL     1     -10.120  12.079  67.858  1.00  0.00    -0.199 A  
HETATM   14  C   UNL     1      -9.216  11.123  68.378  1.00  0.00    -0.175 A  
HETATM   15  C   UNL     1      -7.448  12.779  68.110  1.00  0.00    -0.124 A  
HETATM   16  C   UNL     1      -7.875  11.516  68.513  1.00  0.00    -0.140 A  
BRANCH  14  17
HETATM   17  C   UNL     1      -9.666   9.760  68.764  1.00  0.00    -0.165 A  
HETATM   18  C   UNL     1      -9.782   9.376  70.109  1.00  0.00    -0.274 A  
HETATM   19  C   UNL     1     -10.208   8.093  70.424  1.00  0.00    -0.201 A  
HETATM   20  N   UNL     1     -10.514   7.157  69.506  1.00  0.00    -0.219 NA 
HETATM   21  C   UNL     1     -10.398   7.526  68.216  1.00  0.00    -0.195 A  
HETATM   22  C   UNL     1      -9.994   8.789  67.805  1.00  0.00    -0.243 A  
ENDBRANCH  14  17
ENDBRANCH   2   3
TORSDOF 2
ENDMDL
MODEL       72
REMARK 921   NORMALIZED FREE ENERGY PREDICTED BY IDOCK:   -4.88 KCAL/MOL
REMARK 922        TOTAL FREE ENERGY PREDICTED BY IDOCK:   -5.87 KCAL/MOL
REMARK 923 INTER-LIGAND FREE ENERGY PREDICTED BY IDOCK:   -5.67 KCAL/MOL
REMARK 924 INTRA-LIGAND FREE ENERGY PREDICTED BY IDOCK:   -0.20 KCAL/MOL
REMARK 927      BINDING AFFINITY PREDICTED BY RF-SCORE:    0.00 PKD
ROOT
HETATM    1  C   UNL     1     -12.011  12.841  65.831  1.00  0.00    -0.506 C  
HETATM    2  C   UNL     1     -11.070  13.136  66.994  1.00  0.00    -0.279 C  
ENDROOT
BRANCH   2   3
HETATM    3  N   UNL     1     -11.089  12.039  67.983  1.00  0.00    -0.225 NA 
HETATM    4  C   UNL     1     -11.773  12.191  69.184  1.00  0.00    -0.328 C  
HETATM    5  C   UNL     1     -11.992  11.242  70.104  1.00  0.00    -0.452 C  
HETATM    6  C   UNL     1     -11.472   9.895  69.805  1.00  0.00    -0.143 C  
HETATM    7  C   UNL     1     -12.738  11.577  71.334  1.00  0.00    -0.364 C  
HETATM    8  O   UNL     1     -13.200  12.687  71.560  1.00  0.00    -0.345 OA 
HETATM    9  O   UNL     1     -12.874  10.551  72.204  1.00  0.00    -0.386 OA 
HETATM   10  O   UNL     1     -11.607   8.989  70.626  1.00  0.00    -0.269 OA 
HETATM   11  C   UNL     1     -10.800   9.675  68.504  1.00  0.00    -0.202 A  
HETATM   12  C   UNL     1     -10.595  10.761  67.632  1.00  0.00    -0.231 A  
HETATM   13  C   UNL     1      -9.889  10.491  66.442  1.00  0.00    -0.260 A  
HETATM   14  C   UNL     1      -9.461   9.195  66.070  1.00  0.00    -0.321 A  
HETATM   15  C   UNL     1     -10.393   8.380  68.170  1.00  0.00    -0.255 A  
HETATM   16  C   UNL     1      -9.750   8.145  66.956  1.00  0.00    -0.275 A  
BRANCH  14  17
HETATM   17  C   UNL     1      -8.733   8.955  64.796  1.00  0.00    -0.162 A  
HETATM   18  C   UNL     1      -8.035   7.759  64.562  1.00  0.00    -0.135 A  
HETATM   19  C   UNL     1      -7.371   7.576  63.357  1.00  0.00    -0.087 A  
HETATM   20  N   UNL     1      -7.336   8.494  62.372  1.00  0.00    -0.098 NA 
HETATM   21  C   UNL     1      -8.002   9.641  62.600  1.00  0.00    -0.125 A  
HETATM   22  C   UNL     1      -8.705   9.908  63.767  1.00  0.00    -0.226 A  
ENDBRANCH  14  17
ENDBRANCH   2   3
TORSDOF 2
ENDMDL
MODEL       73
REMARK 921   NORMALIZED FREE ENERGY PREDICTED BY IDOCK:   -4.86 KCAL/MOL
REMARK 922        TOTAL FREE ENERGY PREDICTED BY IDOCK:   -5.85 KCAL/MOL
REMARK 923 INTER-LIGAND FREE ENERGY PREDICTED BY IDOCK:   -5.44 KCAL/MOL
REMARK 924 INTRA-LIGAND FREE ENERGY PREDICTED BY IDOCK:   -0.41 KCAL/MOL
REMARK 927      BINDING AFFINITY PREDICTED BY RF-SCORE:    0.00 PKD
ROOT
HETATM    1  C   UNL     1     -12.317  12.343  64.748  1.00  0.00    -0.497 C  
HETATM    2  C   UNL     1     -10.822  12.077  64.871  1.00  0.00    -0.301 C  
ENDROOT
BRANCH   2   3
HETATM    3  N   UNL     1     -10.122  13.241  65.452  1.00  0.00    -0.281 NA 
HETATM    4  C   UNL     1     -10.525  14.533  65.130  1.00  0.00    -0.416 C  
HETATM    5  C   UNL     1     -10.080  15.669  65.683  1.00  0.00    -0.395 C  
HETATM    6  C   UNL     1      -9.076  15.538  66.754  1.00  0.00    -0.255 C  
HETATM    7  C   UNL     1     -10.615  16.965  65.217  1.00  0.00    -0.120 C  
HETATM    8  O   UNL     1     -11.475  17.067  64.355  1.00  0.00    -1.048 OA 
HETATM    9  O   UNL     1     -10.074  18.045  65.824  1.00  0.00    -0.564 OA 
HETATM   10  O   UNL     1      -8.599  16.544  67.276  1.00  0.00    -0.177 OA 
HETATM   11  C   UNL     1      -8.673  14.176  67.175  1.00  0.00    -0.239 A  
HETATM   12  C   UNL     1      -9.182  13.056  66.493  1.00  0.00    -0.181 A  
HETATM   13  C   UNL     1      -8.704  11.794  66.902  1.00  0.00    -0.189 A  
HETATM   14  C   UNL     1      -7.817  11.616  67.991  1.00  0.00    -0.128 A  
HETATM   15  C   UNL     1      -7.797  14.040  68.256  1.00  0.00    -0.140 A  
HETATM   16  C   UNL     1      -7.393  12.771  68.668  1.00  0.00    -0.099 A  
BRANCH  14  17
HETATM   17  C   UNL     1      -7.351  10.265  68.399  1.00  0.00    -0.084 A  
HETATM   18  C   UNL     1      -7.687   9.717  69.647  1.00  0.00    -0.124 A  
HETATM   19  C   UNL     1      -7.232   8.450  69.986  1.00  0.00    -0.054 A  
HETATM   20  N   UNL     1      -6.458   7.692  69.187  1.00  0.00    -0.039 NA 
HETATM   21  C   UNL     1      -6.133   8.221  67.992  1.00  0.00    -0.047 A  
HETATM   22  C   UNL     1      -6.552   9.472  67.561  1.00  0.00    -0.063 A  
ENDBRANCH  14  17
ENDBRANCH   2   3
TORSDOF 2
ENDMDL
MODEL       74
REMARK 921   NORMALIZED FREE ENERGY PREDICTED BY IDOCK:   -4.85 KCAL/MOL
REMARK 922        TOTAL FREE ENERGY PREDICTED BY IDOCK:   -5.84 KCAL/MOL
REMARK 923 INTER-LIGAND FREE ENERGY PREDICTED BY IDOCK:   -5.41 KCAL/MOL
REMARK 924 INTRA-LIGAND FREE ENERGY PREDICTED BY IDOCK:   -0.43 KCAL/MOL
REMARK 927      BINDING AFFINITY PREDICTED BY RF-SCORE:    0.00 PKD
ROOT
HETATM    1  C   UNL     1      -9.334   9.107  70.640  1.00  0.00    -0.312 C  
HETATM    2  C   UNL     1     -10.036   8.948  69.297  1.00  0.00    -0.203 C  
ENDROOT
BRANCH   2   3
HETATM    3  N   UNL     1      -9.096   8.478  68.259  1.00  0.00    -0.139 NA 
HETATM    4  C   UNL     1      -8.269   7.387  68.506  1.00  0.00    -0.125 C  
HETATM    5  C   UNL     1      -7.476   6.770  67.620  1.00  0.00    -0.098 C  
HETATM    6  C   UNL     1      -7.496   7.283  66.239  1.00  0.00    -0.083 C  
HETATM    7  C   UNL     1      -6.653   5.622  68.055  1.00  0.00    -0.053 C  
HETATM    8  O   UNL     1      -6.667   5.176  69.193  1.00  0.00    -0.049 OA 
HETATM    9  O   UNL     1      -5.871   5.095  67.086  1.00  0.00    -0.023 OA 
HETATM   10  O   UNL     1      -6.763   6.784  65.387  1.00  0.00    -0.048 OA 
HETATM   11  C   UNL     1      -8.418   8.397  65.918  1.00  0.00    -0.159 A  
HETATM   12  C   UNL     1      -9.177   8.992  66.944  1.00  0.00    -0.142 A  
HETATM   13  C   UNL     1      -9.981  10.091  66.579  1.00  0.00    -0.286 A  
HETATM   14  C   UNL     1     -10.107  10.553  65.248  1.00  0.00    -0.369 A  
HETATM   15  C   UNL     1      -8.517   8.825  64.591  1.00  0.00    -0.169 A  
HETATM   16  C   UNL     1      -9.370   9.878  64.262  1.00  0.00    -0.313 A  
BRANCH  14  17
HETATM   17  C   UNL     1     -10.982  11.705  64.906  1.00  0.00    -0.345 A  
HETATM   18  C   UNL     1     -11.529  12.533  65.899  1.00  0.00    -0.417 A  
HETATM   19  C   UNL     1     -12.339  13.600  65.535  1.00  0.00    -0.482 A  
HETATM   20  N   UNL     1     -12.658  13.900  64.262  1.00  0.00    -0.684 NA 
HETATM   21  C   UNL     1     -12.136  13.102  63.311  1.00  0.00    -0.386 A  
HETATM   22  C   UNL     1     -11.306  12.022  63.578  1.00  0.00    -0.528 A  
ENDBRANCH  14  17
ENDBRANCH   2   3
TORSDOF 2
ENDMDL
MODEL       75
REMARK 921   NORMALIZED FREE ENERGY PREDICTED BY IDOCK:   -4.82 KCAL/MOL
REMARK 922        TOTAL FREE ENERGY PREDICTED BY IDOCK:   -5.80 KCAL/MOL
REMARK 923 INTER-LIGAND FREE ENERGY PREDICTED BY IDOCK:   -5.41 KCAL/MOL
REMARK 924 INTRA-LIGAND FREE ENERGY PREDICTED BY IDOCK:   -0.39 KCAL/MOL
REMARK 927      BINDING AFFINITY PREDICTED BY RF-SCORE:    0.00 PKD
ROOT
HETATM    1  C   UNL     1     -12.561  12.622  64.860  1.00  0.00    -0.525 C  
HETATM    2  C   UNL     1     -11.309  13.480  64.999  1.00  0.00    -0.320 C  
ENDROOT
BRANCH   2   3
HETATM    3  N   UNL     1     -10.342  12.861  65.928  1.00  0.00    -0.280 NA 
HETATM    4  C   UNL     1     -10.291  11.478  66.066  1.00  0.00    -0.246 C  
HETATM    5  C   UNL     1      -9.381  10.778  66.757  1.00  0.00    -0.182 C  
HETATM    6  C   UNL     1      -8.316  11.548  67.423  1.00  0.00    -0.148 C  
HETATM    7  C   UNL     1      -9.478   9.304  66.804  1.00  0.00    -0.175 C  
HETATM    8  O   UNL     1     -10.342   8.667  66.219  1.00  0.00    -0.214 OA 
HETATM    9  O   UNL     1      -8.526   8.704  67.553  1.00  0.00    -0.122 OA 
HETATM   10  O   UNL     1      -7.473  10.967  68.105  1.00  0.00    -0.086 OA 
HETATM   11  C   UNL     1      -8.294  13.018  67.241  1.00  0.00    -0.186 A  
HETATM   12  C   UNL     1      -9.327  13.647  66.522  1.00  0.00    -0.228 A  
HETATM   13  C   UNL     1      -9.278  15.054  66.446  1.00  0.00    -0.328 A  
HETATM   14  C   UNL     1      -8.221  15.824  66.984  1.00  0.00    -0.262 A  
HETATM   15  C   UNL     1      -7.232  13.745  67.786  1.00  0.00    -0.169 A  
HETATM   16  C   UNL     1      -7.190  15.130  67.637  1.00  0.00    -0.208 A  
BRANCH  14  17
HETATM   17  C   UNL     1      -8.202  17.306  66.866  1.00  0.00    -0.256 A  
HETATM   18  C   UNL     1      -7.203  17.974  66.141  1.00  0.00    -0.325 A  
HETATM   19  C   UNL     1      -7.225  19.359  66.055  1.00  0.00    -0.284 A  
HETATM   20  N   UNL     1      -8.156  20.133  66.645  1.00  0.00    -0.302 NA 
HETATM   21  C   UNL     1      -9.111  19.491  67.343  1.00  0.00    -0.309 A  
HETATM   22  C   UNL     1      -9.179  18.110  67.474  1.00  0.00    -0.257 A  
ENDBRANCH  14  17
ENDBRANCH   2   3
TORSDOF 2
ENDMDL
MODEL       76
REMARK 921   NORMALIZED FREE ENERGY PREDICTED BY IDOCK:   -4.81 KCAL/MOL
REMARK 922        TOTAL FREE ENERGY PREDICTED BY IDOCK:   -5.80 KCAL/MOL
REMARK 923 INTER-LIGAND FREE ENERGY PREDICTED BY IDOCK:   -5.38 KCAL/MOL
REMARK 924 INTRA-LIGAND FREE ENERGY PREDICTED BY IDOCK:   -0.41 KCAL/MOL
REMARK 927      BINDING AFFINITY PREDICTED BY RF-SCORE:    0.00 PKD
ROOT
HETATM    1  C   UNL     1     -11.779  15.871  71.456  1.00  0.00    -0.545 C  
HETATM    2  C   UNL     1     -11.886  15.407  70.008  1.00  0.00    -0.343 C  
ENDROOT
BRANCH   2   3
HETATM    3  N   UNL     1     -10.776  15.946  69.196  1.00  0.00    -0.240 NA 
HETATM    4  C   UNL     1     -10.479  17.304  69.229  1.00  0.00    -0.220 C  
HETATM    5  C   UNL     1      -9.425  17.905  68.660  1.00  0.00    -0.301 C  
HETATM    6  C   UNL     1      -8.473  17.038  67.944  1.00  0.00    -0.209 C  
HETATM    7  C   UNL     1      -9.263  19.368  68.789  1.00  0.00    -0.369 C  
HETATM    8  O   UNL     1     -10.036  20.078  69.416  1.00  0.00    -0.306 OA 
HETATM    9  O   UNL     1      -8.182  19.870  68.152  1.00  0.00    -0.302 OA 
HETATM   10  O   UNL     1      -7.505  17.532  67.367  1.00  0.00    -0.188 OA 
HETATM   11  C   UNL     1      -8.715  15.577  67.947  1.00  0.00    -0.163 A  
HETATM   12  C   UNL     1      -9.880  15.064  68.547  1.00  0.00    -0.217 A  
HETATM   13  C   UNL     1     -10.079  13.672  68.454  1.00  0.00    -0.241 A  
HETATM   14  C   UNL     1      -9.142  12.791  67.863  1.00  0.00    -0.204 A  
HETATM   15  C   UNL     1      -7.765  14.738  67.356  1.00  0.00    -0.230 A  
HETATM   16  C   UNL     1      -7.972  13.360  67.336  1.00  0.00    -0.170 A  
BRANCH  14  17
HETATM   17  C   UNL     1      -9.386  11.326  67.802  1.00  0.00    -0.163 A  
HETATM   18  C   UNL     1     -10.064  10.738  66.722  1.00  0.00    -0.267 A  
HETATM   19  C   UNL     1     -10.268   9.365  66.704  1.00  0.00    -0.249 A  
HETATM   20  N   UNL     1      -9.864   8.533  67.683  1.00  0.00    -0.163 NA 
HETATM   21  C   UNL     1      -9.218   9.100  68.720  1.00  0.00    -0.136 A  
HETATM   22  C   UNL     1      -8.956  10.460  68.818  1.00  0.00    -0.157 A  
ENDBRANCH  14  17
ENDBRANCH   2   3
TORSDOF 2
ENDMDL
MODEL       77
REMARK 921   NORMALIZED FREE ENERGY PREDICTED BY IDOCK:   -4.81 KCAL/MOL
REMARK 922        TOTAL FREE ENERGY PREDICTED BY IDOCK:   -5.79 KCAL/MOL
REMARK 923 INTER-LIGAND FREE ENERGY PREDICTED BY IDOCK:   -5.37 KCAL/MOL
REMARK 924 INTRA-LIGAND FREE ENERGY PREDICTED BY IDOCK:   -0.42 KCAL/MOL
REMARK 927      BINDING AFFINITY PREDICTED BY RF-SCORE:    0.00 PKD
ROOT
HETATM    1  C   UNL     1      -6.295  12.014  69.317  1.00  0.00    -0.102 C  
HETATM    2  C   UNL     1      -6.564  13.020  68.203  1.00  0.00    -0.103 C  
ENDROOT
BRANCH   2   3
HETATM    3  N   UNL     1      -8.007  13.097  67.897  1.00  0.00    -0.143 NA 
HETATM    4  C   UNL     1      -8.854  12.050  68.245  1.00  0.00    -0.182 C  
HETATM    5  C   UNL     1     -10.191  12.042  68.156  1.00  0.00    -0.203 C  
HETATM    6  C   UNL     1     -10.832  13.272  67.660  1.00  0.00    -0.258 C  
HETATM    7  C   UNL     1     -10.941  10.836  68.567  1.00  0.00    -0.243 C  
HETATM    8  O   UNL     1     -10.407   9.831  69.013  1.00  0.00    -0.190 OA 
HETATM    9  O   UNL     1     -12.280  10.929  68.409  1.00  0.00    -0.540 OA 
HETATM   10  O   UNL     1     -12.053  13.315  67.520  1.00  0.00    -0.343 OA 
HETATM   11  C   UNL     1      -9.970  14.435  67.347  1.00  0.00    -0.242 A  
HETATM   12  C   UNL     1      -8.571  14.312  67.442  1.00  0.00    -0.213 A  
HETATM   13  C   UNL     1      -7.810  15.437  67.064  1.00  0.00    -0.244 A  
HETATM   14  C   UNL     1      -8.387  16.670  66.677  1.00  0.00    -0.296 A  
HETATM   15  C   UNL     1     -10.575  15.637  66.970  1.00  0.00    -0.311 A  
HETATM   16  C   UNL     1      -9.788  16.745  66.661  1.00  0.00    -0.287 A  
BRANCH  14  17
HETATM   17  C   UNL     1      -7.545  17.836  66.303  1.00  0.00    -0.322 A  
HETATM   18  C   UNL     1      -8.091  19.121  66.154  1.00  0.00    -0.277 A  
HETATM   19  C   UNL     1      -7.267  20.182  65.804  1.00  0.00    -0.282 A  
HETATM   20  N   UNL     1      -5.946  20.063  65.578  1.00  0.00    -0.180 NA 
HETATM   21  C   UNL     1      -5.424  18.830  65.717  1.00  0.00    -0.159 A  
HETATM   22  C   UNL     1      -6.165  17.712  66.076  1.00  0.00    -0.247 A  
ENDBRANCH  14  17
ENDBRANCH   2   3
TORSDOF 2
ENDMDL
MODEL       78
REMARK 921   NORMALIZED FREE ENERGY PREDICTED BY IDOCK:   -4.78 KCAL/MOL
REMARK 922        TOTAL FREE ENERGY PREDICTED BY IDOCK:   -5.76 KCAL/MOL
REMARK 923 INTER-LIGAND FREE ENERGY PREDICTED BY IDOCK:   -5.35 KCAL/MOL
REMARK 924 INTRA-LIGAND FREE ENERGY PREDICTED BY IDOCK:   -0.41 KCAL/MOL
REMARK 927      BINDING AFFINITY PREDICTED BY RF-SCORE:    0.00 PKD
ROOT
HETATM    1  C   UNL     1      -9.399   8.746  72.046  1.00  0.00    -0.322 C  
HETATM    2  C   UNL     1     -10.831   8.568  71.556  1.00  0.00    -0.263 C  
ENDROOT
BRANCH   2   3
HETATM    3  N   UNL     1     -11.025   9.209  70.240  1.00  0.00    -0.239 NA 
HETATM    4  C   UNL     1     -11.371  10.554  70.159  1.00  0.00    -0.323 C  
HETATM    5  C   UNL     1     -11.442  11.294  69.045  1.00  0.00    -0.369 C  
HETATM    6  C   UNL     1     -11.099  10.623  67.778  1.00  0.00    -0.321 C  
HETATM    7  C   UNL     1     -11.832  12.717  69.139  1.00  0.00    -0.297 C  
HETATM    8  O   UNL     1     -12.079  13.278  70.196  1.00  0.00    -0.336 OA 
HETATM    9  O   UNL     1     -11.899  13.358  67.951  1.00  0.00    -0.339 OA 
HETATM   10  O   UNL     1     -11.182  11.238  66.716  1.00  0.00    -0.286 OA 
HETATM   11  C   UNL     1     -10.657   9.211  67.829  1.00  0.00    -0.289 A  
HETATM   12  C   UNL     1     -10.659   8.524  69.058  1.00  0.00    -0.154 A  
HETATM   13  C   UNL     1     -10.291   7.163  69.021  1.00  0.00    -0.204 A  
HETATM   14  C   UNL     1      -9.860   6.507  67.844  1.00  0.00    -0.134 A  
HETATM   15  C   UNL     1     -10.236   8.596  66.646  1.00  0.00    -0.343 A  
HETATM   16  C   UNL     1      -9.823   7.265  66.664  1.00  0.00    -0.257 A  
BRANCH  14  17
HETATM   17  C   UNL     1      -9.464   5.074  67.856  1.00  0.00    -0.164 A  
HETATM   18  C   UNL     1      -9.514   4.306  69.030  1.00  0.00    -0.242 A  
HETATM   19  C   UNL     1      -9.137   2.971  68.995  1.00  0.00    -0.144 A  
HETATM   20  N   UNL     1      -8.701   2.343  67.887  1.00  0.00    -0.098 NA 
HETATM   21  C   UNL     1      -8.649   3.082  66.762  1.00  0.00    -0.113 A  
HETATM   22  C   UNL     1      -9.019   4.418  66.698  1.00  0.00    -0.117 A  
ENDBRANCH  14  17
ENDBRANCH   2   3
TORSDOF 2
ENDMDL
MODEL       79
REMARK 921   NORMALIZED FREE ENERGY PREDICTED BY IDOCK:   -4.74 KCAL/MOL
REMARK 922        TOTAL FREE ENERGY PREDICTED BY IDOCK:   -5.72 KCAL/MOL
REMARK 923 INTER-LIGAND FREE ENERGY PREDICTED BY IDOCK:   -5.30 KCAL/MOL
REMARK 924 INTRA-LIGAND FREE ENERGY PREDICTED BY IDOCK:   -0.42 KCAL/MOL
REMARK 927      BINDING AFFINITY PREDICTED BY RF-SCORE:    0.00 PKD
ROOT
HETATM    1  C   UNL     1      -9.832   6.306  70.602  1.00  0.00    -0.213 C  
HETATM    2  C   UNL     1     -10.113   6.831  69.199  1.00  0.00    -0.171 C  
ENDROOT
BRANCH   2   3
HETATM    3  N   UNL     1     -10.815   8.130  69.249  1.00  0.00    -0.119 NA 
HETATM    4  C   UNL     1     -11.492   8.515  70.402  1.00  0.00    -0.126 C  
HETATM    5  C   UNL     1     -12.049   9.711  70.638  1.00  0.00    -0.269 C  
HETATM    6  C   UNL     1     -11.914  10.728  69.580  1.00  0.00    -0.292 C  
HETATM    7  C   UNL     1     -12.739   9.952  71.923  1.00  0.00    -0.409 C  
HETATM    8  O   UNL     1     -12.816   9.117  72.812  1.00  0.00    -0.311 OA 
HETATM    9  O   UNL     1     -13.288  11.182  72.041  1.00  0.00    -0.454 OA 
HETATM   10  O   UNL     1     -12.436  11.833  69.720  1.00  0.00    -0.132 OA 
HETATM   11  C   UNL     1     -11.138  10.380  68.367  1.00  0.00    -0.322 A  
HETATM   12  C   UNL     1     -10.631   9.076  68.214  1.00  0.00    -0.163 A  
HETATM   13  C   UNL     1      -9.961   8.796  67.006  1.00  0.00    -0.307 A  
HETATM   14  C   UNL     1      -9.722   9.770  66.007  1.00  0.00    -0.319 A  
HETATM   15  C   UNL     1     -10.921  11.369  67.404  1.00  0.00    -0.326 A  
HETATM   16  C   UNL     1     -10.202  11.067  66.248  1.00  0.00    -0.295 A  
BRANCH  14  17
HETATM   17  C   UNL     1      -8.995   9.434  64.755  1.00  0.00    -0.241 A  
HETATM   18  C   UNL     1      -8.115   8.343  64.685  1.00  0.00    -0.156 A  
HETATM   19  C   UNL     1      -7.458   8.064  63.494  1.00  0.00    -0.122 A  
HETATM   20  N   UNL     1      -7.599   8.794  62.371  1.00  0.00    -0.106 NA 
HETATM   21  C   UNL     1      -8.440   9.843  62.441  1.00  0.00    -0.159 A  
HETATM   22  C   UNL     1      -9.150  10.190  63.582  1.00  0.00    -0.289 A  
ENDBRANCH  14  17
ENDBRANCH   2   3
TORSDOF 2
ENDMDL
MODEL       80
REMARK 921   NORMALIZED FREE ENERGY PREDICTED BY IDOCK:   -4.70 KCAL/MOL
REMARK 922        TOTAL FREE ENERGY PREDICTED BY IDOCK:   -5.67 KCAL/MOL
REMARK 923 INTER-LIGAND FREE ENERGY PREDICTED BY IDOCK:   -5.25 KCAL/MOL
REMARK 924 INTRA-LIGAND FREE ENERGY PREDICTED BY IDOCK:   -0.42 KCAL/MOL
REMARK 927      BINDING AFFINITY PREDICTED BY RF-SCORE:    0.00 PKD
ROOT
HETATM    1  C   UNL     1      -9.079  11.044  64.634  1.00  0.00    -0.138 C  
HETATM    2  C   UNL     1     -10.455  10.599  65.114  1.00  0.00    -0.201 C  
ENDROOT
BRANCH   2   3
HETATM    3  N   UNL     1     -10.667  10.964  66.530  1.00  0.00    -0.238 NA 
HETATM    4  C   UNL     1     -11.087  12.247  66.867  1.00  0.00    -0.290 C  
HETATM    5  C   UNL     1     -11.450  12.674  68.084  1.00  0.00    -0.359 C  
HETATM    6  C   UNL     1     -11.422  11.681  69.172  1.00  0.00    -0.300 C  
HETATM    7  C   UNL     1     -11.868  14.080  68.268  1.00  0.00    -0.371 C  
HETATM    8  O   UNL     1     -11.925  14.889  67.354  1.00  0.00    -0.309 OA 
HETATM    9  O   UNL     1     -12.185  14.407  69.540  1.00  0.00    -0.316 OA 
HETATM   10  O   UNL     1     -11.707  12.019  70.320  1.00  0.00    -0.292 OA 
HETATM   11  C   UNL     1     -11.049  10.286  68.840  1.00  0.00    -0.278 A  
HETATM   12  C   UNL     1     -10.649   9.964  67.530  1.00  0.00    -0.275 A  
HETATM   13  C   UNL     1     -10.243   8.634  67.302  1.00  0.00    -0.337 A  
HETATM   14  C   UNL     1     -10.296   7.625  68.293  1.00  0.00    -0.238 A  
HETATM   15  C   UNL     1     -11.115   9.317  69.845  1.00  0.00    -0.200 A  
HETATM   16  C   UNL     1     -10.761   7.999  69.564  1.00  0.00    -0.185 A  
BRANCH  14  17
HETATM   17  C   UNL     1      -9.873   6.230  68.003  1.00  0.00    -0.128 A  
HETATM   18  C   UNL     1      -8.874   5.592  68.755  1.00  0.00    -0.109 A  
HETATM   19  C   UNL     1      -8.512   4.287  68.451  1.00  0.00    -0.092 A  
HETATM   20  N   UNL     1      -9.056   3.571  67.448  1.00  0.00    -0.151 NA 
HETATM   21  C   UNL     1     -10.012   4.186  66.725  1.00  0.00    -0.106 A  
HETATM   22  C   UNL     1     -10.449   5.482  66.964  1.00  0.00    -0.336 A  
ENDBRANCH  14  17
ENDBRANCH   2   3
TORSDOF 2
ENDMDL
MODEL       81
REMARK 921   NORMALIZED FREE ENERGY PREDICTED BY IDOCK:   -4.65 KCAL/MOL
REMARK 922        TOTAL FREE ENERGY PREDICTED BY IDOCK:   -5.61 KCAL/MOL
REMARK 923 INTER-LIGAND FREE ENERGY PREDICTED BY IDOCK:   -5.20 KCAL/MOL
REMARK 924 INTRA-LIGAND FREE ENERGY PREDICTED BY IDOCK:   -0.42 KCAL/MOL
REMARK 927      BINDING AFFINITY PREDICTED BY RF-SCORE:    0.00 PKD
ROOT
HETATM    1  C   UNL     1     -12.164  10.342  71.420  1.00  0.00    -0.481 C  
HETATM    2  C   UNL     1     -11.719   9.264  70.438  1.00  0.00    -0.114 C  
ENDROOT
BRANCH   2   3
HETATM    3  N   UNL     1     -10.271   9.362  70.163  1.00  0.00    -0.213 NA 
HETATM    4  C   UNL     1      -9.357   8.717  70.988  1.00  0.00    -0.202 C  
HETATM    5  C   UNL     1      -8.037   8.603  70.782  1.00  0.00    -0.141 C  
HETATM    6  C   UNL     1      -7.503   9.205  69.548  1.00  0.00    -0.077 C  
HETATM    7  C   UNL     1      -7.205   7.883  71.769  1.00  0.00    -0.071 C  
HETATM    8  O   UNL     1      -7.660   7.353  72.773  1.00  0.00    -0.074 OA 
HETATM    9  O   UNL     1      -5.887   7.855  71.475  1.00  0.00    -0.035 OA 
HETATM   10  O   UNL     1      -6.295   9.168  69.320  1.00  0.00    -0.041 OA 
HETATM   11  C   UNL     1      -8.455   9.839  68.607  1.00  0.00    -0.116 A  
HETATM   12  C   UNL     1      -9.817   9.932  68.950  1.00  0.00    -0.176 A  
HETATM   13  C   UNL     1     -10.654  10.608  68.039  1.00  0.00    -0.248 A  
HETATM   14  C   UNL     1     -10.201  11.113  66.797  1.00  0.00    -0.272 A  
HETATM   15  C   UNL     1      -7.972  10.325  67.389  1.00  0.00    -0.107 A  
HETATM   16  C   UNL     1      -8.843  10.935  66.489  1.00  0.00    -0.169 A  
BRANCH  14  17
HETATM   17  C   UNL     1     -11.123  11.805  65.859  1.00  0.00    -0.355 A  
HETATM   18  C   UNL     1     -11.931  12.875  66.276  1.00  0.00    -0.472 A  
HETATM   19  C   UNL     1     -12.777  13.494  65.366  1.00  0.00    -0.442 A  
HETATM   20  N   UNL     1     -12.892  13.123  64.077  1.00  0.00    -0.588 NA 
HETATM   21  C   UNL     1     -12.120  12.093  63.679  1.00  0.00    -0.551 A  
HETATM   22  C   UNL     1     -11.236  11.423  64.513  1.00  0.00    -0.251 A  
ENDBRANCH  14  17
ENDBRANCH   2   3
TORSDOF 2
ENDMDL
MODEL       82
REMARK 921   NORMALIZED FREE ENERGY PREDICTED BY IDOCK:   -4.62 KCAL/MOL
REMARK 922        TOTAL FREE ENERGY PREDICTED BY IDOCK:   -5.58 KCAL/MOL
REMARK 923 INTER-LIGAND FREE ENERGY PREDICTED BY IDOCK:   -5.19 KCAL/MOL
REMARK 924 INTRA-LIGAND FREE ENERGY PREDICTED BY IDOCK:   -0.39 KCAL/MOL
REMARK 927      BINDING AFFINITY PREDICTED BY RF-SCORE:    0.00 PKD
ROOT
HETATM    1  C   UNL     1     -12.813  10.996  71.331  1.00  0.00    -0.548 C  
HETATM    2  C   UNL     1     -11.543  10.158  71.253  1.00  0.00    -0.306 C  
ENDROOT
BRANCH   2   3
HETATM    3  N   UNL     1     -11.213   9.824  69.852  1.00  0.00    -0.242 NA 
HETATM    4  C   UNL     1     -11.416  10.759  68.843  1.00  0.00    -0.293 C  
HETATM    5  C   UNL     1     -11.037  10.648  67.563  1.00  0.00    -0.367 C  
HETATM    6  C   UNL     1     -10.313   9.419  67.189  1.00  0.00    -0.258 C  
HETATM    7  C   UNL     1     -11.339  11.741  66.615  1.00  0.00    -0.316 C  
HETATM    8  O   UNL     1     -11.906  12.774  66.939  1.00  0.00    -0.376 OA 
HETATM    9  O   UNL     1     -10.936  11.509  65.346  1.00  0.00    -0.282 OA 
HETATM   10  O   UNL     1      -9.971   9.239  66.022  1.00  0.00    -0.290 OA 
HETATM   11  C   UNL     1     -10.014   8.431  68.251  1.00  0.00    -0.214 A  
HETATM   12  C   UNL     1     -10.498   8.640  69.556  1.00  0.00    -0.220 A  
HETATM   13  C   UNL     1     -10.234   7.626  70.498  1.00  0.00    -0.201 A  
HETATM   14  C   UNL     1      -9.458   6.479  70.208  1.00  0.00    -0.169 A  
HETATM   15  C   UNL     1      -9.243   7.311  67.926  1.00  0.00    -0.131 A  
HETATM   16  C   UNL     1      -8.954   6.360  68.903  1.00  0.00    -0.123 A  
BRANCH  14  17
HETATM   17  C   UNL     1      -9.190   5.442  71.239  1.00  0.00    -0.173 A  
HETATM   18  C   UNL     1      -8.444   5.728  72.393  1.00  0.00    -0.118 A  
HETATM   19  C   UNL     1      -8.219   4.730  73.332  1.00  0.00    -0.103 A  
HETATM   20  N   UNL     1      -8.666   3.467  73.205  1.00  0.00    -0.081 NA 
HETATM   21  C   UNL     1      -9.377   3.193  72.095  1.00  0.00    -0.119 A  
HETATM   22  C   UNL     1      -9.664   4.128  71.110  1.00  0.00    -0.258 A  
ENDBRANCH  14  17
ENDBRANCH   2   3
TORSDOF 2
ENDMDL
MODEL       83
REMARK 921   NORMALIZED FREE ENERGY PREDICTED BY IDOCK:   -4.42 KCAL/MOL
REMARK 922        TOTAL FREE ENERGY PREDICTED BY IDOCK:   -5.36 KCAL/MOL
REMARK 923 INTER-LIGAND FREE ENERGY PREDICTED BY IDOCK:   -4.93 KCAL/MOL
REMARK 924 INTRA-LIGAND FREE ENERGY PREDICTED BY IDOCK:   -0.43 KCAL/MOL
REMARK 927      BINDING AFFINITY PREDICTED BY RF-SCORE:    0.00 PKD
ROOT
HETATM    1  C   UNL     1     -11.886  12.400  68.188  1.00  0.00    -0.372 C  
HETATM    2  C   UNL     1     -10.555  11.946  68.776  1.00  0.00    -0.206 C  
ENDROOT
BRANCH   2   3
HETATM    3  N   UNL     1     -10.582  10.504  69.097  1.00  0.00    -0.214 NA 
HETATM    4  C   UNL     1     -11.247  10.053  70.232  1.00  0.00    -0.313 C  
HETATM    5  C   UNL     1     -11.471   8.776  70.571  1.00  0.00    -0.222 C  
HETATM    6  C   UNL     1     -10.982   7.745  69.637  1.00  0.00    -0.122 C  
HETATM    7  C   UNL     1     -12.194   8.470  71.823  1.00  0.00    -0.334 C  
HETATM    8  O   UNL     1     -12.630   9.329  72.575  1.00  0.00    -0.314 OA 
HETATM    9  O   UNL     1     -12.338   7.150  72.078  1.00  0.00    -0.304 OA 
HETATM   10  O   UNL     1     -11.123   6.554  69.909  1.00  0.00    -0.302 OA 
HETATM   11  C   UNL     1     -10.333   8.187  68.382  1.00  0.00    -0.236 A  
HETATM   12  C   UNL     1     -10.118   9.559  68.153  1.00  0.00    -0.182 A  
HETATM   13  C   UNL     1      -9.434   9.903  66.969  1.00  0.00    -0.196 A  
HETATM   14  C   UNL     1      -9.036   8.954  65.998  1.00  0.00    -0.265 A  
HETATM   15  C   UNL     1      -9.955   7.220  67.445  1.00  0.00    -0.228 A  
HETATM   16  C   UNL     1      -9.334   7.607  66.260  1.00  0.00    -0.189 A  
BRANCH  14  17
HETATM   17  C   UNL     1      -8.332   9.364  64.756  1.00  0.00    -0.159 A  
HETATM   18  C   UNL     1      -6.958   9.135  64.579  1.00  0.00    -0.090 A  
HETATM   19  C   UNL     1      -6.340   9.533  63.401  1.00  0.00    -0.101 A  
HETATM   20  N   UNL     1      -6.979  10.153  62.391  1.00  0.00    -0.116 NA 
HETATM   21  C   UNL     1      -8.296  10.376  62.564  1.00  0.00    -0.180 A  
HETATM   22  C   UNL     1      -9.001  10.002  63.700  1.00  0.00    -0.280 A  
ENDBRANCH  14  17
ENDBRANCH   2   3
TORSDOF 2
ENDMDL
MODEL       84
REMARK 921   NORMALIZED FREE ENERGY PREDICTED BY IDOCK:   -4.36 KCAL/MOL
REMARK 922        TOTAL FREE ENERGY PREDICTED BY IDOCK:   -5.29 KCAL/MOL
REMARK 923 INTER-LIGAND FREE ENERGY PREDICTED BY IDOCK:   -4.95 KCAL/MOL
REMARK 924 INTRA-LIGAND FREE ENERGY PREDICTED BY IDOCK:   -0.34 KCAL/MOL
REMARK 927      BINDING AFFINITY PREDICTED BY RF-SCORE:    0.00 PKD
ROOT
HETATM    1  C   UNL     1     -12.379  13.912  66.089  1.00  0.00    -0.504 C  
HETATM    2  C   UNL     1     -11.239  14.502  65.268  1.00  0.00    -0.352 C  
ENDROOT
BRANCH   2   3
HETATM    3  N   UNL     1     -10.267  15.199  66.135  1.00  0.00    -0.278 NA 
HETATM    4  C   UNL     1     -10.422  16.553  66.414  1.00  0.00    -0.274 C  
HETATM    5  C   UNL     1      -9.706  17.275  67.287  1.00  0.00    -0.262 C  
HETATM    6  C   UNL     1      -8.662  16.560  68.042  1.00  0.00    -0.189 C  
HETATM    7  C   UNL     1     -10.001  18.713  67.458  1.00  0.00    -0.338 C  
HETATM    8  O   UNL     1     -10.893  19.293  66.855  1.00  0.00    -0.450 OA 
HETATM    9  O   UNL     1      -9.199  19.348  68.341  1.00  0.00    -0.334 OA 
HETATM   10  O   UNL     1      -7.945  17.174  68.831  1.00  0.00    -0.256 OA 
HETATM   11  C   UNL     1      -8.513  15.102  67.827  1.00  0.00    -0.156 A  
HETATM   12  C   UNL     1      -9.300  14.458  66.853  1.00  0.00    -0.256 A  
HETATM   13  C   UNL     1      -9.058  13.083  66.654  1.00  0.00    -0.181 A  
HETATM   14  C   UNL     1      -8.136  12.337  67.427  1.00  0.00    -0.175 A  
HETATM   15  C   UNL     1      -7.594  14.398  68.610  1.00  0.00    -0.132 A  
HETATM   16  C   UNL     1      -7.427  13.028  68.422  1.00  0.00    -0.128 A  
BRANCH  14  17
HETATM   17  C   UNL     1      -7.926  10.884  67.193  1.00  0.00    -0.127 A  
HETATM   18  C   UNL     1      -8.549   9.913  67.991  1.00  0.00    -0.121 A  
HETATM   19  C   UNL     1      -8.326   8.566  67.737  1.00  0.00    -0.130 A  
HETATM   20  N   UNL     1      -7.520   8.111  66.759  1.00  0.00    -0.089 NA 
HETATM   21  C   UNL     1      -6.919   9.045  65.996  1.00  0.00    -0.085 A  
HETATM   22  C   UNL     1      -7.093  10.412  66.167  1.00  0.00    -0.130 A  
ENDBRANCH  14  17
ENDBRANCH   2   3
TORSDOF 2
ENDMDL
MODEL       85
REMARK 921   NORMALIZED FREE ENERGY PREDICTED BY IDOCK:   -4.26 KCAL/MOL
REMARK 922        TOTAL FREE ENERGY PREDICTED BY IDOCK:   -5.18 KCAL/MOL
REMARK 923 INTER-LIGAND FREE ENERGY PREDICTED BY IDOCK:   -4.79 KCAL/MOL
REMARK 924 INTRA-LIGAND FREE ENERGY PREDICTED BY IDOCK:   -0.39 KCAL/MOL
REMARK 927      BINDING AFFINITY PREDICTED BY RF-SCORE:    0.00 PKD
ROOT
HETATM    1  C   UNL     1      -5.672  14.508  68.394  1.00  0.00    -0.106 C  
HETATM    2  C   UNL     1      -6.719  13.414  68.225  1.00  0.00    -0.105 C  
ENDROOT
BRANCH   2   3
HETATM    3  N   UNL     1      -8.021  13.984  67.823  1.00  0.00    -0.155 NA 
HETATM    4  C   UNL     1      -8.218  15.361  67.840  1.00  0.00    -0.144 C  
HETATM    5  C   UNL     1      -9.287  16.020  67.373  1.00  0.00    -0.220 C  
HETATM    6  C   UNL     1     -10.354  15.208  66.762  1.00  0.00    -0.273 C  
HETATM    7  C   UNL     1      -9.337  17.494  67.476  1.00  0.00    -0.246 C  
HETATM    8  O   UNL     1      -8.432  18.166  67.950  1.00  0.00    -0.244 OA 
HETATM    9  O   UNL     1     -10.473  18.050  67.001  1.00  0.00    -0.362 OA 
HETATM   10  O   UNL     1     -11.379  15.750  66.350  1.00  0.00    -0.069 OA 
HETATM   11  C   UNL     1     -10.151  13.744  66.660  1.00  0.00    -0.277 A  
HETATM   12  C   UNL     1      -9.000  13.159  67.221  1.00  0.00    -0.216 A  
HETATM   13  C   UNL     1      -8.905  11.755  67.146  1.00  0.00    -0.173 A  
HETATM   14  C   UNL     1      -9.857  10.946  66.481  1.00  0.00    -0.245 A  
HETATM   15  C   UNL     1     -11.112  12.979  65.993  1.00  0.00    -0.301 A  
HETATM   16  C   UNL     1     -10.950  11.598  65.890  1.00  0.00    -0.334 A  
BRANCH  14  17
HETATM   17  C   UNL     1      -9.707   9.469  66.412  1.00  0.00    -0.295 A  
HETATM   18  C   UNL     1     -10.430   8.616  67.261  1.00  0.00    -0.360 A  
HETATM   19  C   UNL     1     -10.260   7.241  67.161  1.00  0.00    -0.269 A  
HETATM   20  N   UNL     1      -9.417   6.650  66.293  1.00  0.00    -0.122 NA 
HETATM   21  C   UNL     1      -8.721   7.471  65.483  1.00  0.00    -0.035 A  
HETATM   22  C   UNL     1      -8.835   8.854  65.501  1.00  0.00    -0.238 A  
ENDBRANCH  14  17
ENDBRANCH   2   3
TORSDOF 2
ENDMDL
MODEL       86
REMARK 921   NORMALIZED FREE ENERGY PREDICTED BY IDOCK:   -4.25 KCAL/MOL
REMARK 922        TOTAL FREE ENERGY PREDICTED BY IDOCK:   -5.17 KCAL/MOL
REMARK 923 INTER-LIGAND FREE ENERGY PREDICTED BY IDOCK:   -4.77 KCAL/MOL
REMARK 924 INTRA-LIGAND FREE ENERGY PREDICTED BY IDOCK:   -0.40 KCAL/MOL
REMARK 927      BINDING AFFINITY PREDICTED BY RF-SCORE:    0.00 PKD
ROOT
HETATM    1  C   UNL     1      -7.129   9.308  68.569  1.00  0.00    -0.071 C  
HETATM    2  C   UNL     1      -7.718  10.594  68.001  1.00  0.00    -0.100 C  
ENDROOT
BRANCH   2   3
HETATM    3  N   UNL     1      -8.077  10.429  66.578  1.00  0.00    -0.118 NA 
HETATM    4  C   UNL     1      -7.847   9.218  65.933  1.00  0.00    -0.099 C  
HETATM    5  C   UNL     1      -8.246   8.883  64.699  1.00  0.00    -0.163 C  
HETATM    6  C   UNL     1      -9.024   9.889  63.955  1.00  0.00    -0.243 C  
HETATM    7  C   UNL     1      -7.910   7.547  64.163  1.00  0.00    -0.130 C  
HETATM    8  O   UNL     1      -7.297   6.702  64.798  1.00  0.00    -0.073 OA 
HETATM    9  O   UNL     1      -8.337   7.327  62.899  1.00  0.00    -0.032 OA 
HETATM   10  O   UNL     1      -9.387   9.657  62.803  1.00  0.00    -0.247 OA 
HETATM   11  C   UNL     1      -9.352  11.164  64.633  1.00  0.00    -0.200 A  
HETATM   12  C   UNL     1      -8.844  11.420  65.921  1.00  0.00    -0.145 A  
HETATM   13  C   UNL     1      -9.139  12.681  66.478  1.00  0.00    -0.163 A  
HETATM   14  C   UNL     1      -9.965  13.637  65.841  1.00  0.00    -0.304 A  
HETATM   15  C   UNL     1     -10.172  12.084  63.974  1.00  0.00    -0.391 A  
HETATM   16  C   UNL     1     -10.489  13.296  64.584  1.00  0.00    -0.420 A  
BRANCH  14  17
HETATM   17  C   UNL     1     -10.264  14.948  66.474  1.00  0.00    -0.281 A  
HETATM   18  C   UNL     1     -10.684  15.042  67.810  1.00  0.00    -0.278 A  
HETATM   19  C   UNL     1     -10.951  16.287  68.362  1.00  0.00    -0.351 A  
HETATM   20  N   UNL     1     -10.845  17.446  67.685  1.00  0.00    -0.300 NA 
HETATM   21  C   UNL     1     -10.446  17.354  66.402  1.00  0.00    -0.267 A  
HETATM   22  C   UNL     1     -10.144  16.156  65.769  1.00  0.00    -0.390 A  
ENDBRANCH  14  17
ENDBRANCH   2   3
TORSDOF 2
ENDMDL
MODEL       87
REMARK 921   NORMALIZED FREE ENERGY PREDICTED BY IDOCK:   -4.22 KCAL/MOL
REMARK 922        TOTAL FREE ENERGY PREDICTED BY IDOCK:   -5.13 KCAL/MOL
REMARK 923 INTER-LIGAND FREE ENERGY PREDICTED BY IDOCK:   -4.69 KCAL/MOL
REMARK 924 INTRA-LIGAND FREE ENERGY PREDICTED BY IDOCK:   -0.43 KCAL/MOL
REMARK 927      BINDING AFFINITY PREDICTED BY RF-SCORE:    0.00 PKD
ROOT
HETATM    1  C   UNL     1      -9.908   8.723  65.657  1.00  0.00     0.107 C  
HETATM    2  C   UNL     1     -10.410   9.774  66.640  1.00  0.00    -0.206 C  
ENDROOT
BRANCH   2   3
HETATM    3  N   UNL     1     -10.393  11.120  66.031  1.00  0.00    -0.248 NA 
HETATM    4  C   UNL     1     -11.285  11.440  65.014  1.00  0.00    -0.089 C  
HETATM    5  C   UNL     1     -11.476  12.650  64.471  1.00  0.00    -0.389 C  
HETATM    6  C   UNL     1     -10.676  13.758  65.019  1.00  0.00    -0.382 C  
HETATM    7  C   UNL     1     -12.468  12.813  63.387  1.00  0.00    -0.339 C  
HETATM    8  O   UNL     1     -13.156  11.897  62.961  1.00  0.00    -0.500 OA 
HETATM    9  O   UNL     1     -12.557  14.069  62.895  1.00  0.00    -0.523 OA 
HETATM   10  O   UNL     1     -10.777  14.886  64.538  1.00  0.00    -0.301 OA 
HETATM   11  C   UNL     1      -9.766  13.473  66.153  1.00  0.00    -0.264 A  
HETATM   12  C   UNL     1      -9.621  12.152  66.615  1.00  0.00    -0.220 A  
HETATM   13  C   UNL     1      -8.687  11.943  67.651  1.00  0.00    -0.162 A  
HETATM   14  C   UNL     1      -7.972  12.993  68.274  1.00  0.00    -0.151 A  
HETATM   15  C   UNL     1      -9.077  14.536  66.744  1.00  0.00    -0.283 A  
HETATM   16  C   UNL     1      -8.207  14.295  67.806  1.00  0.00    -0.178 A  
BRANCH  14  17
HETATM   17  C   UNL     1      -7.010  12.729  69.375  1.00  0.00     0.110 A  
HETATM   18  C   UNL     1      -6.744  11.425  69.824  1.00  0.00    -0.076 A  
HETATM   19  C   UNL     1      -5.837  11.224  70.855  1.00  0.00     0.028 A  
HETATM   20  N   UNL     1      -5.182  12.218  71.483  1.00  0.00    -0.344 NA 
HETATM   21  C   UNL     1      -5.441  13.468  71.055  1.00  0.00    -0.197 A  
HETATM   22  C   UNL     1      -6.321  13.766  70.023  1.00  0.00    -0.084 A  
ENDBRANCH  14  17
ENDBRANCH   2   3
TORSDOF 2
ENDMDL
MODEL       88
REMARK 921   NORMALIZED FREE ENERGY PREDICTED BY IDOCK:   -4.21 KCAL/MOL
REMARK 922        TOTAL FREE ENERGY PREDICTED BY IDOCK:   -5.12 KCAL/MOL
REMARK 923 INTER-LIGAND FREE ENERGY PREDICTED BY IDOCK:   -4.71 KCAL/MOL
REMARK 924 INTRA-LIGAND FREE ENERGY PREDICTED BY IDOCK:   -0.41 KCAL/MOL
REMARK 927      BINDING AFFINITY PREDICTED BY RF-SCORE:    0.00 PKD
ROOT
HETATM    1  C   UNL     1      -6.484  10.173  70.624  1.00  0.00    -0.086 C  
HETATM    2  C   UNL     1      -7.427   9.563  69.594  1.00  0.00    -0.092 C  
ENDROOT
BRANCH   2   3
HETATM    3  N   UNL     1      -8.783  10.137  69.710  1.00  0.00    -0.169 NA 
HETATM    4  C   UNL     1      -9.141  11.245  68.950  1.00  0.00    -0.053 C  
HETATM    5  C   UNL     1     -10.365  11.782  68.849  1.00  0.00    -0.151 C  
HETATM    6  C   UNL     1     -11.445  11.121  69.603  1.00  0.00    -0.310 C  
HETATM    7  C   UNL     1     -10.571  12.970  67.994  1.00  0.00    -0.235 C  
HETATM    8  O   UNL     1      -9.680  13.492  67.342  1.00  0.00    -0.220 OA 
HETATM    9  O   UNL     1     -11.838  13.443  67.990  1.00  0.00    -0.337 OA 
HETATM   10  O   UNL     1     -12.583  11.587  69.582  1.00  0.00    -0.083 OA 
HETATM   11  C   UNL     1     -11.118   9.895  70.368  1.00  0.00    -0.382 A  
HETATM   12  C   UNL     1      -9.785   9.447  70.430  1.00  0.00    -0.261 A  
HETATM   13  C   UNL     1      -9.537   8.314  71.231  1.00  0.00    -0.219 A  
HETATM   14  C   UNL     1     -10.558   7.590  71.891  1.00  0.00    -0.245 A  
HETATM   15  C   UNL     1     -12.154   9.206  71.004  1.00  0.00    -0.324 A  
HETATM   16  C   UNL     1     -11.874   8.055  71.739  1.00  0.00    -0.339 A  
BRANCH  14  17
HETATM   17  C   UNL     1     -10.251   6.389  72.712  1.00  0.00    -0.204 A  
HETATM   18  C   UNL     1      -9.031   6.256  73.393  1.00  0.00    -0.128 A  
HETATM   19  C   UNL     1      -8.787   5.118  74.150  1.00  0.00    -0.113 A  
HETATM   20  N   UNL     1      -9.656   4.097  74.272  1.00  0.00    -0.107 NA 
HETATM   21  C   UNL     1     -10.824   4.225  73.614  1.00  0.00    -0.278 A  
HETATM   22  C   UNL     1     -11.162   5.330  72.845  1.00  0.00    -0.375 A  
ENDBRANCH  14  17
ENDBRANCH   2   3
TORSDOF 2
ENDMDL
MODEL       89
REMARK 921   NORMALIZED FREE ENERGY PREDICTED BY IDOCK:   -4.20 KCAL/MOL
REMARK 922        TOTAL FREE ENERGY PREDICTED BY IDOCK:   -5.11 KCAL/MOL
REMARK 923 INTER-LIGAND FREE ENERGY PREDICTED BY IDOCK:   -4.70 KCAL/MOL
REMARK 924 INTRA-LIGAND FREE ENERGY PREDICTED BY IDOCK:   -0.41 KCAL/MOL
REMARK 927      BINDING AFFINITY PREDICTED BY RF-SCORE:    0.00 PKD
ROOT
HETATM    1  C   UNL     1      -6.706   6.309  67.157  1.00  0.00    -0.060 C  
HETATM    2  C   UNL     1      -7.976   7.016  67.618  1.00  0.00    -0.114 C  
ENDROOT
BRANCH   2   3
HETATM    3  N   UNL     1      -8.246   8.211  66.793  1.00  0.00    -0.106 NA 
HETATM    4  C   UNL     1      -7.654   8.346  65.542  1.00  0.00    -0.090 C  
HETATM    5  C   UNL     1      -7.914   9.297  64.634  1.00  0.00    -0.125 C  
HETATM    6  C   UNL     1      -8.946  10.289  64.988  1.00  0.00    -0.196 C  
HETATM    7  C   UNL     1      -7.186   9.296  63.348  1.00  0.00    -0.096 C  
HETATM    8  O   UNL     1      -6.358   8.450  63.045  1.00  0.00    -0.085 OA 
HETATM    9  O   UNL     1      -7.507  10.317  62.522  1.00  0.00    -0.131 OA 
HETATM   10  O   UNL     1      -9.203  11.209  64.214  1.00  0.00    -0.188 OA 
HETATM   11  C   UNL     1      -9.651  10.137  66.281  1.00  0.00    -0.245 A  
HETATM   12  C   UNL     1      -9.264   9.117  67.171  1.00  0.00    -0.133 A  
HETATM   13  C   UNL     1      -9.932   9.074  68.412  1.00  0.00    -0.200 A  
HETATM   14  C   UNL     1     -10.995   9.943  68.752  1.00  0.00    -0.217 A  
HETATM   15  C   UNL     1     -10.698  11.013  66.582  1.00  0.00    -0.305 A  
HETATM   16  C   UNL     1     -11.373  10.899  67.796  1.00  0.00    -0.366 A  
BRANCH  14  17
HETATM   17  C   UNL     1     -11.683   9.850  70.066  1.00  0.00    -0.186 A  
HETATM   18  C   UNL     1     -12.453  10.910  70.571  1.00  0.00    -0.438 A  
HETATM   19  C   UNL     1     -13.080  10.780  71.802  1.00  0.00    -0.468 A  
HETATM   20  N   UNL     1     -12.989   9.683  72.578  1.00  0.00    -0.262 NA 
HETATM   21  C   UNL     1     -12.246   8.669  72.095  1.00  0.00    -0.386 A  
HETATM   22  C   UNL     1     -11.595   8.703  70.870  1.00  0.00    -0.307 A  
ENDBRANCH  14  17
ENDBRANCH   2   3
TORSDOF 2
ENDMDL
MODEL       90
REMARK 921   NORMALIZED FREE ENERGY PREDICTED BY IDOCK:   -4.18 KCAL/MOL
REMARK 922        TOTAL FREE ENERGY PREDICTED BY IDOCK:   -5.08 KCAL/MOL
REMARK 923 INTER-LIGAND FREE ENERGY PREDICTED BY IDOCK:   -5.74 KCAL/MOL
REMARK 924 INTRA-LIGAND FREE ENERGY PREDICTED BY IDOCK:    0.66 KCAL/MOL
REMARK 927      BINDING AFFINITY PREDICTED BY RF-SCORE:    0.00 PKD
ROOT
HETATM    1  C   UNL     1      -8.949  12.980  67.643  1.00  0.00    -0.192 C  
HETATM    2  C   UNL     1      -8.699  14.028  66.565  1.00  0.00     0.079 C  
ENDROOT
BRANCH   2   3
HETATM    3  N   UNL     1      -8.712  15.390  67.137  1.00  0.00    -0.204 NA 
HETATM    4  C   UNL     1      -8.022  16.421  66.508  1.00  0.00    -0.307 C  
HETATM    5  C   UNL     1      -8.060  17.721  66.831  1.00  0.00    -0.251 C  
HETATM    6  C   UNL     1      -8.936  18.101  67.954  1.00  0.00    -0.269 C  
HETATM    7  C   UNL     1      -7.255  18.688  66.056  1.00  0.00    -0.257 C  
HETATM    8  O   UNL     1      -6.559  18.372  65.102  1.00  0.00    -0.471 OA 
HETATM    9  O   UNL     1      -7.347  19.966  66.487  1.00  0.00    -0.244 OA 
HETATM   10  O   UNL     1      -8.985  19.273  68.324  1.00  0.00    -0.312 OA 
HETATM   11  C   UNL     1      -9.743  17.043  68.604  1.00  0.00    -0.282 A  
HETATM   12  C   UNL     1      -9.590  15.703  68.201  1.00  0.00    -0.196 A  
HETATM   13  C   UNL     1     -10.339  14.741  68.909  1.00  0.00    -0.243 A  
HETATM   14  C   UNL     1     -11.266  15.073  69.925  1.00  0.00    -0.303 A  
HETATM   15  C   UNL     1     -10.649  17.410  69.603  1.00  0.00     0.209 A  
HETATM   16  C   UNL     1     -11.415  16.434  70.238  1.00  0.00    -0.132 A  
BRANCH  14  17
HETATM   17  C   UNL     1     -12.048  14.026  70.634  1.00  0.00    -0.424 A  
HETATM   18  C   UNL     1     -11.964  12.673  70.271  1.00  0.00    -0.363 A  
HETATM   19  C   UNL     1     -12.711  11.728  70.961  1.00  0.00    -0.275 A  
HETATM   20  N   UNL     1     -13.544  12.025  71.976  1.00  0.00    -0.280 NA 
HETATM   21  C   UNL     1     -13.626  13.325  72.321  1.00  0.00    -0.605 A  
HETATM   22  C   UNL     1     -12.909  14.337  71.698  1.00  0.00    -0.424 A  
ENDBRANCH  14  17
ENDBRANCH   2   3
TORSDOF 2
ENDMDL
MODEL       91
REMARK 921   NORMALIZED FREE ENERGY PREDICTED BY IDOCK:   -4.06 KCAL/MOL
REMARK 922        TOTAL FREE ENERGY PREDICTED BY IDOCK:   -4.95 KCAL/MOL
REMARK 923 INTER-LIGAND FREE ENERGY PREDICTED BY IDOCK:   -4.52 KCAL/MOL
REMARK 924 INTRA-LIGAND FREE ENERGY PREDICTED BY IDOCK:   -0.44 KCAL/MOL
REMARK 927      BINDING AFFINITY PREDICTED BY RF-SCORE:    0.00 PKD
ROOT
HETATM    1  C   UNL     1      -8.087   9.422  65.854  1.00  0.00    -0.114 C  
HETATM    2  C   UNL     1      -7.629   8.907  67.214  1.00  0.00    -0.089 C  
ENDROOT
BRANCH   2   3
HETATM    3  N   UNL     1      -8.060   7.510  67.424  1.00  0.00    -0.115 NA 
HETATM    4  C   UNL     1      -7.334   6.462  66.868  1.00  0.00    -0.079 C  
HETATM    5  C   UNL     1      -7.524   5.154  67.089  1.00  0.00    -0.087 C  
HETATM    6  C   UNL     1      -8.597   4.788  68.031  1.00  0.00    -0.102 C  
HETATM    7  C   UNL     1      -6.660   4.167  66.409  1.00  0.00    -0.042 C  
HETATM    8  O   UNL     1      -5.747   4.477  65.657  1.00  0.00    -0.017 OA 
HETATM    9  O   UNL     1      -6.959   2.878  66.682  1.00  0.00    -0.051 OA 
HETATM   10  O   UNL     1      -8.847   3.603  68.247  1.00  0.00    -0.098 OA 
HETATM   11  C   UNL     1      -9.346   5.877  68.699  1.00  0.00    -0.126 A  
HETATM   12  C   UNL     1      -9.082   7.217  68.357  1.00  0.00    -0.127 A  
HETATM   13  C   UNL     1      -9.879   8.197  68.982  1.00  0.00    -0.176 A  
HETATM   14  C   UNL     1     -10.851   7.897  69.966  1.00  0.00    -0.238 A  
HETATM   15  C   UNL     1     -10.297   5.541  69.667  1.00  0.00    -0.359 A  
HETATM   16  C   UNL     1     -11.023   6.546  70.305  1.00  0.00    -0.365 A  
BRANCH  14  17
HETATM   17  C   UNL     1     -11.657   8.965  70.611  1.00  0.00    -0.251 A  
HETATM   18  C   UNL     1     -12.599   8.675  71.611  1.00  0.00    -0.381 A  
HETATM   19  C   UNL     1     -13.329   9.705  72.189  1.00  0.00    -0.454 A  
HETATM   20  N   UNL     1     -13.206  10.999  71.839  1.00  0.00    -0.463 NA 
HETATM   21  C   UNL     1     -12.306  11.276  70.876  1.00  0.00    -0.388 A  
HETATM   22  C   UNL     1     -11.522  10.316  70.252  1.00  0.00    -0.395 A  
ENDBRANCH  14  17
ENDBRANCH   2   3
TORSDOF 2
ENDMDL
MODEL       92
REMARK 921   NORMALIZED FREE ENERGY PREDICTED BY IDOCK:   -4.02 KCAL/MOL
REMARK 922        TOTAL FREE ENERGY PREDICTED BY IDOCK:   -4.90 KCAL/MOL
REMARK 923 INTER-LIGAND FREE ENERGY PREDICTED BY IDOCK:   -4.49 KCAL/MOL
REMARK 924 INTRA-LIGAND FREE ENERGY PREDICTED BY IDOCK:   -0.41 KCAL/MOL
REMARK 927      BINDING AFFINITY PREDICTED BY RF-SCORE:    0.00 PKD
ROOT
HETATM    1  C   UNL     1     -12.181  13.549  69.638  1.00  0.00    -0.304 C  
HETATM    2  C   UNL     1     -11.618  12.938  68.360  1.00  0.00    -0.333 C  
ENDROOT
BRANCH   2   3
HETATM    3  N   UNL     1     -10.241  12.446  68.569  1.00  0.00    -0.225 NA 
HETATM    4  C   UNL     1     -10.018  11.118  68.918  1.00  0.00    -0.175 C  
HETATM    5  C   UNL     1      -8.831  10.503  69.002  1.00  0.00    -0.174 C  
HETATM    6  C   UNL     1      -7.641  11.308  68.673  1.00  0.00    -0.129 C  
HETATM    7  C   UNL     1      -8.773   9.079  69.394  1.00  0.00    -0.142 C  
HETATM    8  O   UNL     1      -9.766   8.406  69.629  1.00  0.00    -0.170 OA 
HETATM    9  O   UNL     1      -7.523   8.571  69.475  1.00  0.00    -0.076 OA 
HETATM   10  O   UNL     1      -6.519  10.814  68.768  1.00  0.00    -0.046 OA 
HETATM   11  C   UNL     1      -7.841  12.707  68.228  1.00  0.00    -0.144 A  
HETATM   12  C   UNL     1      -9.137  13.256  68.216  1.00  0.00    -0.184 A  
HETATM   13  C   UNL     1      -9.245  14.612  67.846  1.00  0.00    -0.197 A  
HETATM   14  C   UNL     1      -8.143  15.393  67.427  1.00  0.00    -0.204 A  
HETATM   15  C   UNL     1      -6.728  13.447  67.820  1.00  0.00    -0.163 A  
HETATM   16  C   UNL     1      -6.886  14.768  67.405  1.00  0.00    -0.101 A  
BRANCH  14  17
HETATM   17  C   UNL     1      -8.306  16.816  67.029  1.00  0.00    -0.219 A  
HETATM   18  C   UNL     1      -7.224  17.579  66.563  1.00  0.00    -0.298 A  
HETATM   19  C   UNL     1      -7.422  18.904  66.201  1.00  0.00    -0.266 A  
HETATM   20  N   UNL     1      -8.610  19.534  66.279  1.00  0.00    -0.357 NA 
HETATM   21  C   UNL     1      -9.646  18.802  66.730  1.00  0.00    -0.321 A  
HETATM   22  C   UNL     1      -9.547  17.468  67.102  1.00  0.00    -0.262 A  
ENDBRANCH  14  17
ENDBRANCH   2   3
TORSDOF 2
ENDMDL
MODEL       93
REMARK 921   NORMALIZED FREE ENERGY PREDICTED BY IDOCK:   -4.00 KCAL/MOL
REMARK 922        TOTAL FREE ENERGY PREDICTED BY IDOCK:   -4.89 KCAL/MOL
REMARK 923 INTER-LIGAND FREE ENERGY PREDICTED BY IDOCK:   -4.44 KCAL/MOL
REMARK 924 INTRA-LIGAND FREE ENERGY PREDICTED BY IDOCK:   -0.45 KCAL/MOL
REMARK 927      BINDING AFFINITY PREDICTED BY RF-SCORE:    0.00 PKD
ROOT
HETATM    1  C   UNL     1     -12.842  12.020  71.678  1.00  0.00    -0.399 C  
HETATM    2  C   UNL     1     -12.882  10.755  70.827  1.00  0.00    -0.320 C  
ENDROOT
BRANCH   2   3
HETATM    3  N   UNL     1     -11.947  10.854  69.688  1.00  0.00    -0.327 NA 
HETATM    4  C   UNL     1     -12.266  11.640  68.586  1.00  0.00     0.069 C  
HETATM    5  C   UNL     1     -11.463  11.932  67.554  1.00  0.00    -0.396 C  
HETATM    6  C   UNL     1     -10.097  11.381  67.598  1.00  0.00    -0.180 C  
HETATM    7  C   UNL     1     -11.968  12.784  66.456  1.00  0.00    -0.358 C  
HETATM    8  O   UNL     1     -13.090  13.269  66.443  1.00  0.00     0.171 OA 
HETATM    9  O   UNL     1     -11.083  12.989  65.455  1.00  0.00    -0.274 OA 
HETATM   10  O   UNL     1      -9.324  11.581  66.663  1.00  0.00    -0.179 OA 
HETATM   11  C   UNL     1      -9.695  10.598  68.789  1.00  0.00    -0.193 A  
HETATM   12  C   UNL     1     -10.640  10.324  69.796  1.00  0.00    -0.271 A  
HETATM   13  C   UNL     1     -10.206   9.517  70.867  1.00  0.00    -0.356 A  
HETATM   14  C   UNL     1      -8.877   9.051  70.999  1.00  0.00    -0.291 A  
HETATM   15  C   UNL     1      -8.372  10.156  68.886  1.00  0.00    -0.130 A  
HETATM   16  C   UNL     1      -7.968   9.409  69.991  1.00  0.00    -0.142 A  
BRANCH  14  17
HETATM   17  C   UNL     1      -8.459   8.215  72.155  1.00  0.00    -0.216 A  
HETATM   18  C   UNL     1      -9.344   7.314  72.769  1.00  0.00    -0.186 A  
HETATM   19  C   UNL     1      -8.912   6.551  73.846  1.00  0.00    -0.140 A  
HETATM   20  N   UNL     1      -7.673   6.625  74.368  1.00  0.00    -0.104 NA 
HETATM   21  C   UNL     1      -6.827   7.492  73.780  1.00  0.00    -0.082 A  
HETATM   22  C   UNL     1      -7.165   8.285  72.692  1.00  0.00    -0.133 A  
ENDBRANCH  14  17
ENDBRANCH   2   3
TORSDOF 2
ENDMDL
MODEL       94
REMARK 921   NORMALIZED FREE ENERGY PREDICTED BY IDOCK:   -3.98 KCAL/MOL
REMARK 922        TOTAL FREE ENERGY PREDICTED BY IDOCK:   -4.87 KCAL/MOL
REMARK 923 INTER-LIGAND FREE ENERGY PREDICTED BY IDOCK:   -4.41 KCAL/MOL
REMARK 924 INTRA-LIGAND FREE ENERGY PREDICTED BY IDOCK:   -0.46 KCAL/MOL
REMARK 927      BINDING AFFINITY PREDICTED BY RF-SCORE:    0.00 PKD
ROOT
HETATM    1  C   UNL     1     -11.677  11.061  70.474  1.00  0.00    -0.416 C  
HETATM    2  C   UNL     1     -11.842  11.385  68.994  1.00  0.00    -0.348 C  
ENDROOT
BRANCH   2   3
HETATM    3  N   UNL     1     -10.611  11.985  68.442  1.00  0.00    -0.210 NA 
HETATM    4  C   UNL     1     -10.280  13.303  68.738  1.00  0.00    -0.109 C  
HETATM    5  C   UNL     1      -9.136  13.928  68.426  1.00  0.00    -0.184 C  
HETATM    6  C   UNL     1      -8.118  13.136  67.714  1.00  0.00    -0.165 C  
HETATM    7  C   UNL     1      -8.949  15.342  68.816  1.00  0.00    -0.200 C  
HETATM    8  O   UNL     1      -9.782  15.984  69.439  1.00  0.00    -0.247 OA 
HETATM    9  O   UNL     1      -7.772  15.879  68.425  1.00  0.00    -0.133 OA 
HETATM   10  O   UNL     1      -7.063  13.663  67.366  1.00  0.00    -0.168 OA 
HETATM   11  C   UNL     1      -8.403  11.708  67.443  1.00  0.00    -0.152 A  
HETATM   12  C   UNL     1      -9.658  11.170  67.786  1.00  0.00    -0.172 A  
HETATM   13  C   UNL     1      -9.885   9.823  67.437  1.00  0.00    -0.219 A  
HETATM   14  C   UNL     1      -8.901   8.998  66.844  1.00  0.00    -0.129 A  
HETATM   15  C   UNL     1      -7.405  10.924  66.858  1.00  0.00    -0.128 A  
HETATM   16  C   UNL     1      -7.650   9.580  66.583  1.00  0.00    -0.097 A  
BRANCH  14  17
HETATM   17  C   UNL     1      -9.179   7.577  66.509  1.00  0.00    -0.217 A  
HETATM   18  C   UNL     1     -10.291   6.901  67.034  1.00  0.00    -0.348 A  
HETATM   19  C   UNL     1     -10.514   5.574  66.693  1.00  0.00    -0.294 A  
HETATM   20  N   UNL     1      -9.709   4.863  65.881  1.00  0.00    -0.174 NA 
HETATM   21  C   UNL     1      -8.640   5.511  65.382  1.00  0.00    -0.151 A  
HETATM   22  C   UNL     1      -8.344   6.840  65.655  1.00  0.00    -0.147 A  
ENDBRANCH  14  17
ENDBRANCH   2   3
TORSDOF 2
ENDMDL
MODEL       95
REMARK 921   NORMALIZED FREE ENERGY PREDICTED BY IDOCK:   -3.97 KCAL/MOL
REMARK 922        TOTAL FREE ENERGY PREDICTED BY IDOCK:   -4.85 KCAL/MOL
REMARK 923 INTER-LIGAND FREE ENERGY PREDICTED BY IDOCK:   -4.40 KCAL/MOL
REMARK 924 INTRA-LIGAND FREE ENERGY PREDICTED BY IDOCK:   -0.45 KCAL/MOL
REMARK 927      BINDING AFFINITY PREDICTED BY RF-SCORE:    0.00 PKD
ROOT
HETATM    1  C   UNL     1     -10.993  16.921  69.234  1.00  0.00    -0.112 C  
HETATM    2  C   UNL     1     -10.843  16.395  67.811  1.00  0.00    -0.306 C  
ENDROOT
BRANCH   2   3
HETATM    3  N   UNL     1      -9.424  16.381  67.399  1.00  0.00    -0.226 NA 
HETATM    4  C   UNL     1      -8.788  17.564  67.039  1.00  0.00    -0.240 C  
HETATM    5  C   UNL     1      -7.482  17.721  66.782  1.00  0.00    -0.244 C  
HETATM    6  C   UNL     1      -6.630  16.526  66.911  1.00  0.00    -0.177 C  
HETATM    7  C   UNL     1      -6.969  19.056  66.407  1.00  0.00    -0.219 C  
HETATM    8  O   UNL     1      -7.674  20.052  66.337  1.00  0.00    -0.284 OA 
HETATM    9  O   UNL     1      -5.644  19.092  66.142  1.00  0.00    -0.154 OA 
HETATM   10  O   UNL     1      -5.430  16.596  66.651  1.00  0.00    -0.343 OA 
HETATM   11  C   UNL     1      -7.258  15.262  67.361  1.00  0.00    -0.235 A  
HETATM   12  C   UNL     1      -8.650  15.209  67.566  1.00  0.00    -0.180 A  
HETATM   13  C   UNL     1      -9.188  13.957  67.928  1.00  0.00    -0.198 A  
HETATM   14  C   UNL     1      -8.395  12.809  68.160  1.00  0.00    -0.172 A  
HETATM   15  C   UNL     1      -6.442  14.149  67.582  1.00  0.00    -0.153 A  
HETATM   16  C   UNL     1      -7.007  12.944  67.997  1.00  0.00    -0.108 A  
BRANCH  14  17
HETATM   17  C   UNL     1      -9.005  11.513  68.557  1.00  0.00    -0.146 A  
HETATM   18  C   UNL     1      -8.312  10.587  69.353  1.00  0.00    -0.117 A  
HETATM   19  C   UNL     1      -8.920   9.389  69.702  1.00  0.00    -0.173 A  
HETATM   20  N   UNL     1     -10.158   9.034  69.310  1.00  0.00    -0.189 NA 
HETATM   21  C   UNL     1     -10.820   9.921  68.543  1.00  0.00    -0.217 A  
HETATM   22  C   UNL     1     -10.299  11.148  68.155  1.00  0.00    -0.207 A  
ENDBRANCH  14  17
ENDBRANCH   2   3
TORSDOF 2
ENDMDL
MODEL       96
REMARK 921   NORMALIZED FREE ENERGY PREDICTED BY IDOCK:   -3.91 KCAL/MOL
REMARK 922        TOTAL FREE ENERGY PREDICTED BY IDOCK:   -4.79 KCAL/MOL
REMARK 923 INTER-LIGAND FREE ENERGY PREDICTED BY IDOCK:   -4.36 KCAL/MOL
REMARK 924 INTRA-LIGAND FREE ENERGY PREDICTED BY IDOCK:   -0.42 KCAL/MOL
REMARK 927      BINDING AFFINITY PREDICTED BY RF-SCORE:    0.00 PKD
ROOT
HETATM    1  C   UNL     1      -7.390   6.740  64.854  1.00  0.00    -0.087 C  
HETATM    2  C   UNL     1      -8.783   6.410  65.377  1.00  0.00    -0.022 C  
ENDROOT
BRANCH   2   3
HETATM    3  N   UNL     1      -8.906   6.754  66.809  1.00  0.00    -0.120 NA 
HETATM    4  C   UNL     1      -8.460   5.867  67.783  1.00  0.00    -0.107 C  
HETATM    5  C   UNL     1      -8.380   6.102  69.100  1.00  0.00    -0.116 C  
HETATM    6  C   UNL     1      -8.788   7.441  69.562  1.00  0.00    -0.137 C  
HETATM    7  C   UNL     1      -7.884   5.040  70.001  1.00  0.00    -0.070 C  
HETATM    8  O   UNL     1      -7.512   3.944  69.608  1.00  0.00    -0.052 OA 
HETATM    9  O   UNL     1      -7.874   5.377  71.310  1.00  0.00    -0.103 OA 
HETATM   10  O   UNL     1      -8.774   7.707  70.763  1.00  0.00    -0.136 OA 
HETATM   11  C   UNL     1      -9.201   8.438  68.547  1.00  0.00    -0.135 A  
HETATM   12  C   UNL     1      -9.281   8.062  67.193  1.00  0.00    -0.142 A  
HETATM   13  C   UNL     1      -9.747   9.041  66.292  1.00  0.00    -0.345 A  
HETATM   14  C   UNL     1     -10.053  10.368  66.678  1.00  0.00    -0.279 A  
HETATM   15  C   UNL     1      -9.494   9.739  68.966  1.00  0.00    -0.173 A  
HETATM   16  C   UNL     1      -9.895  10.694  68.034  1.00  0.00    -0.177 A  
BRANCH  14  17
HETATM   17  C   UNL     1     -10.525  11.373  65.690  1.00  0.00    -0.316 A  
HETATM   18  C   UNL     1     -10.223  11.261  64.323  1.00  0.00    -0.383 A  
HETATM   19  C   UNL     1     -10.686  12.222  63.435  1.00  0.00    -0.391 A  
HETATM   20  N   UNL     1     -11.414  13.293  63.801  1.00  0.00    -0.366 NA 
HETATM   21  C   UNL     1     -11.700  13.402  65.113  1.00  0.00    -0.321 A  
HETATM   22  C   UNL     1     -11.293  12.484  66.072  1.00  0.00    -0.386 A  
ENDBRANCH  14  17
ENDBRANCH   2   3
TORSDOF 2
ENDMDL
MODEL       97
REMARK 921   NORMALIZED FREE ENERGY PREDICTED BY IDOCK:   -3.89 KCAL/MOL
REMARK 922        TOTAL FREE ENERGY PREDICTED BY IDOCK:   -4.76 KCAL/MOL
REMARK 923 INTER-LIGAND FREE ENERGY PREDICTED BY IDOCK:   -4.37 KCAL/MOL
REMARK 924 INTRA-LIGAND FREE ENERGY PREDICTED BY IDOCK:   -0.39 KCAL/MOL
REMARK 927      BINDING AFFINITY PREDICTED BY RF-SCORE:    0.00 PKD
ROOT
HETATM    1  C   UNL     1      -5.531  11.019  66.020  1.00  0.00    -0.149 C  
HETATM    2  C   UNL     1      -6.283  10.708  67.309  1.00  0.00    -0.056 C  
ENDROOT
BRANCH   2   3
HETATM    3  N   UNL     1      -7.505   9.926  67.035  1.00  0.00    -0.091 NA 
HETATM    4  C   UNL     1      -7.469   8.536  67.072  1.00  0.00    -0.084 C  
HETATM    5  C   UNL     1      -8.519   7.708  66.982  1.00  0.00    -0.125 C  
HETATM    6  C   UNL     1      -9.848   8.331  66.853  1.00  0.00    -0.247 C  
HETATM    7  C   UNL     1      -8.301   6.247  67.034  1.00  0.00    -0.109 C  
HETATM    8  O   UNL     1      -7.200   5.736  67.180  1.00  0.00    -0.073 OA 
HETATM    9  O   UNL     1      -9.426   5.508  66.907  1.00  0.00    -0.125 OA 
HETATM   10  O   UNL     1     -10.848   7.625  66.728  1.00  0.00    -0.274 OA 
HETATM   11  C   UNL     1      -9.936   9.809  66.882  1.00  0.00    -0.270 A  
HETATM   12  C   UNL     1      -8.757  10.577  66.941  1.00  0.00    -0.127 A  
HETATM   13  C   UNL     1      -8.912  11.977  66.897  1.00  0.00    -0.199 A  
HETATM   14  C   UNL     1     -10.174  12.618  66.874  1.00  0.00    -0.242 A  
HETATM   15  C   UNL     1     -11.199  10.407  66.859  1.00  0.00     0.058 A  
HETATM   16  C   UNL     1     -11.311  11.796  66.877  1.00  0.00    -0.386 A  
BRANCH  14  17
HETATM   17  C   UNL     1     -10.290  14.100  66.845  1.00  0.00    -0.269 A  
HETATM   18  C   UNL     1     -10.769  14.822  67.949  1.00  0.00    -0.259 A  
HETATM   19  C   UNL     1     -10.860  16.206  67.880  1.00  0.00    -0.332 A  
HETATM   20  N   UNL     1     -10.523  16.926  66.793  1.00  0.00    -0.292 NA 
HETATM   21  C   UNL     1     -10.068  16.231  65.733  1.00  0.00    -0.347 A  
HETATM   22  C   UNL     1      -9.930  14.850  65.715  1.00  0.00    -0.376 A  
ENDBRANCH  14  17
ENDBRANCH   2   3
TORSDOF 2
ENDMDL
MODEL       98
REMARK 921   NORMALIZED FREE ENERGY PREDICTED BY IDOCK:   -3.84 KCAL/MOL
REMARK 922        TOTAL FREE ENERGY PREDICTED BY IDOCK:   -4.71 KCAL/MOL
REMARK 923 INTER-LIGAND FREE ENERGY PREDICTED BY IDOCK:   -4.30 KCAL/MOL
REMARK 924 INTRA-LIGAND FREE ENERGY PREDICTED BY IDOCK:   -0.40 KCAL/MOL
REMARK 927      BINDING AFFINITY PREDICTED BY RF-SCORE:    0.00 PKD
ROOT
HETATM    1  C   UNL     1     -10.118   4.798  71.606  1.00  0.00    -0.264 C  
HETATM    2  C   UNL     1      -9.984   5.086  70.115  1.00  0.00    -0.258 C  
ENDROOT
BRANCH   2   3
HETATM    3  N   UNL     1     -10.426   6.460  69.799  1.00  0.00    -0.197 NA 
HETATM    4  C   UNL     1     -11.077   7.225  70.761  1.00  0.00    -0.266 C  
HETATM    5  C   UNL     1     -11.406   8.520  70.662  1.00  0.00    -0.265 C  
HETATM    6  C   UNL     1     -11.022   9.210  69.418  1.00  0.00    -0.092 C  
HETATM    7  C   UNL     1     -12.105   9.182  71.784  1.00  0.00    -0.376 C  
HETATM    8  O   UNL     1     -12.389   8.614  72.829  1.00  0.00    -0.321 OA 
HETATM    9  O   UNL     1     -12.413  10.479  71.564  1.00  0.00    -0.380 OA 
HETATM   10  O   UNL     1     -11.328  10.389  69.251  1.00  0.00    -0.237 OA 
HETATM   11  C   UNL     1     -10.263   8.449  68.399  1.00  0.00    -0.239 A  
HETATM   12  C   UNL     1     -10.008   7.079  68.599  1.00  0.00    -0.156 A  
HETATM   13  C   UNL     1      -9.340   6.403  67.557  1.00  0.00    -0.119 A  
HETATM   14  C   UNL     1      -8.865   7.048  66.391  1.00  0.00    -0.158 A  
HETATM   15  C   UNL     1      -9.808   9.121  67.261  1.00  0.00    -0.244 A  
HETATM   16  C   UNL     1      -9.100   8.428  66.281  1.00  0.00    -0.241 A  
BRANCH  14  17
HETATM   17  C   UNL     1      -8.151   6.297  65.326  1.00  0.00    -0.132 A  
HETATM   18  C   UNL     1      -7.005   6.816  64.702  1.00  0.00    -0.055 A  
HETATM   19  C   UNL     1      -6.367   6.080  63.713  1.00  0.00    -0.029 A  
HETATM   20  N   UNL     1      -6.789   4.875  63.285  1.00  0.00    -0.037 NA 
HETATM   21  C   UNL     1      -7.891   4.381  63.881  1.00  0.00    -0.088 A  
HETATM   22  C   UNL     1      -8.586   5.037  64.888  1.00  0.00    -0.150 A  
ENDBRANCH  14  17
ENDBRANCH   2   3
TORSDOF 2
ENDMDL
MODEL       99
REMARK 921   NORMALIZED FREE ENERGY PREDICTED BY IDOCK:   -3.82 KCAL/MOL
REMARK 922        TOTAL FREE ENERGY PREDICTED BY IDOCK:   -4.68 KCAL/MOL
REMARK 923 INTER-LIGAND FREE ENERGY PREDICTED BY IDOCK:   -4.25 KCAL/MOL
REMARK 924 INTRA-LIGAND FREE ENERGY PREDICTED BY IDOCK:   -0.44 KCAL/MOL
REMARK 927      BINDING AFFINITY PREDICTED BY RF-SCORE:    0.00 PKD
ROOT
HETATM    1  C   UNL     1     -10.570   7.809  67.152  1.00  0.00    -0.401 C  
HETATM    2  C   UNL     1      -9.231   7.147  67.453  1.00  0.00    -0.127 C  
ENDROOT
BRANCH   2   3
HETATM    3  N   UNL     1      -9.250   5.718  67.078  1.00  0.00    -0.116 NA 
HETATM    4  C   UNL     1      -8.935   5.330  65.780  1.00  0.00    -0.154 C  
HETATM    5  C   UNL     1      -8.777   4.075  65.338  1.00  0.00    -0.120 C  
HETATM    6  C   UNL     1      -8.932   2.997  66.330  1.00  0.00    -0.150 C  
HETATM    7  C   UNL     1      -8.447   3.840  63.916  1.00  0.00    -0.092 C  
HETATM    8  O   UNL     1      -8.283   4.740  63.106  1.00  0.00    -0.091 OA 
HETATM    9  O   UNL     1      -8.339   2.536  63.576  1.00  0.00    -0.083 OA 
HETATM   10  O   UNL     1      -8.837   1.822  65.980  1.00  0.00    -0.117 OA 
HETATM   11  C   UNL     1      -9.196   3.372  67.738  1.00  0.00    -0.235 A  
HETATM   12  C   UNL     1      -9.381   4.725  68.077  1.00  0.00    -0.133 A  
HETATM   13  C   UNL     1      -9.696   5.003  69.423  1.00  0.00    -0.254 A  
HETATM   14  C   UNL     1      -9.756   4.008  70.427  1.00  0.00    -0.263 A  
HETATM   15  C   UNL     1      -9.246   2.361  68.703  1.00  0.00    -0.228 A  
HETATM   16  C   UNL     1      -9.502   2.685  70.034  1.00  0.00    -0.148 A  
BRANCH  14  17
HETATM   17  C   UNL     1     -10.075   4.349  71.838  1.00  0.00    -0.245 A  
HETATM   18  C   UNL     1     -10.121   3.367  72.841  1.00  0.00    -0.226 A  
HETATM   19  C   UNL     1     -10.421   3.731  74.146  1.00  0.00    -0.207 A  
HETATM   20  N   UNL     1     -10.694   4.992  74.530  1.00  0.00    -0.337 NA 
HETATM   21  C   UNL     1     -10.654   5.932  73.567  1.00  0.00    -0.268 A  
HETATM   22  C   UNL     1     -10.350   5.666  72.239  1.00  0.00    -0.250 A  
ENDBRANCH  14  17
ENDBRANCH   2   3
TORSDOF 2
ENDMDL
MODEL      100
REMARK 921   NORMALIZED FREE ENERGY PREDICTED BY IDOCK:   -3.74 KCAL/MOL
REMARK 922        TOTAL FREE ENERGY PREDICTED BY IDOCK:   -4.59 KCAL/MOL
REMARK 923 INTER-LIGAND FREE ENERGY PREDICTED BY IDOCK:   -4.14 KCAL/MOL
REMARK 924 INTRA-LIGAND FREE ENERGY PREDICTED BY IDOCK:   -0.45 KCAL/MOL
REMARK 927      BINDING AFFINITY PREDICTED BY RF-SCORE:    0.00 PKD
ROOT
HETATM    1  C   UNL     1     -10.014  11.151  68.299  1.00  0.00    -0.196 C  
HETATM    2  C   UNL     1     -10.900  10.101  67.638  1.00  0.00    -0.290 C  
ENDROOT
BRANCH   2   3
HETATM    3  N   UNL     1     -10.095   9.158  66.835  1.00  0.00    -0.236 NA 
HETATM    4  C   UNL     1      -9.594   9.544  65.596  1.00  0.00    -0.277 C  
HETATM    5  C   UNL     1      -8.741   8.851  64.829  1.00  0.00    -0.162 C  
HETATM    6  C   UNL     1      -8.269   7.559  65.359  1.00  0.00    -0.135 C  
HETATM    7  C   UNL     1      -8.312   9.408  63.529  1.00  0.00    -0.184 C  
HETATM    8  O   UNL     1      -8.678  10.497  63.110  1.00  0.00    -0.174 OA 
HETATM    9  O   UNL     1      -7.475   8.612  62.827  1.00  0.00    -0.098 OA 
HETATM   10  O   UNL     1      -7.515   6.858  64.687  1.00  0.00    -0.083 OA 
HETATM   11  C   UNL     1      -8.723   7.147  66.707  1.00  0.00    -0.128 A  
HETATM   12  C   UNL     1      -9.652   7.942  67.404  1.00  0.00    -0.152 A  
HETATM   13  C   UNL     1     -10.091   7.454  68.652  1.00  0.00    -0.186 A  
HETATM   14  C   UNL     1      -9.588   6.270  69.243  1.00  0.00    -0.147 A  
HETATM   15  C   UNL     1      -8.203   5.973  67.260  1.00  0.00    -0.106 A  
HETATM   16  C   UNL     1      -8.619   5.555  68.523  1.00  0.00    -0.102 A  
BRANCH  14  17
HETATM   17  C   UNL     1     -10.068   5.803  70.570  1.00  0.00    -0.269 A  
HETATM   18  C   UNL     1     -10.744   6.660  71.453  1.00  0.00    -0.264 A  
HETATM   19  C   UNL     1     -11.176   6.180  72.682  1.00  0.00    -0.274 A  
HETATM   20  N   UNL     1     -10.977   4.919  73.107  1.00  0.00    -0.280 NA 
HETATM   21  C   UNL     1     -10.324   4.099  72.261  1.00  0.00    -0.127 A  
HETATM   22  C   UNL     1      -9.867   4.484  71.008  1.00  0.00    -0.266 A  
ENDBRANCH  14  17
ENDBRANCH   2   3
TORSDOF 2
ENDMDL
MODEL      101
REMARK 921   NORMALIZED FREE ENERGY PREDICTED BY IDOCK:   -3.71 KCAL/MOL
REMARK 922        TOTAL FREE ENERGY PREDICTED BY IDOCK:   -4.56 KCAL/MOL
REMARK 923 INTER-LIGAND FREE ENERGY PREDICTED BY IDOCK:   -4.14 KCAL/MOL
REMARK 924 INTRA-LIGAND FREE ENERGY PREDICTED BY IDOCK:   -0.42 KCAL/MOL
REMARK 927      BINDING AFFINITY PREDICTED BY RF-SCORE:    0.00 PKD
ROOT
HETATM    1  C   UNL     1      -7.012   7.762  68.947  1.00  0.00    -0.066 C  
HETATM    2  C   UNL     1      -8.104   8.135  67.951  1.00  0.00    -0.128 C  
ENDROOT
BRANCH   2   3
HETATM    3  N   UNL     1      -7.650   7.918  66.562  1.00  0.00    -0.091 NA 
HETATM    4  C   UNL     1      -6.854   6.821  66.249  1.00  0.00    -0.060 C  
HETATM    5  C   UNL     1      -6.489   6.425  65.022  1.00  0.00    -0.038 C  
HETATM    6  C   UNL     1      -6.996   7.218  63.888  1.00  0.00    -0.058 C  
HETATM    7  C   UNL     1      -5.630   5.232  64.867  1.00  0.00    -0.017 C  
HETATM    8  O   UNL     1      -5.243   4.555  65.809  1.00  0.00    -0.008 OA 
HETATM    9  O   UNL     1      -5.300   4.941  63.589  1.00  0.00    -0.009 OA 
HETATM   10  O   UNL     1      -6.665   6.929  62.740  1.00  0.00    -0.046 OA 
HETATM   11  C   UNL     1      -7.905   8.352  64.176  1.00  0.00    -0.145 A  
HETATM   12  C   UNL     1      -8.188   8.697  65.511  1.00  0.00    -0.135 A  
HETATM   13  C   UNL     1      -9.005   9.828  65.711  1.00  0.00    -0.195 A  
HETATM   14  C   UNL     1      -9.595  10.558  64.652  1.00  0.00    -0.349 A  
HETATM   15  C   UNL     1      -8.469   9.048  63.104  1.00  0.00    -0.185 A  
HETATM   16  C   UNL     1      -9.321  10.125  63.345  1.00  0.00    -0.334 A  
BRANCH  14  17
HETATM   17  C   UNL     1     -10.465  11.735  64.911  1.00  0.00    -0.334 A  
HETATM   18  C   UNL     1     -10.900  12.571  63.871  1.00  0.00    -0.472 A  
HETATM   19  C   UNL     1     -11.714  13.659  64.158  1.00  0.00    -0.386 A  
HETATM   20  N   UNL     1     -12.117  13.987  65.400  1.00  0.00    -0.381 NA 
HETATM   21  C   UNL     1     -11.695  13.186  66.397  1.00  0.00    -0.379 A  
HETATM   22  C   UNL     1     -10.892  12.070  66.205  1.00  0.00    -0.325 A  
ENDBRANCH  14  17
ENDBRANCH   2   3
TORSDOF 2
ENDMDL
MODEL      102
REMARK 921   NORMALIZED FREE ENERGY PREDICTED BY IDOCK:   -3.68 KCAL/MOL
REMARK 922        TOTAL FREE ENERGY PREDICTED BY IDOCK:   -4.53 KCAL/MOL
REMARK 923 INTER-LIGAND FREE ENERGY PREDICTED BY IDOCK:   -4.09 KCAL/MOL
REMARK 924 INTRA-LIGAND FREE ENERGY PREDICTED BY IDOCK:   -0.44 KCAL/MOL
REMARK 927      BINDING AFFINITY PREDICTED BY RF-SCORE:    0.00 PKD
ROOT
HETATM    1  C   UNL     1      -6.283   8.787  71.099  1.00  0.00    -0.051 C  
HETATM    2  C   UNL     1      -7.217   8.290  70.002  1.00  0.00    -0.059 C  
ENDROOT
BRANCH   2   3
HETATM    3  N   UNL     1      -8.546   8.926  70.109  1.00  0.00    -0.142 NA 
HETATM    4  C   UNL     1      -8.792  10.144  69.485  1.00  0.00    -0.182 C  
HETATM    5  C   UNL     1      -9.976  10.763  69.380  1.00  0.00    -0.137 C  
HETATM    6  C   UNL     1     -11.139  10.075  69.967  1.00  0.00    -0.295 C  
HETATM    7  C   UNL     1     -10.059  12.064  68.683  1.00  0.00    -0.160 C  
HETATM    8  O   UNL     1      -9.097  12.612  68.165  1.00  0.00    -0.196 OA 
HETATM    9  O   UNL     1     -11.295  12.610  68.663  1.00  0.00    -0.248 OA 
HETATM   10  O   UNL     1     -12.247  10.608  69.938  1.00  0.00    -0.307 OA 
HETATM   11  C   UNL     1     -10.931   8.742  70.578  1.00  0.00    -0.272 A  
HETATM   12  C   UNL     1      -9.631   8.209  70.663  1.00  0.00    -0.166 A  
HETATM   13  C   UNL     1      -9.499   6.967  71.317  1.00  0.00    -0.164 A  
HETATM   14  C   UNL     1     -10.601   6.226  71.807  1.00  0.00    -0.266 A  
HETATM   15  C   UNL     1     -12.044   8.039  71.049  1.00  0.00    -0.232 A  
HETATM   16  C   UNL     1     -11.877   6.786  71.636  1.00  0.00    -0.370 A  
BRANCH  14  17
HETATM   17  C   UNL     1     -10.416   4.912  72.475  1.00  0.00    -0.262 A  
HETATM   18  C   UNL     1      -9.142   4.348  72.652  1.00  0.00    -0.134 A  
HETATM   19  C   UNL     1      -9.015   3.119  73.283  1.00  0.00    -0.086 A  
HETATM   20  N   UNL     1     -10.057   2.399  73.740  1.00  0.00    -0.101 NA 
HETATM   21  C   UNL     1     -11.279   2.938  73.566  1.00  0.00    -0.198 A  
HETATM   22  C   UNL     1     -11.502   4.167  72.959  1.00  0.00    -0.065 A  
ENDBRANCH  14  17
ENDBRANCH   2   3
TORSDOF 2
ENDMDL
MODEL      103
REMARK 921   NORMALIZED FREE ENERGY PREDICTED BY IDOCK:   -3.57 KCAL/MOL
REMARK 922        TOTAL FREE ENERGY PREDICTED BY IDOCK:   -4.41 KCAL/MOL
REMARK 923 INTER-LIGAND FREE ENERGY PREDICTED BY IDOCK:   -3.99 KCAL/MOL
REMARK 924 INTRA-LIGAND FREE ENERGY PREDICTED BY IDOCK:   -0.42 KCAL/MOL
REMARK 927      BINDING AFFINITY PREDICTED BY RF-SCORE:    0.00 PKD
ROOT
HETATM    1  C   UNL     1     -11.517  16.340  68.622  1.00  0.00    -0.288 C  
HETATM    2  C   UNL     1     -10.451  15.342  68.184  1.00  0.00    -0.247 C  
ENDROOT
BRANCH   2   3
HETATM    3  N   UNL     1      -9.240  16.038  67.701  1.00  0.00    -0.204 NA 
HETATM    4  C   UNL     1      -9.344  17.290  67.104  1.00  0.00    -0.243 C  
HETATM    5  C   UNL     1      -8.330  18.091  66.748  1.00  0.00    -0.271 C  
HETATM    6  C   UNL     1      -6.968  17.607  67.036  1.00  0.00    -0.178 C  
HETATM    7  C   UNL     1      -8.619  19.395  66.116  1.00  0.00    -0.284 C  
HETATM    8  O   UNL     1      -9.752  19.808  65.914  1.00  0.00    -0.377 OA 
HETATM    9  O   UNL     1      -7.522  20.106  65.774  1.00  0.00    -0.313 OA 
HETATM   10  O   UNL     1      -5.994  18.278  66.700  1.00  0.00    -0.142 OA 
HETATM   11  C   UNL     1      -6.818  16.310  67.736  1.00  0.00    -0.155 A  
HETATM   12  C   UNL     1      -7.958  15.538  68.026  1.00  0.00    -0.133 A  
HETATM   13  C   UNL     1      -7.735  14.285  68.632  1.00  0.00    -0.135 A  
HETATM   14  C   UNL     1      -6.453  13.825  69.017  1.00  0.00    -0.105 A  
HETATM   15  C   UNL     1      -5.536  15.890  68.102  1.00  0.00    -0.119 A  
HETATM   16  C   UNL     1      -5.364  14.670  68.754  1.00  0.00    -0.089 A  
BRANCH  14  17
HETATM   17  C   UNL     1      -6.267  12.503  69.669  1.00  0.00    -0.126 A  
HETATM   18  C   UNL     1      -6.980  11.368  69.250  1.00  0.00    -0.115 A  
HETATM   19  C   UNL     1      -6.774  10.152  69.887  1.00  0.00    -0.110 A  
HETATM   20  N   UNL     1      -5.924   9.979  70.917  1.00  0.00    -0.127 NA 
HETATM   21  C   UNL     1      -5.244  11.069  71.321  1.00  0.00    -0.071 A  
HETATM   22  C   UNL     1      -5.374  12.322  70.737  1.00  0.00    -0.161 A  
ENDBRANCH  14  17
ENDBRANCH   2   3
TORSDOF 2
ENDMDL
MODEL      104
REMARK 921   NORMALIZED FREE ENERGY PREDICTED BY IDOCK:   -3.55 KCAL/MOL
REMARK 922        TOTAL FREE ENERGY PREDICTED BY IDOCK:   -4.38 KCAL/MOL
REMARK 923 INTER-LIGAND FREE ENERGY PREDICTED BY IDOCK:   -4.16 KCAL/MOL
REMARK 924 INTRA-LIGAND FREE ENERGY PREDICTED BY IDOCK:   -0.22 KCAL/MOL
REMARK 927      BINDING AFFINITY PREDICTED BY RF-SCORE:    0.00 PKD
ROOT
HETATM    1  C   UNL     1      -7.229   7.995  67.489  1.00  0.00    -0.088 C  
HETATM    2  C   UNL     1      -8.347   6.997  67.212  1.00  0.00    -0.122 C  
ENDROOT
BRANCH   2   3
HETATM    3  N   UNL     1      -8.921   6.480  68.471  1.00  0.00    -0.127 NA 
HETATM    4  C   UNL     1      -8.579   5.211  68.927  1.00  0.00    -0.090 C  
HETATM    5  C   UNL     1      -8.908   4.673  70.109  1.00  0.00    -0.126 C  
HETATM    6  C   UNL     1      -9.694   5.515  71.028  1.00  0.00    -0.175 C  
HETATM    7  C   UNL     1      -8.464   3.301  70.433  1.00  0.00    -0.056 C  
HETATM    8  O   UNL     1      -7.781   2.620  69.682  1.00  0.00    -0.043 OA 
HETATM    9  O   UNL     1      -8.877   2.849  71.638  1.00  0.00    -0.072 OA 
HETATM   10  O   UNL     1     -10.060   5.065  72.112  1.00  0.00    -0.182 OA 
HETATM   11  C   UNL     1     -10.017   6.899  70.609  1.00  0.00    -0.198 A  
HETATM   12  C   UNL     1      -9.649   7.342  69.324  1.00  0.00    -0.156 A  
HETATM   13  C   UNL     1     -10.048   8.646  68.968  1.00  0.00    -0.207 A  
HETATM   14  C   UNL     1     -10.716   9.524  69.854  1.00  0.00    -0.268 A  
HETATM   15  C   UNL     1     -10.675   7.737  71.513  1.00  0.00    -0.255 A  
HETATM   16  C   UNL     1     -11.000   9.041  71.141  1.00  0.00    -0.371 A  
BRANCH  14  17
HETATM   17  C   UNL     1     -11.102  10.898  69.441  1.00  0.00    -0.317 A  
HETATM   18  C   UNL     1     -12.035  11.651  70.171  1.00  0.00    -0.441 A  
HETATM   19  C   UNL     1     -12.366  12.932  69.749  1.00  0.00    -0.055 A  
HETATM   20  N   UNL     1     -11.851  13.517  68.651  1.00  0.00    -0.353 NA 
HETATM   21  C   UNL     1     -10.960  12.791  67.950  1.00  0.00    -0.234 A  
HETATM   22  C   UNL     1     -10.558  11.510  68.301  1.00  0.00    -0.228 A  
ENDBRANCH  14  17
ENDBRANCH   2   3
TORSDOF 2
ENDMDL
MODEL      105
REMARK 921   NORMALIZED FREE ENERGY PREDICTED BY IDOCK:   -3.54 KCAL/MOL
REMARK 922        TOTAL FREE ENERGY PREDICTED BY IDOCK:   -4.37 KCAL/MOL
REMARK 923 INTER-LIGAND FREE ENERGY PREDICTED BY IDOCK:   -3.99 KCAL/MOL
REMARK 924 INTRA-LIGAND FREE ENERGY PREDICTED BY IDOCK:   -0.38 KCAL/MOL
REMARK 927      BINDING AFFINITY PREDICTED BY RF-SCORE:    0.00 PKD
ROOT
HETATM    1  C   UNL     1      -9.875   9.116  66.126  1.00  0.00    -0.363 C  
HETATM    2  C   UNL     1      -8.610   8.313  66.403  1.00  0.00    -0.133 C  
ENDROOT
BRANCH   2   3
HETATM    3  N   UNL     1      -8.843   6.869  66.193  1.00  0.00    -0.151 NA 
HETATM    4  C   UNL     1      -8.482   6.269  64.991  1.00  0.00    -0.046 C  
HETATM    5  C   UNL     1      -8.504   4.958  64.715  1.00  0.00    -0.145 C  
HETATM    6  C   UNL     1      -8.935   4.058  65.800  1.00  0.00    -0.131 C  
HETATM    7  C   UNL     1      -8.089   4.488  63.377  1.00  0.00    -0.093 C  
HETATM    8  O   UNL     1      -7.697   5.236  62.493  1.00  0.00    -0.061 OA 
HETATM    9  O   UNL     1      -8.179   3.151  63.201  1.00  0.00    -0.079 OA 
HETATM   10  O   UNL     1      -9.014   2.847  65.598  1.00  0.00    -0.135 OA 
HETATM   11  C   UNL     1      -9.260   4.652  67.117  1.00  0.00    -0.140 A  
HETATM   12  C   UNL     1      -9.236   6.050  67.277  1.00  0.00    -0.114 A  
HETATM   13  C   UNL     1      -9.622   6.548  68.538  1.00  0.00    -0.123 A  
HETATM   14  C   UNL     1      -9.946   5.717  69.636  1.00  0.00    -0.267 A  
HETATM   15  C   UNL     1      -9.573   3.798  68.179  1.00  0.00    -0.176 A  
HETATM   16  C   UNL     1      -9.892   4.330  69.427  1.00  0.00    -0.205 A  
BRANCH  14  17
HETATM   17  C   UNL     1     -10.331   6.287  70.953  1.00  0.00    -0.253 A  
HETATM   18  C   UNL     1     -10.746   7.621  71.085  1.00  0.00    -0.242 A  
HETATM   19  C   UNL     1     -11.098   8.112  72.335  1.00  0.00    -0.369 A  
HETATM   20  N   UNL     1     -11.056   7.383  73.466  1.00  0.00    -0.235 NA 
HETATM   21  C   UNL     1     -10.653   6.104  73.339  1.00  0.00    -0.269 A  
HETATM   22  C   UNL     1     -10.296   5.523  72.130  1.00  0.00    -0.263 A  
ENDBRANCH  14  17
ENDBRANCH   2   3
TORSDOF 2
ENDMDL
MODEL      106
REMARK 921   NORMALIZED FREE ENERGY PREDICTED BY IDOCK:   -3.51 KCAL/MOL
REMARK 922        TOTAL FREE ENERGY PREDICTED BY IDOCK:   -4.34 KCAL/MOL
REMARK 923 INTER-LIGAND FREE ENERGY PREDICTED BY IDOCK:   -3.94 KCAL/MOL
REMARK 924 INTRA-LIGAND FREE ENERGY PREDICTED BY IDOCK:   -0.39 KCAL/MOL
REMARK 927      BINDING AFFINITY PREDICTED BY RF-SCORE:    0.00 PKD
ROOT
HETATM    1  C   UNL     1      -6.462   9.696  67.456  1.00  0.00    -0.069 C  
HETATM    2  C   UNL     1      -6.294   8.208  67.738  1.00  0.00    -0.053 C  
ENDROOT
BRANCH   2   3
HETATM    3  N   UNL     1      -7.114   7.398  66.815  1.00  0.00    -0.077 NA 
HETATM    4  C   UNL     1      -6.552   6.872  65.657  1.00  0.00    -0.051 C  
HETATM    5  C   UNL     1      -7.131   6.012  64.808  1.00  0.00    -0.060 C  
HETATM    6  C   UNL     1      -8.493   5.561  65.145  1.00  0.00    -0.147 C  
HETATM    7  C   UNL     1      -6.389   5.556  63.614  1.00  0.00    -0.022 C  
HETATM    8  O   UNL     1      -5.246   5.904  63.359  1.00  0.00    -0.016 OA 
HETATM    9  O   UNL     1      -7.080   4.713  62.814  1.00  0.00    -0.037 OA 
HETATM   10  O   UNL     1      -9.094   4.802  64.386  1.00  0.00    -0.150 OA 
HETATM   11  C   UNL     1      -9.099   6.042  66.408  1.00  0.00    -0.159 A  
HETATM   12  C   UNL     1      -8.408   6.976  67.202  1.00  0.00    -0.121 A  
HETATM   13  C   UNL     1      -9.073   7.440  68.355  1.00  0.00    -0.132 A  
HETATM   14  C   UNL     1     -10.338   6.959  68.768  1.00  0.00    -0.200 A  
HETATM   15  C   UNL     1     -10.349   5.542  66.785  1.00  0.00    -0.321 A  
HETATM   16  C   UNL     1     -10.947   5.984  67.964  1.00  0.00    -0.340 A  
BRANCH  14  17
HETATM   17  C   UNL     1     -10.995   7.466  70.001  1.00  0.00    -0.264 A  
HETATM   18  C   UNL     1     -12.039   6.762  70.622  1.00  0.00    -0.371 A  
HETATM   19  C   UNL     1     -12.623   7.271  71.773  1.00  0.00    -0.341 A  
HETATM   20  N   UNL     1     -12.260   8.433  72.349  1.00  0.00    -0.384 NA 
HETATM   21  C   UNL     1     -11.261   9.109  71.750  1.00  0.00    -0.381 A  
HETATM   22  C   UNL     1     -10.608   8.672  70.605  1.00  0.00    -0.249 A  
ENDBRANCH  14  17
ENDBRANCH   2   3
TORSDOF 2
ENDMDL
MODEL      107
REMARK 921   NORMALIZED FREE ENERGY PREDICTED BY IDOCK:   -3.41 KCAL/MOL
REMARK 922        TOTAL FREE ENERGY PREDICTED BY IDOCK:   -4.23 KCAL/MOL
REMARK 923 INTER-LIGAND FREE ENERGY PREDICTED BY IDOCK:   -3.82 KCAL/MOL
REMARK 924 INTRA-LIGAND FREE ENERGY PREDICTED BY IDOCK:   -0.41 KCAL/MOL
REMARK 927      BINDING AFFINITY PREDICTED BY RF-SCORE:    0.00 PKD
ROOT
HETATM    1  C   UNL     1      -5.861   9.720  70.374  1.00  0.00    -0.060 C  
HETATM    2  C   UNL     1      -6.813  10.823  69.924  1.00  0.00    -0.146 C  
ENDROOT
BRANCH   2   3
HETATM    3  N   UNL     1      -7.709  10.344  68.852  1.00  0.00    -0.102 NA 
HETATM    4  C   UNL     1      -8.127   9.017  68.829  1.00  0.00    -0.105 C  
HETATM    5  C   UNL     1      -9.041   8.483  68.008  1.00  0.00    -0.144 C  
HETATM    6  C   UNL     1      -9.683   9.394  67.044  1.00  0.00    -0.178 C  
HETATM    7  C   UNL     1      -9.365   7.044  68.116  1.00  0.00    -0.125 C  
HETATM    8  O   UNL     1      -8.856   6.301  68.942  1.00  0.00    -0.124 OA 
HETATM    9  O   UNL     1     -10.278   6.608  67.220  1.00  0.00    -0.156 OA 
HETATM   10  O   UNL     1     -10.502   8.957  66.238  1.00  0.00    -0.170 OA 
HETATM   11  C   UNL     1      -9.318  10.829  67.085  1.00  0.00    -0.171 A  
HETATM   12  C   UNL     1      -8.315  11.268  67.969  1.00  0.00    -0.136 A  
HETATM   13  C   UNL     1      -7.971  12.634  67.906  1.00  0.00    -0.156 A  
HETATM   14  C   UNL     1      -8.631  13.563  67.068  1.00  0.00    -0.169 A  
HETATM   15  C   UNL     1      -9.994  11.717  66.244  1.00  0.00    -0.246 A  
HETATM   16  C   UNL     1      -9.664  13.072  66.255  1.00  0.00    -0.265 A  
BRANCH  14  17
HETATM   17  C   UNL     1      -8.246  14.999  67.047  1.00  0.00    -0.246 A  
HETATM   18  C   UNL     1      -9.163  16.002  66.694  1.00  0.00    -0.276 A  
HETATM   19  C   UNL     1      -8.762  17.330  66.690  1.00  0.00    -0.257 A  
HETATM   20  N   UNL     1      -7.516  17.739  66.996  1.00  0.00    -0.192 NA 
HETATM   21  C   UNL     1      -6.636  16.775  67.329  1.00  0.00    -0.172 A  
HETATM   22  C   UNL     1      -6.950  15.424  67.375  1.00  0.00    -0.222 A  
ENDBRANCH  14  17
ENDBRANCH   2   3
TORSDOF 2
ENDMDL
MODEL      108
REMARK 921   NORMALIZED FREE ENERGY PREDICTED BY IDOCK:   -3.40 KCAL/MOL
REMARK 922        TOTAL FREE ENERGY PREDICTED BY IDOCK:   -4.22 KCAL/MOL
REMARK 923 INTER-LIGAND FREE ENERGY PREDICTED BY IDOCK:   -3.88 KCAL/MOL
REMARK 924 INTRA-LIGAND FREE ENERGY PREDICTED BY IDOCK:   -0.34 KCAL/MOL
REMARK 927      BINDING AFFINITY PREDICTED BY RF-SCORE:    0.00 PKD
ROOT
HETATM    1  C   UNL     1     -11.913  11.037  70.592  1.00  0.00    -0.464 C  
HETATM    2  C   UNL     1     -12.035  11.111  69.074  1.00  0.00    -0.320 C  
ENDROOT
BRANCH   2   3
HETATM    3  N   UNL     1     -10.938  11.911  68.492  1.00  0.00    -0.221 NA 
HETATM    4  C   UNL     1     -11.100  13.277  68.288  1.00  0.00    -0.266 C  
HETATM    5  C   UNL     1     -10.154  14.144  67.903  1.00  0.00    -0.235 C  
HETATM    6  C   UNL     1      -8.799  13.601  67.696  1.00  0.00    -0.194 C  
HETATM    7  C   UNL     1     -10.500  15.571  67.727  1.00  0.00    -0.273 C  
HETATM    8  O   UNL     1     -11.616  16.022  67.937  1.00  0.00    -0.218 OA 
HETATM    9  O   UNL     1      -9.476  16.348  67.310  1.00  0.00    -0.224 OA 
HETATM   10  O   UNL     1      -7.895  14.338  67.306  1.00  0.00    -0.189 OA 
HETATM   11  C   UNL     1      -8.569  12.165  67.973  1.00  0.00    -0.175 A  
HETATM   12  C   UNL     1      -9.653  11.343  68.336  1.00  0.00    -0.197 A  
HETATM   13  C   UNL     1      -9.373   9.973  68.519  1.00  0.00    -0.145 A  
HETATM   14  C   UNL     1      -8.070   9.427  68.427  1.00  0.00    -0.109 A  
HETATM   15  C   UNL     1      -7.269  11.662  67.875  1.00  0.00    -0.083 A  
HETATM   16  C   UNL     1      -7.025  10.313  68.121  1.00  0.00    -0.074 A  
BRANCH  14  17
HETATM   17  C   UNL     1      -7.819   7.979  68.645  1.00  0.00    -0.118 A  
HETATM   18  C   UNL     1      -8.529   6.995  67.938  1.00  0.00    -0.124 A  
HETATM   19  C   UNL     1      -8.261   5.653  68.171  1.00  0.00    -0.096 A  
HETATM   20  N   UNL     1      -7.352   5.213  69.062  1.00  0.00    -0.061 NA 
HETATM   21  C   UNL     1      -6.675   6.158  69.742  1.00  0.00    -0.052 A  
HETATM   22  C   UNL     1      -6.865   7.522  69.567  1.00  0.00    -0.044 A  
ENDBRANCH  14  17
ENDBRANCH   2   3
TORSDOF 2
ENDMDL
MODEL      109
REMARK 921   NORMALIZED FREE ENERGY PREDICTED BY IDOCK:   -3.28 KCAL/MOL
REMARK 922        TOTAL FREE ENERGY PREDICTED BY IDOCK:   -4.09 KCAL/MOL
REMARK 923 INTER-LIGAND FREE ENERGY PREDICTED BY IDOCK:   -3.68 KCAL/MOL
REMARK 924 INTRA-LIGAND FREE ENERGY PREDICTED BY IDOCK:   -0.41 KCAL/MOL
REMARK 927      BINDING AFFINITY PREDICTED BY RF-SCORE:    0.00 PKD
ROOT
HETATM    1  C   UNL     1     -11.949  12.349  65.248  1.00  0.00    -0.461 C  
HETATM    2  C   UNL     1     -10.488  11.998  64.990  1.00  0.00    -0.287 C  
ENDROOT
BRANCH   2   3
HETATM    3  N   UNL     1      -9.589  12.826  65.821  1.00  0.00    -0.157 NA 
HETATM    4  C   UNL     1      -9.808  14.194  65.940  1.00  0.00    -0.289 C  
HETATM    5  C   UNL     1      -9.166  15.036  66.761  1.00  0.00    -0.280 C  
HETATM    6  C   UNL     1      -8.138  14.453  67.641  1.00  0.00    -0.177 C  
HETATM    7  C   UNL     1      -9.523  16.471  66.757  1.00  0.00    -0.249 C  
HETATM    8  O   UNL     1     -10.402  16.943  66.052  1.00  0.00    -0.338 OA 
HETATM    9  O   UNL     1      -8.792  17.231  67.603  1.00  0.00    -0.216 OA 
HETATM   10  O   UNL     1      -7.487  15.179  68.390  1.00  0.00    -0.109 OA 
HETATM   11  C   UNL     1      -7.925  12.988  67.595  1.00  0.00    -0.169 A  
HETATM   12  C   UNL     1      -8.635  12.209  66.662  1.00  0.00    -0.122 A  
HETATM   13  C   UNL     1      -8.332  10.832  66.629  1.00  0.00    -0.141 A  
HETATM   14  C   UNL     1      -7.426  10.214  67.523  1.00  0.00    -0.090 A  
HETATM   15  C   UNL     1      -7.023  12.413  68.496  1.00  0.00    -0.092 A  
HETATM   16  C   UNL     1      -6.796  11.038  68.469  1.00  0.00    -0.064 A  
BRANCH  14  17
HETATM   17  C   UNL     1      -7.150   8.755  67.462  1.00  0.00    -0.079 A  
HETATM   18  C   UNL     1      -6.306   8.205  66.484  1.00  0.00    -0.054 A  
HETATM   19  C   UNL     1      -6.074   6.837  66.465  1.00  0.00    -0.037 A  
HETATM   20  N   UNL     1      -6.628   5.970  67.334  1.00  0.00    -0.054 NA 
HETATM   21  C   UNL     1      -7.441   6.498  68.269  1.00  0.00    -0.095 A  
HETATM   22  C   UNL     1      -7.720   7.854  68.374  1.00  0.00    -0.114 A  
ENDBRANCH  14  17
ENDBRANCH   2   3
TORSDOF 2
ENDMDL
MODEL      110
REMARK 921   NORMALIZED FREE ENERGY PREDICTED BY IDOCK:   -3.28 KCAL/MOL
REMARK 922        TOTAL FREE ENERGY PREDICTED BY IDOCK:   -4.08 KCAL/MOL
REMARK 923 INTER-LIGAND FREE ENERGY PREDICTED BY IDOCK:   -4.53 KCAL/MOL
REMARK 924 INTRA-LIGAND FREE ENERGY PREDICTED BY IDOCK:    0.45 KCAL/MOL
REMARK 927      BINDING AFFINITY PREDICTED BY RF-SCORE:    0.00 PKD
ROOT
HETATM    1  C   UNL     1      -7.075   9.096  70.887  1.00  0.00    -0.108 C  
HETATM    2  C   UNL     1      -6.897   7.590  70.740  1.00  0.00    -0.047 C  
ENDROOT
BRANCH   2   3
HETATM    3  N   UNL     1      -8.058   6.862  71.293  1.00  0.00    -0.109 NA 
HETATM    4  C   UNL     1      -7.865   5.773  72.136  1.00  0.00    -0.103 C  
HETATM    5  C   UNL     1      -8.812   5.112  72.816  1.00  0.00    -0.118 C  
HETATM    6  C   UNL     1     -10.195   5.599  72.672  1.00  0.00    -0.185 C  
HETATM    7  C   UNL     1      -8.431   3.967  73.669  1.00  0.00    -0.091 C  
HETATM    8  O   UNL     1      -7.277   3.591  73.814  1.00  0.00    -0.049 OA 
HETATM    9  O   UNL     1      -9.469   3.358  74.284  1.00  0.00    -0.091 OA 
HETATM   10  O   UNL     1     -11.115   5.012  73.239  1.00  0.00    -0.289 OA 
HETATM   11  C   UNL     1     -10.433   6.801  71.839  1.00  0.00    -0.221 A  
HETATM   12  C   UNL     1      -9.362   7.389  71.141  1.00  0.00    -0.155 A  
HETATM   13  C   UNL     1      -9.673   8.488  70.315  1.00  0.00    -0.182 A  
HETATM   14  C   UNL     1     -10.969   9.049  70.225  1.00  0.00    -0.274 A  
HETATM   15  C   UNL     1     -11.726   7.328  71.777  1.00  0.00    -0.321 A  
HETATM   16  C   UNL     1     -11.981   8.452  70.993  1.00  0.00    -0.255 A  
BRANCH  14  17
HETATM   17  C   UNL     1     -11.248  10.220  69.353  1.00  0.00    -0.292 A  
HETATM   18  C   UNL     1     -11.704  11.439  69.880  1.00  0.00    -0.424 A  
HETATM   19  C   UNL     1     -11.950  12.507  69.029  1.00  0.00    -0.233 A  
HETATM   20  N   UNL     1     -11.792  12.454  67.693  1.00  0.00    -0.465 NA 
HETATM   21  C   UNL     1     -11.359  11.283  67.188  1.00  0.00    -0.220 A  
HETATM   22  C   UNL     1     -11.073  10.166  67.961  1.00  0.00    -0.302 A  
ENDBRANCH  14  17
ENDBRANCH   2   3
TORSDOF 2
ENDMDL
MODEL      111
REMARK 921   NORMALIZED FREE ENERGY PREDICTED BY IDOCK:   -3.28 KCAL/MOL
REMARK 922        TOTAL FREE ENERGY PREDICTED BY IDOCK:   -4.08 KCAL/MOL
REMARK 923 INTER-LIGAND FREE ENERGY PREDICTED BY IDOCK:   -4.30 KCAL/MOL
REMARK 924 INTRA-LIGAND FREE ENERGY PREDICTED BY IDOCK:    0.22 KCAL/MOL
REMARK 927      BINDING AFFINITY PREDICTED BY RF-SCORE:    0.00 PKD
ROOT
HETATM    1  C   UNL     1     -12.483  11.047  70.153  1.00  0.00    -0.344 C  
HETATM    2  C   UNL     1     -12.003  11.190  68.713  1.00  0.00    -0.268 C  
ENDROOT
BRANCH   2   3
HETATM    3  N   UNL     1     -10.529  11.260  68.649  1.00  0.00    -0.196 NA 
HETATM    4  C   UNL     1      -9.906  12.322  68.003  1.00  0.00    -0.204 C  
HETATM    5  C   UNL     1      -8.593  12.588  67.987  1.00  0.00    -0.185 C  
HETATM    6  C   UNL     1      -7.721  11.675  68.748  1.00  0.00    -0.111 C  
HETATM    7  C   UNL     1      -8.096  13.763  67.241  1.00  0.00    -0.139 C  
HETATM    8  O   UNL     1      -8.827  14.538  66.643  1.00  0.00    -0.243 OA 
HETATM    9  O   UNL     1      -6.753  13.917  67.271  1.00  0.00    -0.237 OA 
HETATM   10  O   UNL     1      -6.503  11.842  68.743  1.00  0.00    -0.061 OA 
HETATM   11  C   UNL     1      -8.354  10.573  69.510  1.00  0.00    -0.075 A  
HETATM   12  C   UNL     1      -9.744  10.370  69.419  1.00  0.00    -0.200 A  
HETATM   13  C   UNL     1     -10.268   9.263  70.115  1.00  0.00    -0.251 A  
HETATM   14  C   UNL     1      -9.483   8.420  70.938  1.00  0.00    -0.205 A  
HETATM   15  C   UNL     1      -7.546   9.763  70.313  1.00  0.00    -0.184 A  
HETATM   16  C   UNL     1      -8.113   8.713  71.033  1.00  0.00    -0.164 A  
BRANCH  14  17
HETATM   17  C   UNL     1     -10.081   7.273  71.668  1.00  0.00    -0.196 A  
HETATM   18  C   UNL     1      -9.353   6.549  72.626  1.00  0.00    -0.145 A  
HETATM   19  C   UNL     1      -9.952   5.485  73.286  1.00  0.00    -0.172 A  
HETATM   20  N   UNL     1     -11.215   5.076  73.058  1.00  0.00    -0.305 NA 
HETATM   21  C   UNL     1     -11.910   5.768  72.136  1.00  0.00    -0.108 A  
HETATM   22  C   UNL     1     -11.400   6.853  71.436  1.00  0.00    -0.308 A  
ENDBRANCH  14  17
ENDBRANCH   2   3
TORSDOF 2
ENDMDL
MODEL      112
REMARK 921   NORMALIZED FREE ENERGY PREDICTED BY IDOCK:   -3.25 KCAL/MOL
REMARK 922        TOTAL FREE ENERGY PREDICTED BY IDOCK:   -4.05 KCAL/MOL
REMARK 923 INTER-LIGAND FREE ENERGY PREDICTED BY IDOCK:   -3.65 KCAL/MOL
REMARK 924 INTRA-LIGAND FREE ENERGY PREDICTED BY IDOCK:   -0.40 KCAL/MOL
REMARK 927      BINDING AFFINITY PREDICTED BY RF-SCORE:    0.00 PKD
ROOT
HETATM    1  C   UNL     1     -10.769  11.749  63.704  1.00  0.00    -0.503 C  
HETATM    2  C   UNL     1     -10.259  10.488  64.392  1.00  0.00    -0.267 C  
ENDROOT
BRANCH   2   3
HETATM    3  N   UNL     1      -9.442  10.825  65.576  1.00  0.00    -0.197 NA 
HETATM    4  C   UNL     1      -9.304  12.149  65.979  1.00  0.00    -0.170 C  
HETATM    5  C   UNL     1      -8.717  12.585  67.102  1.00  0.00    -0.200 C  
HETATM    6  C   UNL     1      -8.180  11.558  68.012  1.00  0.00    -0.143 C  
HETATM    7  C   UNL     1      -8.653  14.036  67.374  1.00  0.00    -0.203 C  
HETATM    8  O   UNL     1      -9.133  14.881  66.633  1.00  0.00    -0.252 OA 
HETATM    9  O   UNL     1      -8.013  14.363  68.519  1.00  0.00    -0.132 OA 
HETATM   10  O   UNL     1      -7.595  11.895  69.041  1.00  0.00    -0.077 OA 
HETATM   11  C   UNL     1      -8.370  10.134  67.655  1.00  0.00    -0.114 A  
HETATM   12  C   UNL     1      -8.971   9.797  66.427  1.00  0.00    -0.151 A  
HETATM   13  C   UNL     1      -9.058   8.424  66.121  1.00  0.00    -0.238 A  
HETATM   14  C   UNL     1      -8.646   7.403  67.010  1.00  0.00    -0.119 A  
HETATM   15  C   UNL     1      -7.952   9.153  68.559  1.00  0.00    -0.102 A  
HETATM   16  C   UNL     1      -8.111   7.805  68.244  1.00  0.00    -0.124 A  
BRANCH  14  17
HETATM   17  C   UNL     1      -8.773   5.966  66.653  1.00  0.00    -0.121 A  
HETATM   18  C   UNL     1      -9.784   5.507  65.793  1.00  0.00     0.004 A  
HETATM   19  C   UNL     1      -9.864   4.156  65.484  1.00  0.00    -0.207 A  
HETATM   20  N   UNL     1      -9.026   3.224  65.975  1.00  0.00    -0.139 NA 
HETATM   21  C   UNL     1      -8.060   3.664  66.804  1.00  0.00    -0.095 A  
HETATM   22  C   UNL     1      -7.893   4.996  67.158  1.00  0.00    -0.096 A  
ENDBRANCH  14  17
ENDBRANCH   2   3
TORSDOF 2
ENDMDL
MODEL      113
REMARK 921   NORMALIZED FREE ENERGY PREDICTED BY IDOCK:   -3.25 KCAL/MOL
REMARK 922        TOTAL FREE ENERGY PREDICTED BY IDOCK:   -4.05 KCAL/MOL
REMARK 923 INTER-LIGAND FREE ENERGY PREDICTED BY IDOCK:   -3.63 KCAL/MOL
REMARK 924 INTRA-LIGAND FREE ENERGY PREDICTED BY IDOCK:   -0.41 KCAL/MOL
REMARK 927      BINDING AFFINITY PREDICTED BY RF-SCORE:    0.00 PKD
ROOT
HETATM    1  C   UNL     1      -7.636   5.128  68.815  1.00  0.00    -0.078 C  
HETATM    2  C   UNL     1      -8.615   6.286  68.658  1.00  0.00    -0.121 C  
ENDROOT
BRANCH   2   3
HETATM    3  N   UNL     1      -8.199   7.187  67.565  1.00  0.00    -0.116 NA 
HETATM    4  C   UNL     1      -7.364   6.723  66.554  1.00  0.00    -0.074 C  
HETATM    5  C   UNL     1      -7.021   7.379  65.437  1.00  0.00    -0.059 C  
HETATM    6  C   UNL     1      -7.602   8.720  65.249  1.00  0.00    -0.091 C  
HETATM    7  C   UNL     1      -6.113   6.737  64.463  1.00  0.00    -0.035 C  
HETATM    8  O   UNL     1      -5.663   5.609  64.606  1.00  0.00    -0.019 OA 
HETATM    9  O   UNL     1      -5.813   7.500  63.390  1.00  0.00    -0.047 OA 
HETATM   10  O   UNL     1      -7.297   9.390  64.264  1.00  0.00    -0.103 OA 
HETATM   11  C   UNL     1      -8.553   9.222  66.268  1.00  0.00    -0.139 A  
HETATM   12  C   UNL     1      -8.807   8.456  67.422  1.00  0.00    -0.134 A  
HETATM   13  C   UNL     1      -9.670   9.025  68.381  1.00  0.00    -0.170 A  
HETATM   14  C   UNL     1     -10.328  10.264  68.195  1.00  0.00    -0.208 A  
HETATM   15  C   UNL     1      -9.185  10.449  66.050  1.00  0.00    -0.200 A  
HETATM   16  C   UNL     1     -10.078  10.949  66.996  1.00  0.00    -0.244 A  
BRANCH  14  17
HETATM   17  C   UNL     1     -11.243  10.818  69.227  1.00  0.00    -0.333 A  
HETATM   18  C   UNL     1     -11.782  10.012  70.242  1.00  0.00    -0.327 A  
HETATM   19  C   UNL     1     -12.632  10.571  71.187  1.00  0.00    -0.417 A  
HETATM   20  N   UNL     1     -12.998  11.867  71.192  1.00  0.00    -0.250 NA 
HETATM   21  C   UNL     1     -12.484  12.638  70.215  1.00  0.00    -0.090 A  
HETATM   22  C   UNL     1     -11.617  12.171  69.237  1.00  0.00    -0.377 A  
ENDBRANCH  14  17
ENDBRANCH   2   3
TORSDOF 2
ENDMDL
MODEL      114
REMARK 921   NORMALIZED FREE ENERGY PREDICTED BY IDOCK:   -3.20 KCAL/MOL
REMARK 922        TOTAL FREE ENERGY PREDICTED BY IDOCK:   -3.99 KCAL/MOL
REMARK 923 INTER-LIGAND FREE ENERGY PREDICTED BY IDOCK:   -3.60 KCAL/MOL
REMARK 924 INTRA-LIGAND FREE ENERGY PREDICTED BY IDOCK:   -0.39 KCAL/MOL
REMARK 927      BINDING AFFINITY PREDICTED BY RF-SCORE:    0.00 PKD
ROOT
HETATM    1  C   UNL     1     -11.998  10.507  70.654  1.00  0.00    -0.455 C  
HETATM    2  C   UNL     1     -10.934   9.514  71.108  1.00  0.00    -0.368 C  
ENDROOT
BRANCH   2   3
HETATM    3  N   UNL     1      -9.925   9.298  70.050  1.00  0.00    -0.196 NA 
HETATM    4  C   UNL     1      -9.506  10.360  69.255  1.00  0.00    -0.198 C  
HETATM    5  C   UNL     1      -8.508  10.342  68.362  1.00  0.00    -0.124 C  
HETATM    6  C   UNL     1      -7.764   9.078  68.221  1.00  0.00    -0.095 C  
HETATM    7  C   UNL     1      -8.197  11.566  67.592  1.00  0.00    -0.131 C  
HETATM    8  O   UNL     1      -8.793  12.623  67.740  1.00  0.00    -0.161 OA 
HETATM    9  O   UNL     1      -7.191  11.426  66.701  1.00  0.00    -0.140 OA 
HETATM   10  O   UNL     1      -6.861   8.986  67.391  1.00  0.00    -0.075 OA 
HETATM   11  C   UNL     1      -8.132   7.945  69.101  1.00  0.00    -0.124 A  
HETATM   12  C   UNL     1      -9.227   8.070  69.977  1.00  0.00    -0.156 A  
HETATM   13  C   UNL     1      -9.563   6.930  70.735  1.00  0.00    -0.167 A  
HETATM   14  C   UNL     1      -8.815   5.729  70.705  1.00  0.00    -0.145 A  
HETATM   15  C   UNL     1      -7.369   6.776  69.044  1.00  0.00    -0.094 A  
HETATM   16  C   UNL     1      -7.699   5.691  69.855  1.00  0.00    -0.083 A  
BRANCH  14  17
HETATM   17  C   UNL     1      -9.196   4.557  71.535  1.00  0.00    -0.186 A  
HETATM   18  C   UNL     1      -9.110   4.589  72.936  1.00  0.00    -0.132 A  
HETATM   19  C   UNL     1      -9.478   3.471  73.673  1.00  0.00    -0.099 A  
HETATM   20  N   UNL     1      -9.911   2.321  73.125  1.00  0.00    -0.104 NA 
HETATM   21  C   UNL     1      -9.989   2.290  71.781  1.00  0.00    -0.131 A  
HETATM   22  C   UNL     1      -9.657   3.361  70.963  1.00  0.00    -0.239 A  
ENDBRANCH  14  17
ENDBRANCH   2   3
TORSDOF 2
ENDMDL
MODEL      115
REMARK 921   NORMALIZED FREE ENERGY PREDICTED BY IDOCK:   -3.13 KCAL/MOL
REMARK 922        TOTAL FREE ENERGY PREDICTED BY IDOCK:   -3.92 KCAL/MOL
REMARK 923 INTER-LIGAND FREE ENERGY PREDICTED BY IDOCK:   -3.51 KCAL/MOL
REMARK 924 INTRA-LIGAND FREE ENERGY PREDICTED BY IDOCK:   -0.41 KCAL/MOL
REMARK 927      BINDING AFFINITY PREDICTED BY RF-SCORE:    0.00 PKD
ROOT
HETATM    1  C   UNL     1     -10.979  10.915  65.987  1.00  0.00    -0.074 C  
HETATM    2  C   UNL     1      -9.812   9.962  66.214  1.00  0.00    -0.245 C  
ENDROOT
BRANCH   2   3
HETATM    3  N   UNL     1      -9.945   9.260  67.507  1.00  0.00    -0.189 NA 
HETATM    4  C   UNL     1     -10.428   9.935  68.624  1.00  0.00    -0.206 C  
HETATM    5  C   UNL     1     -10.731   9.395  69.812  1.00  0.00    -0.250 C  
HETATM    6  C   UNL     1     -10.554   7.938  69.946  1.00  0.00    -0.242 C  
HETATM    7  C   UNL     1     -11.231  10.263  70.900  1.00  0.00    -0.233 C  
HETATM    8  O   UNL     1     -11.411  11.465  70.772  1.00  0.00     0.004 OA 
HETATM    9  O   UNL     1     -11.477   9.618  72.062  1.00  0.00    -0.182 OA 
HETATM   10  O   UNL     1     -10.778   7.389  71.023  1.00  0.00    -0.228 OA 
HETATM   11  C   UNL     1     -10.110   7.174  68.758  1.00  0.00    -0.175 A  
HETATM   12  C   UNL     1      -9.785   7.856  67.571  1.00  0.00    -0.159 A  
HETATM   13  C   UNL     1      -9.304   7.072  66.502  1.00  0.00    -0.201 A  
HETATM   14  C   UNL     1      -9.214   5.661  66.554  1.00  0.00    -0.149 A  
HETATM   15  C   UNL     1     -10.035   5.781  68.846  1.00  0.00    -0.211 A  
HETATM   16  C   UNL     1      -9.611   5.037  67.747  1.00  0.00    -0.178 A  
BRANCH  14  17
HETATM   17  C   UNL     1      -8.718   4.873  65.396  1.00  0.00    -0.143 A  
HETATM   18  C   UNL     1      -7.390   4.974  64.952  1.00  0.00    -0.067 A  
HETATM   19  C   UNL     1      -6.968   4.217  63.867  1.00  0.00    -0.045 A  
HETATM   20  N   UNL     1      -7.767   3.379  63.181  1.00  0.00    -0.066 NA 
HETATM   21  C   UNL     1      -9.042   3.287  63.605  1.00  0.00    -0.096 A  
HETATM   22  C   UNL     1      -9.549   3.992  64.687  1.00  0.00    -0.175 A  
ENDBRANCH  14  17
ENDBRANCH   2   3
TORSDOF 2
ENDMDL
MODEL      116
REMARK 921   NORMALIZED FREE ENERGY PREDICTED BY IDOCK:   -3.06 KCAL/MOL
REMARK 922        TOTAL FREE ENERGY PREDICTED BY IDOCK:   -3.84 KCAL/MOL
REMARK 923 INTER-LIGAND FREE ENERGY PREDICTED BY IDOCK:   -3.76 KCAL/MOL
REMARK 924 INTRA-LIGAND FREE ENERGY PREDICTED BY IDOCK:   -0.08 KCAL/MOL
REMARK 927      BINDING AFFINITY PREDICTED BY RF-SCORE:    0.00 PKD
ROOT
HETATM    1  C   UNL     1      -5.790  11.369  67.068  1.00  0.00    -0.108 C  
HETATM    2  C   UNL     1      -6.027  10.319  68.147  1.00  0.00    -0.041 C  
ENDROOT
BRANCH   2   3
HETATM    3  N   UNL     1      -6.859   9.211  67.634  1.00  0.00    -0.076 NA 
HETATM    4  C   UNL     1      -6.356   7.915  67.601  1.00  0.00    -0.052 C  
HETATM    5  C   UNL     1      -7.038   6.802  67.297  1.00  0.00    -0.080 C  
HETATM    6  C   UNL     1      -8.469   6.963  66.985  1.00  0.00    -0.121 C  
HETATM    7  C   UNL     1      -6.344   5.497  67.306  1.00  0.00    -0.039 C  
HETATM    8  O   UNL     1      -5.165   5.364  67.603  1.00  0.00    -0.004 OA 
HETATM    9  O   UNL     1      -7.120   4.448  66.956  1.00  0.00    -0.065 OA 
HETATM   10  O   UNL     1      -9.141   5.986  66.660  1.00  0.00    -0.128 OA 
HETATM   11  C   UNL     1      -9.059   8.319  67.078  1.00  0.00    -0.172 A  
HETATM   12  C   UNL     1      -8.233   9.420  67.371  1.00  0.00    -0.121 A  
HETATM   13  C   UNL     1      -8.849  10.688  67.377  1.00  0.00    -0.132 A  
HETATM   14  C   UNL     1     -10.237  10.878  67.181  1.00  0.00    -0.249 A  
HETATM   15  C   UNL     1     -10.434   8.467  66.880  1.00  0.00    -0.359 A  
HETATM   16  C   UNL     1     -11.015   9.732  66.953  1.00  0.00    -0.010 A  
BRANCH  14  17
HETATM   17  C   UNL     1     -10.847  12.233  67.213  1.00  0.00    -0.283 A  
HETATM   18  C   UNL     1     -10.498  13.174  68.195  1.00  0.00    -0.255 A  
HETATM   19  C   UNL     1     -11.091  14.429  68.186  1.00  0.00    -0.264 A  
HETATM   20  N   UNL     1     -12.014  14.817  67.285  1.00  0.00    -0.304 NA 
HETATM   21  C   UNL     1     -12.351  13.911  66.347  1.00  0.00    -0.426 A  
HETATM   22  C   UNL     1     -11.802  12.639  66.268  1.00  0.00    -0.471 A  
ENDBRANCH  14  17
ENDBRANCH   2   3
TORSDOF 2
ENDMDL
MODEL      117
REMARK 921   NORMALIZED FREE ENERGY PREDICTED BY IDOCK:   -3.05 KCAL/MOL
REMARK 922        TOTAL FREE ENERGY PREDICTED BY IDOCK:   -3.83 KCAL/MOL
REMARK 923 INTER-LIGAND FREE ENERGY PREDICTED BY IDOCK:   -3.41 KCAL/MOL
REMARK 924 INTRA-LIGAND FREE ENERGY PREDICTED BY IDOCK:   -0.42 KCAL/MOL
REMARK 927      BINDING AFFINITY PREDICTED BY RF-SCORE:    0.00 PKD
ROOT
HETATM    1  C   UNL     1     -12.697   8.572  71.490  1.00  0.00    -0.340 C  
HETATM    2  C   UNL     1     -11.237   8.178  71.301  1.00  0.00    -0.260 C  
ENDROOT
BRANCH   2   3
HETATM    3  N   UNL     1     -10.748   8.579  69.966  1.00  0.00    -0.232 NA 
HETATM    4  C   UNL     1     -11.195   9.761  69.383  1.00  0.00    -0.114 C  
HETATM    5  C   UNL     1     -10.737  10.315  68.252  1.00  0.00    -0.276 C  
HETATM    6  C   UNL     1      -9.636   9.615  67.566  1.00  0.00    -0.150 C  
HETATM    7  C   UNL     1     -11.331  11.579  67.768  1.00  0.00    -0.296 C  
HETATM    8  O   UNL     1     -12.219  12.175  68.360  1.00  0.00    -0.324 OA 
HETATM    9  O   UNL     1     -10.813  12.032  66.605  1.00  0.00    -0.249 OA 
HETATM   10  O   UNL     1      -9.198  10.053  66.504  1.00  0.00    -0.146 OA 
HETATM   11  C   UNL     1      -9.084   8.392  68.193  1.00  0.00    -0.138 A  
HETATM   12  C   UNL     1      -9.674   7.882  69.365  1.00  0.00    -0.170 A  
HETATM   13  C   UNL     1      -9.140   6.679  69.869  1.00  0.00    -0.143 A  
HETATM   14  C   UNL     1      -8.021   6.027  69.300  1.00  0.00    -0.103 A  
HETATM   15  C   UNL     1      -7.976   7.778  67.603  1.00  0.00    -0.124 A  
HETATM   16  C   UNL     1      -7.442   6.620  68.167  1.00  0.00    -0.095 A  
BRANCH  14  17
HETATM   17  C   UNL     1      -7.481   4.767  69.875  1.00  0.00    -0.055 A  
HETATM   18  C   UNL     1      -6.412   4.083  69.275  1.00  0.00    -0.033 A  
HETATM   19  C   UNL     1      -5.938   2.910  69.847  1.00  0.00    -0.023 A  
HETATM   20  N   UNL     1      -6.453   2.358  70.962  1.00  0.00    -0.023 NA 
HETATM   21  C   UNL     1      -7.481   3.013  71.533  1.00  0.00    -0.040 A  
HETATM   22  C   UNL     1      -8.013   4.198  71.042  1.00  0.00    -0.071 A  
ENDBRANCH  14  17
ENDBRANCH   2   3
TORSDOF 2
ENDMDL
MODEL      118
REMARK 921   NORMALIZED FREE ENERGY PREDICTED BY IDOCK:   -3.00 KCAL/MOL
REMARK 922        TOTAL FREE ENERGY PREDICTED BY IDOCK:   -3.77 KCAL/MOL
REMARK 923 INTER-LIGAND FREE ENERGY PREDICTED BY IDOCK:   -3.35 KCAL/MOL
REMARK 924 INTRA-LIGAND FREE ENERGY PREDICTED BY IDOCK:   -0.42 KCAL/MOL
REMARK 927      BINDING AFFINITY PREDICTED BY RF-SCORE:    0.00 PKD
ROOT
HETATM    1  C   UNL     1     -11.460  11.881  65.931  1.00  0.00    -0.340 C  
HETATM    2  C   UNL     1     -10.188  11.078  65.681  1.00  0.00    -0.260 C  
ENDROOT
BRANCH   2   3
HETATM    3  N   UNL     1      -9.108  11.498  66.597  1.00  0.00    -0.184 NA 
HETATM    4  C   UNL     1      -8.735  12.836  66.673  1.00  0.00    -0.058 C  
HETATM    5  C   UNL     1      -7.878  13.377  67.549  1.00  0.00    -0.181 C  
HETATM    6  C   UNL     1      -7.287  12.469  68.548  1.00  0.00    -0.115 C  
HETATM    7  C   UNL     1      -7.588  14.825  67.485  1.00  0.00    -0.193 C  
HETATM    8  O   UNL     1      -8.110  15.581  66.679  1.00  0.00    -0.240 OA 
HETATM    9  O   UNL     1      -6.689  15.257  68.398  1.00  0.00    -0.104 OA 
HETATM   10  O   UNL     1      -6.464  12.897  69.356  1.00  0.00    -0.107 OA 
HETATM   11  C   UNL     1      -7.714  11.051  68.547  1.00  0.00    -0.122 A  
HETATM   12  C   UNL     1      -8.593  10.589  67.550  1.00  0.00    -0.121 A  
HETATM   13  C   UNL     1      -8.903   9.213  67.570  1.00  0.00    -0.124 A  
HETATM   14  C   UNL     1      -8.438   8.326  68.569  1.00  0.00    -0.126 A  
HETATM   15  C   UNL     1      -7.234  10.205  69.551  1.00  0.00    -0.115 A  
HETATM   16  C   UNL     1      -7.612   8.864  69.569  1.00  0.00    -0.080 A  
BRANCH  14  17
HETATM   17  C   UNL     1      -8.804   6.886  68.560  1.00  0.00    -0.124 A  
HETATM   18  C   UNL     1      -8.177   5.972  67.698  1.00  0.00    -0.109 A  
HETATM   19  C   UNL     1      -8.550   4.635  67.724  1.00  0.00    -0.103 A  
HETATM   20  N   UNL     1      -9.507   4.139  68.530  1.00  0.00    -0.156 NA 
HETATM   21  C   UNL     1     -10.110   5.017  69.353  1.00  0.00    -0.218 A  
HETATM   22  C   UNL     1      -9.796   6.368  69.408  1.00  0.00    -0.170 A  
ENDBRANCH  14  17
ENDBRANCH   2   3
TORSDOF 2
ENDMDL
MODEL      119
REMARK 921   NORMALIZED FREE ENERGY PREDICTED BY IDOCK:   -2.95 KCAL/MOL
REMARK 922        TOTAL FREE ENERGY PREDICTED BY IDOCK:   -3.71 KCAL/MOL
REMARK 923 INTER-LIGAND FREE ENERGY PREDICTED BY IDOCK:   -3.32 KCAL/MOL
REMARK 924 INTRA-LIGAND FREE ENERGY PREDICTED BY IDOCK:   -0.40 KCAL/MOL
REMARK 927      BINDING AFFINITY PREDICTED BY RF-SCORE:    0.00 PKD
ROOT
HETATM    1  C   UNL     1     -10.003   4.342  71.018  1.00  0.00    -0.242 C  
HETATM    2  C   UNL     1      -9.813   4.392  69.507  1.00  0.00    -0.188 C  
ENDROOT
BRANCH   2   3
HETATM    3  N   UNL     1      -9.959   5.771  68.999  1.00  0.00    -0.156 NA 
HETATM    4  C   UNL     1     -10.424   6.780  69.836  1.00  0.00    -0.211 C  
HETATM    5  C   UNL     1     -10.474   8.089  69.557  1.00  0.00    -0.226 C  
HETATM    6  C   UNL     1      -9.967   8.507  68.238  1.00  0.00    -0.184 C  
HETATM    7  C   UNL     1     -11.006   9.030  70.565  1.00  0.00    -0.252 C  
HETATM    8  O   UNL     1     -11.391   8.682  71.672  1.00  0.00    -0.265 OA 
HETATM    9  O   UNL     1     -11.037  10.321  70.166  1.00  0.00    -0.276 OA 
HETATM   10  O   UNL     1     -10.020   9.690  67.906  1.00  0.00    -0.153 OA 
HETATM   11  C   UNL     1      -9.396   7.472  67.345  1.00  0.00    -0.164 A  
HETATM   12  C   UNL     1      -9.433   6.120  67.733  1.00  0.00    -0.115 A  
HETATM   13  C   UNL     1      -8.934   5.183  66.806  1.00  0.00    -0.113 A  
HETATM   14  C   UNL     1      -8.347   5.549  65.571  1.00  0.00    -0.136 A  
HETATM   15  C   UNL     1      -8.823   7.872  66.135  1.00  0.00    -0.197 A  
HETATM   16  C   UNL     1      -8.287   6.919  65.271  1.00  0.00    -0.102 A  
BRANCH  14  17
HETATM   17  C   UNL     1      -7.818   4.526  64.631  1.00  0.00    -0.086 A  
HETATM   18  C   UNL     1      -8.571   3.397  64.271  1.00  0.00    -0.093 A  
HETATM   19  C   UNL     1      -8.038   2.469  63.387  1.00  0.00    -0.073 A  
HETATM   20  N   UNL     1      -6.810   2.568  62.845  1.00  0.00    -0.027 NA 
HETATM   21  C   UNL     1      -6.087   3.649  63.194  1.00  0.00    -0.014 A  
HETATM   22  C   UNL     1      -6.541   4.636  64.058  1.00  0.00    -0.042 A  
ENDBRANCH  14  17
ENDBRANCH   2   3
TORSDOF 2
ENDMDL
MODEL      120
REMARK 921   NORMALIZED FREE ENERGY PREDICTED BY IDOCK:   -2.91 KCAL/MOL
REMARK 922        TOTAL FREE ENERGY PREDICTED BY IDOCK:   -3.67 KCAL/MOL
REMARK 923 INTER-LIGAND FREE ENERGY PREDICTED BY IDOCK:   -3.29 KCAL/MOL
REMARK 924 INTRA-LIGAND FREE ENERGY PREDICTED BY IDOCK:   -0.38 KCAL/MOL
REMARK 927      BINDING AFFINITY PREDICTED BY RF-SCORE:    0.00 PKD
ROOT
HETATM    1  C   UNL     1     -10.183   5.416  70.907  1.00  0.00    -0.303 C  
HETATM    2  C   UNL     1      -9.598   5.043  69.550  1.00  0.00    -0.167 C  
ENDROOT
BRANCH   2   3
HETATM    3  N   UNL     1      -9.142   6.244  68.821  1.00  0.00    -0.127 NA 
HETATM    4  C   UNL     1      -8.752   7.381  69.520  1.00  0.00    -0.137 C  
HETATM    5  C   UNL     1      -8.189   8.482  69.003  1.00  0.00    -0.116 C  
HETATM    6  C   UNL     1      -7.939   8.481  67.551  1.00  0.00    -0.106 C  
HETATM    7  C   UNL     1      -7.839   9.609  69.894  1.00  0.00    -0.152 C  
HETATM    8  O   UNL     1      -8.015   9.589  71.104  1.00  0.00    -0.315 OA 
HETATM    9  O   UNL     1      -7.305  10.677  69.262  1.00  0.00    -0.094 OA 
HETATM   10  O   UNL     1      -7.460   9.477  67.010  1.00  0.00    -0.090 OA 
HETATM   11  C   UNL     1      -8.274   7.261  66.782  1.00  0.00    -0.121 A  
HETATM   12  C   UNL     1      -8.898   6.178  67.430  1.00  0.00    -0.106 A  
HETATM   13  C   UNL     1      -9.249   5.077  66.622  1.00  0.00    -0.129 A  
HETATM   14  C   UNL     1      -8.938   4.993  65.245  1.00  0.00    -0.151 A  
HETATM   15  C   UNL     1      -7.949   7.214  65.423  1.00  0.00    -0.125 A  
HETATM   16  C   UNL     1      -8.261   6.081  64.673  1.00  0.00    -0.108 A  
BRANCH  14  17
HETATM   17  C   UNL     1      -9.313   3.804  64.436  1.00  0.00    -0.150 A  
HETATM   18  C   UNL     1      -8.407   2.758  64.200  1.00  0.00    -0.083 A  
HETATM   19  C   UNL     1      -8.800   1.665  63.441  1.00  0.00    -0.087 A  
HETATM   20  N   UNL     1     -10.020   1.537  62.885  1.00  0.00    -0.097 NA 
HETATM   21  C   UNL     1     -10.887   2.543  63.108  1.00  0.00    -0.238 A  
HETATM   22  C   UNL     1     -10.588   3.667  63.865  1.00  0.00    -0.285 A  
ENDBRANCH  14  17
ENDBRANCH   2   3
TORSDOF 2
ENDMDL
MODEL      121
REMARK 921   NORMALIZED FREE ENERGY PREDICTED BY IDOCK:   -2.77 KCAL/MOL
REMARK 922        TOTAL FREE ENERGY PREDICTED BY IDOCK:   -3.51 KCAL/MOL
REMARK 923 INTER-LIGAND FREE ENERGY PREDICTED BY IDOCK:   -3.05 KCAL/MOL
REMARK 924 INTRA-LIGAND FREE ENERGY PREDICTED BY IDOCK:   -0.46 KCAL/MOL
REMARK 927      BINDING AFFINITY PREDICTED BY RF-SCORE:    0.00 PKD
ROOT
HETATM    1  C   UNL     1     -11.292  10.651  68.238  1.00  0.00    -0.357 C  
HETATM    2  C   UNL     1     -10.107   9.974  67.561  1.00  0.00    -0.198 C  
ENDROOT
BRANCH   2   3
HETATM    3  N   UNL     1      -8.831  10.412  68.164  1.00  0.00    -0.130 NA 
HETATM    4  C   UNL     1      -8.346  11.693  67.923  1.00  0.00    -0.143 C  
HETATM    5  C   UNL     1      -7.287  12.268  68.509  1.00  0.00    -0.105 C  
HETATM    6  C   UNL     1      -6.575  11.473  69.524  1.00  0.00    -0.120 C  
HETATM    7  C   UNL     1      -6.904  13.645  68.130  1.00  0.00    -0.121 C  
HETATM    8  O   UNL     1      -7.520  14.314  67.314  1.00  0.00    -0.174 OA 
HETATM    9  O   UNL     1      -5.805  14.114  68.761  1.00  0.00    -0.080 OA 
HETATM   10  O   UNL     1      -5.572  11.930  70.070  1.00  0.00    -0.095 OA 
HETATM   11  C   UNL     1      -7.103  10.131  69.861  1.00  0.00    -0.144 A  
HETATM   12  C   UNL     1      -8.203   9.616  69.150  1.00  0.00    -0.120 A  
HETATM   13  C   UNL     1      -8.610   8.306  69.477  1.00  0.00    -0.134 A  
HETATM   14  C   UNL     1      -8.018   7.545  70.513  1.00  0.00    -0.098 A  
HETATM   15  C   UNL     1      -6.494   9.410  70.892  1.00  0.00    -0.096 A  
HETATM   16  C   UNL     1      -6.965   8.140  71.224  1.00  0.00    -0.056 A  
BRANCH  14  17
HETATM   17  C   UNL     1      -8.491   6.173  70.835  1.00  0.00    -0.128 A  
HETATM   18  C   UNL     1      -9.494   5.544  70.080  1.00  0.00    -0.205 A  
HETATM   19  C   UNL     1      -9.904   4.261  70.414  1.00  0.00    -0.198 A  
HETATM   20  N   UNL     1      -9.404   3.559  71.449  1.00  0.00    -0.130 NA 
HETATM   21  C   UNL     1      -8.446   4.166  72.175  1.00  0.00    -0.106 A  
HETATM   22  C   UNL     1      -7.963   5.439  71.908  1.00  0.00    -0.113 A  
ENDBRANCH  14  17
ENDBRANCH   2   3
TORSDOF 2
ENDMDL
MODEL      122
REMARK 921   NORMALIZED FREE ENERGY PREDICTED BY IDOCK:   -2.75 KCAL/MOL
REMARK 922        TOTAL FREE ENERGY PREDICTED BY IDOCK:   -3.49 KCAL/MOL
REMARK 923 INTER-LIGAND FREE ENERGY PREDICTED BY IDOCK:   -3.05 KCAL/MOL
REMARK 924 INTRA-LIGAND FREE ENERGY PREDICTED BY IDOCK:   -0.44 KCAL/MOL
REMARK 927      BINDING AFFINITY PREDICTED BY RF-SCORE:    0.00 PKD
ROOT
HETATM    1  C   UNL     1     -11.614   6.398  69.838  1.00  0.00    -0.422 C  
HETATM    2  C   UNL     1     -10.525   5.333  69.882  1.00  0.00    -0.281 C  
ENDROOT
BRANCH   2   3
HETATM    3  N   UNL     1      -9.534   5.544  68.807  1.00  0.00    -0.124 NA 
HETATM    4  C   UNL     1      -9.801   5.108  67.513  1.00  0.00    -0.162 C  
HETATM    5  C   UNL     1      -9.064   5.352  66.421  1.00  0.00    -0.141 C  
HETATM    6  C   UNL     1      -7.861   6.183  66.603  1.00  0.00    -0.104 C  
HETATM    7  C   UNL     1      -9.492   4.805  65.116  1.00  0.00    -0.105 C  
HETATM    8  O   UNL     1     -10.512   4.148  64.964  1.00  0.00    -0.240 OA 
HETATM    9  O   UNL     1      -8.660   5.089  64.090  1.00  0.00    -0.139 OA 
HETATM   10  O   UNL     1      -7.122   6.411  65.646  1.00  0.00    -0.062 OA 
HETATM   11  C   UNL     1      -7.581   6.726  67.952  1.00  0.00    -0.107 A  
HETATM   12  C   UNL     1      -8.408   6.369  69.033  1.00  0.00    -0.118 A  
HETATM   13  C   UNL     1      -8.042   6.868  70.300  1.00  0.00    -0.120 A  
HETATM   14  C   UNL     1      -6.954   7.749  70.503  1.00  0.00    -0.046 A  
HETATM   15  C   UNL     1      -6.498   7.595  68.113  1.00  0.00    -0.054 A  
HETATM   16  C   UNL     1      -6.205   8.114  69.373  1.00  0.00    -0.034 A  
BRANCH  14  17
HETATM   17  C   UNL     1      -6.615   8.265  71.855  1.00  0.00    -0.067 A  
HETATM   18  C   UNL     1      -7.478   8.086  72.948  1.00  0.00    -0.153 A  
HETATM   19  C   UNL     1      -7.121   8.582  74.195  1.00  0.00    -0.106 A  
HETATM   20  N   UNL     1      -5.980   9.255  74.436  1.00  0.00    -0.300 NA 
HETATM   21  C   UNL     1      -5.156   9.430  73.385  1.00  0.00    -0.103 A  
HETATM   22  C   UNL     1      -5.421   8.957  72.107  1.00  0.00    -0.059 A  
ENDBRANCH  14  17
ENDBRANCH   2   3
TORSDOF 2
ENDMDL
MODEL      123
REMARK 921   NORMALIZED FREE ENERGY PREDICTED BY IDOCK:   -2.74 KCAL/MOL
REMARK 922        TOTAL FREE ENERGY PREDICTED BY IDOCK:   -3.48 KCAL/MOL
REMARK 923 INTER-LIGAND FREE ENERGY PREDICTED BY IDOCK:   -3.37 KCAL/MOL
REMARK 924 INTRA-LIGAND FREE ENERGY PREDICTED BY IDOCK:   -0.11 KCAL/MOL
REMARK 927      BINDING AFFINITY PREDICTED BY RF-SCORE:    0.00 PKD
ROOT
HETATM    1  C   UNL     1     -10.397  12.238  65.615  1.00  0.00    -0.287 C  
HETATM    2  C   UNL     1      -9.196  11.307  65.512  1.00  0.00    -0.202 C  
ENDROOT
BRANCH   2   3
HETATM    3  N   UNL     1      -8.673  10.966  66.851  1.00  0.00    -0.141 NA 
HETATM    4  C   UNL     1      -8.652   9.642  67.278  1.00  0.00    -0.132 C  
HETATM    5  C   UNL     1      -8.085   9.174  68.398  1.00  0.00    -0.104 C  
HETATM    6  C   UNL     1      -7.395  10.156  69.254  1.00  0.00    -0.098 C  
HETATM    7  C   UNL     1      -8.161   7.730  68.705  1.00  0.00    -0.127 C  
HETATM    8  O   UNL     1      -8.702   6.915  67.972  1.00  0.00    -0.126 OA 
HETATM    9  O   UNL     1      -7.580   7.375  69.872  1.00  0.00    -0.086 OA 
HETATM   10  O   UNL     1      -6.887   9.796  70.315  1.00  0.00    -0.091 OA 
HETATM   11  C   UNL     1      -7.333  11.563  68.798  1.00  0.00    -0.115 A  
HETATM   12  C   UNL     1      -8.001  11.945  67.619  1.00  0.00    -0.146 A  
HETATM   13  C   UNL     1      -7.956  13.313  67.282  1.00  0.00    -0.134 A  
HETATM   14  C   UNL     1      -7.222  14.271  68.020  1.00  0.00    -0.146 A  
HETATM   15  C   UNL     1      -6.597  12.481  69.553  1.00  0.00    -0.039 A  
HETATM   16  C   UNL     1      -6.529  13.814  69.152  1.00  0.00    -0.109 A  
BRANCH  14  17
HETATM   17  C   UNL     1      -7.189  15.701  67.617  1.00  0.00    -0.197 A  
HETATM   18  C   UNL     1      -6.399  16.640  68.299  1.00  0.00    -0.136 A  
HETATM   19  C   UNL     1      -6.396  17.966  67.888  1.00  0.00    -0.178 A  
HETATM   20  N   UNL     1      -7.129  18.434  66.859  1.00  0.00    -0.196 NA 
HETATM   21  C   UNL     1      -7.890  17.533  66.209  1.00  0.00    -0.287 A  
HETATM   22  C   UNL     1      -7.946  16.186  66.539  1.00  0.00    -0.294 A  
ENDBRANCH  14  17
ENDBRANCH   2   3
TORSDOF 2
ENDMDL
MODEL      124
REMARK 921   NORMALIZED FREE ENERGY PREDICTED BY IDOCK:   -2.68 KCAL/MOL
REMARK 922        TOTAL FREE ENERGY PREDICTED BY IDOCK:   -3.41 KCAL/MOL
REMARK 923 INTER-LIGAND FREE ENERGY PREDICTED BY IDOCK:   -2.97 KCAL/MOL
REMARK 924 INTRA-LIGAND FREE ENERGY PREDICTED BY IDOCK:   -0.43 KCAL/MOL
REMARK 927      BINDING AFFINITY PREDICTED BY RF-SCORE:    0.00 PKD
ROOT
HETATM    1  C   UNL     1     -10.404   7.944  66.926  1.00  0.00    -0.400 C  
HETATM    2  C   UNL     1     -10.527   8.763  68.205  1.00  0.00    -0.191 C  
ENDROOT
BRANCH   2   3
HETATM    3  N   UNL     1      -9.407   9.718  68.332  1.00  0.00    -0.133 NA 
HETATM    4  C   UNL     1      -9.460  10.951  67.690  1.00  0.00    -0.159 C  
HETATM    5  C   UNL     1      -8.591  11.961  67.829  1.00  0.00    -0.154 C  
HETATM    6  C   UNL     1      -7.476  11.754  68.770  1.00  0.00    -0.109 C  
HETATM    7  C   UNL     1      -8.796  13.208  67.063  1.00  0.00    -0.210 C  
HETATM    8  O   UNL     1      -9.743  13.388  66.311  1.00  0.00    -0.280 OA 
HETATM    9  O   UNL     1      -7.844  14.147  67.258  1.00  0.00    -0.183 OA 
HETATM   10  O   UNL     1      -6.623  12.629  68.913  1.00  0.00    -0.084 OA 
HETATM   11  C   UNL     1      -7.424  10.483  69.527  1.00  0.00    -0.146 A  
HETATM   12  C   UNL     1      -8.375   9.477  69.269  1.00  0.00    -0.129 A  
HETATM   13  C   UNL     1      -8.224   8.268  69.977  1.00  0.00    -0.119 A  
HETATM   14  C   UNL     1      -7.228   8.064  70.962  1.00  0.00    -0.055 A  
HETATM   15  C   UNL     1      -6.428  10.318  70.494  1.00  0.00    -0.104 A  
HETATM   16  C   UNL     1      -6.349   9.128  71.215  1.00  0.00    -0.078 A  
BRANCH  14  17
HETATM   17  C   UNL     1      -7.117   6.777  71.697  1.00  0.00    -0.076 A  
HETATM   18  C   UNL     1      -6.476   6.693  72.943  1.00  0.00    -0.066 A  
HETATM   19  C   UNL     1      -6.396   5.471  73.596  1.00  0.00    -0.070 A  
HETATM   20  N   UNL     1      -6.893   4.322  73.099  1.00  0.00    -0.055 NA 
HETATM   21  C   UNL     1      -7.504   4.402  71.902  1.00  0.00    -0.070 A  
HETATM   22  C   UNL     1      -7.643   5.581  71.183  1.00  0.00    -0.102 A  
ENDBRANCH  14  17
ENDBRANCH   2   3
TORSDOF 2
ENDMDL
MODEL      125
REMARK 921   NORMALIZED FREE ENERGY PREDICTED BY IDOCK:   -2.60 KCAL/MOL
REMARK 922        TOTAL FREE ENERGY PREDICTED BY IDOCK:   -3.32 KCAL/MOL
REMARK 923 INTER-LIGAND FREE ENERGY PREDICTED BY IDOCK:   -3.03 KCAL/MOL
REMARK 924 INTRA-LIGAND FREE ENERGY PREDICTED BY IDOCK:   -0.29 KCAL/MOL
REMARK 927      BINDING AFFINITY PREDICTED BY RF-SCORE:    0.00 PKD
ROOT
HETATM    1  C   UNL     1      -9.933  10.677  66.370  1.00  0.00    -0.273 C  
HETATM    2  C   UNL     1      -8.417  10.640  66.211  1.00  0.00    -0.155 C  
ENDROOT
BRANCH   2   3
HETATM    3  N   UNL     1      -7.751  10.469  67.518  1.00  0.00    -0.097 NA 
HETATM    4  C   UNL     1      -7.258  11.575  68.202  1.00  0.00    -0.080 C  
HETATM    5  C   UNL     1      -6.761  11.587  69.447  1.00  0.00    -0.116 C  
HETATM    6  C   UNL     1      -6.753  10.304  70.172  1.00  0.00    -0.146 C  
HETATM    7  C   UNL     1      -6.273  12.857  70.024  1.00  0.00    -0.058 C  
HETATM    8  O   UNL     1      -6.316  13.926  69.432  1.00  0.00    -0.099 OA 
HETATM    9  O   UNL     1      -5.767  12.747  71.272  1.00  0.00    -0.364 OA 
HETATM   10  O   UNL     1      -6.275  10.241  71.303  1.00  0.00    -0.321 OA 
HETATM   11  C   UNL     1      -7.335   9.117  69.504  1.00  0.00    -0.068 A  
HETATM   12  C   UNL     1      -7.794   9.219  68.177  1.00  0.00    -0.095 A  
HETATM   13  C   UNL     1      -8.273   8.034  67.582  1.00  0.00    -0.124 A  
HETATM   14  C   UNL     1      -8.376   6.804  68.274  1.00  0.00    -0.118 A  
HETATM   15  C   UNL     1      -7.422   7.920  70.220  1.00  0.00    -0.077 A  
HETATM   16  C   UNL     1      -7.957   6.785  69.613  1.00  0.00    -0.124 A  
BRANCH  14  17
HETATM   17  C   UNL     1      -8.903   5.583  67.610  1.00  0.00    -0.105 A  
HETATM   18  C   UNL     1      -8.543   4.296  68.043  1.00  0.00    -0.106 A  
HETATM   19  C   UNL     1      -9.061   3.183  67.396  1.00  0.00    -0.176 A  
HETATM   20  N   UNL     1      -9.897   3.249  66.343  1.00  0.00     0.114 NA 
HETATM   21  C   UNL     1     -10.238   4.483  65.926  1.00  0.00    -0.263 A  
HETATM   22  C   UNL     1      -9.782   5.653  66.519  1.00  0.00    -0.181 A  
ENDBRANCH  14  17
ENDBRANCH   2   3
TORSDOF 2
ENDMDL
MODEL      126
REMARK 921   NORMALIZED FREE ENERGY PREDICTED BY IDOCK:   -2.58 KCAL/MOL
REMARK 922        TOTAL FREE ENERGY PREDICTED BY IDOCK:   -3.30 KCAL/MOL
REMARK 923 INTER-LIGAND FREE ENERGY PREDICTED BY IDOCK:   -2.89 KCAL/MOL
REMARK 924 INTRA-LIGAND FREE ENERGY PREDICTED BY IDOCK:   -0.42 KCAL/MOL
REMARK 927      BINDING AFFINITY PREDICTED BY RF-SCORE:    0.00 PKD
ROOT
HETATM    1  C   UNL     1      -7.736   7.753  71.640  1.00  0.00    -0.091 C  
HETATM    2  C   UNL     1      -6.663   7.996  70.586  1.00  0.00    -0.037 C  
ENDROOT
BRANCH   2   3
HETATM    3  N   UNL     1      -6.934   9.235  69.828  1.00  0.00    -0.054 NA 
HETATM    4  C   UNL     1      -6.500  10.463  70.316  1.00  0.00    -0.141 C  
HETATM    5  C   UNL     1      -6.551  11.639  69.675  1.00  0.00    -0.096 C  
HETATM    6  C   UNL     1      -7.105  11.628  68.310  1.00  0.00    -0.078 C  
HETATM    7  C   UNL     1      -6.047  12.856  70.345  1.00  0.00    -0.030 C  
HETATM    8  O   UNL     1      -5.554  12.853  71.464  1.00  0.00    -0.382 OA 
HETATM    9  O   UNL     1      -6.175  13.988  69.619  1.00  0.00    -0.113 OA 
HETATM   10  O   UNL     1      -7.215  12.681  67.684  1.00  0.00    -0.114 OA 
HETATM   11  C   UNL     1      -7.513  10.329  67.728  1.00  0.00    -0.088 A  
HETATM   12  C   UNL     1      -7.447   9.162  68.512  1.00  0.00    -0.081 A  
HETATM   13  C   UNL     1      -7.915   7.973  67.917  1.00  0.00    -0.128 A  
HETATM   14  C   UNL     1      -8.361   7.900  66.576  1.00  0.00    -0.127 A  
HETATM   15  C   UNL     1      -7.946  10.295  66.399  1.00  0.00    -0.121 A  
HETATM   16  C   UNL     1      -8.345   9.088  65.829  1.00  0.00    -0.133 A  
BRANCH  14  17
HETATM   17  C   UNL     1      -8.830   6.620  65.984  1.00  0.00    -0.151 A  
HETATM   18  C   UNL     1      -8.166   6.023  64.900  1.00  0.00    -0.130 A  
HETATM   19  C   UNL     1      -8.637   4.826  64.379  1.00  0.00    -0.145 A  
HETATM   20  N   UNL     1      -9.725   4.182  64.842  1.00  0.00    -0.183 NA 
HETATM   21  C   UNL     1     -10.363   4.758  65.879  1.00  0.00    -0.270 A  
HETATM   22  C   UNL     1      -9.958   5.945  66.474  1.00  0.00    -0.196 A  
ENDBRANCH  14  17
ENDBRANCH   2   3
TORSDOF 2
ENDMDL
MODEL      127
REMARK 921   NORMALIZED FREE ENERGY PREDICTED BY IDOCK:   -2.58 KCAL/MOL
REMARK 922        TOTAL FREE ENERGY PREDICTED BY IDOCK:   -3.30 KCAL/MOL
REMARK 923 INTER-LIGAND FREE ENERGY PREDICTED BY IDOCK:   -2.93 KCAL/MOL
REMARK 924 INTRA-LIGAND FREE ENERGY PREDICTED BY IDOCK:   -0.37 KCAL/MOL
REMARK 927      BINDING AFFINITY PREDICTED BY RF-SCORE:    0.00 PKD
ROOT
HETATM    1  C   UNL     1      -9.989  10.079  65.498  1.00  0.00    -0.367 C  
HETATM    2  C   UNL     1      -8.488   9.864  65.349  1.00  0.00    -0.147 C  
ENDROOT
BRANCH   2   3
HETATM    3  N   UNL     1      -7.899   9.348  66.602  1.00  0.00    -0.104 NA 
HETATM    4  C   UNL     1      -7.479  10.228  67.593  1.00  0.00    -0.089 C  
HETATM    5  C   UNL     1      -7.061   9.903  68.824  1.00  0.00    -0.067 C  
HETATM    6  C   UNL     1      -7.064   8.471  69.171  1.00  0.00    -0.064 C  
HETATM    7  C   UNL     1      -6.643  10.971  69.757  1.00  0.00    -0.143 C  
HETATM    8  O   UNL     1      -6.679  12.161  69.477  1.00  0.00    -0.096 OA 
HETATM    9  O   UNL     1      -6.213  10.528  70.959  1.00  0.00    -0.328 OA 
HETATM   10  O   UNL     1      -6.655   8.105  70.271  1.00  0.00    -0.036 OA 
HETATM   11  C   UNL     1      -7.571   7.507  68.167  1.00  0.00    -0.114 A  
HETATM   12  C   UNL     1      -7.949   7.964  66.891  1.00  0.00    -0.108 A  
HETATM   13  C   UNL     1      -8.358   6.983  65.964  1.00  0.00    -0.134 A  
HETATM   14  C   UNL     1      -8.471   5.610  66.286  1.00  0.00    -0.124 A  
HETATM   15  C   UNL     1      -7.670   6.159  68.522  1.00  0.00    -0.100 A  
HETATM   16  C   UNL     1      -8.136   5.229  67.595  1.00  0.00    -0.100 A  
BRANCH  14  17
HETATM   17  C   UNL     1      -8.923   4.612  65.281  1.00  0.00    -0.148 A  
HETATM   18  C   UNL     1      -8.015   3.952  64.440  1.00  0.00    -0.086 A  
HETATM   19  C   UNL     1      -8.480   3.026  63.516  1.00  0.00    -0.086 A  
HETATM   20  N   UNL     1      -9.781   2.716  63.355  1.00  0.00    -0.100 NA 
HETATM   21  C   UNL     1     -10.652   3.354  64.160  1.00  0.00    -0.159 A  
HETATM   22  C   UNL     1     -10.278   4.283  65.121  1.00  0.00    -0.228 A  
ENDBRANCH  14  17
ENDBRANCH   2   3
TORSDOF 2
ENDMDL
MODEL      128
REMARK 921   NORMALIZED FREE ENERGY PREDICTED BY IDOCK:   -2.35 KCAL/MOL
REMARK 922        TOTAL FREE ENERGY PREDICTED BY IDOCK:   -3.04 KCAL/MOL
REMARK 923 INTER-LIGAND FREE ENERGY PREDICTED BY IDOCK:   -2.66 KCAL/MOL
REMARK 924 INTRA-LIGAND FREE ENERGY PREDICTED BY IDOCK:   -0.38 KCAL/MOL
REMARK 927      BINDING AFFINITY PREDICTED BY RF-SCORE:    0.00 PKD
ROOT
HETATM    1  C   UNL     1      -5.509   5.630  65.943  1.00  0.00    -0.013 C  
HETATM    2  C   UNL     1      -6.510   6.078  67.001  1.00  0.00    -0.050 C  
ENDROOT
BRANCH   2   3
HETATM    3  N   UNL     1      -7.045   7.419  66.690  1.00  0.00    -0.073 NA 
HETATM    4  C   UNL     1      -7.100   7.864  65.373  1.00  0.00    -0.060 C  
HETATM    5  C   UNL     1      -7.682   8.988  64.934  1.00  0.00    -0.111 C  
HETATM    6  C   UNL     1      -8.349   9.829  65.943  1.00  0.00    -0.124 C  
HETATM    7  C   UNL     1      -7.643   9.313  63.493  1.00  0.00    -0.107 C  
HETATM    8  O   UNL     1      -7.120   8.593  62.654  1.00  0.00    -0.097 OA 
HETATM    9  O   UNL     1      -8.235  10.483  63.167  1.00  0.00    -0.160 OA 
HETATM   10  O   UNL     1      -8.868  10.893  65.610  1.00  0.00    -0.185 OA 
HETATM   11  C   UNL     1      -8.375   9.355  67.346  1.00  0.00    -0.125 A  
HETATM   12  C   UNL     1      -7.694   8.173  67.695  1.00  0.00    -0.102 A  
HETATM   13  C   UNL     1      -7.704   7.818  69.060  1.00  0.00    -0.109 A  
HETATM   14  C   UNL     1      -8.415   8.542  70.046  1.00  0.00    -0.125 A  
HETATM   15  C   UNL     1      -9.089  10.096  68.292  1.00  0.00    -0.122 A  
HETATM   16  C   UNL     1      -9.123   9.678  69.621  1.00  0.00    -0.224 A  
BRANCH  14  17
HETATM   17  C   UNL     1      -8.412   8.121  71.471  1.00  0.00    -0.160 A  
HETATM   18  C   UNL     1      -9.435   7.322  72.005  1.00  0.00    -0.151 A  
HETATM   19  C   UNL     1      -9.391   6.949  73.341  1.00  0.00    -0.152 A  
HETATM   20  N   UNL     1      -8.416   7.322  74.192  1.00  0.00    -0.171 NA 
HETATM   21  C   UNL     1      -7.437   8.092  73.680  1.00  0.00    -0.154 A  
HETATM   22  C   UNL     1      -7.390   8.502  72.354  1.00  0.00    -0.084 A  
ENDBRANCH  14  17
ENDBRANCH   2   3
TORSDOF 2
ENDMDL
MODEL      129
REMARK 921   NORMALIZED FREE ENERGY PREDICTED BY IDOCK:   -2.34 KCAL/MOL
REMARK 922        TOTAL FREE ENERGY PREDICTED BY IDOCK:   -3.03 KCAL/MOL
REMARK 923 INTER-LIGAND FREE ENERGY PREDICTED BY IDOCK:   -2.63 KCAL/MOL
REMARK 924 INTRA-LIGAND FREE ENERGY PREDICTED BY IDOCK:   -0.40 KCAL/MOL
REMARK 927      BINDING AFFINITY PREDICTED BY RF-SCORE:    0.00 PKD
ROOT
HETATM    1  C   UNL     1      -9.899   4.678  69.423  1.00  0.00    -0.272 C  
HETATM    2  C   UNL     1      -8.506   4.335  68.909  1.00  0.00    -0.082 C  
ENDROOT
BRANCH   2   3
HETATM    3  N   UNL     1      -8.369   4.676  67.478  1.00  0.00    -0.104 NA 
HETATM    4  C   UNL     1      -8.747   3.761  66.501  1.00  0.00    -0.118 C  
HETATM    5  C   UNL     1      -8.810   3.984  65.181  1.00  0.00    -0.127 C  
HETATM    6  C   UNL     1      -8.465   5.340  64.718  1.00  0.00    -0.149 C  
HETATM    7  C   UNL     1      -9.230   2.892  64.277  1.00  0.00    -0.125 C  
HETATM    8  O   UNL     1      -9.551   1.780  64.670  1.00  0.00    -0.116 OA 
HETATM    9  O   UNL     1      -9.230   3.220  62.966  1.00  0.00    -0.092 OA 
HETATM   10  O   UNL     1      -8.466   5.597  63.516  1.00  0.00    -0.087 OA 
HETATM   11  C   UNL     1      -8.127   6.363  65.734  1.00  0.00    -0.127 A  
HETATM   12  C   UNL     1      -8.056   6.000  67.092  1.00  0.00    -0.106 A  
HETATM   13  C   UNL     1      -7.663   7.009  67.996  1.00  0.00    -0.113 A  
HETATM   14  C   UNL     1      -7.419   8.347  67.608  1.00  0.00    -0.094 A  
HETATM   15  C   UNL     1      -7.895   7.675  65.313  1.00  0.00    -0.122 A  
HETATM   16  C   UNL     1      -7.565   8.657  66.246  1.00  0.00    -0.094 A  
BRANCH  14  17
HETATM   17  C   UNL     1      -7.023   9.382  68.598  1.00  0.00    -0.065 A  
HETATM   18  C   UNL     1      -7.096  10.752  68.301  1.00  0.00    -0.078 A  
HETATM   19  C   UNL     1      -6.717  11.685  69.257  1.00  0.00    -0.115 A  
HETATM   20  N   UNL     1      -6.258  11.361  70.480  1.00  0.00    -0.313 NA 
HETATM   21  C   UNL     1      -6.184  10.046  70.762  1.00  0.00    -0.084 A  
HETATM   22  C   UNL     1      -6.553   9.043  69.877  1.00  0.00    -0.042 A  
ENDBRANCH  14  17
ENDBRANCH   2   3
TORSDOF 2
ENDMDL
MODEL      130
REMARK 921   NORMALIZED FREE ENERGY PREDICTED BY IDOCK:   -2.20 KCAL/MOL
REMARK 922        TOTAL FREE ENERGY PREDICTED BY IDOCK:   -2.87 KCAL/MOL
REMARK 923 INTER-LIGAND FREE ENERGY PREDICTED BY IDOCK:   -3.24 KCAL/MOL
REMARK 924 INTRA-LIGAND FREE ENERGY PREDICTED BY IDOCK:    0.37 KCAL/MOL
REMARK 927      BINDING AFFINITY PREDICTED BY RF-SCORE:    0.00 PKD
ROOT
HETATM    1  C   UNL     1      -5.665   9.032  67.781  1.00  0.00    -0.039 C  
HETATM    2  C   UNL     1      -5.354   9.142  69.269  1.00  0.00    -0.036 C  
ENDROOT
BRANCH   2   3
HETATM    3  N   UNL     1      -6.451   8.579  70.083  1.00  0.00    -0.038 NA 
HETATM    4  C   UNL     1      -6.166   7.833  71.221  1.00  0.00    -0.035 C  
HETATM    5  C   UNL     1      -7.050   7.384  72.123  1.00  0.00    -0.067 C  
HETATM    6  C   UNL     1      -8.464   7.732  71.898  1.00  0.00    -0.114 C  
HETATM    7  C   UNL     1      -6.575   6.597  73.280  1.00  0.00    -0.064 C  
HETATM    8  O   UNL     1      -5.396   6.343  73.482  1.00  0.00    -0.039 OA 
HETATM    9  O   UNL     1      -7.554   6.172  74.108  1.00  0.00    -0.087 OA 
HETATM   10  O   UNL     1      -9.329   7.318  72.669  1.00  0.00    -0.136 OA 
HETATM   11  C   UNL     1      -8.801   8.586  70.735  1.00  0.00    -0.187 A  
HETATM   12  C   UNL     1      -7.789   8.966  69.834  1.00  0.00    -0.092 A  
HETATM   13  C   UNL     1      -8.192   9.721  68.714  1.00  0.00    -0.108 A  
HETATM   14  C   UNL     1      -9.521  10.161  68.511  1.00  0.00    -0.159 A  
HETATM   15  C   UNL     1     -10.124   9.002  70.569  1.00  0.00    -0.263 A  
HETATM   16  C   UNL     1     -10.471   9.799  69.479  1.00  0.00    -0.250 A  
BRANCH  14  17
HETATM   17  C   UNL     1      -9.898  10.971  67.323  1.00  0.00    -0.204 A  
HETATM   18  C   UNL     1      -9.537  10.583  66.023  1.00  0.00    -0.242 A  
HETATM   19  C   UNL     1      -9.911  11.369  64.942  1.00  0.00    -0.258 A  
HETATM   20  N   UNL     1     -10.604  12.517  65.053  1.00  0.00    -0.291 NA 
HETATM   21  C   UNL     1     -10.946  12.891  66.301  1.00  0.00    -0.281 A  
HETATM   22  C   UNL     1     -10.628  12.164  67.440  1.00  0.00    -0.253 A  
ENDBRANCH  14  17
ENDBRANCH   2   3
TORSDOF 2
ENDMDL
MODEL      131
REMARK 921   NORMALIZED FREE ENERGY PREDICTED BY IDOCK:   -2.19 KCAL/MOL
REMARK 922        TOTAL FREE ENERGY PREDICTED BY IDOCK:   -2.86 KCAL/MOL
REMARK 923 INTER-LIGAND FREE ENERGY PREDICTED BY IDOCK:   -3.48 KCAL/MOL
REMARK 924 INTRA-LIGAND FREE ENERGY PREDICTED BY IDOCK:    0.62 KCAL/MOL
REMARK 927      BINDING AFFINITY PREDICTED BY RF-SCORE:    0.00 PKD
ROOT
HETATM    1  C   UNL     1      -7.872   9.507  71.044  1.00  0.00     0.097 C  
HETATM    2  C   UNL     1      -7.144   8.207  70.723  1.00  0.00    -0.049 C  
ENDROOT
BRANCH   2   3
HETATM    3  N   UNL     1      -7.886   7.420  69.717  1.00  0.00    -0.113 NA 
HETATM    4  C   UNL     1      -7.956   6.035  69.823  1.00  0.00    -0.106 C  
HETATM    5  C   UNL     1      -8.701   5.213  69.072  1.00  0.00    -0.101 C  
HETATM    6  C   UNL     1      -9.547   5.839  68.041  1.00  0.00    -0.119 C  
HETATM    7  C   UNL     1      -8.652   3.756  69.318  1.00  0.00    -0.075 C  
HETATM    8  O   UNL     1      -7.976   3.245  70.199  1.00  0.00    -0.046 OA 
HETATM    9  O   UNL     1      -9.420   3.022  68.483  1.00  0.00    -0.188 OA 
HETATM   10  O   UNL     1     -10.226   5.137  67.294  1.00  0.00    -0.193 OA 
HETATM   11  C   UNL     1      -9.556   7.317  67.943  1.00  0.00    -0.153 A  
HETATM   12  C   UNL     1      -8.700   8.075  68.764  1.00  0.00    -0.131 A  
HETATM   13  C   UNL     1      -8.712   9.472  68.569  1.00  0.00    -0.124 A  
HETATM   14  C   UNL     1      -9.581  10.122  67.662  1.00  0.00    -0.170 A  
HETATM   15  C   UNL     1     -10.430   7.924  67.036  1.00  0.00    -0.419 A  
HETATM   16  C   UNL     1     -10.452   9.312  66.917  1.00  0.00    -0.284 A  
BRANCH  14  17
HETATM   17  C   UNL     1      -9.571  11.600  67.502  1.00  0.00    -0.176 A  
HETATM   18  C   UNL     1      -8.379  12.339  67.571  1.00  0.00    -0.170 A  
HETATM   19  C   UNL     1      -8.415  13.718  67.414  1.00  0.00    -0.202 A  
HETATM   20  N   UNL     1      -9.545  14.420  67.207  1.00  0.00    -0.222 NA 
HETATM   21  C   UNL     1     -10.688  13.710  67.146  1.00  0.00    -0.277 A  
HETATM   22  C   UNL     1     -10.748  12.329  67.277  1.00  0.00    -0.263 A  
ENDBRANCH  14  17
ENDBRANCH   2   3
TORSDOF 2
ENDMDL
MODEL      132
REMARK 921   NORMALIZED FREE ENERGY PREDICTED BY IDOCK:   -2.13 KCAL/MOL
REMARK 922        TOTAL FREE ENERGY PREDICTED BY IDOCK:   -2.79 KCAL/MOL
REMARK 923 INTER-LIGAND FREE ENERGY PREDICTED BY IDOCK:   -2.38 KCAL/MOL
REMARK 924 INTRA-LIGAND FREE ENERGY PREDICTED BY IDOCK:   -0.41 KCAL/MOL
REMARK 927      BINDING AFFINITY PREDICTED BY RF-SCORE:    0.00 PKD
ROOT
HETATM    1  C   UNL     1     -10.832  11.968  65.673  1.00  0.00    -0.325 C  
HETATM    2  C   UNL     1      -9.426  11.441  65.410  1.00  0.00    -0.216 C  
ENDROOT
BRANCH   2   3
HETATM    3  N   UNL     1      -8.488  11.886  66.460  1.00  0.00    -0.143 NA 
HETATM    4  C   UNL     1      -8.676  13.110  67.094  1.00  0.00    -0.213 C  
HETATM    5  C   UNL     1      -7.994  13.575  68.150  1.00  0.00    -0.149 C  
HETATM    6  C   UNL     1      -6.954  12.695  68.709  1.00  0.00    -0.096 C  
HETATM    7  C   UNL     1      -8.322  14.908  68.699  1.00  0.00    -0.164 C  
HETATM    8  O   UNL     1      -9.211  15.619  68.254  1.00  0.00    -0.184 OA 
HETATM    9  O   UNL     1      -7.553  15.287  69.744  1.00  0.00    -0.203 OA 
HETATM   10  O   UNL     1      -6.267  13.079  69.654  1.00  0.00    -0.114 OA 
HETATM   11  C   UNL     1      -6.772  11.353  68.108  1.00  0.00    -0.059 A  
HETATM   12  C   UNL     1      -7.523  10.990  66.974  1.00  0.00    -0.127 A  
HETATM   13  C   UNL     1      -7.249   9.725  66.414  1.00  0.00    -0.095 A  
HETATM   14  C   UNL     1      -6.331   8.808  66.978  1.00  0.00    -0.060 A  
HETATM   15  C   UNL     1      -5.857  10.474  68.694  1.00  0.00    -0.040 A  
HETATM   16  C   UNL     1      -5.658   9.209  68.143  1.00  0.00    -0.038 A  
BRANCH  14  17
HETATM   17  C   UNL     1      -6.086   7.478  66.362  1.00  0.00    -0.041 A  
HETATM   18  C   UNL     1      -5.827   7.339  64.989  1.00  0.00    -0.037 A  
HETATM   19  C   UNL     1      -5.602   6.077  64.456  1.00  0.00    -0.017 A  
HETATM   20  N   UNL     1      -5.628   4.941  65.179  1.00  0.00    -0.013 NA 
HETATM   21  C   UNL     1      -5.881   5.076  66.495  1.00  0.00    -0.022 A  
HETATM   22  C   UNL     1      -6.104   6.296  67.119  1.00  0.00    -0.025 A  
ENDBRANCH  14  17
ENDBRANCH   2   3
TORSDOF 2
ENDMDL
MODEL      133
REMARK 921   NORMALIZED FREE ENERGY PREDICTED BY IDOCK:   -1.49 KCAL/MOL
REMARK 922        TOTAL FREE ENERGY PREDICTED BY IDOCK:   -2.08 KCAL/MOL
REMARK 923 INTER-LIGAND FREE ENERGY PREDICTED BY IDOCK:   -2.35 KCAL/MOL
REMARK 924 INTRA-LIGAND FREE ENERGY PREDICTED BY IDOCK:    0.27 KCAL/MOL
REMARK 927      BINDING AFFINITY PREDICTED BY RF-SCORE:    0.00 PKD
ROOT
HETATM    1  C   UNL     1      -9.443  11.013  66.526  1.00  0.00    -0.211 C  
HETATM    2  C   UNL     1      -8.300  12.015  66.403  1.00  0.00     0.054 C  
ENDROOT
BRANCH   2   3
HETATM    3  N   UNL     1      -7.442  11.990  67.605  1.00  0.00    -0.121 NA 
HETATM    4  C   UNL     1      -7.145  13.171  68.277  1.00  0.00    -0.105 C  
HETATM    5  C   UNL     1      -6.502  13.283  69.448  1.00  0.00    -0.097 C  
HETATM    6  C   UNL     1      -6.086  12.029  70.100  1.00  0.00    -0.131 C  
HETATM    7  C   UNL     1      -6.263  14.624  70.022  1.00  0.00    -0.159 C  
HETATM    8  O   UNL     1      -6.643  15.659  69.495  1.00  0.00    -0.157 OA 
HETATM    9  O   UNL     1      -5.582  14.619  71.189  1.00  0.00    -0.148 OA 
HETATM   10  O   UNL     1      -5.459  12.066  71.158  1.00  0.00    -0.301 OA 
HETATM   11  C   UNL     1      -6.448  10.747  69.452  1.00  0.00    -0.076 A  
HETATM   12  C   UNL     1      -7.092  10.756  68.201  1.00  0.00    -0.078 A  
HETATM   13  C   UNL     1      -7.345   9.500  67.612  1.00  0.00    -0.083 A  
HETATM   14  C   UNL     1      -7.053   8.271  68.248  1.00  0.00    -0.081 A  
HETATM   15  C   UNL     1      -6.145   9.553  70.112  1.00  0.00    -0.049 A  
HETATM   16  C   UNL     1      -6.466   8.332  69.522  1.00  0.00    -0.037 A  
BRANCH  14  17
HETATM   17  C   UNL     1      -7.354   6.970  67.596  1.00  0.00    -0.096 A  
HETATM   18  C   UNL     1      -8.343   6.853  66.607  1.00  0.00    -0.118 A  
HETATM   19  C   UNL     1      -8.590   5.618  66.023  1.00  0.00    -0.137 A  
HETATM   20  N   UNL     1      -7.938   4.487  66.355  1.00  0.00    -0.102 NA 
HETATM   21  C   UNL     1      -6.992   4.600  67.307  1.00  0.00    -0.060 A  
HETATM   22  C   UNL     1      -6.667   5.794  67.937  1.00  0.00    -0.058 A  
ENDBRANCH  14  17
ENDBRANCH   2   3
TORSDOF 2
ENDMDL
MODEL      134
REMARK 921   NORMALIZED FREE ENERGY PREDICTED BY IDOCK:   -0.77 KCAL/MOL
REMARK 922        TOTAL FREE ENERGY PREDICTED BY IDOCK:   -1.28 KCAL/MOL
REMARK 923 INTER-LIGAND FREE ENERGY PREDICTED BY IDOCK:   -0.87 KCAL/MOL
REMARK 924 INTRA-LIGAND FREE ENERGY PREDICTED BY IDOCK:   -0.41 KCAL/MOL
REMARK 927      BINDING AFFINITY PREDICTED BY RF-SCORE:    0.00 PKD
ROOT
HETATM    1  C   UNL     1     -11.173  16.777  67.989  1.00  0.00    -0.119 C  
HETATM    2  C   UNL     1      -9.848  16.024  67.956  1.00  0.00    -0.222 C  
ENDROOT
BRANCH   2   3
HETATM    3  N   UNL     1      -8.728  16.935  67.640  1.00  0.00    -0.208 NA 
HETATM    4  C   UNL     1      -8.905  17.971  66.730  1.00  0.00    -0.263 C  
HETATM    5  C   UNL     1      -8.031  18.949  66.454  1.00  0.00    -0.300 C  
HETATM    6  C   UNL     1      -6.762  18.937  67.204  1.00  0.00    -0.201 C  
HETATM    7  C   UNL     1      -8.378  19.975  65.449  1.00  0.00     0.537 C  
HETATM    8  O   UNL     1      -9.448  20.002  64.857  1.00  0.00     0.657 OA 
HETATM    9  O   UNL     1      -7.412  20.895  65.231  1.00  0.00     0.232 OA 
HETATM   10  O   UNL     1      -5.902  19.785  66.970  1.00  0.00    -0.174 OA 
HETATM   11  C   UNL     1      -6.566  17.891  68.234  1.00  0.00    -0.199 A  
HETATM   12  C   UNL     1      -7.542  16.892  68.409  1.00  0.00    -0.209 A  
HETATM   13  C   UNL     1      -7.258  15.890  69.359  1.00  0.00    -0.214 A  
HETATM   14  C   UNL     1      -6.099  15.896  70.171  1.00  0.00    -0.105 A  
HETATM   15  C   UNL     1      -5.410  17.931  69.019  1.00  0.00    -0.175 A  
HETATM   16  C   UNL     1      -5.194  16.954  69.989  1.00  0.00    -0.186 A  
BRANCH  14  17
HETATM   17  C   UNL     1      -5.849  14.827  71.173  1.00  0.00    -0.012 A  
HETATM   18  C   UNL     1      -5.707  15.118  72.539  1.00  0.00     0.592 A  
HETATM   19  C   UNL     1      -5.475  14.088  73.441  1.00  0.00    -0.181 A  
HETATM   20  N   UNL     1      -5.361  12.794  73.088  1.00  0.00    -0.181 NA 
HETATM   21  C   UNL     1      -5.493  12.517  71.777  1.00  0.00     0.245 A  
HETATM   22  C   UNL     1      -5.739  13.477  70.805  1.00  0.00    -0.189 A  
ENDBRANCH  14  17
ENDBRANCH   2   3
TORSDOF 2
ENDMDL
MODEL      135
REMARK 921   NORMALIZED FREE ENERGY PREDICTED BY IDOCK:   -0.65 KCAL/MOL
REMARK 922        TOTAL FREE ENERGY PREDICTED BY IDOCK:   -1.14 KCAL/MOL
REMARK 923 INTER-LIGAND FREE ENERGY PREDICTED BY IDOCK:   -0.74 KCAL/MOL
REMARK 924 INTRA-LIGAND FREE ENERGY PREDICTED BY IDOCK:   -0.40 KCAL/MOL
REMARK 927      BINDING AFFINITY PREDICTED BY RF-SCORE:    0.00 PKD
ROOT
HETATM    1  C   UNL     1      -8.254  17.989  66.207  1.00  0.00    -0.242 C  
HETATM    2  C   UNL     1      -8.677  16.544  65.971  1.00  0.00    -0.220 C  
ENDROOT
BRANCH   2   3
HETATM    3  N   UNL     1      -9.477  16.035  67.103  1.00  0.00    -0.214 NA 
HETATM    4  C   UNL     1      -9.815  16.878  68.157  1.00  0.00    -0.264 C  
HETATM    5  C   UNL     1     -10.645  16.595  69.171  1.00  0.00    -0.340 C  
HETATM    6  C   UNL     1     -11.280  15.265  69.159  1.00  0.00    -0.278 C  
HETATM    7  C   UNL     1     -10.891  17.610  70.216  1.00  0.00     1.351 C  
HETATM    8  O   UNL     1     -10.391  18.726  70.201  1.00  0.00     0.719 OA 
HETATM    9  O   UNL     1     -11.721  17.207  71.203  1.00  0.00     0.793 OA 
HETATM   10  O   UNL     1     -12.021  14.930  70.081  1.00  0.00    -0.279 OA 
HETATM   11  C   UNL     1     -11.001  14.365  68.016  1.00  0.00    -0.268 A  
HETATM   12  C   UNL     1     -10.080  14.758  67.027  1.00  0.00    -0.245 A  
HETATM   13  C   UNL     1      -9.813  13.824  66.005  1.00  0.00    -0.298 A  
HETATM   14  C   UNL     1     -10.474  12.577  65.901  1.00  0.00    -0.289 A  
HETATM   15  C   UNL     1     -11.675  13.142  67.946  1.00  0.00    -0.398 A  
HETATM   16  C   UNL     1     -11.426  12.271  66.886  1.00  0.00    -0.418 A  
BRANCH  14  17
HETATM   17  C   UNL     1     -10.173  11.630  64.796  1.00  0.00    -0.321 A  
HETATM   18  C   UNL     1      -9.976  12.074  63.479  1.00  0.00    -0.393 A  
HETATM   19  C   UNL     1      -9.694  11.154  62.477  1.00  0.00    -0.070 A  
HETATM   20  N   UNL     1      -9.607   9.826  62.681  1.00  0.00    -0.008 NA 
HETATM   21  C   UNL     1      -9.801   9.401  63.944  1.00  0.00     1.292 A  
HETATM   22  C   UNL     1     -10.073  10.247  65.011  1.00  0.00    -0.353 A  
ENDBRANCH  14  17
ENDBRANCH   2   3
TORSDOF 2
ENDMDL
MODEL      136
REMARK 921   NORMALIZED FREE ENERGY PREDICTED BY IDOCK:   -0.51 KCAL/MOL
REMARK 922        TOTAL FREE ENERGY PREDICTED BY IDOCK:   -0.98 KCAL/MOL
REMARK 923 INTER-LIGAND FREE ENERGY PREDICTED BY IDOCK:   -0.59 KCAL/MOL
REMARK 924 INTRA-LIGAND FREE ENERGY PREDICTED BY IDOCK:   -0.39 KCAL/MOL
REMARK 927      BINDING AFFINITY PREDICTED BY RF-SCORE:    0.00 PKD
ROOT
HETATM    1  C   UNL     1      -9.295  15.343  67.512  1.00  0.00    -0.204 C  
HETATM    2  C   UNL     1      -9.056  13.942  68.061  1.00  0.00    -0.192 C  
ENDROOT
BRANCH   2   3
HETATM    3  N   UNL     1      -9.271  12.919  67.017  1.00  0.00    -0.220 NA 
HETATM    4  C   UNL     1      -9.809  13.279  65.785  1.00  0.00    -0.197 C  
HETATM    5  C   UNL     1      -9.928  12.492  64.707  1.00  0.00    -0.177 C  
HETATM    6  C   UNL     1      -9.421  11.114  64.830  1.00  0.00    -0.218 C  
HETATM    7  C   UNL     1     -10.531  13.036  63.472  1.00  0.00     0.311 C  
HETATM    8  O   UNL     1     -10.916  14.191  63.364  1.00  0.00     1.052 OA 
HETATM    9  O   UNL     1     -10.628  12.148  62.458  1.00  0.00     0.682 OA 
HETATM   10  O   UNL     1      -9.536  10.331  63.888  1.00  0.00    -0.270 OA 
HETATM   11  C   UNL     1      -8.776  10.714  66.102  1.00  0.00    -0.178 A  
HETATM   12  C   UNL     1      -8.743  11.618  67.181  1.00  0.00    -0.164 A  
HETATM   13  C   UNL     1      -8.174  11.147  68.382  1.00  0.00    -0.144 A  
HETATM   14  C   UNL     1      -7.586   9.866  68.513  1.00  0.00    -0.080 A  
HETATM   15  C   UNL     1      -8.204   9.442  66.193  1.00  0.00    -0.111 A  
HETATM   16  C   UNL     1      -7.599   9.036  67.381  1.00  0.00    -0.088 A  
BRANCH  14  17
HETATM   17  C   UNL     1      -6.983   9.418  69.795  1.00  0.00    -0.065 A  
HETATM   18  C   UNL     1      -5.858  10.055  70.341  1.00  0.00    -0.071 A  
HETATM   19  C   UNL     1      -5.327   9.604  71.543  1.00  0.00    -0.072 A  
HETATM   20  N   UNL     1      -5.820   8.561  72.235  1.00  0.00    -0.055 NA 
HETATM   21  C   UNL     1      -6.897   7.947  71.708  1.00  0.00    -0.062 A  
HETATM   22  C   UNL     1      -7.503   8.336  70.521  1.00  0.00    -0.067 A  
ENDBRANCH  14  17
ENDBRANCH   2   3
TORSDOF 2
ENDMDL
MODEL      137
REMARK 921   NORMALIZED FREE ENERGY PREDICTED BY IDOCK:    3.41 KCAL/MOL
REMARK 922        TOTAL FREE ENERGY PREDICTED BY IDOCK:    3.39 KCAL/MOL
REMARK 923 INTER-LIGAND FREE ENERGY PREDICTED BY IDOCK:    3.71 KCAL/MOL
REMARK 924 INTRA-LIGAND FREE ENERGY PREDICTED BY IDOCK:   -0.32 KCAL/MOL
REMARK 927      BINDING AFFINITY PREDICTED BY RF-SCORE:    0.00 PKD
ROOT
HETATM    1  C   UNL     1      -7.572  16.880  64.971  1.00  0.00     4.081 C  
HETATM    2  C   UNL     1      -6.630  16.551  66.124  1.00  0.00     0.819 C  
ENDROOT
BRANCH   2   3
HETATM    3  N   UNL     1      -7.022  17.273  67.351  1.00  0.00    -0.155 NA 
HETATM    4  C   UNL     1      -6.434  18.494  67.664  1.00  0.00    -0.204 C  
HETATM    5  C   UNL     1      -6.787  19.319  68.659  1.00  0.00    -0.336 C  
HETATM    6  C   UNL     1      -7.927  18.902  69.495  1.00  0.00     0.329 C  
HETATM    7  C   UNL     1      -6.047  20.584  68.855  1.00  0.00    -0.334 C  
HETATM    8  O   UNL     1      -5.127  20.943  68.135  1.00  0.00    -0.234 OA 
HETATM    9  O   UNL     1      -6.470  21.323  69.904  1.00  0.00     0.803 OA 
HETATM   10  O   UNL     1      -8.276  19.597  70.448  1.00  0.00     0.917 OA 
HETATM   11  C   UNL     1      -8.626  17.643  69.150  1.00  0.00     0.122 A  
HETATM   12  C   UNL     1      -8.139  16.839  68.103  1.00  0.00    -0.197 A  
HETATM   13  C   UNL     1      -8.813  15.622  67.874  1.00  0.00    -0.171 A  
HETATM   14  C   UNL     1      -9.971  15.230  68.587  1.00  0.00    -0.216 A  
HETATM   15  C   UNL     1      -9.768  17.290  69.875  1.00  0.00     0.844 A  
HETATM   16  C   UNL     1     -10.441  16.106  69.578  1.00  0.00    -0.295 A  
BRANCH  14  17
HETATM   17  C   UNL     1     -10.660  13.944  68.300  1.00  0.00    -0.263 A  
HETATM   18  C   UNL     1     -11.384  13.261  69.290  1.00  0.00    -0.311 A  
HETATM   19  C   UNL     1     -12.014  12.064  68.978  1.00  0.00    -0.264 A  
HETATM   20  N   UNL     1     -11.968  11.486  67.763  1.00  0.00    -0.637 NA 
HETATM   21  C   UNL     1     -11.269  12.141  66.816  1.00  0.00    -0.322 A  
HETATM   22  C   UNL     1     -10.619  13.348  67.030  1.00  0.00    -0.264 A  
ENDBRANCH  14  17
ENDBRANCH   2   3
TORSDOF 2
ENDMDL
MODEL      138
REMARK 921   NORMALIZED FREE ENERGY PREDICTED BY IDOCK:    6.70 KCAL/MOL
REMARK 922        TOTAL FREE ENERGY PREDICTED BY IDOCK:    7.07 KCAL/MOL
REMARK 923 INTER-LIGAND FREE ENERGY PREDICTED BY IDOCK:    7.48 KCAL/MOL
REMARK 924 INTRA-LIGAND FREE ENERGY PREDICTED BY IDOCK:   -0.41 KCAL/MOL
REMARK 927      BINDING AFFINITY PREDICTED BY RF-SCORE:    0.00 PKD
ROOT
HETATM    1  C   UNL     1      -6.524  17.037  64.371  1.00  0.00     6.667 C  
HETATM    2  C   UNL     1      -5.513  16.683  65.455  1.00  0.00     2.609 C  
ENDROOT
BRANCH   2   3
HETATM    3  N   UNL     1      -5.984  17.124  66.784  1.00  0.00    -0.186 NA 
HETATM    4  C   UNL     1      -5.781  18.435  67.199  1.00  0.00    -0.138 C  
HETATM    5  C   UNL     1      -6.272  19.007  68.307  1.00  0.00    -0.239 C  
HETATM    6  C   UNL     1      -7.130  18.169  69.163  1.00  0.00    -0.182 C  
HETATM    7  C   UNL     1      -5.952  20.420  68.602  1.00  0.00    -0.313 C  
HETATM    8  O   UNL     1      -5.270  21.122  67.869  1.00  0.00    -0.249 OA 
HETATM    9  O   UNL     1      -6.476  20.883  69.758  1.00  0.00    -0.032 OA 
HETATM   10  O   UNL     1      -7.581  18.623  70.214  1.00  0.00     1.161 OA 
HETATM   11  C   UNL     1      -7.430  16.788  68.719  1.00  0.00    -0.231 A  
HETATM   12  C   UNL     1      -6.824  16.284  67.553  1.00  0.00    -0.161 A  
HETATM   13  C   UNL     1      -7.100  14.940  67.227  1.00  0.00    -0.103 A  
HETATM   14  C   UNL     1      -7.996  14.131  67.965  1.00  0.00    -0.149 A  
HETATM   15  C   UNL     1      -8.321  16.019  69.473  1.00  0.00    -0.017 A  
HETATM   16  C   UNL     1      -8.614  14.713  69.083  1.00  0.00    -0.035 A  
BRANCH  14  17
HETATM   17  C   UNL     1      -8.271  12.724  67.575  1.00  0.00    -0.179 A  
HETATM   18  C   UNL     1      -9.571  12.193  67.599  1.00  0.00    -0.190 A  
HETATM   19  C   UNL     1      -9.783  10.874  67.225  1.00  0.00    -0.165 A  
HETATM   20  N   UNL     1      -8.801  10.036  66.841  1.00  0.00    -0.131 NA 
HETATM   21  C   UNL     1      -7.554  10.545  66.822  1.00  0.00    -0.115 A  
HETATM   22  C   UNL     1      -7.248  11.854  67.166  1.00  0.00    -0.144 A  
ENDBRANCH  14  17
ENDBRANCH   2   3
TORSDOF 2
ENDMDL
MODEL      139
REMARK 921   NORMALIZED FREE ENERGY PREDICTED BY IDOCK:   14.15 KCAL/MOL
REMARK 922        TOTAL FREE ENERGY PREDICTED BY IDOCK:   15.38 KCAL/MOL
REMARK 923 INTER-LIGAND FREE ENERGY PREDICTED BY IDOCK:   15.80 KCAL/MOL
REMARK 924 INTRA-LIGAND FREE ENERGY PREDICTED BY IDOCK:   -0.42 KCAL/MOL
REMARK 927      BINDING AFFINITY PREDICTED BY RF-SCORE:    0.00 PKD
ROOT
HETATM    1  C   UNL     1     -11.194  13.293  68.488  1.00  0.00    -0.304 C  
HETATM    2  C   UNL     1     -10.967  12.581  69.817  1.00  0.00     0.327 C  
ENDROOT
BRANCH   2   3
HETATM    3  N   UNL     1     -11.805  13.169  70.883  1.00  0.00     0.047 NA 
HETATM    4  C   UNL     1     -11.984  14.546  70.953  1.00  0.00    -0.325 C  
HETATM    5  C   UNL     1     -12.820  15.201  71.770  1.00  0.00    -0.432 C  
HETATM    6  C   UNL     1     -13.646  14.381  72.673  1.00  0.00    -0.490 C  
HETATM    7  C   UNL     1     -12.883  16.677  71.717  1.00  0.00     1.899 C  
HETATM    8  O   UNL     1     -12.222  17.351  70.940  1.00  0.00     3.130 OA 
HETATM    9  O   UNL     1     -13.737  17.233  72.604  1.00  0.00     3.555 OA 
HETATM   10  O   UNL     1     -14.405  14.924  73.474  1.00  0.00     1.286 OA 
HETATM   11  C   UNL     1     -13.536  12.907  72.579  1.00  0.00    -0.460 A  
HETATM   12  C   UNL     1     -12.594  12.332  71.706  1.00  0.00    -0.026 A  
HETATM   13  C   UNL     1     -12.497  10.926  71.718  1.00  0.00    -0.238 A  
HETATM   14  C   UNL     1     -13.340  10.096  72.495  1.00  0.00    -0.004 A  
HETATM   15  C   UNL     1     -14.387  12.120  73.360  1.00  0.00     4.594 A  
HETATM   16  C   UNL     1     -14.299  10.730  73.299  1.00  0.00     3.424 A  
BRANCH  14  17
HETATM   17  C   UNL     1     -13.213   8.615  72.463  1.00  0.00    -0.340 A  
HETATM   18  C   UNL     1     -14.336   7.783  72.333  1.00  0.00    -0.161 A  
HETATM   19  C   UNL     1     -14.172   6.405  72.305  1.00  0.00     0.388 A  
HETATM   20  N   UNL     1     -12.979   5.789  72.412  1.00  0.00     0.439 NA 
HETATM   21  C   UNL     1     -11.903   6.589  72.541  1.00  0.00    -0.123 A  
HETATM   22  C   UNL     1     -11.968   7.975  72.564  1.00  0.00    -0.384 A  
ENDBRANCH  14  17
ENDBRANCH   2   3
TORSDOF 2
ENDMDL
MODEL      140
REMARK 921   NORMALIZED FREE ENERGY PREDICTED BY IDOCK:   16.73 KCAL/MOL
REMARK 922        TOTAL FREE ENERGY PREDICTED BY IDOCK:   18.26 KCAL/MOL
REMARK 923 INTER-LIGAND FREE ENERGY PREDICTED BY IDOCK:   18.03 KCAL/MOL
REMARK 924 INTRA-LIGAND FREE ENERGY PREDICTED BY IDOCK:    0.23 KCAL/MOL
REMARK 927      BINDING AFFINITY PREDICTED BY RF-SCORE:    0.00 PKD
ROOT
HETATM    1  C   UNL     1     -10.634  12.964  68.083  1.00  0.00    -0.249 C  
HETATM    2  C   UNL     1     -11.199  13.955  67.072  1.00  0.00    -0.313 C  
ENDROOT
BRANCH   2   3
HETATM    3  N   UNL     1     -10.793  15.337  67.401  1.00  0.00    -0.298 NA 
HETATM    4  C   UNL     1     -10.289  16.173  66.410  1.00  0.00    -0.315 C  
HETATM    5  C   UNL     1     -10.016  17.479  66.531  1.00  0.00    -0.323 C  
HETATM    6  C   UNL     1     -10.294  18.098  67.839  1.00  0.00    -0.396 C  
HETATM    7  C   UNL     1      -9.477  18.222  65.372  1.00  0.00     1.300 C  
HETATM    8  O   UNL     1      -9.283  17.712  64.278  1.00  0.00     5.656 OA 
HETATM    9  O   UNL     1      -9.211  19.524  65.616  1.00  0.00    -0.305 OA 
HETATM   10  O   UNL     1     -10.029  19.284  68.027  1.00  0.00    -0.335 OA 
HETATM   11  C   UNL     1     -10.898  17.258  68.899  1.00  0.00    -0.100 A  
HETATM   12  C   UNL     1     -11.106  15.885  68.666  1.00  0.00    -0.337 A  
HETATM   13  C   UNL     1     -11.621  15.133  69.742  1.00  0.00    -0.338 A  
HETATM   14  C   UNL     1     -11.996  15.705  70.980  1.00  0.00    -0.445 A  
HETATM   15  C   UNL     1     -11.257  17.858  70.109  1.00  0.00     2.477 A  
HETATM   16  C   UNL     1     -11.819  17.090  71.127  1.00  0.00     1.506 A  
BRANCH  14  17
HETATM   17  C   UNL     1     -12.551  14.875  72.081  1.00  0.00    -0.403 A  
HETATM   18  C   UNL     1     -13.872  14.401  72.051  1.00  0.00    -0.567 A  
HETATM   19  C   UNL     1     -14.349  13.627  73.100  1.00  0.00     2.006 A  
HETATM   20  N   UNL     1     -13.620  13.300  74.184  1.00  0.00     5.687 NA 
HETATM   21  C   UNL     1     -12.355  13.760  74.213  1.00  0.00     4.011 A  
HETATM   22  C   UNL     1     -11.787  14.527  73.206  1.00  0.00     0.113 A  
ENDBRANCH  14  17
ENDBRANCH   2   3
TORSDOF 2
ENDMDL
MODEL      141
REMARK 921   NORMALIZED FREE ENERGY PREDICTED BY IDOCK:   17.04 KCAL/MOL
REMARK 922        TOTAL FREE ENERGY PREDICTED BY IDOCK:   18.62 KCAL/MOL
REMARK 923 INTER-LIGAND FREE ENERGY PREDICTED BY IDOCK:   18.05 KCAL/MOL
REMARK 924 INTRA-LIGAND FREE ENERGY PREDICTED BY IDOCK:    0.56 KCAL/MOL
REMARK 927      BINDING AFFINITY PREDICTED BY RF-SCORE:    0.00 PKD
ROOT
HETATM    1  C   UNL     1      -9.264  11.055  72.934  1.00  0.00    16.840 C  
HETATM    2  C   UNL     1      -8.773   9.658  73.294  1.00  0.00     4.419 C  
ENDROOT
BRANCH   2   3
HETATM    3  N   UNL     1      -9.385   8.639  72.417  1.00  0.00    -0.326 NA 
HETATM    4  C   UNL     1      -9.831   7.434  72.950  1.00  0.00    -0.204 C  
HETATM    5  C   UNL     1     -10.526   6.485  72.307  1.00  0.00    -0.226 C  
HETATM    6  C   UNL     1     -10.870   6.753  70.899  1.00  0.00    -0.249 C  
HETATM    7  C   UNL     1     -10.919   5.256  73.026  1.00  0.00    -0.298 C  
HETATM    8  O   UNL     1     -10.663   5.055  74.205  1.00  0.00    -0.289 OA 
HETATM    9  O   UNL     1     -11.590   4.356  72.273  1.00  0.00     0.487 OA 
HETATM   10  O   UNL     1     -11.473   5.905  70.242  1.00  0.00    -0.272 OA 
HETATM   11  C   UNL     1     -10.475   8.055  70.315  1.00  0.00    -0.222 A  
HETATM   12  C   UNL     1      -9.712   8.959  71.079  1.00  0.00    -0.252 A  
HETATM   13  C   UNL     1      -9.315  10.150  70.437  1.00  0.00     0.275 A  
HETATM   14  C   UNL     1      -9.707  10.491  69.121  1.00  0.00    -0.226 A  
HETATM   15  C   UNL     1     -10.882   8.358  69.013  1.00  0.00    -0.015 A  
HETATM   16  C   UNL     1     -10.517   9.573  68.435  1.00  0.00    -0.261 A  
BRANCH  14  17
HETATM   17  C   UNL     1      -9.277  11.767  68.490  1.00  0.00    -0.152 A  
HETATM   18  C   UNL     1     -10.201  12.643  67.899  1.00  0.00    -0.220 A  
HETATM   19  C   UNL     1      -9.756  13.825  67.323  1.00  0.00    -0.242 A  
HETATM   20  N   UNL     1      -8.463  14.197  67.276  1.00  0.00    -0.208 NA 
HETATM   21  C   UNL     1      -7.577  13.353  67.839  1.00  0.00    -0.151 A  
HETATM   22  C   UNL     1      -7.930  12.157  68.451  1.00  0.00    -0.152 A  
ENDBRANCH  14  17
ENDBRANCH   2   3
TORSDOF 2
ENDMDL
MODEL      142
REMARK 921   NORMALIZED FREE ENERGY PREDICTED BY IDOCK:   42.33 KCAL/MOL
REMARK 922        TOTAL FREE ENERGY PREDICTED BY IDOCK:   46.86 KCAL/MOL
REMARK 923 INTER-LIGAND FREE ENERGY PREDICTED BY IDOCK:   47.32 KCAL/MOL
REMARK 924 INTRA-LIGAND FREE ENERGY PREDICTED BY IDOCK:   -0.45 KCAL/MOL
REMARK 927      BINDING AFFINITY PREDICTED BY RF-SCORE:    0.00 PKD
ROOT
HETATM    1  C   UNL     1     -11.509  18.854  68.793  1.00  0.00     2.478 C  
HETATM    2  C   UNL     1     -10.904  17.636  68.105  1.00  0.00    -0.216 C  
ENDROOT
BRANCH   2   3
HETATM    3  N   UNL     1      -9.500  17.887  67.721  1.00  0.00    -0.259 NA 
HETATM    4  C   UNL     1      -9.207  18.626  66.579  1.00  0.00    -0.320 C  
HETATM    5  C   UNL     1      -7.997  19.047  66.189  1.00  0.00    -0.273 C  
HETATM    6  C   UNL     1      -6.862  18.712  67.068  1.00  0.00    -0.195 C  
HETATM    7  C   UNL     1      -7.863  19.822  64.938  1.00  0.00     1.244 C  
HETATM    8  O   UNL     1      -8.813  20.129  64.232  1.00  0.00     2.500 OA 
HETATM    9  O   UNL     1      -6.594  20.169  64.628  1.00  0.00    -0.270 OA 
HETATM   10  O   UNL     1      -5.720  19.037  66.747  1.00  0.00    -0.158 OA 
HETATM   11  C   UNL     1      -7.141  17.989  68.330  1.00  0.00    -0.241 A  
HETATM   12  C   UNL     1      -8.452  17.564  68.615  1.00  0.00    -0.258 A  
HETATM   13  C   UNL     1      -8.633  16.822  69.800  1.00  0.00     0.958 A  
HETATM   14  C   UNL     1      -7.590  16.565  70.721  1.00  0.00     3.512 A  
HETATM   15  C   UNL     1      -6.086  17.754  69.216  1.00  0.00    -0.233 A  
HETATM   16  C   UNL     1      -6.318  17.068  70.407  1.00  0.00     0.580 A  
BRANCH  14  17
HETATM   17  C   UNL     1      -7.830  15.792  71.968  1.00  0.00     7.367 A  
HETATM   18  C   UNL     1      -6.778  15.433  72.825  1.00  0.00     3.671 A  
HETATM   19  C   UNL     1      -7.047  14.712  73.981  1.00  0.00     4.338 A  
HETATM   20  N   UNL     1      -8.280  14.309  74.343  1.00  0.00     6.708 NA 
HETATM   21  C   UNL     1      -9.288  14.651  73.517  1.00  0.00     9.019 A  
HETATM   22  C   UNL     1      -9.116  15.381  72.349  1.00  0.00     7.365 A  
ENDBRANCH  14  17
ENDBRANCH   2   3
TORSDOF 2
ENDMDL
MODEL      143
REMARK 921   NORMALIZED FREE ENERGY PREDICTED BY IDOCK:   63.52 KCAL/MOL
REMARK 922        TOTAL FREE ENERGY PREDICTED BY IDOCK:   70.53 KCAL/MOL
REMARK 923 INTER-LIGAND FREE ENERGY PREDICTED BY IDOCK:   70.93 KCAL/MOL
REMARK 924 INTRA-LIGAND FREE ENERGY PREDICTED BY IDOCK:   -0.40 KCAL/MOL
REMARK 927      BINDING AFFINITY PREDICTED BY RF-SCORE:    0.00 PKD
ROOT
HETATM    1  C   UNL     1     -12.698  16.325  67.707  1.00  0.00     2.701 C  
HETATM    2  C   UNL     1     -12.939  15.975  66.243  1.00  0.00     3.940 C  
ENDROOT
BRANCH   2   3
HETATM    3  N   UNL     1     -11.682  16.037  65.470  1.00  0.00     0.467 NA 
HETATM    4  C   UNL     1     -11.261  17.239  64.911  1.00  0.00     0.562 C  
HETATM    5  C   UNL     1     -10.086  17.472  64.311  1.00  0.00     5.364 C  
HETATM    6  C   UNL     1      -9.134  16.349  64.253  1.00  0.00     7.005 C  
HETATM    7  C   UNL     1      -9.801  18.816  63.764  1.00  0.00    12.550 C  
HETATM    8  O   UNL     1     -10.580  19.755  63.848  1.00  0.00     4.069 OA 
HETATM    9  O   UNL     1      -8.600  18.929  63.156  1.00  0.00    13.842 OA 
HETATM   10  O   UNL     1      -8.054  16.487  63.682  1.00  0.00    12.652 OA 
HETATM   11  C   UNL     1      -9.516  15.072  64.900  1.00  0.00     0.921 A  
HETATM   12  C   UNL     1     -10.796  14.934  65.469  1.00  0.00    -0.356 A  
HETATM   13  C   UNL     1     -11.116  13.670  66.007  1.00  0.00    -0.297 A  
HETATM   14  C   UNL     1     -10.197  12.595  66.062  1.00  0.00    -0.287 A  
HETATM   15  C   UNL     1      -8.581  14.033  64.938  1.00  0.00     4.551 A  
HETATM   16  C   UNL     1      -8.917  12.818  65.532  1.00  0.00     0.706 A  
BRANCH  14  17
HETATM   17  C   UNL     1     -10.572  11.285  66.654  1.00  0.00    -0.309 A  
HETATM   18  C   UNL     1     -11.785  11.106  67.339  1.00  0.00    -0.030 A  
HETATM   19  C   UNL     1     -12.096   9.864  67.875  1.00  0.00     2.736 A  
HETATM   20  N   UNL     1     -11.289   8.789  67.796  1.00  0.00     0.645 NA 
HETATM   21  C   UNL     1     -10.124   8.963  67.143  1.00  0.00    -0.249 A  
HETATM   22  C   UNL     1      -9.734  10.163  66.563  1.00  0.00    -0.252 A  
ENDBRANCH  14  17
ENDBRANCH   2   3
TORSDOF 2
ENDMDL
