MODEL        1
REMARK 921   NORMALIZED FREE ENERGY PREDICTED BY IDOCK:   -8.42 KCAL/MOL
REMARK 922        TOTAL FREE ENERGY PREDICTED BY IDOCK:  -13.90 KCAL/MOL
REMARK 923 INTER-LIGAND FREE ENERGY PREDICTED BY IDOCK:  -12.36 KCAL/MOL
REMARK 924 INTRA-LIGAND FREE ENERGY PREDICTED BY IDOCK:   -1.54 KCAL/MOL
REMARK 927      BINDING AFFINITY PREDICTED BY RF-SCORE:    0.00 PKD
ROOT
HETATM    1  C   UNL     1     -11.824  15.940  72.513  1.00  0.00    -0.613 C  
HETATM    2  C   UNL     1     -12.386  14.967  71.464  1.00  0.00    -0.401 C  
HETATM    3  C   UNL     1     -13.907  15.128  71.392  1.00  0.00    -0.587 C  
HETATM    4  C   UNL     1     -11.765  15.161  70.084  1.00  0.00    -0.307 A  
HETATM    5  N   UNL     1     -11.314  16.410  69.822  1.00  0.00    -0.248 NA 
HETATM    6  C   UNL     1     -10.807  16.620  68.609  1.00  0.00    -0.344 A  
HETATM    7  N   UNL     1     -10.757  15.736  67.617  1.00  0.00    -0.305 NA 
HETATM    8  C   UNL     1     -11.723  14.127  69.128  1.00  0.00    -0.368 A  
HETATM    9  C   UNL     1     -11.258  14.494  67.856  1.00  0.00    -0.295 A  
ENDROOT
BRANCH   6  10
HETATM   10  N   UNL     1     -10.083  17.814  68.442  1.00  0.00    -0.355 N  
HETATM   11  C   UNL     1     -10.744  18.841  67.626  1.00  0.00    -0.385 C  
BRANCH  10  12
HETATM   12  S   UNL     1      -8.430  17.615  68.243  1.00  0.00    -0.276 S  
HETATM   13  C   UNL     1      -7.720  19.175  68.742  1.00  0.00    -0.355 C  
HETATM   14  O   UNL     1      -7.995  16.626  69.213  1.00  0.00    -0.204 OA 
HETATM   15  O   UNL     1      -8.133  17.437  66.840  1.00  0.00    -0.204 OA 
ENDBRANCH  10  12
ENDBRANCH   6  10
BRANCH   9  16
HETATM   16  C   UNL     1     -11.254  13.627  66.638  1.00  0.00    -0.324 A  
HETATM   17  F   UNL     1     -11.356  11.227  63.229  1.00  0.00    -0.434 F  
HETATM   18  C   UNL     1     -12.374  13.606  65.774  1.00  0.00    -0.524 A  
HETATM   19  C   UNL     1     -12.416  12.797  64.632  1.00  0.00    -0.525 A  
HETATM   20  C   UNL     1     -10.227  11.952  65.166  1.00  0.00    -0.314 A  
HETATM   21  C   UNL     1     -11.332  11.989  64.330  1.00  0.00    -0.364 A  
HETATM   22  C   UNL     1     -10.200  12.749  66.318  1.00  0.00    -0.264 A  
ENDBRANCH   9  16
BRANCH   8  23
HETATM   23  C   UNL     1     -12.147  12.767  69.514  1.00  0.00    -0.265 C  
HETATM   24  C   UNL     1     -11.298  11.745  69.739  1.00  0.00    -0.245 C  
BRANCH  24  25
HETATM   25  C   UNL     1     -11.665  10.397  70.326  1.00  0.00    -0.321 C  
HETATM   26  H   UNL     1     -10.732   8.907  71.214  1.00  0.00     0.000 HD 
HETATM   27  O   UNL     1     -10.502   9.752  70.847  1.00  0.00    -0.302 OA 
BRANCH  25  28
HETATM   28  C   UNL     1     -12.729  10.475  71.431  1.00  0.00    -0.547 C  
BRANCH  28  29
HETATM   29  C   UNL     1     -12.913   9.136  72.186  1.00  0.00    -0.425 C  
HETATM   30  O   UNL     1     -14.050   9.195  73.054  1.00  0.00    -1.068 OA 
HETATM   31  H   UNL     1     -14.163   8.373  73.518  1.00  0.00     0.000 HD 
BRANCH  29  32
HETATM   32  C   UNL     1     -13.170   7.961  71.242  1.00  0.00    -0.211 C  
HETATM   33  C   UNL     1     -12.137   6.880  71.388  1.00  0.00    -0.364 C  
HETATM   34  O   UNL     1     -11.574   6.597  72.433  1.00  0.00    -0.272 OA 
HETATM   35  O   UNL     1     -11.889   6.222  70.232  1.00  0.00    -0.344 OA 
ENDBRANCH  29  32
ENDBRANCH  28  29
ENDBRANCH  25  28
ENDBRANCH  24  25
ENDBRANCH   8  23
TORSDOF 8
ENDMDL
MODEL        2
REMARK 921   NORMALIZED FREE ENERGY PREDICTED BY IDOCK:   -8.39 KCAL/MOL
REMARK 922        TOTAL FREE ENERGY PREDICTED BY IDOCK:  -13.86 KCAL/MOL
REMARK 923 INTER-LIGAND FREE ENERGY PREDICTED BY IDOCK:  -11.99 KCAL/MOL
REMARK 924 INTRA-LIGAND FREE ENERGY PREDICTED BY IDOCK:   -1.87 KCAL/MOL
REMARK 927      BINDING AFFINITY PREDICTED BY RF-SCORE:    0.00 PKD
ROOT
HETATM    1  C   UNL     1     -10.698   9.449  66.853  1.00  0.00    -0.174 C  
HETATM    2  C   UNL     1     -10.613  10.057  68.262  1.00  0.00    -0.264 C  
HETATM    3  C   UNL     1      -9.152  10.060  68.720  1.00  0.00    -0.148 C  
HETATM    4  C   UNL     1     -11.196  11.465  68.336  1.00  0.00    -0.263 A  
HETATM    5  N   UNL     1     -11.154  12.170  67.181  1.00  0.00    -0.273 NA 
HETATM    6  C   UNL     1     -11.616  13.418  67.226  1.00  0.00    -0.360 A  
HETATM    7  N   UNL     1     -12.057  14.050  68.309  1.00  0.00    -0.334 NA 
HETATM    8  C   UNL     1     -11.685  12.012  69.538  1.00  0.00    -0.408 A  
HETATM    9  C   UNL     1     -12.052  13.365  69.484  1.00  0.00    -0.278 A  
ENDROOT
BRANCH   6  10
HETATM   10  N   UNL     1     -11.841  14.037  65.985  1.00  0.00    -0.370 N  
HETATM   11  C   UNL     1     -12.889  13.426  65.157  1.00  0.00    -0.316 C  
BRANCH  10  12
HETATM   12  S   UNL     1     -10.459  14.579  65.205  1.00  0.00    -0.424 S  
HETATM   13  C   UNL     1      -9.219  14.673  66.486  1.00  0.00    -0.266 C  
HETATM   14  O   UNL     1     -10.040  13.530  64.292  1.00  0.00    -0.336 OA 
HETATM   15  O   UNL     1     -10.676  15.921  64.719  1.00  0.00    -0.559 OA 
ENDBRANCH  10  12
ENDBRANCH   6  10
BRANCH   9  16
HETATM   16  C   UNL     1     -12.459  14.211  70.647  1.00  0.00    -0.432 A  
HETATM   17  F   UNL     1     -13.483  16.586  73.919  1.00  0.00    -0.432 F  
HETATM   18  C   UNL     1     -11.494  14.971  71.349  1.00  0.00    -0.369 A  
HETATM   19  C   UNL     1     -11.831  15.764  72.452  1.00  0.00    -0.606 A  
HETATM   20  C   UNL     1     -14.122  15.062  72.241  1.00  0.00    -0.612 A  
HETATM   21  C   UNL     1     -13.149  15.815  72.877  1.00  0.00    -0.521 A  
HETATM   22  C   UNL     1     -13.775  14.254  71.150  1.00  0.00    -0.255 A  
ENDBRANCH   9  16
BRANCH   8  23
HETATM   23  C   UNL     1     -11.787  11.155  70.734  1.00  0.00    -0.325 C  
HETATM   24  C   UNL     1     -12.904  10.496  71.101  1.00  0.00    -0.513 C  
BRANCH  24  25
HETATM   25  C   UNL     1     -13.003   9.455  72.198  1.00  0.00    -0.421 C  
HETATM   26  H   UNL     1     -14.326   8.134  72.820  1.00  0.00     0.000 HD 
HETATM   27  O   UNL     1     -14.264   8.786  72.132  1.00  0.00    -0.438 OA 
BRANCH  25  28
HETATM   28  C   UNL     1     -11.881   8.407  72.157  1.00  0.00    -0.441 C  
BRANCH  28  29
HETATM   29  C   UNL     1     -12.388   6.995  71.778  1.00  0.00    -0.354 C  
HETATM   30  O   UNL     1     -12.818   6.959  70.413  1.00  0.00    -0.520 OA 
HETATM   31  H   UNL     1     -13.130   6.092  70.181  1.00  0.00     0.000 HD 
BRANCH  29  32
HETATM   32  C   UNL     1     -11.300   5.928  71.901  1.00  0.00    -0.307 C  
HETATM   33  C   UNL     1     -10.455   5.836  70.662  1.00  0.00    -0.264 C  
HETATM   34  O   UNL     1     -10.183   6.780  69.938  1.00  0.00    -0.184 OA 
HETATM   35  O   UNL     1      -9.999   4.585  70.421  1.00  0.00    -0.222 OA 
ENDBRANCH  29  32
ENDBRANCH  28  29
ENDBRANCH  25  28
ENDBRANCH  24  25
ENDBRANCH   8  23
TORSDOF 8
ENDMDL
MODEL        3
REMARK 921   NORMALIZED FREE ENERGY PREDICTED BY IDOCK:   -8.32 KCAL/MOL
REMARK 922        TOTAL FREE ENERGY PREDICTED BY IDOCK:  -13.75 KCAL/MOL
REMARK 923 INTER-LIGAND FREE ENERGY PREDICTED BY IDOCK:  -12.00 KCAL/MOL
REMARK 924 INTRA-LIGAND FREE ENERGY PREDICTED BY IDOCK:   -1.75 KCAL/MOL
REMARK 927      BINDING AFFINITY PREDICTED BY RF-SCORE:    0.00 PKD
ROOT
HETATM    1  C   UNL     1     -10.196   9.538  66.606  1.00  0.00    -0.310 C  
HETATM    2  C   UNL     1     -10.255  10.075  68.045  1.00  0.00    -0.216 C  
HETATM    3  C   UNL     1      -8.864   9.972  68.678  1.00  0.00    -0.132 C  
HETATM    4  C   UNL     1     -10.768  11.510  68.121  1.00  0.00    -0.205 A  
HETATM    5  N   UNL     1     -10.546  12.263  67.019  1.00  0.00    -0.220 NA 
HETATM    6  C   UNL     1     -10.945  13.532  67.074  1.00  0.00    -0.288 A  
HETATM    7  N   UNL     1     -11.485  14.139  68.126  1.00  0.00    -0.292 NA 
HETATM    8  C   UNL     1     -11.375  12.028  69.282  1.00  0.00    -0.330 A  
HETATM    9  C   UNL     1     -11.661  13.402  69.255  1.00  0.00    -0.330 A  
ENDROOT
BRANCH   6  10
HETATM   10  N   UNL     1     -10.981  14.220  65.848  1.00  0.00    -0.299 N  
HETATM   11  C   UNL     1     -10.756  15.669  65.933  1.00  0.00    -0.329 C  
BRANCH  10  12
HETATM   12  S   UNL     1     -12.147  13.682  64.771  1.00  0.00    -0.417 S  
HETATM   13  C   UNL     1     -11.301  12.500  63.735  1.00  0.00    -0.466 C  
HETATM   14  O   UNL     1     -13.133  12.940  65.537  1.00  0.00    -0.439 OA 
HETATM   15  O   UNL     1     -12.560  14.777  63.923  1.00  0.00    -0.834 OA 
ENDBRANCH  10  12
ENDBRANCH   6  10
BRANCH   9  16
HETATM   16  C   UNL     1     -12.165  14.216  70.403  1.00  0.00    -0.427 A  
HETATM   17  F   UNL     1     -13.680  16.462  73.574  1.00  0.00    -0.628 F  
HETATM   18  C   UNL     1     -13.524  14.140  70.790  1.00  0.00    -0.037 A  
HETATM   19  C   UNL     1     -14.039  14.897  71.849  1.00  0.00    -0.613 A  
HETATM   20  C   UNL     1     -11.869  15.882  72.183  1.00  0.00    -0.615 A  
HETATM   21  C   UNL     1     -13.200  15.749  72.547  1.00  0.00    -0.487 A  
HETATM   22  C   UNL     1     -11.365  15.137  71.109  1.00  0.00    -0.363 A  
ENDBRANCH   9  16
BRANCH   8  23
HETATM   23  C   UNL     1     -11.669  11.125  70.411  1.00  0.00    -0.415 C  
HETATM   24  C   UNL     1     -12.881  10.586  70.654  1.00  0.00    -0.407 C  
BRANCH  24  25
HETATM   25  C   UNL     1     -13.186   9.506  71.671  1.00  0.00    -0.406 C  
HETATM   26  H   UNL     1     -14.571   8.132  71.947  1.00  0.00     0.000 HD 
HETATM   27  O   UNL     1     -14.379   8.809  71.309  1.00  0.00    -0.310 OA 
BRANCH  25  28
HETATM   28  C   UNL     1     -12.050   8.488  71.849  1.00  0.00    -0.411 C  
BRANCH  28  29
HETATM   29  C   UNL     1     -12.481   7.039  71.518  1.00  0.00    -0.386 C  
HETATM   30  O   UNL     1     -12.691   6.881  70.111  1.00  0.00    -0.430 OA 
HETATM   31  H   UNL     1     -12.956   5.991  69.908  1.00  0.00     0.000 HD 
BRANCH  29  32
HETATM   32  C   UNL     1     -11.417   6.009  71.899  1.00  0.00    -0.328 C  
HETATM   33  C   UNL     1     -10.416   5.794  70.800  1.00  0.00    -0.258 C  
HETATM   34  O   UNL     1     -10.052   6.658  70.018  1.00  0.00    -0.174 OA 
HETATM   35  O   UNL     1      -9.931   4.532  70.760  1.00  0.00    -0.207 OA 
ENDBRANCH  29  32
ENDBRANCH  28  29
ENDBRANCH  25  28
ENDBRANCH  24  25
ENDBRANCH   8  23
TORSDOF 8
ENDMDL
MODEL        4
REMARK 921   NORMALIZED FREE ENERGY PREDICTED BY IDOCK:   -8.31 KCAL/MOL
REMARK 922        TOTAL FREE ENERGY PREDICTED BY IDOCK:  -13.73 KCAL/MOL
REMARK 923 INTER-LIGAND FREE ENERGY PREDICTED BY IDOCK:  -11.69 KCAL/MOL
REMARK 924 INTRA-LIGAND FREE ENERGY PREDICTED BY IDOCK:   -2.05 KCAL/MOL
REMARK 927      BINDING AFFINITY PREDICTED BY RF-SCORE:    0.00 PKD
ROOT
HETATM    1  C   UNL     1     -14.183  13.866  72.153  1.00  0.00    -0.595 C  
HETATM    2  C   UNL     1     -13.026  14.111  71.172  1.00  0.00    -0.419 C  
HETATM    3  C   UNL     1     -11.914  14.881  71.890  1.00  0.00    -0.432 C  
HETATM    4  C   UNL     1     -12.475  12.820  70.572  1.00  0.00    -0.202 A  
HETATM    5  N   UNL     1     -12.624  11.715  71.340  1.00  0.00    -0.327 NA 
HETATM    6  C   UNL     1     -12.113  10.583  70.861  1.00  0.00    -0.383 A  
HETATM    7  N   UNL     1     -11.425  10.450  69.732  1.00  0.00    -0.267 NA 
HETATM    8  C   UNL     1     -11.805  12.796  69.334  1.00  0.00    -0.359 A  
HETATM    9  C   UNL     1     -11.226  11.567  68.981  1.00  0.00    -0.262 A  
ENDROOT
BRANCH   6  10
HETATM   10  N   UNL     1     -12.518   9.402  71.508  1.00  0.00    -0.343 N  
HETATM   11  C   UNL     1     -13.649   9.547  72.434  1.00  0.00    -0.382 C  
BRANCH  10  12
HETATM   12  S   UNL     1     -11.267   8.386  71.971  1.00  0.00    -0.360 S  
HETATM   13  C   UNL     1     -11.248   7.095  70.740  1.00  0.00    -0.279 C  
HETATM   14  O   UNL     1     -10.029   9.130  71.819  1.00  0.00    -0.320 OA 
HETATM   15  O   UNL     1     -11.593   7.769  73.236  1.00  0.00    -0.248 OA 
ENDBRANCH  10  12
ENDBRANCH   6  10
BRANCH   9  16
HETATM   16  C   UNL     1     -10.344  11.318  67.800  1.00  0.00    -0.208 A  
HETATM   17  F   UNL     1      -7.958  10.544  64.468  1.00  0.00    -0.160 F  
HETATM   18  C   UNL     1     -10.803  10.526  66.722  1.00  0.00    -0.209 A  
HETATM   19  C   UNL     1     -10.004  10.257  65.604  1.00  0.00    -0.347 A  
HETATM   20  C   UNL     1      -8.219  11.534  66.590  1.00  0.00    -0.156 A  
HETATM   21  C   UNL     1      -8.722  10.780  65.542  1.00  0.00    -0.187 A  
HETATM   22  C   UNL     1      -9.016  11.783  67.715  1.00  0.00    -0.173 A  
ENDBRANCH   9  16
BRANCH   8  23
HETATM   23  C   UNL     1     -11.763  14.018  68.509  1.00  0.00    -0.387 C  
HETATM   24  C   UNL     1     -10.689  14.827  68.407  1.00  0.00    -0.243 C  
BRANCH  24  25
HETATM   25  C   UNL     1     -10.528  15.972  67.428  1.00  0.00    -0.308 C  
HETATM   26  H   UNL     1      -9.568  17.691  67.363  1.00  0.00     0.000 HD 
HETATM   27  O   UNL     1      -9.668  16.973  67.977  1.00  0.00    -0.248 OA 
BRANCH  25  28
HETATM   28  C   UNL     1      -9.980  15.541  66.059  1.00  0.00    -0.356 C  
BRANCH  28  29
HETATM   29  C   UNL     1     -11.090  15.084  65.083  1.00  0.00    -0.401 C  
HETATM   30  O   UNL     1     -11.196  15.987  63.977  1.00  0.00    -1.078 OA 
HETATM   31  H   UNL     1     -11.878  15.706  63.377  1.00  0.00     0.000 HD 
BRANCH  29  32
HETATM   32  C   UNL     1     -10.805  13.711  64.473  1.00  0.00    -0.416 C  
HETATM   33  C   UNL     1     -11.950  13.214  63.636  1.00  0.00    -0.514 C  
HETATM   34  O   UNL     1     -12.693  13.931  62.985  1.00  0.00    -0.634 OA 
HETATM   35  O   UNL     1     -12.078  11.868  63.655  1.00  0.00    -0.483 OA 
ENDBRANCH  29  32
ENDBRANCH  28  29
ENDBRANCH  25  28
ENDBRANCH  24  25
ENDBRANCH   8  23
TORSDOF 8
ENDMDL
MODEL        5
REMARK 921   NORMALIZED FREE ENERGY PREDICTED BY IDOCK:   -8.16 KCAL/MOL
REMARK 922        TOTAL FREE ENERGY PREDICTED BY IDOCK:  -13.52 KCAL/MOL
REMARK 923 INTER-LIGAND FREE ENERGY PREDICTED BY IDOCK:  -11.61 KCAL/MOL
REMARK 924 INTRA-LIGAND FREE ENERGY PREDICTED BY IDOCK:   -1.91 KCAL/MOL
REMARK 927      BINDING AFFINITY PREDICTED BY RF-SCORE:    0.00 PKD
ROOT
HETATM    1  C   UNL     1     -10.785   9.476  66.772  1.00  0.00    -0.136 C  
HETATM    2  C   UNL     1     -10.651  10.036  68.197  1.00  0.00    -0.268 C  
HETATM    3  C   UNL     1      -9.180   9.989  68.619  1.00  0.00    -0.152 C  
HETATM    4  C   UNL     1     -11.197  11.454  68.329  1.00  0.00    -0.263 A  
HETATM    5  N   UNL     1     -11.164  12.195  67.197  1.00  0.00    -0.293 NA 
HETATM    6  C   UNL     1     -11.593  13.452  67.293  1.00  0.00    -0.360 A  
HETATM    7  N   UNL     1     -11.993  14.060  68.405  1.00  0.00    -0.357 NA 
HETATM    8  C   UNL     1     -11.643  11.974  69.559  1.00  0.00    -0.389 A  
HETATM    9  C   UNL     1     -11.978  13.337  69.557  1.00  0.00    -0.307 A  
ENDROOT
BRANCH   6  10
HETATM   10  N   UNL     1     -11.832  14.116  66.077  1.00  0.00    -0.383 N  
HETATM   11  C   UNL     1     -12.879  13.526  65.232  1.00  0.00    -0.353 C  
BRANCH  10  12
HETATM   12  S   UNL     1     -10.460  14.701  65.311  1.00  0.00    -0.419 S  
HETATM   13  C   UNL     1      -9.261  14.908  66.618  1.00  0.00    -0.276 C  
HETATM   14  O   UNL     1      -9.963  13.644  64.448  1.00  0.00    -0.268 OA 
HETATM   15  O   UNL     1     -10.735  16.012  64.769  1.00  0.00    -0.611 OA 
ENDBRANCH  10  12
ENDBRANCH   6  10
BRANCH   9  16
HETATM   16  C   UNL     1     -12.335  14.155  70.756  1.00  0.00    -0.439 A  
HETATM   17  F   UNL     1     -13.443  16.441  74.064  1.00  0.00    -0.392 F  
HETATM   18  C   UNL     1     -13.692  14.374  71.092  1.00  0.00    -0.297 A  
HETATM   19  C   UNL     1     -14.069  15.145  72.197  1.00  0.00    -0.654 A  
HETATM   20  C   UNL     1     -11.750  15.558  72.684  1.00  0.00    -0.564 A  
HETATM   21  C   UNL     1     -13.091  15.717  72.994  1.00  0.00    -0.543 A  
HETATM   22  C   UNL     1     -11.379  14.801  71.565  1.00  0.00    -0.093 A  
ENDBRANCH   9  16
BRANCH   8  23
HETATM   23  C   UNL     1     -11.738  11.082  70.731  1.00  0.00    -0.286 C  
HETATM   24  C   UNL     1     -12.852  10.407  71.081  1.00  0.00    -0.511 C  
BRANCH  24  25
HETATM   25  C   UNL     1     -12.943   9.335  72.147  1.00  0.00    -0.424 C  
HETATM   26  H   UNL     1     -14.356   8.500  73.238  1.00  0.00     0.000 HD 
HETATM   27  O   UNL     1     -14.298   9.173  72.569  1.00  0.00    -0.529 OA 
BRANCH  25  28
HETATM   28  C   UNL     1     -12.395   7.972  71.699  1.00  0.00    -0.344 C  
BRANCH  28  29
HETATM   29  C   UNL     1     -11.287   7.431  72.634  1.00  0.00    -0.313 C  
HETATM   30  O   UNL     1     -11.053   6.039  72.391  1.00  0.00    -0.247 OA 
HETATM   31  H   UNL     1     -10.372   5.707  72.966  1.00  0.00     0.000 HD 
BRANCH  29  32
HETATM   32  C   UNL     1      -9.942   8.124  72.411  1.00  0.00    -0.345 C  
HETATM   33  C   UNL     1      -8.953   7.804  73.496  1.00  0.00    -0.269 C  
HETATM   34  O   UNL     1      -8.901   6.741  74.093  1.00  0.00    -0.143 OA 
HETATM   35  O   UNL     1      -8.095   8.819  73.749  1.00  0.00    -0.381 OA 
ENDBRANCH  29  32
ENDBRANCH  28  29
ENDBRANCH  25  28
ENDBRANCH  24  25
ENDBRANCH   8  23
TORSDOF 8
ENDMDL
MODEL        6
REMARK 921   NORMALIZED FREE ENERGY PREDICTED BY IDOCK:   -7.82 KCAL/MOL
REMARK 922        TOTAL FREE ENERGY PREDICTED BY IDOCK:  -13.03 KCAL/MOL
REMARK 923 INTER-LIGAND FREE ENERGY PREDICTED BY IDOCK:  -11.41 KCAL/MOL
REMARK 924 INTRA-LIGAND FREE ENERGY PREDICTED BY IDOCK:   -1.61 KCAL/MOL
REMARK 927      BINDING AFFINITY PREDICTED BY RF-SCORE:    0.00 PKD
ROOT
HETATM    1  C   UNL     1     -11.860  16.061  72.549  1.00  0.00    -0.630 C  
HETATM    2  C   UNL     1     -12.441  15.072  71.526  1.00  0.00    -0.400 C  
HETATM    3  C   UNL     1     -13.960  15.254  71.458  1.00  0.00    -0.627 C  
HETATM    4  C   UNL     1     -11.825  15.226  70.139  1.00  0.00    -0.323 A  
HETATM    5  N   UNL     1     -11.357  16.462  69.847  1.00  0.00    -0.249 NA 
HETATM    6  C   UNL     1     -10.854  16.637  68.627  1.00  0.00    -0.344 A  
HETATM    7  N   UNL     1     -10.821  15.730  67.655  1.00  0.00    -0.308 NA 
HETATM    8  C   UNL     1     -11.802  14.170  69.208  1.00  0.00    -0.381 A  
HETATM    9  C   UNL     1     -11.339  14.501  67.925  1.00  0.00    -0.310 A  
ENDROOT
BRANCH   6  10
HETATM   10  N   UNL     1     -10.114  17.816  68.428  1.00  0.00    -0.355 N  
HETATM   11  C   UNL     1     -10.671  18.749  67.440  1.00  0.00    -0.424 C  
BRANCH  10  12
HETATM   12  S   UNL     1      -8.450  17.617  68.449  1.00  0.00    -0.289 S  
HETATM   13  C   UNL     1      -7.992  17.412  66.736  1.00  0.00    -0.244 C  
HETATM   14  O   UNL     1      -7.870  18.873  68.892  1.00  0.00    -0.329 OA 
HETATM   15  O   UNL     1      -8.122  16.386  69.130  1.00  0.00    -0.242 OA 
ENDBRANCH  10  12
ENDBRANCH   6  10
BRANCH   9  16
HETATM   16  C   UNL     1     -11.353  13.605  66.728  1.00  0.00    -0.346 A  
HETATM   17  F   UNL     1     -11.278  11.099  63.395  1.00  0.00    -0.422 F  
HETATM   18  C   UNL     1     -10.196  12.876  66.369  1.00  0.00    -0.273 A  
HETATM   19  C   UNL     1     -10.163  12.038  65.248  1.00  0.00    -0.304 A  
HETATM   20  C   UNL     1     -12.441  12.634  64.752  1.00  0.00    -0.555 A  
HETATM   21  C   UNL     1     -11.295  11.913  64.458  1.00  0.00    -0.316 A  
HETATM   22  C   UNL     1     -12.460  13.486  65.865  1.00  0.00    -0.484 A  
ENDBRANCH   9  16
BRANCH   8  23
HETATM   23  C   UNL     1     -12.243  12.825  69.627  1.00  0.00    -0.188 C  
HETATM   24  C   UNL     1     -11.416  11.868  70.092  1.00  0.00    -0.136 C  
BRANCH  24  25
HETATM   25  C   UNL     1     -11.839  10.554  70.717  1.00  0.00    -0.365 C  
HETATM   26  H   UNL     1     -13.492   9.492  70.865  1.00  0.00     0.000 HD 
HETATM   27  O   UNL     1     -13.226  10.315  70.473  1.00  0.00    -0.299 OA 
BRANCH  25  28
HETATM   28  C   UNL     1     -11.031   9.346  70.219  1.00  0.00    -0.305 C  
BRANCH  28  29
HETATM   29  C   UNL     1     -11.292   8.064  71.047  1.00  0.00    -0.273 C  
HETATM   30  O   UNL     1     -12.555   7.485  70.701  1.00  0.00    -0.545 OA 
HETATM   31  H   UNL     1     -12.715   6.698  71.209  1.00  0.00     0.000 HD 
BRANCH  29  32
HETATM   32  C   UNL     1     -10.250   6.976  70.786  1.00  0.00    -0.208 C  
HETATM   33  C   UNL     1     -10.696   6.005  69.730  1.00  0.00    -0.330 C  
HETATM   34  O   UNL     1     -11.399   6.295  68.775  1.00  0.00    -0.356 OA 
HETATM   35  O   UNL     1     -10.228   4.751  69.928  1.00  0.00    -0.252 OA 
ENDBRANCH  29  32
ENDBRANCH  28  29
ENDBRANCH  25  28
ENDBRANCH  24  25
ENDBRANCH   8  23
TORSDOF 8
ENDMDL
MODEL        7
REMARK 921   NORMALIZED FREE ENERGY PREDICTED BY IDOCK:   -7.78 KCAL/MOL
REMARK 922        TOTAL FREE ENERGY PREDICTED BY IDOCK:  -12.96 KCAL/MOL
REMARK 923 INTER-LIGAND FREE ENERGY PREDICTED BY IDOCK:  -11.56 KCAL/MOL
REMARK 924 INTRA-LIGAND FREE ENERGY PREDICTED BY IDOCK:   -1.40 KCAL/MOL
REMARK 927      BINDING AFFINITY PREDICTED BY RF-SCORE:    0.00 PKD
ROOT
HETATM    1  C   UNL     1     -11.585  15.813  72.418  1.00  0.00    -0.510 C  
HETATM    2  C   UNL     1     -12.192  14.857  71.379  1.00  0.00    -0.391 C  
HETATM    3  C   UNL     1     -13.719  14.979  71.417  1.00  0.00    -0.552 C  
HETATM    4  C   UNL     1     -11.674  15.112  69.967  1.00  0.00    -0.307 A  
HETATM    5  N   UNL     1     -11.274  16.380  69.716  1.00  0.00    -0.303 NA 
HETATM    6  C   UNL     1     -10.859  16.642  68.479  1.00  0.00    -0.356 A  
HETATM    7  N   UNL     1     -10.855  15.791  67.457  1.00  0.00    -0.318 NA 
HETATM    8  C   UNL     1     -11.672  14.109  68.977  1.00  0.00    -0.361 A  
HETATM    9  C   UNL     1     -11.306  14.529  67.689  1.00  0.00    -0.337 A  
ENDROOT
BRANCH   6  10
HETATM   10  N   UNL     1     -10.179  17.860  68.301  1.00  0.00    -0.368 N  
HETATM   11  C   UNL     1     -10.800  18.795  67.355  1.00  0.00    -0.348 C  
BRANCH  10  12
HETATM   12  S   UNL     1      -8.507  17.739  68.282  1.00  0.00    -0.281 S  
HETATM   13  C   UNL     1      -8.081  17.580  66.555  1.00  0.00    -0.270 C  
HETATM   14  O   UNL     1      -7.976  19.014  68.729  1.00  0.00    -0.339 OA 
HETATM   15  O   UNL     1      -8.106  16.515  68.936  1.00  0.00    -0.227 OA 
ENDBRANCH  10  12
ENDBRANCH   6  10
BRANCH   9  16
HETATM   16  C   UNL     1     -11.364  13.700  66.446  1.00  0.00    -0.331 A  
HETATM   17  F   UNL     1     -11.413  11.400  62.968  1.00  0.00    -0.344 F  
HETATM   18  C   UNL     1     -10.175  13.207  65.861  1.00  0.00    -0.294 A  
HETATM   19  C   UNL     1     -10.185  12.440  64.690  1.00  0.00    -0.312 A  
HETATM   20  C   UNL     1     -12.580  12.639  64.596  1.00  0.00    -0.517 A  
HETATM   21  C   UNL     1     -11.393  12.149  64.077  1.00  0.00    -0.395 A  
HETATM   22  C   UNL     1     -12.562  13.423  65.757  1.00  0.00    -0.455 A  
ENDBRANCH   9  16
BRANCH   8  23
HETATM   23  C   UNL     1     -12.033  12.727  69.346  1.00  0.00    -0.321 C  
HETATM   24  C   UNL     1     -11.341  11.636  68.963  1.00  0.00    -0.337 C  
BRANCH  24  25
HETATM   25  C   UNL     1     -11.551  10.224  69.473  1.00  0.00    -0.168 C  
HETATM   26  H   UNL     1     -10.893   8.419  69.039  1.00  0.00     0.000 HD 
HETATM   27  O   UNL     1     -10.761   9.304  68.719  1.00  0.00    -0.217 OA 
BRANCH  25  28
HETATM   28  C   UNL     1     -11.226  10.054  70.965  1.00  0.00    -0.387 C  
BRANCH  28  29
HETATM   29  C   UNL     1     -12.330   9.294  71.739  1.00  0.00    -0.379 C  
HETATM   30  O   UNL     1     -13.328   8.795  70.842  1.00  0.00    -0.517 OA 
HETATM   31  H   UNL     1     -14.006   8.329  71.317  1.00  0.00     0.000 HD 
BRANCH  29  32
HETATM   32  C   UNL     1     -11.789   8.072  72.481  1.00  0.00    -0.419 C  
HETATM   33  C   UNL     1     -11.800   6.837  71.625  1.00  0.00    -0.326 C  
HETATM   34  O   UNL     1     -11.630   6.833  70.416  1.00  0.00    -0.339 OA 
HETATM   35  O   UNL     1     -12.006   5.702  72.331  1.00  0.00    -0.235 OA 
ENDBRANCH  29  32
ENDBRANCH  28  29
ENDBRANCH  25  28
ENDBRANCH  24  25
ENDBRANCH   8  23
TORSDOF 8
ENDMDL
MODEL        8
REMARK 921   NORMALIZED FREE ENERGY PREDICTED BY IDOCK:   -7.69 KCAL/MOL
REMARK 922        TOTAL FREE ENERGY PREDICTED BY IDOCK:  -12.82 KCAL/MOL
REMARK 923 INTER-LIGAND FREE ENERGY PREDICTED BY IDOCK:  -10.96 KCAL/MOL
REMARK 924 INTRA-LIGAND FREE ENERGY PREDICTED BY IDOCK:   -1.87 KCAL/MOL
REMARK 927      BINDING AFFINITY PREDICTED BY RF-SCORE:    0.00 PKD
ROOT
HETATM    1  C   UNL     1     -11.796  16.178  72.377  1.00  0.00    -0.637 C  
HETATM    2  C   UNL     1     -12.368  15.175  71.363  1.00  0.00    -0.411 C  
HETATM    3  C   UNL     1     -13.891  15.330  71.307  1.00  0.00    -0.562 C  
HETATM    4  C   UNL     1     -11.767  15.334  69.970  1.00  0.00    -0.315 A  
HETATM    5  N   UNL     1     -11.324  16.577  69.669  1.00  0.00    -0.175 NA 
HETATM    6  C   UNL     1     -10.834  16.756  68.444  1.00  0.00    -0.355 A  
HETATM    7  N   UNL     1     -10.794  15.846  67.475  1.00  0.00    -0.318 NA 
HETATM    8  C   UNL     1     -11.734  14.275  69.042  1.00  0.00    -0.352 A  
HETATM    9  C   UNL     1     -11.287  14.609  67.754  1.00  0.00    -0.322 A  
ENDROOT
BRANCH   6  10
HETATM   10  N   UNL     1     -10.117  17.947  68.234  1.00  0.00    -0.353 N  
HETATM   11  C   UNL     1     -10.627  18.808  67.159  1.00  0.00    -0.428 C  
BRANCH  10  12
HETATM   12  S   UNL     1      -8.453  17.806  68.386  1.00  0.00    -0.296 S  
HETATM   13  C   UNL     1      -7.839  17.823  66.711  1.00  0.00    -0.233 C  
HETATM   14  O   UNL     1      -7.973  19.020  69.022  1.00  0.00    -0.306 OA 
HETATM   15  O   UNL     1      -8.130  16.515  68.949  1.00  0.00    -0.227 OA 
ENDBRANCH  10  12
ENDBRANCH   6  10
BRANCH   9  16
HETATM   16  C   UNL     1     -11.296  13.709  66.561  1.00  0.00    -0.335 A  
HETATM   17  F   UNL     1     -11.436  11.209  63.226  1.00  0.00    -0.368 F  
HETATM   18  C   UNL     1     -12.467  13.573  65.779  1.00  0.00    -0.514 A  
HETATM   19  C   UNL     1     -12.521  12.730  64.663  1.00  0.00    -0.525 A  
HETATM   20  C   UNL     1     -10.239  12.079  65.059  1.00  0.00    -0.308 A  
HETATM   21  C   UNL     1     -11.398  12.003  64.303  1.00  0.00    -0.364 A  
HETATM   22  C   UNL     1     -10.198  12.909  66.188  1.00  0.00    -0.286 A  
ENDBRANCH   9  16
BRANCH   8  23
HETATM   23  C   UNL     1     -12.147  12.925  69.470  1.00  0.00    -0.274 C  
HETATM   24  C   UNL     1     -11.297  11.980  69.920  1.00  0.00    -0.144 C  
BRANCH  24  25
HETATM   25  C   UNL     1     -11.690  10.660  70.553  1.00  0.00    -0.356 C  
HETATM   26  H   UNL     1     -13.358   9.719  71.012  1.00  0.00     0.000 HD 
HETATM   27  O   UNL     1     -13.112  10.546  70.615  1.00  0.00    -0.353 OA 
BRANCH  25  28
HETATM   28  C   UNL     1     -11.123   9.433  69.823  1.00  0.00    -0.193 C  
BRANCH  28  29
HETATM   29  C   UNL     1     -11.282   8.123  70.632  1.00  0.00    -0.260 C  
HETATM   30  O   UNL     1     -12.663   7.766  70.752  1.00  0.00    -0.526 OA 
HETATM   31  H   UNL     1     -12.761   6.962  71.249  1.00  0.00     0.000 HD 
BRANCH  29  32
HETATM   32  C   UNL     1     -10.600   6.932  69.959  1.00  0.00    -0.254 C  
HETATM   33  C   UNL     1     -10.451   5.763  70.891  1.00  0.00    -0.252 C  
HETATM   34  O   UNL     1     -11.240   5.481  71.779  1.00  0.00    -0.206 OA 
HETATM   35  O   UNL     1      -9.345   5.024  70.645  1.00  0.00    -0.146 OA 
ENDBRANCH  29  32
ENDBRANCH  28  29
ENDBRANCH  25  28
ENDBRANCH  24  25
ENDBRANCH   8  23
TORSDOF 8
ENDMDL
MODEL        9
REMARK 921   NORMALIZED FREE ENERGY PREDICTED BY IDOCK:   -7.63 KCAL/MOL
REMARK 922        TOTAL FREE ENERGY PREDICTED BY IDOCK:  -12.74 KCAL/MOL
REMARK 923 INTER-LIGAND FREE ENERGY PREDICTED BY IDOCK:  -11.06 KCAL/MOL
REMARK 924 INTRA-LIGAND FREE ENERGY PREDICTED BY IDOCK:   -1.68 KCAL/MOL
REMARK 927      BINDING AFFINITY PREDICTED BY RF-SCORE:    0.00 PKD
ROOT
HETATM    1  C   UNL     1      -7.843   9.672  65.438  1.00  0.00    -0.117 C  
HETATM    2  C   UNL     1      -8.018  10.313  66.823  1.00  0.00    -0.114 C  
HETATM    3  C   UNL     1      -6.892  11.326  67.054  1.00  0.00    -0.126 C  
HETATM    4  C   UNL     1      -9.378  10.982  66.999  1.00  0.00    -0.172 A  
HETATM    5  N   UNL     1      -9.957  11.425  65.859  1.00  0.00    -0.224 NA 
HETATM    6  C   UNL     1     -11.124  12.052  65.987  1.00  0.00    -0.320 A  
HETATM    7  N   UNL     1     -11.741  12.333  67.131  1.00  0.00    -0.502 NA 
HETATM    8  C   UNL     1      -9.958  11.178  68.268  1.00  0.00    -0.196 A  
HETATM    9  C   UNL     1     -11.138  11.937  68.284  1.00  0.00    -0.239 A  
ENDROOT
BRANCH   6  10
HETATM   10  N   UNL     1     -11.853  12.248  64.801  1.00  0.00    -0.373 N  
HETATM   11  C   UNL     1     -11.379  11.485  63.639  1.00  0.00    -0.318 C  
BRANCH  10  12
HETATM   12  S   UNL     1     -12.360  13.823  64.535  1.00  0.00    -0.322 S  
HETATM   13  C   UNL     1     -10.968  14.836  65.007  1.00  0.00    -0.414 C  
HETATM   14  O   UNL     1     -12.532  13.986  63.102  1.00  0.00    -0.733 OA 
HETATM   15  O   UNL     1     -13.444  14.137  65.437  1.00  0.00    -0.648 OA 
ENDBRANCH  10  12
ENDBRANCH   6  10
BRANCH   9  16
HETATM   16  C   UNL     1     -11.863  12.407  69.505  1.00  0.00    -0.368 A  
HETATM   17  F   UNL     1     -13.846  13.825  72.888  1.00  0.00    -0.560 F  
HETATM   18  C   UNL     1     -12.021  13.791  69.752  1.00  0.00    -0.406 A  
HETATM   19  C   UNL     1     -12.680  14.272  70.889  1.00  0.00    -0.427 A  
HETATM   20  C   UNL     1     -13.037  12.009  71.624  1.00  0.00    -0.422 A  
HETATM   21  C   UNL     1     -13.198  13.373  71.808  1.00  0.00    -0.407 A  
HETATM   22  C   UNL     1     -12.359  11.534  70.494  1.00  0.00    -0.432 A  
ENDBRANCH   9  16
BRANCH   8  23
HETATM   23  C   UNL     1      -9.316  10.586  69.457  1.00  0.00    -0.089 C  
HETATM   24  C   UNL     1      -9.666   9.401  69.996  1.00  0.00    -0.255 C  
BRANCH  24  25
HETATM   25  C   UNL     1      -8.915   8.662  71.085  1.00  0.00    -0.201 C  
HETATM   26  H   UNL     1      -7.214   8.865  72.057  1.00  0.00     0.000 HD 
HETATM   27  O   UNL     1      -7.685   9.328  71.375  1.00  0.00    -0.334 OA 
BRANCH  25  28
HETATM   28  C   UNL     1      -9.715   8.504  72.386  1.00  0.00    -0.357 C  
BRANCH  28  29
HETATM   29  C   UNL     1     -10.998   7.658  72.206  1.00  0.00    -0.279 C  
HETATM   30  O   UNL     1     -11.092   6.655  73.224  1.00  0.00    -0.447 OA 
HETATM   31  H   UNL     1     -11.880   6.135  73.113  1.00  0.00     0.000 HD 
BRANCH  29  32
HETATM   32  C   UNL     1     -12.273   8.494  72.326  1.00  0.00    -0.454 C  
HETATM   33  C   UNL     1     -13.451   7.827  71.675  1.00  0.00    -0.349 C  
HETATM   34  O   UNL     1     -13.621   6.619  71.623  1.00  0.00    -0.177 OA 
HETATM   35  O   UNL     1     -14.337   8.705  71.152  1.00  0.00    -0.277 OA 
ENDBRANCH  29  32
ENDBRANCH  28  29
ENDBRANCH  25  28
ENDBRANCH  24  25
ENDBRANCH   8  23
TORSDOF 8
ENDMDL
MODEL       10
REMARK 921   NORMALIZED FREE ENERGY PREDICTED BY IDOCK:   -7.56 KCAL/MOL
REMARK 922        TOTAL FREE ENERGY PREDICTED BY IDOCK:  -12.63 KCAL/MOL
REMARK 923 INTER-LIGAND FREE ENERGY PREDICTED BY IDOCK:  -11.14 KCAL/MOL
REMARK 924 INTRA-LIGAND FREE ENERGY PREDICTED BY IDOCK:   -1.49 KCAL/MOL
REMARK 927      BINDING AFFINITY PREDICTED BY RF-SCORE:    0.00 PKD
ROOT
HETATM    1  C   UNL     1     -12.899  15.010  71.364  1.00  0.00    -0.432 C  
HETATM    2  C   UNL     1     -12.022  15.006  70.102  1.00  0.00    -0.366 C  
HETATM    3  C   UNL     1     -10.618  15.498  70.464  1.00  0.00    -0.243 C  
HETATM    4  C   UNL     1     -11.949  13.636  69.435  1.00  0.00    -0.342 A  
HETATM    5  N   UNL     1     -12.124  12.579  70.263  1.00  0.00    -0.341 NA 
HETATM    6  C   UNL     1     -12.022  11.370  69.717  1.00  0.00    -0.353 A  
HETATM    7  N   UNL     1     -11.708  11.105  68.452  1.00  0.00    -0.485 NA 
HETATM    8  C   UNL     1     -11.657  13.483  68.066  1.00  0.00    -0.372 A  
HETATM    9  C   UNL     1     -11.478  12.162  67.627  1.00  0.00    -0.331 A  
ENDROOT
BRANCH   6  10
HETATM   10  N   UNL     1     -12.486  10.298  70.499  1.00  0.00    -0.287 N  
HETATM   11  C   UNL     1     -13.389  10.666  71.598  1.00  0.00    -0.307 C  
BRANCH  10  12
HETATM   12  S   UNL     1     -11.353   9.100  70.801  1.00  0.00    -0.293 S  
HETATM   13  C   UNL     1     -11.905   8.318  72.307  1.00  0.00    -0.388 C  
HETATM   14  O   UNL     1     -11.477   8.112  69.744  1.00  0.00     0.035 OA 
HETATM   15  O   UNL     1     -10.072   9.709  71.079  1.00  0.00    -0.268 OA 
ENDBRANCH  10  12
ENDBRANCH   6  10
BRANCH   9  16
HETATM   16  C   UNL     1     -11.021  11.743  66.266  1.00  0.00    -0.346 A  
HETATM   17  F   UNL     1      -9.650  10.536  62.517  1.00  0.00    -0.270 F  
HETATM   18  C   UNL     1      -9.878  10.923  66.118  1.00  0.00    -0.268 A  
HETATM   19  C   UNL     1      -9.410  10.521  64.862  1.00  0.00    -0.278 A  
HETATM   20  C   UNL     1     -11.185  11.763  63.817  1.00  0.00    -0.518 A  
HETATM   21  C   UNL     1     -10.080  10.932  63.722  1.00  0.00    -0.353 A  
HETATM   22  C   UNL     1     -11.637  12.179  65.076  1.00  0.00    -0.365 A  
ENDBRANCH   9  16
BRANCH   8  23
HETATM   23  C   UNL     1     -11.572  14.679  67.206  1.00  0.00    -0.404 C  
HETATM   24  C   UNL     1     -10.420  15.308  66.895  1.00  0.00    -0.289 C  
BRANCH  24  25
HETATM   25  C   UNL     1     -10.257  16.408  65.866  1.00  0.00    -0.359 C  
HETATM   26  H   UNL     1     -10.927  16.802  64.056  1.00  0.00     0.000 HD 
HETATM   27  O   UNL     1     -11.030  16.112  64.702  1.00  0.00    -0.642 OA 
BRANCH  25  28
HETATM   28  C   UNL     1     -10.649  17.799  66.384  1.00  0.00    -0.218 C  
BRANCH  28  29
HETATM   29  C   UNL     1      -9.513  18.840  66.235  1.00  0.00    -0.274 C  
HETATM   30  O   UNL     1     -10.017  20.169  66.403  1.00  0.00    -0.440 OA 
HETATM   31  H   UNL     1      -9.320  20.808  66.311  1.00  0.00     0.000 HD 
BRANCH  29  32
HETATM   32  C   UNL     1      -8.421  18.672  67.292  1.00  0.00    -0.275 C  
HETATM   33  C   UNL     1      -8.812  19.275  68.611  1.00  0.00    -0.374 C  
HETATM   34  O   UNL     1      -9.954  19.318  69.041  1.00  0.00    -0.424 OA 
HETATM   35  O   UNL     1      -7.759  19.764  69.305  1.00  0.00    -0.276 OA 
ENDBRANCH  29  32
ENDBRANCH  28  29
ENDBRANCH  25  28
ENDBRANCH  24  25
ENDBRANCH   8  23
TORSDOF 8
ENDMDL
MODEL       11
REMARK 921   NORMALIZED FREE ENERGY PREDICTED BY IDOCK:   -7.52 KCAL/MOL
REMARK 922        TOTAL FREE ENERGY PREDICTED BY IDOCK:  -12.58 KCAL/MOL
REMARK 923 INTER-LIGAND FREE ENERGY PREDICTED BY IDOCK:  -11.23 KCAL/MOL
REMARK 924 INTRA-LIGAND FREE ENERGY PREDICTED BY IDOCK:   -1.35 KCAL/MOL
REMARK 927      BINDING AFFINITY PREDICTED BY RF-SCORE:    0.00 PKD
ROOT
HETATM    1  C   UNL     1     -10.939  11.608  65.036  1.00  0.00    -0.334 C  
HETATM    2  C   UNL     1     -10.918  11.528  66.571  1.00  0.00    -0.346 C  
HETATM    3  C   UNL     1      -9.577  10.945  67.026  1.00  0.00    -0.197 C  
HETATM    4  C   UNL     1     -11.163  12.879  67.238  1.00  0.00    -0.288 A  
HETATM    5  N   UNL     1     -10.793  13.959  66.510  1.00  0.00    -0.293 NA 
HETATM    6  C   UNL     1     -10.955  15.149  67.085  1.00  0.00    -0.326 A  
HETATM    7  N   UNL     1     -11.388  15.369  68.322  1.00  0.00    -0.334 NA 
HETATM    8  C   UNL     1     -11.678  12.988  68.543  1.00  0.00    -0.377 A  
HETATM    9  C   UNL     1     -11.710  14.285  69.078  1.00  0.00    -0.317 A  
ENDROOT
BRANCH   6  10
HETATM   10  N   UNL     1     -10.850  16.264  66.234  1.00  0.00    -0.172 N  
HETATM   11  C   UNL     1     -11.132  16.002  64.816  1.00  0.00    -0.365 C  
BRANCH  10  12
HETATM   12  S   UNL     1      -9.587  17.307  66.590  1.00  0.00    -0.288 S  
HETATM   13  C   UNL     1      -9.935  17.898  68.239  1.00  0.00    -0.360 C  
HETATM   14  O   UNL     1      -8.378  16.508  66.677  1.00  0.00    -0.204 OA 
HETATM   15  O   UNL     1      -9.642  18.448  65.705  1.00  0.00    -0.463 OA 
ENDBRANCH  10  12
ENDBRANCH   6  10
BRANCH   9  16
HETATM   16  C   UNL     1     -12.072  14.648  70.482  1.00  0.00    -0.388 A  
HETATM   17  F   UNL     1     -13.192  15.641  74.375  1.00  0.00    -0.353 F  
HETATM   18  C   UNL     1     -13.374  14.392  70.972  1.00  0.00    -0.359 A  
HETATM   19  C   UNL     1     -13.757  14.730  72.276  1.00  0.00    -0.560 A  
HETATM   20  C   UNL     1     -11.563  15.633  72.673  1.00  0.00    -0.484 A  
HETATM   21  C   UNL     1     -12.840  15.333  73.120  1.00  0.00    -0.494 A  
HETATM   22  C   UNL     1     -11.192  15.311  71.360  1.00  0.00    -0.364 A  
ENDBRANCH   9  16
BRANCH   8  23
HETATM   23  C   UNL     1     -12.146  11.774  69.241  1.00  0.00    -0.292 C  
HETATM   24  C   UNL     1     -11.455  11.144  70.212  1.00  0.00    -0.329 C  
BRANCH  24  25
HETATM   25  C   UNL     1     -11.974  10.024  71.089  1.00  0.00    -0.392 C  
HETATM   26  H   UNL     1     -13.727   9.284  71.600  1.00  0.00     0.000 HD 
HETATM   27  O   UNL     1     -13.401   9.987  71.049  1.00  0.00    -0.385 OA 
BRANCH  25  28
HETATM   28  C   UNL     1     -11.429   8.639  70.708  1.00  0.00    -0.293 C  
BRANCH  28  29
HETATM   29  C   UNL     1     -11.380   7.660  71.905  1.00  0.00    -0.266 C  
HETATM   30  O   UNL     1     -12.536   7.815  72.736  1.00  0.00    -0.565 OA 
HETATM   31  H   UNL     1     -12.505   7.214  73.471  1.00  0.00     0.000 HD 
BRANCH  29  32
HETATM   32  C   UNL     1     -11.377   6.196  71.465  1.00  0.00    -0.340 C  
HETATM   33  C   UNL     1     -10.802   5.289  72.516  1.00  0.00    -0.245 C  
HETATM   34  O   UNL     1     -10.902   5.473  73.719  1.00  0.00    -0.282 OA 
HETATM   35  O   UNL     1     -10.161   4.216  72.000  1.00  0.00    -0.175 OA 
ENDBRANCH  29  32
ENDBRANCH  28  29
ENDBRANCH  25  28
ENDBRANCH  24  25
ENDBRANCH   8  23
TORSDOF 8
ENDMDL
MODEL       12
REMARK 921   NORMALIZED FREE ENERGY PREDICTED BY IDOCK:   -7.51 KCAL/MOL
REMARK 922        TOTAL FREE ENERGY PREDICTED BY IDOCK:  -12.57 KCAL/MOL
REMARK 923 INTER-LIGAND FREE ENERGY PREDICTED BY IDOCK:  -11.00 KCAL/MOL
REMARK 924 INTRA-LIGAND FREE ENERGY PREDICTED BY IDOCK:   -1.57 KCAL/MOL
REMARK 927      BINDING AFFINITY PREDICTED BY RF-SCORE:    0.00 PKD
ROOT
HETATM    1  C   UNL     1     -10.671  12.314  65.187  1.00  0.00    -0.330 C  
HETATM    2  C   UNL     1     -11.449  13.376  65.982  1.00  0.00    -0.351 C  
HETATM    3  C   UNL     1     -12.827  13.572  65.344  1.00  0.00    -0.420 C  
HETATM    4  C   UNL     1     -11.593  13.021  67.459  1.00  0.00    -0.356 A  
HETATM    5  N   UNL     1     -11.574  11.698  67.742  1.00  0.00    -0.484 NA 
HETATM    6  C   UNL     1     -11.741  11.357  69.018  1.00  0.00    -0.343 A  
HETATM    7  N   UNL     1     -11.982  12.190  70.025  1.00  0.00    -0.338 NA 
HETATM    8  C   UNL     1     -11.794  14.002  68.449  1.00  0.00    -0.397 A  
HETATM    9  C   UNL     1     -12.056  13.518  69.740  1.00  0.00    -0.318 A  
ENDROOT
BRANCH   6  10
HETATM   10  N   UNL     1     -11.433  10.025  69.346  1.00  0.00    -0.140 N  
HETATM   11  C   UNL     1     -11.906   9.575  70.662  1.00  0.00    -0.233 C  
BRANCH  10  12
HETATM   12  S   UNL     1      -9.914   9.511  68.855  1.00  0.00    -0.186 S  
HETATM   13  C   UNL     1      -9.563   8.088  69.873  1.00  0.00    -0.171 C  
HETATM   14  O   UNL     1     -10.042   9.030  67.490  1.00  0.00    -0.196 OA 
HETATM   15  O   UNL     1      -8.936  10.523  69.180  1.00  0.00    -0.173 OA 
ENDBRANCH  10  12
ENDBRANCH   6  10
BRANCH   9  16
HETATM   16  C   UNL     1     -12.445  14.342  70.925  1.00  0.00    -0.424 A  
HETATM   17  F   UNL     1     -13.640  16.633  74.199  1.00  0.00    -0.048 F  
HETATM   18  C   UNL     1     -13.804  14.455  71.300  1.00  0.00    -0.333 A  
HETATM   19  C   UNL     1     -14.211  15.228  72.394  1.00  0.00    -0.579 A  
HETATM   20  C   UNL     1     -11.921  15.852  72.789  1.00  0.00    -0.616 A  
HETATM   21  C   UNL     1     -13.261  15.907  73.140  1.00  0.00    -0.592 A  
HETATM   22  C   UNL     1     -11.522  15.093  71.681  1.00  0.00    -0.445 A  
ENDBRANCH   9  16
BRANCH   8  23
HETATM   23  C   UNL     1     -11.709  15.429  68.083  1.00  0.00    -0.276 C  
HETATM   24  C   UNL     1     -10.650  16.219  68.351  1.00  0.00    -0.301 C  
BRANCH  24  25
HETATM   25  C   UNL     1     -10.431  17.623  67.825  1.00  0.00    -0.378 C  
HETATM   26  H   UNL     1      -9.917  19.376  68.561  1.00  0.00     0.000 HD 
HETATM   27  O   UNL     1     -10.054  18.496  68.891  1.00  0.00    -0.386 OA 
BRANCH  25  28
HETATM   28  C   UNL     1      -9.374  17.708  66.714  1.00  0.00    -0.286 C  
BRANCH  28  29
HETATM   29  C   UNL     1      -9.263  19.121  66.094  1.00  0.00    -0.229 C  
HETATM   30  O   UNL     1     -10.385  19.928  66.466  1.00  0.00    -0.444 OA 
HETATM   31  H   UNL     1     -10.317  20.796  66.085  1.00  0.00     0.000 HD 
BRANCH  29  32
HETATM   32  C   UNL     1      -8.026  19.878  66.579  1.00  0.00    -0.346 C  
HETATM   33  C   UNL     1      -6.763  19.361  65.952  1.00  0.00    -0.246 C  
HETATM   34  O   UNL     1      -6.687  18.905  64.822  1.00  0.00    -0.461 OA 
HETATM   35  O   UNL     1      -5.686  19.460  66.765  1.00  0.00    -0.170 OA 
ENDBRANCH  29  32
ENDBRANCH  28  29
ENDBRANCH  25  28
ENDBRANCH  24  25
ENDBRANCH   8  23
TORSDOF 8
ENDMDL
MODEL       13
REMARK 921   NORMALIZED FREE ENERGY PREDICTED BY IDOCK:   -7.50 KCAL/MOL
REMARK 922        TOTAL FREE ENERGY PREDICTED BY IDOCK:  -12.55 KCAL/MOL
REMARK 923 INTER-LIGAND FREE ENERGY PREDICTED BY IDOCK:  -10.31 KCAL/MOL
REMARK 924 INTRA-LIGAND FREE ENERGY PREDICTED BY IDOCK:   -2.24 KCAL/MOL
REMARK 927      BINDING AFFINITY PREDICTED BY RF-SCORE:    0.00 PKD
ROOT
HETATM    1  C   UNL     1     -11.908  16.078  72.455  1.00  0.00    -0.639 C  
HETATM    2  C   UNL     1     -12.476  15.091  71.422  1.00  0.00    -0.397 C  
HETATM    3  C   UNL     1     -13.994  15.271  71.337  1.00  0.00    -0.601 C  
HETATM    4  C   UNL     1     -11.844  15.249  70.043  1.00  0.00    -0.334 A  
HETATM    5  N   UNL     1     -11.375  16.486  69.759  1.00  0.00    -0.161 NA 
HETATM    6  C   UNL     1     -10.857  16.664  68.545  1.00  0.00    -0.356 A  
HETATM    7  N   UNL     1     -10.812  15.760  67.572  1.00  0.00    -0.318 NA 
HETATM    8  C   UNL     1     -11.809  14.195  69.109  1.00  0.00    -0.380 A  
HETATM    9  C   UNL     1     -11.331  14.530  67.833  1.00  0.00    -0.310 A  
ENDROOT
BRANCH   6  10
HETATM   10  N   UNL     1     -10.117  17.845  68.358  1.00  0.00    -0.363 N  
HETATM   11  C   UNL     1     -10.710  18.820  67.433  1.00  0.00    -0.424 C  
BRANCH  10  12
HETATM   12  S   UNL     1      -8.455  17.633  68.295  1.00  0.00    -0.276 S  
HETATM   13  C   UNL     1      -7.777  19.148  68.952  1.00  0.00    -0.323 C  
HETATM   14  O   UNL     1      -8.118  16.579  69.236  1.00  0.00    -0.216 OA 
HETATM   15  O   UNL     1      -8.035  17.537  66.916  1.00  0.00    -0.204 OA 
ENDBRANCH  10  12
ENDBRANCH   6  10
BRANCH   9  16
HETATM   16  C   UNL     1     -11.330  13.637  66.633  1.00  0.00    -0.343 A  
HETATM   17  F   UNL     1     -11.215  11.135  63.299  1.00  0.00    -0.402 F  
HETATM   18  C   UNL     1     -10.190  12.861  66.322  1.00  0.00    -0.285 A  
HETATM   19  C   UNL     1     -10.143  12.025  65.200  1.00  0.00    -0.295 A  
HETATM   20  C   UNL     1     -12.371  12.714  64.610  1.00  0.00    -0.546 A  
HETATM   21  C   UNL     1     -11.244  11.947  64.363  1.00  0.00    -0.336 A  
HETATM   22  C   UNL     1     -12.404  13.565  65.723  1.00  0.00    -0.516 A  
ENDBRANCH   9  16
BRANCH   8  23
HETATM   23  C   UNL     1     -12.253  12.849  69.519  1.00  0.00    -0.177 C  
HETATM   24  C   UNL     1     -11.442  11.914  70.053  1.00  0.00    -0.213 C  
BRANCH  24  25
HETATM   25  C   UNL     1     -11.882  10.601  70.670  1.00  0.00    -0.363 C  
HETATM   26  H   UNL     1     -13.530   9.524  70.748  1.00  0.00     0.000 HD 
HETATM   27  O   UNL     1     -13.253  10.347  70.361  1.00  0.00    -0.243 OA 
BRANCH  25  28
HETATM   28  C   UNL     1     -11.039   9.397  70.224  1.00  0.00    -0.299 C  
BRANCH  28  29
HETATM   29  C   UNL     1      -9.730   9.810  69.508  1.00  0.00    -0.212 C  
HETATM   30  O   UNL     1      -8.637   9.844  70.431  1.00  0.00    -0.299 OA 
HETATM   31  H   UNL     1      -7.833  10.098  69.992  1.00  0.00     0.000 HD 
BRANCH  29  32
HETATM   32  C   UNL     1      -9.323   8.821  68.416  1.00  0.00    -0.141 C  
HETATM   33  C   UNL     1      -8.446   9.456  67.375  1.00  0.00    -0.125 C  
HETATM   34  O   UNL     1      -7.644  10.349  67.597  1.00  0.00    -0.089 OA 
HETATM   35  O   UNL     1      -8.616   8.928  66.141  1.00  0.00    -0.127 OA 
ENDBRANCH  29  32
ENDBRANCH  28  29
ENDBRANCH  25  28
ENDBRANCH  24  25
ENDBRANCH   8  23
TORSDOF 8
ENDMDL
MODEL       14
REMARK 921   NORMALIZED FREE ENERGY PREDICTED BY IDOCK:   -7.26 KCAL/MOL
REMARK 922        TOTAL FREE ENERGY PREDICTED BY IDOCK:  -12.20 KCAL/MOL
REMARK 923 INTER-LIGAND FREE ENERGY PREDICTED BY IDOCK:  -10.66 KCAL/MOL
REMARK 924 INTRA-LIGAND FREE ENERGY PREDICTED BY IDOCK:   -1.54 KCAL/MOL
REMARK 927      BINDING AFFINITY PREDICTED BY RF-SCORE:    0.00 PKD
ROOT
HETATM    1  C   UNL     1     -10.711  12.196  65.130  1.00  0.00    -0.333 C  
HETATM    2  C   UNL     1     -11.478  13.277  65.907  1.00  0.00    -0.359 C  
HETATM    3  C   UNL     1     -12.857  13.471  65.271  1.00  0.00    -0.410 C  
HETATM    4  C   UNL     1     -11.619  12.952  67.391  1.00  0.00    -0.360 A  
HETATM    5  N   UNL     1     -11.608  11.634  67.698  1.00  0.00    -0.508 NA 
HETATM    6  C   UNL     1     -11.774  11.318  68.981  1.00  0.00    -0.342 A  
HETATM    7  N   UNL     1     -12.005  12.171  69.974  1.00  0.00    -0.338 NA 
HETATM    8  C   UNL     1     -11.810  13.953  68.363  1.00  0.00    -0.409 A  
HETATM    9  C   UNL     1     -12.071  13.494  69.664  1.00  0.00    -0.306 A  
ENDROOT
BRANCH   6  10
HETATM   10  N   UNL     1     -11.473   9.991  69.334  1.00  0.00    -0.140 N  
HETATM   11  C   UNL     1     -11.917   9.578  70.672  1.00  0.00    -0.197 C  
BRANCH  10  12
HETATM   12  S   UNL     1      -9.975   9.445  68.815  1.00  0.00    -0.186 S  
HETATM   13  C   UNL     1      -9.563   8.115  69.933  1.00  0.00    -0.175 C  
HETATM   14  O   UNL     1     -10.163   8.849  67.504  1.00  0.00    -0.213 OA 
HETATM   15  O   UNL     1      -8.992  10.486  69.006  1.00  0.00    -0.166 OA 
ENDBRANCH  10  12
ENDBRANCH   6  10
BRANCH   9  16
HETATM   16  C   UNL     1     -12.449  14.343  70.835  1.00  0.00    -0.424 A  
HETATM   17  F   UNL     1     -13.395  16.715  74.132  1.00  0.00    -0.244 F  
HETATM   18  C   UNL     1     -11.452  15.003  71.590  1.00  0.00    -0.377 A  
HETATM   19  C   UNL     1     -11.763  15.795  72.701  1.00  0.00    -0.542 A  
HETATM   20  C   UNL     1     -14.095  15.289  72.393  1.00  0.00    -0.622 A  
HETATM   21  C   UNL     1     -13.087  15.944  73.082  1.00  0.00    -0.572 A  
HETATM   22  C   UNL     1     -13.775  14.481  71.293  1.00  0.00    -0.407 A  
ENDBRANCH   9  16
BRANCH   8  23
HETATM   23  C   UNL     1     -11.716  15.372  67.970  1.00  0.00    -0.235 C  
HETATM   24  C   UNL     1     -10.610  16.127  68.117  1.00  0.00    -0.290 C  
BRANCH  24  25
HETATM   25  C   UNL     1     -10.400  17.518  67.552  1.00  0.00    -0.356 C  
HETATM   26  H   UNL     1     -10.155  19.340  68.257  1.00  0.00     0.000 HD 
HETATM   27  O   UNL     1     -10.286  18.469  68.611  1.00  0.00    -0.377 OA 
BRANCH  25  28
HETATM   28  C   UNL     1      -9.168  17.634  66.642  1.00  0.00    -0.284 C  
BRANCH  28  29
HETATM   29  C   UNL     1      -7.835  17.454  67.408  1.00  0.00    -0.196 C  
HETATM   30  O   UNL     1      -6.846  16.849  66.569  1.00  0.00    -0.222 OA 
HETATM   31  H   UNL     1      -6.027  16.738  67.039  1.00  0.00     0.000 HD 
BRANCH  29  32
HETATM   32  C   UNL     1      -7.236  18.785  67.863  1.00  0.00    -0.256 C  
HETATM   33  C   UNL     1      -6.512  18.662  69.173  1.00  0.00    -0.269 C  
HETATM   34  O   UNL     1      -5.910  17.666  69.540  1.00  0.00    -0.213 OA 
HETATM   35  O   UNL     1      -6.574  19.786  69.923  1.00  0.00    -0.336 OA 
ENDBRANCH  29  32
ENDBRANCH  28  29
ENDBRANCH  25  28
ENDBRANCH  24  25
ENDBRANCH   8  23
TORSDOF 8
ENDMDL
MODEL       15
REMARK 921   NORMALIZED FREE ENERGY PREDICTED BY IDOCK:   -7.26 KCAL/MOL
REMARK 922        TOTAL FREE ENERGY PREDICTED BY IDOCK:  -12.20 KCAL/MOL
REMARK 923 INTER-LIGAND FREE ENERGY PREDICTED BY IDOCK:  -11.31 KCAL/MOL
REMARK 924 INTRA-LIGAND FREE ENERGY PREDICTED BY IDOCK:   -0.88 KCAL/MOL
REMARK 927      BINDING AFFINITY PREDICTED BY RF-SCORE:    0.00 PKD
ROOT
HETATM    1  C   UNL     1     -10.458  11.428  63.614  1.00  0.00    -0.472 C  
HETATM    2  C   UNL     1     -11.198  12.511  64.415  1.00  0.00    -0.388 C  
HETATM    3  C   UNL     1     -12.678  12.506  64.019  1.00  0.00    -0.416 C  
HETATM    4  C   UNL     1     -11.052  12.336  65.924  1.00  0.00    -0.322 A  
HETATM    5  N   UNL     1     -10.845  11.065  66.341  1.00  0.00    -0.232 NA 
HETATM    6  C   UNL     1     -10.757  10.876  67.656  1.00  0.00    -0.242 A  
HETATM    7  N   UNL     1     -10.912  11.806  68.594  1.00  0.00    -0.210 NA 
HETATM    8  C   UNL     1     -11.186  13.414  66.820  1.00  0.00    -0.332 A  
HETATM    9  C   UNL     1     -11.173  13.076  68.182  1.00  0.00    -0.272 A  
ENDROOT
BRANCH   6  10
HETATM   10  N   UNL     1     -10.258   9.628  68.068  1.00  0.00    -0.182 N  
HETATM   11  C   UNL     1     -10.391   8.542  67.088  1.00  0.00    -0.307 C  
BRANCH  10  12
HETATM   12  S   UNL     1     -10.535   9.252  69.678  1.00  0.00    -0.232 S  
HETATM   13  C   UNL     1     -10.810   7.489  69.695  1.00  0.00    -0.202 C  
HETATM   14  O   UNL     1      -9.296   9.491  70.397  1.00  0.00    -0.242 OA 
HETATM   15  O   UNL     1     -11.760   9.882  70.114  1.00  0.00    -0.239 OA 
ENDBRANCH  10  12
ENDBRANCH   6  10
BRANCH   9  16
HETATM   16  C   UNL     1     -11.442  14.007  69.320  1.00  0.00    -0.344 A  
HETATM   17  F   UNL     1     -12.289  16.550  72.515  1.00  0.00    -0.494 F  
HETATM   18  C   UNL     1     -12.485  13.734  70.235  1.00  0.00    -0.357 A  
HETATM   19  C   UNL     1     -12.778  14.587  71.305  1.00  0.00    -0.413 A  
HETATM   20  C   UNL     1     -11.018  16.064  70.592  1.00  0.00    -0.273 A  
HETATM   21  C   UNL     1     -12.028  15.738  71.483  1.00  0.00    -0.440 A  
HETATM   22  C   UNL     1     -10.743  15.216  69.511  1.00  0.00    -0.273 A  
ENDBRANCH   9  16
BRANCH   8  23
HETATM   23  C   UNL     1     -11.317  14.784  66.290  1.00  0.00    -0.334 C  
HETATM   24  C   UNL     1     -10.280  15.624  66.097  1.00  0.00    -0.327 C  
BRANCH  24  25
HETATM   25  C   UNL     1     -10.336  16.956  65.376  1.00  0.00    -0.104 C  
HETATM   26  H   UNL     1     -11.421  17.782  63.954  1.00  0.00     0.000 HD 
HETATM   27  O   UNL     1     -11.386  16.948  64.407  1.00  0.00    -1.133 OA 
BRANCH  25  28
HETATM   28  C   UNL     1     -10.532  18.156  66.313  1.00  0.00    -0.374 C  
BRANCH  28  29
HETATM   29  C   UNL     1      -9.459  19.255  66.118  1.00  0.00    -0.282 C  
HETATM   30  O   UNL     1      -9.931  20.517  66.602  1.00  0.00    -0.554 OA 
HETATM   31  H   UNL     1      -9.272  21.191  66.482  1.00  0.00     0.000 HD 
BRANCH  29  32
HETATM   32  C   UNL     1      -8.175  18.964  66.896  1.00  0.00    -0.276 C  
HETATM   33  C   UNL     1      -8.291  19.345  68.344  1.00  0.00    -0.350 C  
HETATM   34  O   UNL     1      -9.321  19.285  68.995  1.00  0.00    -0.365 OA 
HETATM   35  O   UNL     1      -7.120  19.758  68.881  1.00  0.00    -0.330 OA 
ENDBRANCH  29  32
ENDBRANCH  28  29
ENDBRANCH  25  28
ENDBRANCH  24  25
ENDBRANCH   8  23
TORSDOF 8
ENDMDL
MODEL       16
REMARK 921   NORMALIZED FREE ENERGY PREDICTED BY IDOCK:   -7.12 KCAL/MOL
REMARK 922        TOTAL FREE ENERGY PREDICTED BY IDOCK:  -11.99 KCAL/MOL
REMARK 923 INTER-LIGAND FREE ENERGY PREDICTED BY IDOCK:  -10.98 KCAL/MOL
REMARK 924 INTRA-LIGAND FREE ENERGY PREDICTED BY IDOCK:   -1.01 KCAL/MOL
REMARK 927      BINDING AFFINITY PREDICTED BY RF-SCORE:    0.00 PKD
ROOT
HETATM    1  C   UNL     1      -8.386   9.728  65.067  1.00  0.00    -0.149 C  
HETATM    2  C   UNL     1      -8.620   9.891  66.577  1.00  0.00    -0.131 C  
HETATM    3  C   UNL     1      -7.277  10.144  67.270  1.00  0.00    -0.089 C  
HETATM    4  C   UNL     1      -9.605  11.009  66.906  1.00  0.00    -0.182 A  
HETATM    5  N   UNL     1      -9.670  12.009  65.996  1.00  0.00    -0.237 NA 
HETATM    6  C   UNL     1     -10.489  13.020  66.278  1.00  0.00    -0.276 A  
HETATM    7  N   UNL     1     -11.200  13.165  67.391  1.00  0.00    -0.275 NA 
HETATM    8  C   UNL     1     -10.346  11.027  68.103  1.00  0.00    -0.204 A  
HETATM    9  C   UNL     1     -11.098  12.189  68.334  1.00  0.00    -0.245 A  
ENDROOT
BRANCH   6  10
HETATM   10  N   UNL     1     -10.774  13.897  65.217  1.00  0.00    -0.325 N  
HETATM   11  C   UNL     1     -10.447  15.308  65.461  1.00  0.00    -0.374 C  
BRANCH  10  12
HETATM   12  S   UNL     1     -12.194  13.566  64.389  1.00  0.00    -0.369 S  
HETATM   13  C   UNL     1     -11.727  12.381  63.138  1.00  0.00    -0.238 C  
HETATM   14  O   UNL     1     -13.080  12.877  65.310  1.00  0.00    -0.682 OA 
HETATM   15  O   UNL     1     -12.641  14.758  63.705  1.00  0.00    -0.806 OA 
ENDBRANCH  10  12
ENDBRANCH   6  10
BRANCH   9  16
HETATM   16  C   UNL     1     -11.848  12.516  69.585  1.00  0.00    -0.382 A  
HETATM   17  F   UNL     1     -13.901  13.533  73.070  1.00  0.00    -0.470 F  
HETATM   18  C   UNL     1     -11.998  13.860  69.997  1.00  0.00    -0.404 A  
HETATM   19  C   UNL     1     -12.681  14.207  71.169  1.00  0.00    -0.431 A  
HETATM   20  C   UNL     1     -13.079  11.876  71.611  1.00  0.00    -0.433 A  
HETATM   21  C   UNL     1     -13.230  13.209  71.958  1.00  0.00    -0.446 A  
HETATM   22  C   UNL     1     -12.378  11.534  70.447  1.00  0.00    -0.390 A  
ENDBRANCH   9  16
BRANCH   8  23
HETATM   23  C   UNL     1     -10.296   9.860  69.003  1.00  0.00    -0.224 C  
HETATM   24  C   UNL     1      -9.516   9.783  70.101  1.00  0.00    -0.277 C  
BRANCH  24  25
HETATM   25  C   UNL     1      -9.575   8.699  71.159  1.00  0.00    -0.220 C  
HETATM   26  H   UNL     1      -8.654   8.282  72.850  1.00  0.00     0.000 HD 
HETATM   27  O   UNL     1      -8.618   8.961  72.186  1.00  0.00    -0.381 OA 
BRANCH  25  28
HETATM   28  C   UNL     1     -10.961   8.537  71.799  1.00  0.00    -0.376 C  
BRANCH  28  29
HETATM   29  C   UNL     1     -11.505   7.091  71.701  1.00  0.00    -0.266 C  
HETATM   30  O   UNL     1     -12.765   6.977  72.370  1.00  0.00    -0.509 OA 
HETATM   31  H   UNL     1     -13.099   6.089  72.311  1.00  0.00     0.000 HD 
BRANCH  29  32
HETATM   32  C   UNL     1     -11.759   6.657  70.257  1.00  0.00    -0.432 C  
HETATM   33  C   UNL     1     -10.709   5.706  69.758  1.00  0.00    -0.331 C  
HETATM   34  O   UNL     1     -10.127   4.890  70.455  1.00  0.00    -0.229 OA 
HETATM   35  O   UNL     1     -10.469   5.827  68.433  1.00  0.00    -0.197 OA 
ENDBRANCH  29  32
ENDBRANCH  28  29
ENDBRANCH  25  28
ENDBRANCH  24  25
ENDBRANCH   8  23
TORSDOF 8
ENDMDL
MODEL       17
REMARK 921   NORMALIZED FREE ENERGY PREDICTED BY IDOCK:   -7.08 KCAL/MOL
REMARK 922        TOTAL FREE ENERGY PREDICTED BY IDOCK:  -11.94 KCAL/MOL
REMARK 923 INTER-LIGAND FREE ENERGY PREDICTED BY IDOCK:  -10.48 KCAL/MOL
REMARK 924 INTRA-LIGAND FREE ENERGY PREDICTED BY IDOCK:   -1.46 KCAL/MOL
REMARK 927      BINDING AFFINITY PREDICTED BY RF-SCORE:    0.00 PKD
ROOT
HETATM    1  C   UNL     1     -11.026  11.718  65.183  1.00  0.00    -0.351 C  
HETATM    2  C   UNL     1     -11.047  11.666  66.719  1.00  0.00    -0.366 C  
HETATM    3  C   UNL     1      -9.717  11.095  67.221  1.00  0.00    -0.186 C  
HETATM    4  C   UNL     1     -11.312  13.028  67.353  1.00  0.00    -0.305 A  
HETATM    5  N   UNL     1     -10.926  14.096  66.616  1.00  0.00    -0.299 NA 
HETATM    6  C   UNL     1     -11.105  15.296  67.164  1.00  0.00    -0.323 A  
HETATM    7  N   UNL     1     -11.572  15.538  68.384  1.00  0.00    -0.367 NA 
HETATM    8  C   UNL     1     -11.864  13.161  68.642  1.00  0.00    -0.363 A  
HETATM    9  C   UNL     1     -11.913  14.468  69.151  1.00  0.00    -0.309 A  
ENDROOT
BRANCH   6  10
HETATM   10  N   UNL     1     -10.979  16.395  66.295  1.00  0.00    -0.045 N  
HETATM   11  C   UNL     1     -10.929  16.064  64.865  1.00  0.00    -0.384 C  
BRANCH  10  12
HETATM   12  S   UNL     1      -9.967  17.614  66.842  1.00  0.00    -0.338 S  
HETATM   13  C   UNL     1      -8.549  16.763  67.515  1.00  0.00    -0.194 C  
HETATM   14  O   UNL     1      -9.503  18.345  65.676  1.00  0.00    -0.356 OA 
HETATM   15  O   UNL     1     -10.604  18.315  67.933  1.00  0.00    -0.405 OA 
ENDBRANCH  10  12
ENDBRANCH   6  10
BRANCH   9  16
HETATM   16  C   UNL     1     -12.313  14.856  70.538  1.00  0.00    -0.400 A  
HETATM   17  F   UNL     1     -13.323  15.919  74.442  1.00  0.00    -0.227 F  
HETATM   18  C   UNL     1     -11.329  15.076  71.530  1.00  0.00    -0.330 A  
HETATM   19  C   UNL     1     -11.663  15.427  72.843  1.00  0.00    -0.508 A  
HETATM   20  C   UNL     1     -13.996  15.326  72.264  1.00  0.00    -0.646 A  
HETATM   21  C   UNL     1     -12.996  15.565  73.193  1.00  0.00    -0.521 A  
HETATM   22  C   UNL     1     -13.656  14.956  70.956  1.00  0.00    -0.402 A  
ENDBRANCH   9  16
BRANCH   8  23
HETATM   23  C   UNL     1     -12.348  11.959  69.349  1.00  0.00    -0.056 C  
HETATM   24  C   UNL     1     -11.738  11.413  70.420  1.00  0.00    -0.362 C  
BRANCH  24  25
HETATM   25  C   UNL     1     -12.297  10.310  71.296  1.00  0.00    -0.403 C  
HETATM   26  H   UNL     1     -13.890   9.152  71.317  1.00  0.00     0.000 HD 
HETATM   27  O   UNL     1     -13.539   9.843  70.768  1.00  0.00    -0.249 OA 
BRANCH  25  28
HETATM   28  C   UNL     1     -11.346   9.115  71.464  1.00  0.00    -0.439 C  
BRANCH  28  29
HETATM   29  C   UNL     1     -10.414   8.910  70.245  1.00  0.00    -0.210 C  
HETATM   30  O   UNL     1      -9.097   9.393  70.527  1.00  0.00    -0.236 OA 
HETATM   31  H   UNL     1      -8.524   9.268  69.779  1.00  0.00     0.000 HD 
BRANCH  29  32
HETATM   32  C   UNL     1     -10.247   7.436  69.876  1.00  0.00    -0.212 C  
HETATM   33  C   UNL     1     -10.610   7.165  68.444  1.00  0.00    -0.186 C  
HETATM   34  O   UNL     1     -10.447   7.955  67.527  1.00  0.00    -0.241 OA 
HETATM   35  O   UNL     1     -11.133   5.933  68.251  1.00  0.00    -0.258 OA 
ENDBRANCH  29  32
ENDBRANCH  28  29
ENDBRANCH  25  28
ENDBRANCH  24  25
ENDBRANCH   8  23
TORSDOF 8
ENDMDL
MODEL       18
REMARK 921   NORMALIZED FREE ENERGY PREDICTED BY IDOCK:   -7.02 KCAL/MOL
REMARK 922        TOTAL FREE ENERGY PREDICTED BY IDOCK:  -11.84 KCAL/MOL
REMARK 923 INTER-LIGAND FREE ENERGY PREDICTED BY IDOCK:  -10.52 KCAL/MOL
REMARK 924 INTRA-LIGAND FREE ENERGY PREDICTED BY IDOCK:   -1.32 KCAL/MOL
REMARK 927      BINDING AFFINITY PREDICTED BY RF-SCORE:    0.00 PKD
ROOT
HETATM    1  C   UNL     1      -8.774   6.558  67.514  1.00  0.00    -0.114 C  
HETATM    2  C   UNL     1      -9.920   7.577  67.425  1.00  0.00    -0.246 C  
HETATM    3  C   UNL     1     -11.204   6.854  67.007  1.00  0.00    -0.155 C  
HETATM    4  C   UNL     1     -10.140   8.337  68.730  1.00  0.00    -0.200 A  
HETATM    5  N   UNL     1      -9.772   7.678  69.853  1.00  0.00    -0.175 NA 
HETATM    6  C   UNL     1      -9.992   8.299  71.009  1.00  0.00    -0.187 A  
HETATM    7  N   UNL     1     -10.590   9.476  71.165  1.00  0.00    -0.332 NA 
HETATM    8  C   UNL     1     -10.741   9.610  68.764  1.00  0.00    -0.234 A  
HETATM    9  C   UNL     1     -11.012  10.120  70.043  1.00  0.00    -0.307 A  
ENDROOT
BRANCH   6  10
HETATM   10  N   UNL     1      -9.352   7.751  72.135  1.00  0.00    -0.144 N  
HETATM   11  C   UNL     1     -10.216   7.524  73.302  1.00  0.00    -0.343 C  
BRANCH  10  12
HETATM   12  S   UNL     1      -7.806   8.333  72.421  1.00  0.00    -0.108 S  
HETATM   13  C   UNL     1      -6.735   6.930  72.157  1.00  0.00    -0.058 C  
HETATM   14  O   UNL     1      -7.506   9.294  71.374  1.00  0.00    -0.316 OA 
HETATM   15  O   UNL     1      -7.684   8.710  73.810  1.00  0.00    -0.398 OA 
ENDBRANCH  10  12
ENDBRANCH   6  10
BRANCH   9  16
HETATM   16  C   UNL     1     -11.770  11.372  70.347  1.00  0.00    -0.362 A  
HETATM   17  F   UNL     1     -13.813  14.923  71.129  1.00  0.00    -0.419 F  
HETATM   18  C   UNL     1     -11.530  12.550  69.603  1.00  0.00    -0.255 A  
HETATM   19  C   UNL     1     -12.207  13.746  69.866  1.00  0.00    -0.383 A  
HETATM   20  C   UNL     1     -13.390  12.667  71.662  1.00  0.00    -0.315 A  
HETATM   21  C   UNL     1     -13.146  13.788  70.884  1.00  0.00    -0.152 A  
HETATM   22  C   UNL     1     -12.693  11.478  71.407  1.00  0.00    -0.469 A  
ENDBRANCH   9  16
BRANCH   8  23
HETATM   23  C   UNL     1     -11.031  10.308  67.497  1.00  0.00    -0.344 C  
HETATM   24  C   UNL     1     -10.132  11.047  66.816  1.00  0.00    -0.260 C  
BRANCH  24  25
HETATM   25  C   UNL     1     -10.318  11.614  65.423  1.00  0.00    -0.267 C  
HETATM   26  H   UNL     1     -10.365  10.924  63.579  1.00  0.00     0.000 HD 
HETATM   27  O   UNL     1     -10.248  10.569  64.452  1.00  0.00    -0.346 OA 
BRANCH  25  28
HETATM   28  C   UNL     1     -11.639  12.376  65.240  1.00  0.00    -0.419 C  
BRANCH  28  29
HETATM   29  C   UNL     1     -11.438  13.799  64.664  1.00  0.00    -0.371 C  
HETATM   30  O   UNL     1     -12.480  14.123  63.738  1.00  0.00    -0.910 OA 
HETATM   31  H   UNL     1     -12.357  14.997  63.384  1.00  0.00     0.000 HD 
BRANCH  29  32
HETATM   32  C   UNL     1     -11.490  14.881  65.744  1.00  0.00    -0.281 C  
HETATM   33  C   UNL     1     -11.151  16.240  65.201  1.00  0.00    -0.212 C  
HETATM   34  O   UNL     1     -11.411  16.618  64.070  1.00  0.00    -1.120 OA 
HETATM   35  O   UNL     1     -10.530  17.034  66.103  1.00  0.00    -0.324 OA 
ENDBRANCH  29  32
ENDBRANCH  28  29
ENDBRANCH  25  28
ENDBRANCH  24  25
ENDBRANCH   8  23
TORSDOF 8
ENDMDL
MODEL       19
REMARK 921   NORMALIZED FREE ENERGY PREDICTED BY IDOCK:   -6.95 KCAL/MOL
REMARK 922        TOTAL FREE ENERGY PREDICTED BY IDOCK:  -11.74 KCAL/MOL
REMARK 923 INTER-LIGAND FREE ENERGY PREDICTED BY IDOCK:  -10.05 KCAL/MOL
REMARK 924 INTRA-LIGAND FREE ENERGY PREDICTED BY IDOCK:   -1.68 KCAL/MOL
REMARK 927      BINDING AFFINITY PREDICTED BY RF-SCORE:    0.00 PKD
ROOT
HETATM    1  C   UNL     1     -11.503  15.012  67.138  1.00  0.00    -0.304 C  
HETATM    2  C   UNL     1     -10.951  13.622  67.492  1.00  0.00    -0.282 C  
HETATM    3  C   UNL     1      -9.427  13.704  67.623  1.00  0.00    -0.221 C  
HETATM    4  C   UNL     1     -11.563  13.049  68.767  1.00  0.00    -0.309 A  
HETATM    5  N   UNL     1     -11.995  13.965  69.664  1.00  0.00    -0.324 NA 
HETATM    6  C   UNL     1     -12.494  13.494  70.805  1.00  0.00    -0.353 A  
HETATM    7  N   UNL     1     -12.553  12.216  71.166  1.00  0.00    -0.330 NA 
HETATM    8  C   UNL     1     -11.616  11.664  69.016  1.00  0.00    -0.379 A  
HETATM    9  C   UNL     1     -12.070  11.293  70.291  1.00  0.00    -0.373 A  
ENDROOT
BRANCH   6  10
HETATM   10  N   UNL     1     -13.200  14.416  71.597  1.00  0.00    -0.331 N  
HETATM   11  C   UNL     1     -14.398  14.994  70.974  1.00  0.00    -0.131 C  
BRANCH  10  12
HETATM   12  S   UNL     1     -12.240  15.438  72.516  1.00  0.00    -0.449 S  
HETATM   13  C   UNL     1     -13.391  16.382  73.502  1.00  0.00    -0.021 C  
HETATM   14  O   UNL     1     -11.482  14.607  73.436  1.00  0.00     0.149 OA 
HETATM   15  O   UNL     1     -11.558  16.368  71.647  1.00  0.00    -0.443 OA 
ENDBRANCH  10  12
ENDBRANCH   6  10
BRANCH   9  16
HETATM   16  C   UNL     1     -12.082   9.906  70.850  1.00  0.00    -0.431 A  
HETATM   17  F   UNL     1     -12.224   6.053  72.439  1.00  0.00    -0.353 F  
HETATM   18  C   UNL     1     -13.305   9.289  71.202  1.00  0.00    -0.236 A  
HETATM   19  C   UNL     1     -13.358   7.999  71.742  1.00  0.00    -0.370 A  
HETATM   20  C   UNL     1     -10.957   7.872  71.642  1.00  0.00    -0.280 A  
HETATM   21  C   UNL     1     -12.181   7.295  71.942  1.00  0.00    -0.313 A  
HETATM   22  C   UNL     1     -10.910   9.172  71.121  1.00  0.00    -0.381 A  
ENDBRANCH   9  16
BRANCH   8  23
HETATM   23  C   UNL     1     -11.213  10.721  67.954  1.00  0.00    -0.386 C  
HETATM   24  C   UNL     1      -9.949  10.292  67.762  1.00  0.00    -0.203 C  
BRANCH  24  25
HETATM   25  C   UNL     1      -9.520   9.182  66.824  1.00  0.00    -0.175 C  
HETATM   26  H   UNL     1      -9.809   7.241  66.657  1.00  0.00     0.000 HD 
HETATM   27  O   UNL     1     -10.079   7.936  67.244  1.00  0.00    -0.188 OA 
BRANCH  25  28
HETATM   28  C   UNL     1      -9.906   9.431  65.358  1.00  0.00    -0.159 C  
BRANCH  28  29
HETATM   29  C   UNL     1      -9.796  10.920  64.950  1.00  0.00    -0.284 C  
HETATM   30  O   UNL     1      -8.598  11.153  64.201  1.00  0.00    -0.375 OA 
HETATM   31  H   UNL     1      -8.530  12.068  63.951  1.00  0.00     0.000 HD 
BRANCH  29  32
HETATM   32  C   UNL     1     -10.946  11.368  64.048  1.00  0.00    -0.428 C  
HETATM   33  C   UNL     1     -11.171  12.852  64.110  1.00  0.00    -0.389 C  
HETATM   34  O   UNL     1     -10.289  13.678  64.282  1.00  0.00    -0.376 OA 
HETATM   35  O   UNL     1     -12.466  13.201  63.940  1.00  0.00    -0.626 OA 
ENDBRANCH  29  32
ENDBRANCH  28  29
ENDBRANCH  25  28
ENDBRANCH  24  25
ENDBRANCH   8  23
TORSDOF 8
ENDMDL
MODEL       20
REMARK 921   NORMALIZED FREE ENERGY PREDICTED BY IDOCK:   -6.87 KCAL/MOL
REMARK 922        TOTAL FREE ENERGY PREDICTED BY IDOCK:  -11.62 KCAL/MOL
REMARK 923 INTER-LIGAND FREE ENERGY PREDICTED BY IDOCK:  -10.50 KCAL/MOL
REMARK 924 INTRA-LIGAND FREE ENERGY PREDICTED BY IDOCK:   -1.12 KCAL/MOL
REMARK 927      BINDING AFFINITY PREDICTED BY RF-SCORE:    0.00 PKD
ROOT
HETATM    1  C   UNL     1      -9.963  11.272  65.254  1.00  0.00    -0.301 C  
HETATM    2  C   UNL     1     -10.888  12.331  65.875  1.00  0.00    -0.306 C  
HETATM    3  C   UNL     1     -12.235  12.311  65.147  1.00  0.00    -0.345 C  
HETATM    4  C   UNL     1     -11.092  12.132  67.374  1.00  0.00    -0.276 A  
HETATM    5  N   UNL     1     -10.964  10.858  67.812  1.00  0.00    -0.261 NA 
HETATM    6  C   UNL     1     -11.180  10.648  69.109  1.00  0.00    -0.265 A  
HETATM    7  N   UNL     1     -11.564  11.560  69.997  1.00  0.00    -0.302 NA 
HETATM    8  C   UNL     1     -11.450  13.193  68.229  1.00  0.00    -0.349 A  
HETATM    9  C   UNL     1     -11.747  12.833  69.553  1.00  0.00    -0.318 A  
ENDROOT
BRANCH   6  10
HETATM   10  N   UNL     1     -10.766   9.401  69.609  1.00  0.00    -0.230 N  
HETATM   11  C   UNL     1     -10.371   8.415  68.594  1.00  0.00    -0.197 C  
BRANCH  10  12
HETATM   12  S   UNL     1     -11.640   8.843  70.927  1.00  0.00    -0.268 S  
HETATM   13  C   UNL     1     -11.760   7.079  70.682  1.00  0.00    -0.338 C  
HETATM   14  O   UNL     1     -10.820   9.049  72.107  1.00  0.00    -0.337 OA 
HETATM   15  O   UNL     1     -12.982   9.376  70.873  1.00  0.00    -0.207 OA 
ENDBRANCH  10  12
ENDBRANCH   6  10
BRANCH   9  16
HETATM   16  C   UNL     1     -12.288  13.741  70.610  1.00  0.00    -0.445 A  
HETATM   17  F   UNL     1     -13.902  16.225  73.545  1.00  0.00    -0.623 F  
HETATM   18  C   UNL     1     -13.568  13.507  71.163  1.00  0.00     0.036 A  
HETATM   19  C   UNL     1     -14.118  14.341  72.144  1.00  0.00    -0.634 A  
HETATM   20  C   UNL     1     -12.148  15.720  72.055  1.00  0.00    -0.562 A  
HETATM   21  C   UNL     1     -13.392  15.433  72.593  1.00  0.00    -0.504 A  
HETATM   22  C   UNL     1     -11.612  14.892  71.060  1.00  0.00    -0.344 A  
ENDBRANCH   9  16
BRANCH   8  23
HETATM   23  C   UNL     1     -11.479  14.570  67.701  1.00  0.00    -0.374 C  
HETATM   24  C   UNL     1     -10.399  15.373  67.618  1.00  0.00    -0.262 C  
BRANCH  24  25
HETATM   25  C   UNL     1     -10.337  16.710  66.906  1.00  0.00    -0.299 C  
HETATM   26  H   UNL     1     -10.341  18.614  67.409  1.00  0.00     0.000 HD 
HETATM   27  O   UNL     1     -10.380  17.776  67.855  1.00  0.00    -0.350 OA 
BRANCH  25  28
HETATM   28  C   UNL     1      -9.093  16.879  66.021  1.00  0.00    -0.199 C  
BRANCH  28  29
HETATM   29  C   UNL     1      -8.063  17.871  66.614  1.00  0.00    -0.253 C  
HETATM   30  O   UNL     1      -7.630  17.439  67.909  1.00  0.00    -0.186 OA 
HETATM   31  H   UNL     1      -6.998  18.048  68.273  1.00  0.00     0.000 HD 
BRANCH  29  32
HETATM   32  C   UNL     1      -6.796  17.976  65.765  1.00  0.00    -0.281 C  
HETATM   33  C   UNL     1      -6.627  19.344  65.166  1.00  0.00    -0.234 C  
HETATM   34  O   UNL     1      -6.987  20.381  65.699  1.00  0.00    -0.272 OA 
HETATM   35  O   UNL     1      -6.011  19.325  63.962  1.00  0.00    -0.411 OA 
ENDBRANCH  29  32
ENDBRANCH  28  29
ENDBRANCH  25  28
ENDBRANCH  24  25
ENDBRANCH   8  23
TORSDOF 8
ENDMDL
MODEL       21
REMARK 921   NORMALIZED FREE ENERGY PREDICTED BY IDOCK:   -6.85 KCAL/MOL
REMARK 922        TOTAL FREE ENERGY PREDICTED BY IDOCK:  -11.60 KCAL/MOL
REMARK 923 INTER-LIGAND FREE ENERGY PREDICTED BY IDOCK:  -11.09 KCAL/MOL
REMARK 924 INTRA-LIGAND FREE ENERGY PREDICTED BY IDOCK:   -0.51 KCAL/MOL
REMARK 927      BINDING AFFINITY PREDICTED BY RF-SCORE:    0.00 PKD
ROOT
HETATM    1  C   UNL     1      -8.595   6.726  68.321  1.00  0.00    -0.124 C  
HETATM    2  C   UNL     1      -9.560   7.890  68.044  1.00  0.00    -0.168 C  
HETATM    3  C   UNL     1     -10.696   7.397  67.143  1.00  0.00    -0.400 C  
HETATM    4  C   UNL     1     -10.125   8.507  69.320  1.00  0.00    -0.202 A  
HETATM    5  N   UNL     1     -10.198   7.673  70.384  1.00  0.00    -0.201 NA 
HETATM    6  C   UNL     1     -10.727   8.171  71.499  1.00  0.00    -0.233 A  
HETATM    7  N   UNL     1     -11.242   9.388  71.645  1.00  0.00    -0.382 NA 
HETATM    8  C   UNL     1     -10.595   9.833  69.367  1.00  0.00    -0.248 A  
HETATM    9  C   UNL     1     -11.221  10.214  70.564  1.00  0.00    -0.336 A  
ENDROOT
BRANCH   6  10
HETATM   10  N   UNL     1     -10.535   7.412  72.666  1.00  0.00    -0.232 N  
HETATM   11  C   UNL     1      -9.317   7.722  73.426  1.00  0.00    -0.285 C  
BRANCH  10  12
HETATM   12  S   UNL     1     -10.976   5.799  72.539  1.00  0.00    -0.278 S  
HETATM   13  C   UNL     1     -10.776   5.140  74.186  1.00  0.00    -0.217 C  
HETATM   14  O   UNL     1     -12.398   5.762  72.242  1.00  0.00    -0.136 OA 
HETATM   15  O   UNL     1     -10.038   5.110  71.685  1.00  0.00    -0.186 OA 
ENDBRANCH  10  12
ENDBRANCH   6  10
BRANCH   9  16
HETATM   16  C   UNL     1     -11.928  11.508  70.813  1.00  0.00    -0.317 A  
HETATM   17  F   UNL     1     -13.968  15.062  71.583  1.00  0.00    -0.403 F  
HETATM   18  C   UNL     1     -12.813  11.638  71.908  1.00  0.00    -0.354 A  
HETATM   19  C   UNL     1     -13.506  12.826  72.168  1.00  0.00    -0.591 A  
HETATM   20  C   UNL     1     -12.494  13.824  70.226  1.00  0.00    -0.357 A  
HETATM   21  C   UNL     1     -13.325  13.916  71.331  1.00  0.00    -0.293 A  
HETATM   22  C   UNL     1     -11.819  12.624  69.961  1.00  0.00    -0.358 A  
ENDBRANCH   9  16
BRANCH   8  23
HETATM   23  C   UNL     1     -10.399  10.713  68.199  1.00  0.00    -0.203 C  
HETATM   24  C   UNL     1     -11.228  10.758  67.137  1.00  0.00    -0.222 C  
BRANCH  24  25
HETATM   25  C   UNL     1     -11.182  11.776  66.015  1.00  0.00    -0.296 C  
HETATM   26  H   UNL     1     -12.477  12.794  64.935  1.00  0.00     0.000 HD 
HETATM   27  O   UNL     1     -12.506  12.156  65.639  1.00  0.00    -0.501 OA 
BRANCH  25  28
HETATM   28  C   UNL     1     -10.380  13.039  66.362  1.00  0.00    -0.287 C  
BRANCH  28  29
HETATM   29  C   UNL     1      -9.981  13.862  65.113  1.00  0.00    -0.218 C  
HETATM   30  O   UNL     1     -10.586  13.319  63.934  1.00  0.00    -0.523 OA 
HETATM   31  H   UNL     1     -10.340  13.824  63.167  1.00  0.00     0.000 HD 
BRANCH  29  32
HETATM   32  C   UNL     1     -10.452  15.314  65.192  1.00  0.00    -0.438 C  
HETATM   33  C   UNL     1     -11.675  15.560  64.355  1.00  0.00    -0.242 C  
HETATM   34  O   UNL     1     -12.553  14.736  64.154  1.00  0.00    -0.784 OA 
HETATM   35  O   UNL     1     -11.727  16.811  63.843  1.00  0.00    -1.076 OA 
ENDBRANCH  29  32
ENDBRANCH  28  29
ENDBRANCH  25  28
ENDBRANCH  24  25
ENDBRANCH   8  23
TORSDOF 8
ENDMDL
MODEL       22
REMARK 921   NORMALIZED FREE ENERGY PREDICTED BY IDOCK:   -6.84 KCAL/MOL
REMARK 922        TOTAL FREE ENERGY PREDICTED BY IDOCK:  -11.59 KCAL/MOL
REMARK 923 INTER-LIGAND FREE ENERGY PREDICTED BY IDOCK:  -10.70 KCAL/MOL
REMARK 924 INTRA-LIGAND FREE ENERGY PREDICTED BY IDOCK:   -0.89 KCAL/MOL
REMARK 927      BINDING AFFINITY PREDICTED BY RF-SCORE:    0.00 PKD
ROOT
HETATM    1  C   UNL     1      -8.515   8.749  67.271  1.00  0.00    -0.111 C  
HETATM    2  C   UNL     1      -9.433   9.982  67.276  1.00  0.00    -0.179 C  
HETATM    3  C   UNL     1     -10.386   9.903  66.079  1.00  0.00    -0.202 C  
HETATM    4  C   UNL     1     -10.221  10.128  68.574  1.00  0.00    -0.174 A  
HETATM    5  N   UNL     1     -10.468   8.973  69.235  1.00  0.00    -0.226 NA 
HETATM    6  C   UNL     1     -11.192   9.065  70.348  1.00  0.00    -0.241 A  
HETATM    7  N   UNL     1     -11.741  10.173  70.836  1.00  0.00    -0.350 NA 
HETATM    8  C   UNL     1     -10.711  11.372  69.018  1.00  0.00    -0.245 A  
HETATM    9  C   UNL     1     -11.542  11.329  70.148  1.00  0.00    -0.305 A  
ENDROOT
BRANCH   6  10
HETATM   10  N   UNL     1     -11.197   7.928  71.176  1.00  0.00    -0.256 N  
HETATM   11  C   UNL     1     -12.449   7.686  71.905  1.00  0.00    -0.308 C  
BRANCH  10  12
HETATM   12  S   UNL     1      -9.761   7.643  71.993  1.00  0.00    -0.173 S  
HETATM   13  C   UNL     1     -10.261   7.066  73.607  1.00  0.00    -0.358 C  
HETATM   14  O   UNL     1      -9.103   6.529  71.334  1.00  0.00    -0.148 OA 
HETATM   15  O   UNL     1      -9.060   8.892  72.183  1.00  0.00    -0.375 OA 
ENDBRANCH  10  12
ENDBRANCH   6  10
BRANCH   9  16
HETATM   16  C   UNL     1     -12.299  12.482  70.725  1.00  0.00    -0.376 A  
HETATM   17  F   UNL     1     -14.343  15.769  72.276  1.00  0.00    -0.586 F  
HETATM   18  C   UNL     1     -12.109  13.787  70.214  1.00  0.00    -0.425 A  
HETATM   19  C   UNL     1     -12.788  14.895  70.736  1.00  0.00    -0.428 A  
HETATM   20  C   UNL     1     -13.868  13.462  72.338  1.00  0.00    -0.665 A  
HETATM   21  C   UNL     1     -13.676  14.718  71.784  1.00  0.00    -0.421 A  
HETATM   22  C   UNL     1     -13.171  12.361  71.825  1.00  0.00    -0.435 A  
ENDBRANCH   9  16
BRANCH   8  23
HETATM   23  C   UNL     1     -10.324  12.600  68.298  1.00  0.00    -0.246 C  
HETATM   24  C   UNL     1     -10.892  13.014  67.147  1.00  0.00    -0.278 C  
BRANCH  24  25
HETATM   25  C   UNL     1     -10.673  14.357  66.480  1.00  0.00    -0.306 C  
HETATM   26  H   UNL     1     -11.325  15.295  64.875  1.00  0.00     0.000 HD 
HETATM   27  O   UNL     1     -11.462  14.453  65.293  1.00  0.00    -0.328 OA 
BRANCH  25  28
HETATM   28  C   UNL     1     -10.990  15.555  67.388  1.00  0.00    -0.306 C  
BRANCH  28  29
HETATM   29  C   UNL     1     -10.091  16.782  67.102  1.00  0.00    -0.282 C  
HETATM   30  O   UNL     1      -9.993  17.023  65.695  1.00  0.00    -0.554 OA 
HETATM   31  H   UNL     1      -9.440  17.776  65.519  1.00  0.00     0.000 HD 
BRANCH  29  32
HETATM   32  C   UNL     1     -10.648  18.071  67.708  1.00  0.00    -0.409 C  
HETATM   33  C   UNL     1      -9.561  19.039  68.080  1.00  0.00    -0.328 C  
HETATM   34  O   UNL     1      -8.504  19.157  67.479  1.00  0.00    -0.281 OA 
HETATM   35  O   UNL     1      -9.869  19.796  69.157  1.00  0.00    -0.396 OA 
ENDBRANCH  29  32
ENDBRANCH  28  29
ENDBRANCH  25  28
ENDBRANCH  24  25
ENDBRANCH   8  23
TORSDOF 8
ENDMDL
MODEL       23
REMARK 921   NORMALIZED FREE ENERGY PREDICTED BY IDOCK:   -6.80 KCAL/MOL
REMARK 922        TOTAL FREE ENERGY PREDICTED BY IDOCK:  -11.53 KCAL/MOL
REMARK 923 INTER-LIGAND FREE ENERGY PREDICTED BY IDOCK:   -9.27 KCAL/MOL
REMARK 924 INTRA-LIGAND FREE ENERGY PREDICTED BY IDOCK:   -2.26 KCAL/MOL
REMARK 927      BINDING AFFINITY PREDICTED BY RF-SCORE:    0.00 PKD
ROOT
HETATM    1  C   UNL     1     -10.483  11.470  63.570  1.00  0.00    -0.486 C  
HETATM    2  C   UNL     1     -10.144  10.385  64.605  1.00  0.00    -0.378 C  
HETATM    3  C   UNL     1      -8.796   9.753  64.246  1.00  0.00    -0.258 C  
HETATM    4  C   UNL     1     -10.116  10.918  66.034  1.00  0.00    -0.249 A  
HETATM    5  N   UNL     1      -9.813  12.232  66.157  1.00  0.00    -0.240 NA 
HETATM    6  C   UNL     1      -9.739  12.714  67.395  1.00  0.00    -0.199 A  
HETATM    7  N   UNL     1      -9.877  12.015  68.518  1.00  0.00    -0.200 NA 
HETATM    8  C   UNL     1     -10.331  10.085  67.149  1.00  0.00    -0.300 A  
HETATM    9  C   UNL     1     -10.129  10.684  68.402  1.00  0.00    -0.166 A  
ENDROOT
BRANCH   6  10
HETATM   10  N   UNL     1      -9.715  14.115  67.511  1.00  0.00    -0.230 N  
HETATM   11  C   UNL     1      -9.051  14.637  68.713  1.00  0.00    -0.178 C  
BRANCH  10  12
HETATM   12  S   UNL     1     -11.114  14.889  67.005  1.00  0.00    -0.341 S  
HETATM   13  C   UNL     1     -11.243  16.329  68.051  1.00  0.00    -0.260 C  
HETATM   14  O   UNL     1     -10.877  15.370  65.655  1.00  0.00    -0.331 OA 
HETATM   15  O   UNL     1     -12.256  14.050  67.287  1.00  0.00    -0.405 OA 
ENDBRANCH  10  12
ENDBRANCH   6  10
BRANCH   9  16
HETATM   16  C   UNL     1     -10.150   9.984  69.723  1.00  0.00    -0.284 A  
HETATM   17  F   UNL     1     -10.312   8.074  73.427  1.00  0.00    -0.387 F  
HETATM   18  C   UNL     1     -11.355   9.879  70.457  1.00  0.00    -0.399 A  
HETATM   19  C   UNL     1     -11.413   9.245  71.703  1.00  0.00    -0.468 A  
HETATM   20  C   UNL     1      -9.051   8.808  71.578  1.00  0.00    -0.322 A  
HETATM   21  C   UNL     1     -10.261   8.699  72.245  1.00  0.00    -0.301 A  
HETATM   22  C   UNL     1      -8.995   9.462  70.339  1.00  0.00    -0.294 A  
ENDBRANCH   9  16
BRANCH   8  23
HETATM   23  C   UNL     1     -10.749   8.686  66.938  1.00  0.00    -0.152 C  
HETATM   24  C   UNL     1      -9.932   7.622  67.076  1.00  0.00    -0.310 C  
BRANCH  24  25
HETATM   25  C   UNL     1     -10.357   6.168  67.066  1.00  0.00    -0.237 C  
HETATM   26  H   UNL     1     -10.032   4.577  65.950  1.00  0.00     0.000 HD 
HETATM   27  O   UNL     1      -9.766   5.488  65.957  1.00  0.00    -0.149 OA 
BRANCH  25  28
HETATM   28  C   UNL     1     -10.004   5.414  68.357  1.00  0.00    -0.217 C  
BRANCH  28  29
HETATM   29  C   UNL     1     -10.446   6.168  69.635  1.00  0.00    -0.252 C  
HETATM   30  O   UNL     1     -11.827   6.535  69.556  1.00  0.00    -0.649 OA 
HETATM   31  H   UNL     1     -12.098   6.998  70.340  1.00  0.00     0.000 HD 
BRANCH  29  32
HETATM   32  C   UNL     1     -10.313   5.313  70.895  1.00  0.00    -0.303 C  
HETATM   33  C   UNL     1      -8.882   4.967  71.197  1.00  0.00    -0.127 C  
HETATM   34  O   UNL     1      -7.929   5.689  70.952  1.00  0.00    -0.105 OA 
HETATM   35  O   UNL     1      -8.741   3.760  71.792  1.00  0.00    -0.091 OA 
ENDBRANCH  29  32
ENDBRANCH  28  29
ENDBRANCH  25  28
ENDBRANCH  24  25
ENDBRANCH   8  23
TORSDOF 8
ENDMDL
MODEL       24
REMARK 921   NORMALIZED FREE ENERGY PREDICTED BY IDOCK:   -6.80 KCAL/MOL
REMARK 922        TOTAL FREE ENERGY PREDICTED BY IDOCK:  -11.52 KCAL/MOL
REMARK 923 INTER-LIGAND FREE ENERGY PREDICTED BY IDOCK:  -10.65 KCAL/MOL
REMARK 924 INTRA-LIGAND FREE ENERGY PREDICTED BY IDOCK:   -0.87 KCAL/MOL
REMARK 927      BINDING AFFINITY PREDICTED BY RF-SCORE:    0.00 PKD
ROOT
HETATM    1  C   UNL     1      -8.812  10.630  63.892  1.00  0.00    -0.171 C  
HETATM    2  C   UNL     1      -9.824  11.477  64.680  1.00  0.00    -0.283 C  
HETATM    3  C   UNL     1     -11.082  11.677  63.830  1.00  0.00    -0.499 C  
HETATM    4  C   UNL     1     -10.188  10.863  66.028  1.00  0.00    -0.254 A  
HETATM    5  N   UNL     1     -10.079   9.515  66.099  1.00  0.00    -0.281 NA 
HETATM    6  C   UNL     1     -10.432   8.947  67.250  1.00  0.00    -0.277 A  
HETATM    7  N   UNL     1     -10.932   9.573  68.311  1.00  0.00    -0.139 NA 
HETATM    8  C   UNL     1     -10.662  11.640  67.103  1.00  0.00    -0.288 A  
HETATM    9  C   UNL     1     -11.094  10.921  68.228  1.00  0.00    -0.266 A  
ENDROOT
BRANCH   6  10
HETATM   10  N   UNL     1     -10.047   7.606  67.419  1.00  0.00    -0.198 N  
HETATM   11  C   UNL     1     -11.143   6.629  67.397  1.00  0.00    -0.320 C  
BRANCH  10  12
HETATM   12  S   UNL     1      -8.816   7.359  68.531  1.00  0.00    -0.124 S  
HETATM   13  C   UNL     1      -7.998   5.870  67.982  1.00  0.00    -0.105 C  
HETATM   14  O   UNL     1      -7.865   8.445  68.369  1.00  0.00    -0.109 OA 
HETATM   15  O   UNL     1      -9.388   7.081  69.827  1.00  0.00    -0.147 OA 
ENDBRANCH  10  12
ENDBRANCH   6  10
BRANCH   9  16
HETATM   16  C   UNL     1     -11.770  11.496  69.431  1.00  0.00    -0.413 A  
HETATM   17  F   UNL     1     -13.611  13.204  72.761  1.00  0.00    -0.607 F  
HETATM   18  C   UNL     1     -11.854  12.898  69.600  1.00  0.00    -0.387 A  
HETATM   19  C   UNL     1     -12.465  13.476  70.719  1.00  0.00    -0.428 A  
HETATM   20  C   UNL     1     -12.919  11.280  71.590  1.00  0.00    -0.537 A  
HETATM   21  C   UNL     1     -13.008  12.659  71.697  1.00  0.00    -0.299 A  
HETATM   22  C   UNL     1     -12.289  10.707  70.478  1.00  0.00    -0.448 A  
ENDBRANCH   9  16
BRANCH   8  23
HETATM   23  C   UNL     1     -10.665  13.111  66.987  1.00  0.00    -0.270 C  
HETATM   24  C   UNL     1      -9.615  13.897  67.299  1.00  0.00    -0.243 C  
BRANCH  24  25
HETATM   25  C   UNL     1      -9.499  15.381  67.011  1.00  0.00    -0.220 C  
HETATM   26  H   UNL     1      -8.341  16.556  65.935  1.00  0.00     0.000 HD 
HETATM   27  O   UNL     1      -8.414  15.626  66.115  1.00  0.00    -0.256 OA 
BRANCH  25  28
HETATM   28  C   UNL     1     -10.778  15.997  66.425  1.00  0.00    -0.232 C  
BRANCH  28  29
HETATM   29  C   UNL     1     -10.492  17.066  65.343  1.00  0.00    -0.112 C  
HETATM   30  O   UNL     1     -11.348  16.883  64.211  1.00  0.00    -1.296 OA 
HETATM   31  H   UNL     1     -11.172  17.539  63.546  1.00  0.00     0.000 HD 
BRANCH  29  32
HETATM   32  C   UNL     1     -10.755  18.488  65.840  1.00  0.00    -0.237 C  
HETATM   33  C   UNL     1      -9.508  19.148  66.356  1.00  0.00    -0.354 C  
HETATM   34  O   UNL     1      -8.387  18.946  65.918  1.00  0.00    -0.483 OA 
HETATM   35  O   UNL     1      -9.745  20.018  67.364  1.00  0.00    -0.365 OA 
ENDBRANCH  29  32
ENDBRANCH  28  29
ENDBRANCH  25  28
ENDBRANCH  24  25
ENDBRANCH   8  23
TORSDOF 8
ENDMDL
MODEL       25
REMARK 921   NORMALIZED FREE ENERGY PREDICTED BY IDOCK:   -6.80 KCAL/MOL
REMARK 922        TOTAL FREE ENERGY PREDICTED BY IDOCK:  -11.52 KCAL/MOL
REMARK 923 INTER-LIGAND FREE ENERGY PREDICTED BY IDOCK:   -9.66 KCAL/MOL
REMARK 924 INTRA-LIGAND FREE ENERGY PREDICTED BY IDOCK:   -1.86 KCAL/MOL
REMARK 927      BINDING AFFINITY PREDICTED BY RF-SCORE:    0.00 PKD
ROOT
HETATM    1  C   UNL     1     -14.024   9.245  72.185  1.00  0.00    -0.422 C  
HETATM    2  C   UNL     1     -13.233  10.229  71.310  1.00  0.00    -0.447 C  
HETATM    3  C   UNL     1     -13.186  11.594  72.003  1.00  0.00    -0.443 C  
HETATM    4  C   UNL     1     -11.821   9.743  71.000  1.00  0.00    -0.356 A  
HETATM    5  N   UNL     1     -11.278   8.914  71.922  1.00  0.00    -0.361 NA 
HETATM    6  C   UNL     1     -10.030   8.508  71.700  1.00  0.00    -0.259 A  
HETATM    7  N   UNL     1      -9.251   8.887  70.691  1.00  0.00    -0.194 NA 
HETATM    8  C   UNL     1     -11.110  10.177  69.864  1.00  0.00    -0.346 A  
HETATM    9  C   UNL     1      -9.772   9.762  69.789  1.00  0.00    -0.229 A  
ENDROOT
BRANCH   6  10
HETATM   10  N   UNL     1      -9.580   7.435  72.489  1.00  0.00    -0.151 N  
HETATM   11  C   UNL     1      -8.162   7.483  72.868  1.00  0.00    -0.118 C  
BRANCH  10  12
HETATM   12  S   UNL     1     -10.219   5.940  72.077  1.00  0.00    -0.203 S  
HETATM   13  C   UNL     1      -8.818   4.833  72.067  1.00  0.00    -0.124 C  
HETATM   14  O   UNL     1     -11.078   5.521  73.171  1.00  0.00    -0.272 OA 
HETATM   15  O   UNL     1     -10.734   5.993  70.728  1.00  0.00    -0.245 OA 
ENDBRANCH  10  12
ENDBRANCH   6  10
BRANCH   9  16
HETATM   16  C   UNL     1      -8.771  10.203  68.769  1.00  0.00    -0.138 A  
HETATM   17  F   UNL     1      -5.977  11.326  65.884  1.00  0.00    -0.140 F  
HETATM   18  C   UNL     1      -8.437   9.357  67.686  1.00  0.00    -0.119 A  
HETATM   19  C   UNL     1      -7.495   9.726  66.718  1.00  0.00    -0.095 A  
HETATM   20  C   UNL     1      -7.137  11.803  67.878  1.00  0.00    -0.087 A  
HETATM   21  C   UNL     1      -6.865  10.957  66.816  1.00  0.00    -0.121 A  
HETATM   22  C   UNL     1      -8.066  11.420  68.855  1.00  0.00    -0.067 A  
ENDBRANCH   9  16
BRANCH   8  23
HETATM   23  C   UNL     1     -11.797  11.005  68.853  1.00  0.00    -0.378 C  
HETATM   24  C   UNL     1     -11.748  12.352  68.818  1.00  0.00    -0.379 C  
BRANCH  24  25
HETATM   25  C   UNL     1     -12.264  13.231  67.697  1.00  0.00    -0.135 C  
HETATM   26  H   UNL     1     -12.227  15.145  67.230  1.00  0.00     0.000 HD 
HETATM   27  O   UNL     1     -11.903  14.593  67.932  1.00  0.00    -0.348 OA 
BRANCH  25  28
HETATM   28  C   UNL     1     -11.762  12.816  66.306  1.00  0.00    -0.460 C  
BRANCH  28  29
HETATM   29  C   UNL     1     -10.570  13.673  65.815  1.00  0.00    -0.285 C  
HETATM   30  O   UNL     1      -9.435  12.849  65.530  1.00  0.00    -0.465 OA 
HETATM   31  H   UNL     1      -8.704  13.375  65.229  1.00  0.00     0.000 HD 
BRANCH  29  32
HETATM   32  C   UNL     1     -10.881  14.418  64.517  1.00  0.00    -0.271 C  
HETATM   33  C   UNL     1     -10.897  15.908  64.708  1.00  0.00    -0.324 C  
HETATM   34  O   UNL     1     -10.193  16.512  65.502  1.00  0.00    -0.525 OA 
HETATM   35  O   UNL     1     -11.773  16.540  63.893  1.00  0.00    -1.148 OA 
ENDBRANCH  29  32
ENDBRANCH  28  29
ENDBRANCH  25  28
ENDBRANCH  24  25
ENDBRANCH   8  23
TORSDOF 8
ENDMDL
MODEL       26
REMARK 921   NORMALIZED FREE ENERGY PREDICTED BY IDOCK:   -6.76 KCAL/MOL
REMARK 922        TOTAL FREE ENERGY PREDICTED BY IDOCK:  -11.46 KCAL/MOL
REMARK 923 INTER-LIGAND FREE ENERGY PREDICTED BY IDOCK:   -9.21 KCAL/MOL
REMARK 924 INTRA-LIGAND FREE ENERGY PREDICTED BY IDOCK:   -2.25 KCAL/MOL
REMARK 927      BINDING AFFINITY PREDICTED BY RF-SCORE:    0.00 PKD
ROOT
HETATM    1  C   UNL     1     -13.781   9.348  72.094  1.00  0.00    -0.490 C  
HETATM    2  C   UNL     1     -13.018  10.322  71.183  1.00  0.00    -0.503 C  
HETATM    3  C   UNL     1     -13.038  11.718  71.811  1.00  0.00    -0.480 C  
HETATM    4  C   UNL     1     -11.582   9.881  70.915  1.00  0.00    -0.373 A  
HETATM    5  N   UNL     1     -11.021   9.120  71.883  1.00  0.00    -0.359 NA 
HETATM    6  C   UNL     1      -9.753   8.756  71.697  1.00  0.00    -0.296 A  
HETATM    7  N   UNL     1      -8.976   9.119  70.681  1.00  0.00    -0.226 NA 
HETATM    8  C   UNL     1     -10.873  10.290  69.769  1.00  0.00    -0.332 A  
HETATM    9  C   UNL     1      -9.518   9.928  69.732  1.00  0.00    -0.226 A  
ENDROOT
BRANCH   6  10
HETATM   10  N   UNL     1      -9.272   7.741  72.542  1.00  0.00    -0.156 N  
HETATM   11  C   UNL     1      -7.838   7.806  72.851  1.00  0.00    -0.117 C  
BRANCH  10  12
HETATM   12  S   UNL     1      -9.936   6.225  72.273  1.00  0.00    -0.165 S  
HETATM   13  C   UNL     1      -8.636   5.076  72.694  1.00  0.00    -0.119 C  
HETATM   14  O   UNL     1     -10.994   6.038  73.250  1.00  0.00    -0.257 OA 
HETATM   15  O   UNL     1     -10.211   6.064  70.864  1.00  0.00    -0.193 OA 
ENDBRANCH  10  12
ENDBRANCH   6  10
BRANCH   9  16
HETATM   16  C   UNL     1      -8.521  10.362  68.706  1.00  0.00    -0.132 A  
HETATM   17  F   UNL     1      -5.741  11.466  65.800  1.00  0.00    -0.134 F  
HETATM   18  C   UNL     1      -8.228   9.531  67.599  1.00  0.00    -0.121 A  
HETATM   19  C   UNL     1      -7.291   9.894  66.625  1.00  0.00    -0.099 A  
HETATM   20  C   UNL     1      -6.854  11.934  67.823  1.00  0.00    -0.094 A  
HETATM   21  C   UNL     1      -6.624  11.103  66.738  1.00  0.00    -0.133 A  
HETATM   22  C   UNL     1      -7.779  11.556  68.806  1.00  0.00    -0.124 A  
ENDBRANCH   9  16
BRANCH   8  23
HETATM   23  C   UNL     1     -11.578  11.041  68.712  1.00  0.00    -0.386 C  
HETATM   24  C   UNL     1     -11.439  12.365  68.502  1.00  0.00    -0.350 C  
BRANCH  24  25
HETATM   25  C   UNL     1     -11.979  13.140  67.317  1.00  0.00    -0.335 C  
HETATM   26  H   UNL     1     -11.674  14.897  66.481  1.00  0.00     0.000 HD 
HETATM   27  O   UNL     1     -11.335  14.411  67.223  1.00  0.00    -0.313 OA 
BRANCH  25  28
HETATM   28  C   UNL     1     -11.824  12.403  65.978  1.00  0.00    -0.459 C  
BRANCH  28  29
HETATM   29  C   UNL     1     -10.772  13.056  65.049  1.00  0.00    -0.315 C  
HETATM   30  O   UNL     1      -9.449  12.846  65.555  1.00  0.00    -0.465 OA 
HETATM   31  H   UNL     1      -8.803  13.247  64.985  1.00  0.00     0.000 HD 
BRANCH  29  32
HETATM   32  C   UNL     1     -10.780  12.458  63.642  1.00  0.00    -0.497 C  
HETATM   33  C   UNL     1     -10.026  11.160  63.574  1.00  0.00    -0.379 C  
HETATM   34  O   UNL     1      -9.956  10.351  64.486  1.00  0.00    -0.332 OA 
HETATM   35  O   UNL     1      -9.428  10.955  62.378  1.00  0.00    -0.247 OA 
ENDBRANCH  29  32
ENDBRANCH  28  29
ENDBRANCH  25  28
ENDBRANCH  24  25
ENDBRANCH   8  23
TORSDOF 8
ENDMDL
MODEL       27
REMARK 921   NORMALIZED FREE ENERGY PREDICTED BY IDOCK:   -6.73 KCAL/MOL
REMARK 922        TOTAL FREE ENERGY PREDICTED BY IDOCK:  -11.42 KCAL/MOL
REMARK 923 INTER-LIGAND FREE ENERGY PREDICTED BY IDOCK:   -9.77 KCAL/MOL
REMARK 924 INTRA-LIGAND FREE ENERGY PREDICTED BY IDOCK:   -1.66 KCAL/MOL
REMARK 927      BINDING AFFINITY PREDICTED BY RF-SCORE:    0.00 PKD
ROOT
HETATM    1  C   UNL     1     -13.446  14.216  72.673  1.00  0.00    -0.634 C  
HETATM    2  C   UNL     1     -12.574  14.562  71.456  1.00  0.00    -0.419 C  
HETATM    3  C   UNL     1     -11.261  15.185  71.940  1.00  0.00    -0.275 C  
HETATM    4  C   UNL     1     -12.293  13.355  70.567  1.00  0.00    -0.329 A  
HETATM    5  N   UNL     1     -12.310  12.156  71.195  1.00  0.00    -0.252 NA 
HETATM    6  C   UNL     1     -12.025  11.088  70.452  1.00  0.00    -0.368 A  
HETATM    7  N   UNL     1     -11.669  11.098  69.171  1.00  0.00    -0.311 NA 
HETATM    8  C   UNL     1     -11.976  13.487  69.201  1.00  0.00    -0.378 A  
HETATM    9  C   UNL     1     -11.598  12.304  68.547  1.00  0.00    -0.310 A  
ENDROOT
BRANCH   6  10
HETATM   10  N   UNL     1     -12.326   9.840  71.025  1.00  0.00    -0.322 N  
HETATM   11  C   UNL     1     -13.459   9.834  71.960  1.00  0.00    -0.407 C  
BRANCH  10  12
HETATM   12  S   UNL     1     -10.992   8.906  71.423  1.00  0.00    -0.339 S  
HETATM   13  C   UNL     1     -10.800   7.778  70.053  1.00  0.00    -0.241 C  
HETATM   14  O   UNL     1      -9.833   9.781  71.413  1.00  0.00     0.003 OA 
HETATM   15  O   UNL     1     -11.293   8.112  72.593  1.00  0.00    -0.380 OA 
ENDBRANCH  10  12
ENDBRANCH   6  10
BRANCH   9  16
HETATM   16  C   UNL     1     -11.078  12.201  67.149  1.00  0.00    -0.345 A  
HETATM   17  F   UNL     1      -9.522  11.921  63.291  1.00  0.00    -0.322 F  
HETATM   18  C   UNL     1      -9.698  11.999  66.914  1.00  0.00    -0.213 A  
HETATM   19  C   UNL     1      -9.169  11.911  65.621  1.00  0.00    -0.060 A  
HETATM   20  C   UNL     1     -11.370  12.255  64.712  1.00  0.00    -0.371 A  
HETATM   21  C   UNL     1     -10.016  12.023  64.530  1.00  0.00    -0.213 A  
HETATM   22  C   UNL     1     -11.890  12.362  66.009  1.00  0.00    -0.459 A  
ENDBRANCH   9  16
BRANCH   8  23
HETATM   23  C   UNL     1     -12.068  14.814  68.562  1.00  0.00    -0.210 C  
HETATM   24  C   UNL     1     -11.007  15.603  68.299  1.00  0.00    -0.315 C  
BRANCH  24  25
HETATM   25  C   UNL     1     -11.026  16.873  67.473  1.00  0.00    -0.120 C  
HETATM   26  H   UNL     1     -10.892  18.811  67.800  1.00  0.00     0.000 HD 
HETATM   27  O   UNL     1     -10.880  18.015  68.318  1.00  0.00    -0.265 OA 
BRANCH  25  28
HETATM   28  C   UNL     1      -9.942  16.917  66.385  1.00  0.00    -0.321 C  
BRANCH  28  29
HETATM   29  C   UNL     1      -8.507  16.950  66.966  1.00  0.00    -0.203 C  
HETATM   30  O   UNL     1      -7.923  15.643  66.950  1.00  0.00    -0.220 OA 
HETATM   31  H   UNL     1      -7.043  15.663  67.307  1.00  0.00     0.000 HD 
BRANCH  29  32
HETATM   32  C   UNL     1      -7.565  17.836  66.151  1.00  0.00    -0.302 C  
HETATM   33  C   UNL     1      -7.903  19.294  66.283  1.00  0.00    -0.299 C  
HETATM   34  O   UNL     1      -8.365  19.809  67.289  1.00  0.00    -0.289 OA 
HETATM   35  O   UNL     1      -7.628  20.007  65.167  1.00  0.00    -0.279 OA 
ENDBRANCH  29  32
ENDBRANCH  28  29
ENDBRANCH  25  28
ENDBRANCH  24  25
ENDBRANCH   8  23
TORSDOF 8
ENDMDL
MODEL       28
REMARK 921   NORMALIZED FREE ENERGY PREDICTED BY IDOCK:   -6.71 KCAL/MOL
REMARK 922        TOTAL FREE ENERGY PREDICTED BY IDOCK:  -11.39 KCAL/MOL
REMARK 923 INTER-LIGAND FREE ENERGY PREDICTED BY IDOCK:   -9.70 KCAL/MOL
REMARK 924 INTRA-LIGAND FREE ENERGY PREDICTED BY IDOCK:   -1.69 KCAL/MOL
REMARK 927      BINDING AFFINITY PREDICTED BY RF-SCORE:    0.00 PKD
ROOT
HETATM    1  C   UNL     1     -10.552  11.404  63.635  1.00  0.00    -0.476 C  
HETATM    2  C   UNL     1     -10.082  10.478  64.767  1.00  0.00    -0.406 C  
HETATM    3  C   UNL     1      -8.552  10.411  64.759  1.00  0.00    -0.190 C  
HETATM    4  C   UNL     1     -10.587  10.916  66.139  1.00  0.00    -0.206 A  
HETATM    5  N   UNL     1     -10.832  12.241  66.269  1.00  0.00    -0.268 NA 
HETATM    6  C   UNL     1     -11.232  12.659  67.468  1.00  0.00    -0.288 A  
HETATM    7  N   UNL     1     -11.356  11.908  68.558  1.00  0.00    -0.250 NA 
HETATM    8  C   UNL     1     -10.727  10.013  67.210  1.00  0.00    -0.309 A  
HETATM    9  C   UNL     1     -11.059  10.585  68.448  1.00  0.00    -0.281 A  
ENDROOT
BRANCH   6  10
HETATM   10  N   UNL     1     -11.760  13.961  67.523  1.00  0.00    -0.359 N  
HETATM   11  C   UNL     1     -12.134  14.543  66.228  1.00  0.00    -0.294 C  
BRANCH  10  12
HETATM   12  S   UNL     1     -11.029  14.973  68.642  1.00  0.00    -0.271 S  
HETATM   13  C   UNL     1     -10.940  16.561  67.832  1.00  0.00    -0.288 C  
HETATM   14  O   UNL     1     -11.949  15.121  69.756  1.00  0.00    -0.301 OA 
HETATM   15  O   UNL     1      -9.673  14.533  68.874  1.00  0.00    -0.213 OA 
ENDBRANCH  10  12
ENDBRANCH   6  10
BRANCH   9  16
HETATM   16  C   UNL     1     -11.122   9.868  69.758  1.00  0.00    -0.294 A  
HETATM   17  F   UNL     1     -11.401   7.916  73.433  1.00  0.00    -0.418 F  
HETATM   18  C   UNL     1     -12.334   9.815  70.485  1.00  0.00    -0.173 A  
HETATM   19  C   UNL     1     -12.432   9.167  71.721  1.00  0.00    -0.447 A  
HETATM   20  C   UNL     1     -10.094   8.610  71.599  1.00  0.00    -0.365 A  
HETATM   21  C   UNL     1     -11.311   8.555  72.260  1.00  0.00    -0.371 A  
HETATM   22  C   UNL     1      -9.999   9.278  70.371  1.00  0.00    -0.287 A  
ENDBRANCH   9  16
BRANCH   8  23
HETATM   23  C   UNL     1     -10.532   8.570  66.971  1.00  0.00    -0.362 C  
HETATM   24  C   UNL     1      -9.376   7.914  67.197  1.00  0.00    -0.190 C  
BRANCH  24  25
HETATM   25  C   UNL     1      -9.184   6.411  67.158  1.00  0.00    -0.123 C  
HETATM   26  H   UNL     1      -8.385   5.028  68.311  1.00  0.00     0.000 HD 
HETATM   27  O   UNL     1      -8.506   5.970  68.335  1.00  0.00    -0.112 OA 
BRANCH  25  28
HETATM   28  C   UNL     1     -10.497   5.626  67.016  1.00  0.00    -0.344 C  
BRANCH  28  29
HETATM   29  C   UNL     1     -10.420   4.513  65.942  1.00  0.00    -0.226 C  
HETATM   30  O   UNL     1     -11.565   4.557  65.084  1.00  0.00    -1.102 OA 
HETATM   31  H   UNL     1     -11.518   3.874  64.425  1.00  0.00     0.000 HD 
BRANCH  29  32
HETATM   32  C   UNL     1      -9.206   4.667  65.025  1.00  0.00    -0.152 C  
HETATM   33  C   UNL     1      -9.038   3.491  64.105  1.00  0.00    -0.124 C  
HETATM   34  O   UNL     1      -9.960   2.834  63.647  1.00  0.00    -0.134 OA 
HETATM   35  O   UNL     1      -7.745   3.227  63.810  1.00  0.00    -0.073 OA 
ENDBRANCH  29  32
ENDBRANCH  28  29
ENDBRANCH  25  28
ENDBRANCH  24  25
ENDBRANCH   8  23
TORSDOF 8
ENDMDL
MODEL       29
REMARK 921   NORMALIZED FREE ENERGY PREDICTED BY IDOCK:   -6.69 KCAL/MOL
REMARK 922        TOTAL FREE ENERGY PREDICTED BY IDOCK:  -11.36 KCAL/MOL
REMARK 923 INTER-LIGAND FREE ENERGY PREDICTED BY IDOCK:  -10.49 KCAL/MOL
REMARK 924 INTRA-LIGAND FREE ENERGY PREDICTED BY IDOCK:   -0.87 KCAL/MOL
REMARK 927      BINDING AFFINITY PREDICTED BY RF-SCORE:    0.00 PKD
ROOT
HETATM    1  C   UNL     1     -11.858  14.896  66.246  1.00  0.00    -0.125 C  
HETATM    2  C   UNL     1     -11.298  13.541  66.708  1.00  0.00    -0.351 C  
HETATM    3  C   UNL     1      -9.783  13.521  66.484  1.00  0.00    -0.287 C  
HETATM    4  C   UNL     1     -11.623  13.233  68.166  1.00  0.00    -0.338 A  
HETATM    5  N   UNL     1     -11.798  14.314  68.962  1.00  0.00    -0.320 NA 
HETATM    6  C   UNL     1     -12.040  14.075  70.249  1.00  0.00    -0.355 A  
HETATM    7  N   UNL     1     -12.068  12.880  70.832  1.00  0.00    -0.203 NA 
HETATM    8  C   UNL     1     -11.675  11.915  68.660  1.00  0.00    -0.380 A  
HETATM    9  C   UNL     1     -11.839  11.792  70.049  1.00  0.00    -0.342 A  
ENDROOT
BRANCH   6  10
HETATM   10  N   UNL     1     -12.506  15.167  71.002  1.00  0.00    -0.326 N  
HETATM   11  C   UNL     1     -11.561  16.282  71.145  1.00  0.00    -0.328 C  
BRANCH  10  12
HETATM   12  S   UNL     1     -13.426  14.759  72.343  1.00  0.00    -0.473 S  
HETATM   13  C   UNL     1     -12.296  14.861  73.720  1.00  0.00    -0.442 C  
HETATM   14  O   UNL     1     -14.410  15.811  72.528  1.00  0.00    -0.528 OA 
HETATM   15  O   UNL     1     -13.848  13.381  72.235  1.00  0.00    -0.546 OA 
ENDBRANCH  10  12
ENDBRANCH   6  10
BRANCH   9  16
HETATM   16  C   UNL     1     -11.779  10.520  70.831  1.00  0.00    -0.431 A  
HETATM   17  F   UNL     1     -11.715   6.996  73.060  1.00  0.00    -0.194 F  
HETATM   18  C   UNL     1     -12.930  10.036  71.495  1.00  0.00    -0.535 A  
HETATM   19  C   UNL     1     -12.913   8.857  72.250  1.00  0.00    -0.479 A  
HETATM   20  C   UNL     1     -10.575   8.588  71.751  1.00  0.00    -0.371 A  
HETATM   21  C   UNL     1     -11.735   8.134  72.356  1.00  0.00    -0.399 A  
HETATM   22  C   UNL     1     -10.594   9.780  71.013  1.00  0.00    -0.295 A  
ENDBRANCH   9  16
BRANCH   8  23
HETATM   23  C   UNL     1     -11.567  10.784  67.719  1.00  0.00    -0.155 C  
HETATM   24  C   UNL     1     -10.401  10.223  67.339  1.00  0.00    -0.282 C  
BRANCH  24  25
HETATM   25  C   UNL     1     -10.248   8.945  66.539  1.00  0.00    -0.249 C  
HETATM   26  H   UNL     1      -9.679   8.439  64.723  1.00  0.00     0.000 HD 
HETATM   27  O   UNL     1      -9.774   9.240  65.224  1.00  0.00    -0.216 OA 
BRANCH  25  28
HETATM   28  C   UNL     1      -9.307   7.920  67.189  1.00  0.00    -0.190 C  
BRANCH  28  29
HETATM   29  C   UNL     1      -9.996   7.086  68.297  1.00  0.00    -0.153 C  
HETATM   30  O   UNL     1     -11.392   6.931  68.020  1.00  0.00    -0.536 OA 
HETATM   31  H   UNL     1     -11.816   6.420  68.700  1.00  0.00     0.000 HD 
BRANCH  29  32
HETATM   32  C   UNL     1      -9.432   5.669  68.400  1.00  0.00    -0.142 C  
HETATM   33  C   UNL     1      -9.725   5.038  69.732  1.00  0.00    -0.196 C  
HETATM   34  O   UNL     1     -10.730   5.251  70.392  1.00  0.00    -0.250 OA 
HETATM   35  O   UNL     1      -8.761   4.181  70.138  1.00  0.00    -0.070 OA 
ENDBRANCH  29  32
ENDBRANCH  28  29
ENDBRANCH  25  28
ENDBRANCH  24  25
ENDBRANCH   8  23
TORSDOF 8
ENDMDL
MODEL       30
REMARK 921   NORMALIZED FREE ENERGY PREDICTED BY IDOCK:   -6.68 KCAL/MOL
REMARK 922        TOTAL FREE ENERGY PREDICTED BY IDOCK:  -11.35 KCAL/MOL
REMARK 923 INTER-LIGAND FREE ENERGY PREDICTED BY IDOCK:  -10.40 KCAL/MOL
REMARK 924 INTRA-LIGAND FREE ENERGY PREDICTED BY IDOCK:   -0.95 KCAL/MOL
REMARK 927      BINDING AFFINITY PREDICTED BY RF-SCORE:    0.00 PKD
ROOT
HETATM    1  C   UNL     1      -8.991  10.275  66.165  1.00  0.00    -0.174 C  
HETATM    2  C   UNL     1      -9.908  11.470  66.472  1.00  0.00    -0.228 C  
HETATM    3  C   UNL     1     -10.980  11.574  65.383  1.00  0.00    -0.288 C  
HETATM    4  C   UNL     1     -10.558  11.379  67.849  1.00  0.00    -0.189 A  
HETATM    5  N   UNL     1     -10.730  10.124  68.326  1.00  0.00    -0.222 NA 
HETATM    6  C   UNL     1     -11.334  10.012  69.507  1.00  0.00    -0.169 A  
HETATM    7  N   UNL     1     -11.834  11.010  70.229  1.00  0.00    -0.339 NA 
HETATM    8  C   UNL     1     -11.003  12.519  68.545  1.00  0.00    -0.280 A  
HETATM    9  C   UNL     1     -11.712  12.270  69.730  1.00  0.00    -0.298 A  
ENDROOT
BRANCH   6  10
HETATM   10  N   UNL     1     -11.250   8.753  70.126  1.00  0.00    -0.203 N  
HETATM   11  C   UNL     1     -12.205   8.522  71.218  1.00  0.00    -0.277 C  
BRANCH  10  12
HETATM   12  S   UNL     1      -9.691   8.169  70.329  1.00  0.00    -0.175 S  
HETATM   13  C   UNL     1      -9.823   6.957  71.632  1.00  0.00    -0.168 C  
HETATM   14  O   UNL     1      -9.339   7.448  69.118  1.00  0.00    -0.147 OA 
HETATM   15  O   UNL     1      -8.840   9.230  70.815  1.00  0.00    -0.222 OA 
ENDBRANCH  10  12
ENDBRANCH   6  10
BRANCH   9  16
HETATM   16  C   UNL     1     -12.410  13.292  70.568  1.00  0.00    -0.389 A  
HETATM   17  F   UNL     1     -14.411  16.060  72.961  1.00  0.00    -0.646 F  
HETATM   18  C   UNL     1     -13.132  12.899  71.719  1.00  0.00    -0.458 A  
HETATM   19  C   UNL     1     -13.811  13.823  72.522  1.00  0.00    -0.626 A  
HETATM   20  C   UNL     1     -13.113  15.595  71.051  1.00  0.00    -0.487 A  
HETATM   21  C   UNL     1     -13.780  15.168  72.188  1.00  0.00    -0.477 A  
HETATM   22  C   UNL     1     -12.453  14.662  70.240  1.00  0.00    -0.401 A  
ENDBRANCH   9  16
BRANCH   8  23
HETATM   23  C   UNL     1     -10.698  13.860  68.008  1.00  0.00    -0.255 C  
HETATM   24  C   UNL     1      -9.617  14.586  68.355  1.00  0.00    -0.213 C  
BRANCH  24  25
HETATM   25  C   UNL     1      -9.157  15.869  67.690  1.00  0.00    -0.198 C  
HETATM   26  H   UNL     1      -7.954  16.379  66.216  1.00  0.00     0.000 HD 
HETATM   27  O   UNL     1      -8.243  15.576  66.632  1.00  0.00    -0.253 OA 
BRANCH  25  28
HETATM   28  C   UNL     1     -10.307  16.721  67.134  1.00  0.00    -0.297 C  
BRANCH  28  29
HETATM   29  C   UNL     1     -10.581  17.989  67.978  1.00  0.00    -0.347 C  
HETATM   30  O   UNL     1     -10.617  17.671  69.374  1.00  0.00    -0.404 OA 
HETATM   31  H   UNL     1     -10.786  18.449  69.892  1.00  0.00     0.000 HD 
BRANCH  29  32
HETATM   32  C   UNL     1      -9.489  19.046  67.820  1.00  0.00    -0.353 C  
HETATM   33  C   UNL     1      -9.509  19.683  66.459  1.00  0.00    -0.384 C  
HETATM   34  O   UNL     1     -10.518  19.871  65.798  1.00  0.00    -0.504 OA 
HETATM   35  O   UNL     1      -8.282  20.053  66.027  1.00  0.00    -0.333 OA 
ENDBRANCH  29  32
ENDBRANCH  28  29
ENDBRANCH  25  28
ENDBRANCH  24  25
ENDBRANCH   8  23
TORSDOF 8
ENDMDL
MODEL       31
REMARK 921   NORMALIZED FREE ENERGY PREDICTED BY IDOCK:   -6.65 KCAL/MOL
REMARK 922        TOTAL FREE ENERGY PREDICTED BY IDOCK:  -11.31 KCAL/MOL
REMARK 923 INTER-LIGAND FREE ENERGY PREDICTED BY IDOCK:   -9.62 KCAL/MOL
REMARK 924 INTRA-LIGAND FREE ENERGY PREDICTED BY IDOCK:   -1.69 KCAL/MOL
REMARK 927      BINDING AFFINITY PREDICTED BY RF-SCORE:    0.00 PKD
ROOT
HETATM    1  C   UNL     1     -10.370  13.900  64.627  1.00  0.00    -0.366 C  
HETATM    2  C   UNL     1     -10.483  13.438  66.089  1.00  0.00    -0.295 C  
HETATM    3  C   UNL     1      -9.170  12.770  66.508  1.00  0.00    -0.190 C  
HETATM    4  C   UNL     1     -10.829  14.575  67.044  1.00  0.00    -0.297 A  
HETATM    5  N   UNL     1     -10.430  15.807  66.647  1.00  0.00    -0.298 NA 
HETATM    6  C   UNL     1     -10.680  16.813  67.482  1.00  0.00    -0.275 A  
HETATM    7  N   UNL     1     -11.229  16.712  68.689  1.00  0.00    -0.297 NA 
HETATM    8  C   UNL     1     -11.463  14.349  68.281  1.00  0.00    -0.333 A  
HETATM    9  C   UNL     1     -11.583  15.470  69.117  1.00  0.00    -0.362 A  
ENDROOT
BRANCH   6  10
HETATM   10  N   UNL     1     -10.535  18.106  66.950  1.00  0.00    -0.372 N  
HETATM   11  C   UNL     1     -10.647  18.202  65.489  1.00  0.00     0.032 C  
BRANCH  10  12
HETATM   12  S   UNL     1      -9.368  19.050  67.698  1.00  0.00    -0.303 S  
HETATM   13  C   UNL     1      -8.498  19.847  66.358  1.00  0.00    -0.341 C  
HETATM   14  O   UNL     1     -10.062  20.096  68.429  1.00  0.00    -0.406 OA 
HETATM   15  O   UNL     1      -8.421  18.196  68.376  1.00  0.00    -0.287 OA 
ENDBRANCH  10  12
ENDBRANCH   6  10
BRANCH   9  16
HETATM   16  C   UNL     1     -12.080  15.466  70.527  1.00  0.00    -0.411 A  
HETATM   17  F   UNL     1     -13.359  15.436  74.496  1.00  0.00     0.132 F  
HETATM   18  C   UNL     1     -11.167  15.527  71.605  1.00  0.00    -0.388 A  
HETATM   19  C   UNL     1     -11.590  15.510  72.939  1.00  0.00    -0.430 A  
HETATM   20  C   UNL     1     -13.873  15.338  72.199  1.00  0.00    -0.625 A  
HETATM   21  C   UNL     1     -12.944  15.433  73.223  1.00  0.00    -0.531 A  
HETATM   22  C   UNL     1     -13.441  15.334  70.866  1.00  0.00    -0.441 A  
ENDBRANCH   9  16
BRANCH   8  23
HETATM   23  C   UNL     1     -11.953  12.996  68.607  1.00  0.00    -0.298 C  
HETATM   24  C   UNL     1     -11.442  12.220  69.585  1.00  0.00    -0.285 C  
BRANCH  24  25
HETATM   25  C   UNL     1     -12.033  10.918  70.086  1.00  0.00    -0.352 C  
HETATM   26  H   UNL     1     -12.860   9.312  69.302  1.00  0.00     0.000 HD 
HETATM   27  O   UNL     1     -12.490  10.128  68.988  1.00  0.00     0.240 OA 
BRANCH  25  28
HETATM   28  C   UNL     1     -11.057  10.083  70.929  1.00  0.00    -0.385 C  
BRANCH  28  29
HETATM   29  C   UNL     1     -10.838   8.659  70.362  1.00  0.00    -0.227 C  
HETATM   30  O   UNL     1      -9.928   8.687  69.257  1.00  0.00    -0.184 OA 
HETATM   31  H   UNL     1      -9.794   7.813  68.909  1.00  0.00     0.000 HD 
BRANCH  29  32
HETATM   32  C   UNL     1     -10.218   7.709  71.388  1.00  0.00    -0.208 C  
HETATM   33  C   UNL     1     -11.249   6.840  72.051  1.00  0.00    -0.262 C  
HETATM   34  O   UNL     1     -12.264   6.433  71.508  1.00  0.00    -0.312 OA 
HETATM   35  O   UNL     1     -10.938   6.528  73.330  1.00  0.00    -0.259 OA 
ENDBRANCH  29  32
ENDBRANCH  28  29
ENDBRANCH  25  28
ENDBRANCH  24  25
ENDBRANCH   8  23
TORSDOF 8
ENDMDL
MODEL       32
REMARK 921   NORMALIZED FREE ENERGY PREDICTED BY IDOCK:   -6.65 KCAL/MOL
REMARK 922        TOTAL FREE ENERGY PREDICTED BY IDOCK:  -11.30 KCAL/MOL
REMARK 923 INTER-LIGAND FREE ENERGY PREDICTED BY IDOCK:   -9.64 KCAL/MOL
REMARK 924 INTRA-LIGAND FREE ENERGY PREDICTED BY IDOCK:   -1.66 KCAL/MOL
REMARK 927      BINDING AFFINITY PREDICTED BY RF-SCORE:    0.00 PKD
ROOT
HETATM    1  C   UNL     1     -13.885   9.036  72.228  1.00  0.00    -0.547 C  
HETATM    2  C   UNL     1     -13.015   9.996  71.401  1.00  0.00    -0.517 C  
HETATM    3  C   UNL     1     -13.072  11.393  72.028  1.00  0.00    -0.423 C  
HETATM    4  C   UNL     1     -11.568   9.528  71.278  1.00  0.00    -0.374 A  
HETATM    5  N   UNL     1     -11.122   8.755  72.296  1.00  0.00    -0.333 NA 
HETATM    6  C   UNL     1      -9.849   8.368  72.238  1.00  0.00    -0.313 A  
HETATM    7  N   UNL     1      -8.966   8.716  71.307  1.00  0.00    -0.190 NA 
HETATM    8  C   UNL     1     -10.739   9.924  70.211  1.00  0.00    -0.367 A  
HETATM    9  C   UNL     1      -9.394   9.536  70.310  1.00  0.00    -0.259 A  
ENDROOT
BRANCH   6  10
HETATM   10  N   UNL     1      -9.475   7.343  73.125  1.00  0.00    -0.180 N  
HETATM   11  C   UNL     1      -8.266   7.605  73.916  1.00  0.00    -0.184 C  
BRANCH  10  12
HETATM   12  S   UNL     1      -9.692   5.788  72.538  1.00  0.00    -0.158 S  
HETATM   13  C   UNL     1     -10.970   5.085  73.568  1.00  0.00    -0.328 C  
HETATM   14  O   UNL     1     -10.248   5.904  71.201  1.00  0.00    -0.198 OA 
HETATM   15  O   UNL     1      -8.490   5.018  72.761  1.00  0.00    -0.114 OA 
ENDBRANCH  10  12
ENDBRANCH   6  10
BRANCH   9  16
HETATM   16  C   UNL     1      -8.291   9.951  69.391  1.00  0.00    -0.158 A  
HETATM   17  F   UNL     1      -5.237  11.021  66.759  1.00  0.00    -0.044 F  
HETATM   18  C   UNL     1      -8.175   9.370  68.107  1.00  0.00    -0.118 A  
HETATM   19  C   UNL     1      -7.148   9.720  67.222  1.00  0.00    -0.085 A  
HETATM   20  C   UNL     1      -6.265  11.237  68.868  1.00  0.00    -0.052 A  
HETATM   21  C   UNL     1      -6.211  10.666  67.606  1.00  0.00    -0.055 A  
HETATM   22  C   UNL     1      -7.284  10.867  69.756  1.00  0.00    -0.061 A  
ENDBRANCH   9  16
BRANCH   8  23
HETATM   23  C   UNL     1     -11.319  10.689  69.090  1.00  0.00    -0.338 C  
HETATM   24  C   UNL     1     -11.141  12.012  68.903  1.00  0.00    -0.298 C  
BRANCH  24  25
HETATM   25  C   UNL     1     -11.543  12.798  67.672  1.00  0.00    -0.358 C  
HETATM   26  H   UNL     1     -12.374  14.541  67.280  1.00  0.00     0.000 HD 
HETATM   27  O   UNL     1     -12.122  14.048  68.052  1.00  0.00    -0.362 OA 
BRANCH  25  28
HETATM   28  C   UNL     1     -10.382  13.061  66.701  1.00  0.00    -0.263 C  
BRANCH  28  29
HETATM   29  C   UNL     1     -10.854  13.597  65.328  1.00  0.00    -0.322 C  
HETATM   30  O   UNL     1      -9.823  14.369  64.703  1.00  0.00    -0.553 OA 
HETATM   31  H   UNL     1     -10.113  14.698  63.860  1.00  0.00     0.000 HD 
BRANCH  29  32
HETATM   32  C   UNL     1     -11.189  12.476  64.345  1.00  0.00    -0.388 C  
HETATM   33  C   UNL     1     -12.341  12.832  63.449  1.00  0.00    -0.437 C  
HETATM   34  O   UNL     1     -12.590  13.961  63.058  1.00  0.00    -0.694 OA 
HETATM   35  O   UNL     1     -13.089  11.762  63.093  1.00  0.00    -0.568 OA 
ENDBRANCH  29  32
ENDBRANCH  28  29
ENDBRANCH  25  28
ENDBRANCH  24  25
ENDBRANCH   8  23
TORSDOF 8
ENDMDL
MODEL       33
REMARK 921   NORMALIZED FREE ENERGY PREDICTED BY IDOCK:   -6.63 KCAL/MOL
REMARK 922        TOTAL FREE ENERGY PREDICTED BY IDOCK:  -11.28 KCAL/MOL
REMARK 923 INTER-LIGAND FREE ENERGY PREDICTED BY IDOCK:  -10.13 KCAL/MOL
REMARK 924 INTRA-LIGAND FREE ENERGY PREDICTED BY IDOCK:   -1.14 KCAL/MOL
REMARK 927      BINDING AFFINITY PREDICTED BY RF-SCORE:    0.00 PKD
ROOT
HETATM    1  C   UNL     1      -7.766   8.850  66.040  1.00  0.00    -0.098 C  
HETATM    2  C   UNL     1      -7.982   9.548  67.392  1.00  0.00    -0.106 C  
HETATM    3  C   UNL     1      -6.792  10.469  67.678  1.00  0.00    -0.074 C  
HETATM    4  C   UNL     1      -9.288  10.334  67.451  1.00  0.00    -0.145 A  
HETATM    5  N   UNL     1      -9.744  10.788  66.261  1.00  0.00    -0.197 NA 
HETATM    6  C   UNL     1     -10.859  11.515  66.287  1.00  0.00    -0.282 A  
HETATM    7  N   UNL     1     -11.529  11.883  67.375  1.00  0.00    -0.402 NA 
HETATM    8  C   UNL     1      -9.937  10.619  68.668  1.00  0.00    -0.188 A  
HETATM    9  C   UNL     1     -11.046  11.474  68.579  1.00  0.00    -0.236 A  
ENDROOT
BRANCH   6  10
HETATM   10  N   UNL     1     -11.483  11.733  65.046  1.00  0.00    -0.239 N  
HETATM   11  C   UNL     1     -10.857  11.060  63.900  1.00  0.00    -0.151 C  
BRANCH  10  12
HETATM   12  S   UNL     1     -12.056  13.290  64.808  1.00  0.00    -0.433 S  
HETATM   13  C   UNL     1     -10.640  14.344  65.079  1.00  0.00    -0.432 C  
HETATM   14  O   UNL     1     -12.407  13.411  63.404  1.00  0.00    -0.728 OA 
HETATM   15  O   UNL     1     -13.027  13.607  65.830  1.00  0.00    -0.435 OA 
ENDBRANCH  10  12
ENDBRANCH   6  10
BRANCH   9  16
HETATM   16  C   UNL     1     -11.811  12.042  69.731  1.00  0.00    -0.401 A  
HETATM   17  F   UNL     1     -13.901  13.730  72.922  1.00  0.00    -0.560 F  
HETATM   18  C   UNL     1     -11.893  13.443  69.912  1.00  0.00    -0.385 A  
HETATM   19  C   UNL     1     -12.587  14.014  70.985  1.00  0.00    -0.437 A  
HETATM   20  C   UNL     1     -13.137  11.813  71.785  1.00  0.00    -0.480 A  
HETATM   21  C   UNL     1     -13.218  13.191  71.904  1.00  0.00    -0.431 A  
HETATM   22  C   UNL     1     -12.423  11.247  70.720  1.00  0.00    -0.471 A  
ENDBRANCH   9  16
BRANCH   8  23
HETATM   23  C   UNL     1      -9.434  10.013  69.916  1.00  0.00    -0.221 C  
HETATM   24  C   UNL     1      -9.974   8.924  70.501  1.00  0.00    -0.243 C  
BRANCH  24  25
HETATM   25  C   UNL     1      -9.380   8.152  71.661  1.00  0.00    -0.174 C  
HETATM   26  H   UNL     1      -7.755   8.237  72.772  1.00  0.00     0.000 HD 
HETATM   27  O   UNL     1      -8.128   8.722  72.044  1.00  0.00    -0.315 OA 
BRANCH  25  28
HETATM   28  C   UNL     1     -10.296   8.089  72.893  1.00  0.00    -0.397 C  
BRANCH  28  29
HETATM   29  C   UNL     1     -10.871   6.675  73.145  1.00  0.00    -0.269 C  
HETATM   30  O   UNL     1     -12.174   6.546  72.566  1.00  0.00    -0.513 OA 
HETATM   31  H   UNL     1     -12.528   5.678  72.721  1.00  0.00     0.000 HD 
BRANCH  29  32
HETATM   32  C   UNL     1     -10.022   5.575  72.508  1.00  0.00    -0.198 C  
HETATM   33  C   UNL     1     -10.236   4.241  73.165  1.00  0.00    -0.159 C  
HETATM   34  O   UNL     1     -11.293   3.870  73.650  1.00  0.00    -0.238 OA 
HETATM   35  O   UNL     1      -9.131   3.461  73.158  1.00  0.00    -0.096 OA 
ENDBRANCH  29  32
ENDBRANCH  28  29
ENDBRANCH  25  28
ENDBRANCH  24  25
ENDBRANCH   8  23
TORSDOF 8
ENDMDL
MODEL       34
REMARK 921   NORMALIZED FREE ENERGY PREDICTED BY IDOCK:   -6.62 KCAL/MOL
REMARK 922        TOTAL FREE ENERGY PREDICTED BY IDOCK:  -11.25 KCAL/MOL
REMARK 923 INTER-LIGAND FREE ENERGY PREDICTED BY IDOCK:  -10.76 KCAL/MOL
REMARK 924 INTRA-LIGAND FREE ENERGY PREDICTED BY IDOCK:   -0.50 KCAL/MOL
REMARK 927      BINDING AFFINITY PREDICTED BY RF-SCORE:    0.00 PKD
ROOT
HETATM    1  C   UNL     1     -10.678   7.672  66.837  1.00  0.00    -0.271 C  
HETATM    2  C   UNL     1     -10.330   8.615  68.000  1.00  0.00    -0.277 C  
HETATM    3  C   UNL     1      -8.824   8.547  68.268  1.00  0.00    -0.142 C  
HETATM    4  C   UNL     1     -10.760  10.056  67.742  1.00  0.00    -0.280 A  
HETATM    5  N   UNL     1     -10.820  10.418  66.439  1.00  0.00    -0.060 NA 
HETATM    6  C   UNL     1     -11.150  11.682  66.185  1.00  0.00    -0.280 A  
HETATM    7  N   UNL     1     -11.366  12.632  67.090  1.00  0.00    -0.300 NA 
HETATM    8  C   UNL     1     -11.013  10.962  68.790  1.00  0.00    -0.285 A  
HETATM    9  C   UNL     1     -11.254  12.289  68.401  1.00  0.00    -0.266 A  
ENDROOT
BRANCH   6  10
HETATM   10  N   UNL     1     -11.494  11.974  64.854  1.00  0.00    -0.316 N  
HETATM   11  C   UNL     1     -10.579  11.443  63.835  1.00  0.00    -0.392 C  
BRANCH  10  12
HETATM   12  S   UNL     1     -12.115  13.512  64.606  1.00  0.00    -0.419 S  
HETATM   13  C   UNL     1     -10.717  14.605  64.796  1.00  0.00    -0.377 C  
HETATM   14  O   UNL     1     -12.526  13.593  63.216  1.00  0.00    -0.801 OA 
HETATM   15  O   UNL     1     -13.052  13.827  65.660  1.00  0.00    -0.591 OA 
ENDBRANCH  10  12
ENDBRANCH   6  10
BRANCH   9  16
HETATM   16  C   UNL     1     -11.404  13.459  69.319  1.00  0.00    -0.314 A  
HETATM   17  F   UNL     1     -11.721  16.765  71.841  1.00  0.00    -0.493 F  
HETATM   18  C   UNL     1     -10.546  14.577  69.195  1.00  0.00    -0.242 A  
HETATM   19  C   UNL     1     -10.644  15.686  70.043  1.00  0.00    -0.342 A  
HETATM   20  C   UNL     1     -12.448  14.613  71.218  1.00  0.00    -0.408 A  
HETATM   21  C   UNL     1     -11.608  15.700  71.038  1.00  0.00    -0.392 A  
HETATM   22  C   UNL     1     -12.332  13.497  70.378  1.00  0.00    -0.397 A  
ENDBRANCH   9  16
BRANCH   8  23
HETATM   23  C   UNL     1     -11.020  10.474  70.183  1.00  0.00    -0.338 C  
HETATM   24  C   UNL     1     -12.100   9.953  70.798  1.00  0.00    -0.396 C  
BRANCH  24  25
HETATM   25  C   UNL     1     -12.109   9.261  72.146  1.00  0.00    -0.283 C  
HETATM   26  H   UNL     1     -13.326   8.090  73.160  1.00  0.00     0.000 HD 
HETATM   27  O   UNL     1     -13.320   8.524  72.315  1.00  0.00    -0.347 OA 
BRANCH  25  28
HETATM   28  C   UNL     1     -10.917   8.316  72.361  1.00  0.00    -0.438 C  
BRANCH  28  29
HETATM   29  C   UNL     1     -11.141   6.914  71.745  1.00  0.00    -0.244 C  
HETATM   30  O   UNL     1     -11.939   7.002  70.560  1.00  0.00    -0.484 OA 
HETATM   31  H   UNL     1     -12.076   6.141  70.182  1.00  0.00     0.000 HD 
BRANCH  29  32
HETATM   32  C   UNL     1      -9.833   6.246  71.318  1.00  0.00    -0.197 C  
HETATM   33  C   UNL     1      -9.211   5.454  72.433  1.00  0.00    -0.141 C  
HETATM   34  O   UNL     1      -9.839   4.867  73.299  1.00  0.00    -0.145 OA 
HETATM   35  O   UNL     1      -7.859   5.436  72.382  1.00  0.00    -0.100 OA 
ENDBRANCH  29  32
ENDBRANCH  28  29
ENDBRANCH  25  28
ENDBRANCH  24  25
ENDBRANCH   8  23
TORSDOF 8
ENDMDL
MODEL       35
REMARK 921   NORMALIZED FREE ENERGY PREDICTED BY IDOCK:   -6.60 KCAL/MOL
REMARK 922        TOTAL FREE ENERGY PREDICTED BY IDOCK:  -11.22 KCAL/MOL
REMARK 923 INTER-LIGAND FREE ENERGY PREDICTED BY IDOCK:   -9.68 KCAL/MOL
REMARK 924 INTRA-LIGAND FREE ENERGY PREDICTED BY IDOCK:   -1.54 KCAL/MOL
REMARK 927      BINDING AFFINITY PREDICTED BY RF-SCORE:    0.00 PKD
ROOT
HETATM    1  C   UNL     1     -10.524   7.240  69.801  1.00  0.00    -0.236 C  
HETATM    2  C   UNL     1     -10.725   8.763  69.740  1.00  0.00    -0.220 C  
HETATM    3  C   UNL     1      -9.854   9.428  70.810  1.00  0.00    -0.348 C  
HETATM    4  C   UNL     1     -10.414   9.347  68.365  1.00  0.00    -0.218 A  
HETATM    5  N   UNL     1      -9.515   8.651  67.630  1.00  0.00    -0.139 NA 
HETATM    6  C   UNL     1      -9.191   9.160  66.444  1.00  0.00    -0.183 A  
HETATM    7  N   UNL     1      -9.623  10.313  65.942  1.00  0.00    -0.195 NA 
HETATM    8  C   UNL     1     -10.977  10.558  67.920  1.00  0.00    -0.352 A  
HETATM    9  C   UNL     1     -10.486  11.044  66.698  1.00  0.00    -0.256 A  
ENDROOT
BRANCH   6  10
HETATM   10  N   UNL     1      -8.496   8.303  65.573  1.00  0.00    -0.155 N  
HETATM   11  C   UNL     1      -8.761   6.870  65.757  1.00  0.00    -0.106 C  
BRANCH  10  12
HETATM   12  S   UNL     1      -6.916   8.759  65.245  1.00  0.00    -0.076 S  
HETATM   13  C   UNL     1      -6.330   7.557  64.062  1.00  0.00    -0.049 C  
HETATM   14  O   UNL     1      -6.971  10.036  64.553  1.00  0.00    -0.130 OA 
HETATM   15  O   UNL     1      -6.116   8.613  66.438  1.00  0.00    -0.054 OA 
ENDBRANCH  10  12
ENDBRANCH   6  10
BRANCH   9  16
HETATM   16  C   UNL     1     -10.811  12.368  66.085  1.00  0.00    -0.308 A  
HETATM   17  F   UNL     1     -11.796  16.011  64.309  1.00  0.00    -0.463 F  
HETATM   18  C   UNL     1     -11.960  12.516  65.274  1.00  0.00    -0.490 A  
HETATM   19  C   UNL     1     -12.292  13.735  64.670  1.00  0.00    -0.410 A  
HETATM   20  C   UNL     1     -10.321  14.730  65.626  1.00  0.00    -0.369 A  
HETATM   21  C   UNL     1     -11.475  14.837  64.867  1.00  0.00    -0.412 A  
HETATM   22  C   UNL     1      -9.984  13.502  66.212  1.00  0.00    -0.302 A  
ENDBRANCH   9  16
BRANCH   8  23
HETATM   23  C   UNL     1     -12.020  11.213  68.732  1.00  0.00    -0.337 C  
HETATM   24  C   UNL     1     -11.778  12.183  69.636  1.00  0.00    -0.396 C  
BRANCH  24  25
HETATM   25  C   UNL     1     -12.824  13.020  70.345  1.00  0.00     0.154 C  
HETATM   26  H   UNL     1     -13.615  13.119  72.146  1.00  0.00     0.000 HD 
HETATM   27  O   UNL     1     -12.960  12.595  71.702  1.00  0.00    -0.374 OA 
BRANCH  25  28
HETATM   28  C   UNL     1     -12.526  14.527  70.323  1.00  0.00    -0.405 C  
BRANCH  28  29
HETATM   29  C   UNL     1     -11.475  14.949  71.377  1.00  0.00    -0.261 C  
HETATM   30  O   UNL     1     -10.256  15.353  70.744  1.00  0.00    -0.346 OA 
HETATM   31  H   UNL     1      -9.610  15.612  71.391  1.00  0.00     0.000 HD 
BRANCH  29  32
HETATM   32  C   UNL     1     -11.929  16.148  72.210  1.00  0.00    -0.637 C  
HETATM   33  C   UNL     1     -12.542  15.730  73.517  1.00  0.00    -0.562 C  
HETATM   34  O   UNL     1     -12.206  14.747  74.156  1.00  0.00    -0.533 OA 
HETATM   35  O   UNL     1     -13.515  16.570  73.940  1.00  0.00    -0.513 OA 
ENDBRANCH  29  32
ENDBRANCH  28  29
ENDBRANCH  25  28
ENDBRANCH  24  25
ENDBRANCH   8  23
TORSDOF 8
ENDMDL
MODEL       36
REMARK 921   NORMALIZED FREE ENERGY PREDICTED BY IDOCK:   -6.58 KCAL/MOL
REMARK 922        TOTAL FREE ENERGY PREDICTED BY IDOCK:  -11.20 KCAL/MOL
REMARK 923 INTER-LIGAND FREE ENERGY PREDICTED BY IDOCK:   -9.50 KCAL/MOL
REMARK 924 INTRA-LIGAND FREE ENERGY PREDICTED BY IDOCK:   -1.70 KCAL/MOL
REMARK 927      BINDING AFFINITY PREDICTED BY RF-SCORE:    0.00 PKD
ROOT
HETATM    1  C   UNL     1     -12.158  12.461  70.079  1.00  0.00    -0.335 C  
HETATM    2  C   UNL     1     -11.339  11.912  68.899  1.00  0.00    -0.335 C  
HETATM    3  C   UNL     1     -10.002  12.656  68.827  1.00  0.00    -0.023 C  
HETATM    4  C   UNL     1     -11.105  10.408  68.990  1.00  0.00    -0.248 A  
HETATM    5  N   UNL     1     -11.101   9.897  70.244  1.00  0.00    -0.285 NA 
HETATM    6  C   UNL     1     -10.855   8.593  70.356  1.00  0.00    -0.227 A  
HETATM    7  N   UNL     1     -10.558   7.763  69.361  1.00  0.00    -0.224 NA 
HETATM    8  C   UNL     1     -10.849   9.619  67.852  1.00  0.00    -0.272 A  
HETATM    9  C   UNL     1     -10.507   8.281  68.104  1.00  0.00    -0.171 A  
ENDROOT
BRANCH   6  10
HETATM   10  N   UNL     1     -11.138   8.018  71.608  1.00  0.00    -0.244 N  
HETATM   11  C   UNL     1     -12.320   8.554  72.294  1.00  0.00    -0.387 C  
BRANCH  10  12
HETATM   12  S   UNL     1      -9.792   7.672  72.545  1.00  0.00    -0.216 S  
HETATM   13  C   UNL     1      -9.191   6.110  71.922  1.00  0.00    -0.147 C  
HETATM   14  O   UNL     1      -8.780   8.666  72.232  1.00  0.00    -0.306 OA 
HETATM   15  O   UNL     1     -10.201   7.458  73.914  1.00  0.00    -0.317 OA 
ENDBRANCH  10  12
ENDBRANCH   6  10
BRANCH   9  16
HETATM   16  C   UNL     1     -10.051   7.284  67.088  1.00  0.00    -0.306 A  
HETATM   17  F   UNL     1      -8.856   4.428  64.294  1.00  0.00    -0.125 F  
HETATM   18  C   UNL     1     -10.791   6.099  66.869  1.00  0.00    -0.411 A  
HETATM   19  C   UNL     1     -10.391   5.134  65.938  1.00  0.00    -0.165 A  
HETATM   20  C   UNL     1      -8.461   6.467  65.405  1.00  0.00    -0.119 A  
HETATM   21  C   UNL     1      -9.235   5.337  65.201  1.00  0.00    -0.001 A  
HETATM   22  C   UNL     1      -8.856   7.420  66.353  1.00  0.00    -0.176 A  
ENDBRANCH   9  16
BRANCH   8  23
HETATM   23  C   UNL     1     -10.961  10.224  66.511  1.00  0.00     0.026 C  
HETATM   24  C   UNL     1      -9.943  10.825  65.863  1.00  0.00    -0.304 C  
BRANCH  24  25
HETATM   25  C   UNL     1      -9.954  11.280  64.418  1.00  0.00    -0.288 C  
HETATM   26  H   UNL     1      -9.572  10.492  62.653  1.00  0.00     0.000 HD 
HETATM   27  O   UNL     1      -9.565  10.207  63.559  1.00  0.00    -0.293 OA 
BRANCH  25  28
HETATM   28  C   UNL     1     -11.313  11.823  63.953  1.00  0.00    -0.494 C  
BRANCH  28  29
HETATM   29  C   UNL     1     -11.321  13.361  63.779  1.00  0.00    -0.166 C  
HETATM   30  O   UNL     1     -12.450  13.778  63.003  1.00  0.00    -1.068 OA 
HETATM   31  H   UNL     1     -12.454  14.722  62.896  1.00  0.00     0.000 HD 
BRANCH  29  32
HETATM   32  C   UNL     1     -11.434  14.101  65.111  1.00  0.00    -0.336 C  
HETATM   33  C   UNL     1     -11.104  15.561  64.979  1.00  0.00    -0.401 C  
HETATM   34  O   UNL     1     -11.330  16.234  63.986  1.00  0.00    -0.822 OA 
HETATM   35  O   UNL     1     -10.533  16.080  66.090  1.00  0.00    -0.308 OA 
ENDBRANCH  29  32
ENDBRANCH  28  29
ENDBRANCH  25  28
ENDBRANCH  24  25
ENDBRANCH   8  23
TORSDOF 8
ENDMDL
MODEL       37
REMARK 921   NORMALIZED FREE ENERGY PREDICTED BY IDOCK:   -6.58 KCAL/MOL
REMARK 922        TOTAL FREE ENERGY PREDICTED BY IDOCK:  -11.20 KCAL/MOL
REMARK 923 INTER-LIGAND FREE ENERGY PREDICTED BY IDOCK:  -10.10 KCAL/MOL
REMARK 924 INTRA-LIGAND FREE ENERGY PREDICTED BY IDOCK:   -1.09 KCAL/MOL
REMARK 927      BINDING AFFINITY PREDICTED BY RF-SCORE:    0.00 PKD
ROOT
HETATM    1  C   UNL     1      -7.529  10.016  65.547  1.00  0.00    -0.137 C  
HETATM    2  C   UNL     1      -8.730  10.858  66.004  1.00  0.00    -0.192 C  
HETATM    3  C   UNL     1      -9.767  10.908  64.878  1.00  0.00    -0.318 C  
HETATM    4  C   UNL     1      -9.366  10.335  67.288  1.00  0.00    -0.149 A  
HETATM    5  N   UNL     1      -9.219   9.008  67.508  1.00  0.00    -0.135 NA 
HETATM    6  C   UNL     1      -9.802   8.515  68.600  1.00  0.00    -0.170 A  
HETATM    7  N   UNL     1     -10.559   9.193  69.457  1.00  0.00    -0.222 NA 
HETATM    8  C   UNL     1     -10.107  11.166  68.151  1.00  0.00    -0.193 A  
HETATM    9  C   UNL     1     -10.755  10.517  69.212  1.00  0.00    -0.234 A  
ENDROOT
BRANCH   6  10
HETATM   10  N   UNL     1      -9.409   7.219  68.977  1.00  0.00    -0.148 N  
HETATM   11  C   UNL     1      -8.006   6.882  68.703  1.00  0.00    -0.120 C  
BRANCH  10  12
HETATM   12  S   UNL     1     -10.556   6.027  68.706  1.00  0.00    -0.302 S  
HETATM   13  C   UNL     1     -11.109   6.298  67.031  1.00  0.00    -0.297 C  
HETATM   14  O   UNL     1      -9.863   4.750  68.718  1.00  0.00    -0.165 OA 
HETATM   15  O   UNL     1     -11.690   6.246  69.573  1.00  0.00    -0.360 OA 
ENDBRANCH  10  12
ENDBRANCH   6  10
BRANCH   9  16
HETATM   16  C   UNL     1     -11.713  11.145  70.173  1.00  0.00    -0.439 A  
HETATM   17  F   UNL     1     -14.339  13.000  72.829  1.00  0.00    -0.498 F  
HETATM   18  C   UNL     1     -11.875  12.550  70.203  1.00  0.00    -0.336 A  
HETATM   19  C   UNL     1     -12.750  13.178  71.097  1.00  0.00    -0.386 A  
HETATM   20  C   UNL     1     -13.333  11.032  72.014  1.00  0.00    -0.393 A  
HETATM   21  C   UNL     1     -13.485  12.409  71.984  1.00  0.00    -0.360 A  
HETATM   22  C   UNL     1     -12.441  10.410  71.130  1.00  0.00    -0.509 A  
ENDBRANCH   9  16
BRANCH   8  23
HETATM   23  C   UNL     1     -10.147  12.620  67.898  1.00  0.00    -0.222 C  
HETATM   24  C   UNL     1      -9.158  13.474  68.231  1.00  0.00    -0.189 C  
BRANCH  24  25
HETATM   25  C   UNL     1      -9.063  14.929  67.819  1.00  0.00    -0.185 C  
HETATM   26  H   UNL     1      -7.855  16.448  68.155  1.00  0.00     0.000 HD 
HETATM   27  O   UNL     1      -7.915  15.536  68.413  1.00  0.00    -0.122 OA 
BRANCH  25  28
HETATM   28  C   UNL     1      -9.005  15.136  66.298  1.00  0.00    -0.274 C  
BRANCH  28  29
HETATM   29  C   UNL     1     -10.403  15.329  65.662  1.00  0.00    -0.366 C  
HETATM   30  O   UNL     1     -10.487  16.593  64.995  1.00  0.00    -0.664 OA 
HETATM   31  H   UNL     1     -11.345  16.712  64.605  1.00  0.00     0.000 HD 
BRANCH  29  32
HETATM   32  C   UNL     1     -10.715  14.275  64.600  1.00  0.00    -0.384 C  
HETATM   33  C   UNL     1     -12.164  14.279  64.205  1.00  0.00    -0.423 C  
HETATM   34  O   UNL     1     -12.872  15.273  64.178  1.00  0.00    -0.559 OA 
HETATM   35  O   UNL     1     -12.625  13.055  63.860  1.00  0.00    -0.652 OA 
ENDBRANCH  29  32
ENDBRANCH  28  29
ENDBRANCH  25  28
ENDBRANCH  24  25
ENDBRANCH   8  23
TORSDOF 8
ENDMDL
MODEL       38
REMARK 921   NORMALIZED FREE ENERGY PREDICTED BY IDOCK:   -6.57 KCAL/MOL
REMARK 922        TOTAL FREE ENERGY PREDICTED BY IDOCK:  -11.19 KCAL/MOL
REMARK 923 INTER-LIGAND FREE ENERGY PREDICTED BY IDOCK:   -9.22 KCAL/MOL
REMARK 924 INTRA-LIGAND FREE ENERGY PREDICTED BY IDOCK:   -1.97 KCAL/MOL
REMARK 927      BINDING AFFINITY PREDICTED BY RF-SCORE:    0.00 PKD
ROOT
HETATM    1  C   UNL     1      -5.838  16.304  68.818  1.00  0.00    -0.110 C  
HETATM    2  C   UNL     1      -6.880  15.188  68.642  1.00  0.00    -0.105 C  
HETATM    3  C   UNL     1      -7.583  14.941  69.979  1.00  0.00     0.187 C  
HETATM    4  C   UNL     1      -7.902  15.500  67.554  1.00  0.00    -0.168 A  
HETATM    5  N   UNL     1      -8.127  16.816  67.330  1.00  0.00    -0.166 NA 
HETATM    6  C   UNL     1      -9.047  17.118  66.416  1.00  0.00    -0.256 A  
HETATM    7  N   UNL     1      -9.802  16.251  65.749  1.00  0.00    -0.462 NA 
HETATM    8  C   UNL     1      -8.607  14.487  66.875  1.00  0.00    -0.207 A  
HETATM    9  C   UNL     1      -9.619  14.928  66.008  1.00  0.00    -0.313 A  
ENDROOT
BRANCH   6  10
HETATM   10  N   UNL     1      -9.069  18.454  65.981  1.00  0.00    -0.084 N  
HETATM   11  C   UNL     1      -7.760  19.117  65.918  1.00  0.00    -0.179 C  
BRANCH  10  12
HETATM   12  S   UNL     1     -10.365  19.358  66.543  1.00  0.00    -0.506 S  
HETATM   13  C   UNL     1      -9.626  20.805  67.282  1.00  0.00    -0.354 C  
HETATM   14  O   UNL     1     -11.109  19.813  65.381  1.00  0.00    -0.389 OA 
HETATM   15  O   UNL     1     -11.036  18.633  67.597  1.00  0.00    -0.365 OA 
ENDBRANCH  10  12
ENDBRANCH   6  10
BRANCH   9  16
HETATM   16  C   UNL     1     -10.599  14.058  65.288  1.00  0.00    -0.376 A  
HETATM   17  F   UNL     1     -13.407  11.647  63.367  1.00  0.00    -0.510 F  
HETATM   18  C   UNL     1     -11.942  13.983  65.725  1.00  0.00    -0.417 A  
HETATM   19  C   UNL     1     -12.887  13.171  65.088  1.00  0.00    -0.367 A  
HETATM   20  C   UNL     1     -11.193  12.428  63.551  1.00  0.00    -0.540 A  
HETATM   21  C   UNL     1     -12.505  12.412  63.994  1.00  0.00    -0.459 A  
HETATM   22  C   UNL     1     -10.247  13.228  64.205  1.00  0.00    -0.221 A  
ENDBRANCH   9  16
BRANCH   8  23
HETATM   23  C   UNL     1      -8.244  13.075  67.102  1.00  0.00    -0.132 C  
HETATM   24  C   UNL     1      -8.956  12.224  67.868  1.00  0.00    -0.186 C  
BRANCH  24  25
HETATM   25  C   UNL     1      -8.739  10.728  67.972  1.00  0.00    -0.132 C  
HETATM   26  H   UNL     1      -7.893   9.476  69.236  1.00  0.00     0.000 HD 
HETATM   27  O   UNL     1      -8.029  10.414  69.171  1.00  0.00    -0.118 OA 
BRANCH  25  28
HETATM   28  C   UNL     1     -10.041   9.913  67.936  1.00  0.00    -0.210 C  
BRANCH  28  29
HETATM   29  C   UNL     1     -11.085  10.399  68.971  1.00  0.00    -0.248 C  
HETATM   30  O   UNL     1     -12.249  10.911  68.314  1.00  0.00    -0.804 OA 
HETATM   31  H   UNL     1     -12.890  11.210  68.949  1.00  0.00     0.000 HD 
BRANCH  29  32
HETATM   32  C   UNL     1     -11.580   9.272  69.877  1.00  0.00     0.076 C  
HETATM   33  C   UNL     1     -12.211   9.794  71.137  1.00  0.00    -0.362 C  
HETATM   34  O   UNL     1     -12.833  10.841  71.217  1.00  0.00    -0.378 OA 
HETATM   35  O   UNL     1     -12.037   8.973  72.199  1.00  0.00    -0.363 OA 
ENDBRANCH  29  32
ENDBRANCH  28  29
ENDBRANCH  25  28
ENDBRANCH  24  25
ENDBRANCH   8  23
TORSDOF 8
ENDMDL
MODEL       39
REMARK 921   NORMALIZED FREE ENERGY PREDICTED BY IDOCK:   -6.54 KCAL/MOL
REMARK 922        TOTAL FREE ENERGY PREDICTED BY IDOCK:  -11.14 KCAL/MOL
REMARK 923 INTER-LIGAND FREE ENERGY PREDICTED BY IDOCK:   -9.52 KCAL/MOL
REMARK 924 INTRA-LIGAND FREE ENERGY PREDICTED BY IDOCK:   -1.62 KCAL/MOL
REMARK 927      BINDING AFFINITY PREDICTED BY RF-SCORE:    0.00 PKD
ROOT
HETATM    1  C   UNL     1      -7.939   8.856  71.426  1.00  0.00    -0.150 C  
HETATM    2  C   UNL     1      -8.004   9.428  70.002  1.00  0.00    -0.142 C  
HETATM    3  C   UNL     1      -7.600   8.339  69.003  1.00  0.00    -0.089 C  
HETATM    4  C   UNL     1      -9.380   9.986  69.650  1.00  0.00    -0.220 A  
HETATM    5  N   UNL     1     -10.419   9.423  70.310  1.00  0.00    -0.231 NA 
HETATM    6  C   UNL     1     -11.636   9.860  69.992  1.00  0.00    -0.175 A  
HETATM    7  N   UNL     1     -11.926  10.752  69.049  1.00  0.00    -0.368 NA 
HETATM    8  C   UNL     1      -9.558  10.974  68.662  1.00  0.00    -0.198 A  
HETATM    9  C   UNL     1     -10.890  11.282  68.345  1.00  0.00    -0.205 A  
ENDROOT
BRANCH   6  10
HETATM   10  N   UNL     1     -12.671   9.495  70.869  1.00  0.00    -0.217 N  
HETATM   11  C   UNL     1     -13.130  10.553  71.778  1.00  0.00    -0.464 C  
BRANCH  10  12
HETATM   12  S   UNL     1     -12.555   7.942  71.490  1.00  0.00    -0.309 S  
HETATM   13  C   UNL     1     -14.245   7.400  71.684  1.00  0.00    -0.440 C  
HETATM   14  O   UNL     1     -11.962   7.108  70.460  1.00  0.00    -0.290 OA 
HETATM   15  O   UNL     1     -11.968   7.994  72.809  1.00  0.00    -0.337 OA 
ENDBRANCH  10  12
ENDBRANCH   6  10
BRANCH   9  16
HETATM   16  C   UNL     1     -11.344  12.180  67.239  1.00  0.00    -0.398 A  
HETATM   17  F   UNL     1     -12.569  14.610  64.079  1.00  0.00    -0.485 F  
HETATM   18  C   UNL     1     -11.354  11.717  65.903  1.00  0.00    -0.324 A  
HETATM   19  C   UNL     1     -11.758  12.531  64.838  1.00  0.00    -0.409 A  
HETATM   20  C   UNL     1     -12.137  14.339  66.379  1.00  0.00    -0.442 A  
HETATM   21  C   UNL     1     -12.163  13.832  65.090  1.00  0.00    -0.431 A  
HETATM   22  C   UNL     1     -11.713  13.526  67.439  1.00  0.00    -0.419 A  
ENDBRANCH   9  16
BRANCH   8  23
HETATM   23  C   UNL     1      -8.375  11.609  68.051  1.00  0.00    -0.148 C  
HETATM   24  C   UNL     1      -7.928  12.841  68.367  1.00  0.00    -0.137 C  
BRANCH  24  25
HETATM   25  C   UNL     1      -6.616  13.453  67.919  1.00  0.00    -0.149 C  
HETATM   26  H   UNL     1      -5.229  13.070  66.573  1.00  0.00     0.000 HD 
HETATM   27  O   UNL     1      -6.052  12.687  66.854  1.00  0.00    -0.235 OA 
BRANCH  25  28
HETATM   28  C   UNL     1      -6.741  14.916  67.468  1.00  0.00    -0.167 C  
BRANCH  28  29
HETATM   29  C   UNL     1      -8.175  15.476  67.628  1.00  0.00    -0.154 C  
HETATM   30  O   UNL     1      -8.323  16.141  68.886  1.00  0.00    -0.208 OA 
HETATM   31  H   UNL     1      -9.204  16.484  68.984  1.00  0.00     0.000 HD 
BRANCH  29  32
HETATM   32  C   UNL     1      -8.520  16.517  66.563  1.00  0.00    -0.328 C  
HETATM   33  C   UNL     1      -9.944  16.984  66.667  1.00  0.00    -0.302 C  
HETATM   34  O   UNL     1     -10.566  17.080  67.712  1.00  0.00    -0.341 OA 
HETATM   35  O   UNL     1     -10.485  17.312  65.471  1.00  0.00    -0.609 OA 
ENDBRANCH  29  32
ENDBRANCH  28  29
ENDBRANCH  25  28
ENDBRANCH  24  25
ENDBRANCH   8  23
TORSDOF 8
ENDMDL
MODEL       40
REMARK 921   NORMALIZED FREE ENERGY PREDICTED BY IDOCK:   -6.53 KCAL/MOL
REMARK 922        TOTAL FREE ENERGY PREDICTED BY IDOCK:  -11.13 KCAL/MOL
REMARK 923 INTER-LIGAND FREE ENERGY PREDICTED BY IDOCK:  -10.28 KCAL/MOL
REMARK 924 INTRA-LIGAND FREE ENERGY PREDICTED BY IDOCK:   -0.85 KCAL/MOL
REMARK 927      BINDING AFFINITY PREDICTED BY RF-SCORE:    0.00 PKD
ROOT
HETATM    1  C   UNL     1      -9.059  10.585  62.586  1.00  0.00    -0.309 C  
HETATM    2  C   UNL     1      -8.964   9.902  63.960  1.00  0.00    -0.276 C  
HETATM    3  C   UNL     1      -7.489   9.701  64.320  1.00  0.00    -0.125 C  
HETATM    4  C   UNL     1      -9.678  10.682  65.059  1.00  0.00    -0.279 A  
HETATM    5  N   UNL     1      -9.763  12.018  64.860  1.00  0.00    -0.166 NA 
HETATM    6  C   UNL     1     -10.342  12.730  65.824  1.00  0.00    -0.281 A  
HETATM    7  N   UNL     1     -10.790  12.259  66.984  1.00  0.00    -0.241 NA 
HETATM    8  C   UNL     1     -10.158  10.060  66.228  1.00  0.00    -0.310 A  
HETATM    9  C   UNL     1     -10.659  10.925  67.214  1.00  0.00    -0.251 A  
ENDROOT
BRANCH   6  10
HETATM   10  N   UNL     1     -10.688  14.051  65.492  1.00  0.00    -0.300 N  
HETATM   11  C   UNL     1     -10.376  15.060  66.513  1.00  0.00    -0.284 C  
BRANCH  10  12
HETATM   12  S   UNL     1     -12.137  14.215  64.663  1.00  0.00    -0.456 S  
HETATM   13  C   UNL     1     -12.127  12.893  63.463  1.00  0.00    -0.555 C  
HETATM   14  O   UNL     1     -13.206  13.922  65.601  1.00  0.00    -0.623 OA 
HETATM   15  O   UNL     1     -12.133  15.460  63.931  1.00  0.00    -0.547 OA 
ENDBRANCH  10  12
ENDBRANCH   6  10
BRANCH   9  16
HETATM   16  C   UNL     1     -11.089  10.532  68.591  1.00  0.00    -0.319 A  
HETATM   17  F   UNL     1     -12.351   9.532  72.438  1.00  0.00    -0.391 F  
HETATM   18  C   UNL     1     -12.140  11.226  69.235  1.00  0.00    -0.372 A  
HETATM   19  C   UNL     1     -12.563  10.899  70.529  1.00  0.00    -0.409 A  
HETATM   20  C   UNL     1     -10.884   9.178  70.629  1.00  0.00    -0.321 A  
HETATM   21  C   UNL     1     -11.940   9.864  71.208  1.00  0.00    -0.402 A  
HETATM   22  C   UNL     1     -10.452   9.524  69.341  1.00  0.00    -0.231 A  
ENDBRANCH   9  16
BRANCH   8  23
HETATM   23  C   UNL     1     -10.116   8.589  66.336  1.00  0.00    -0.271 C  
HETATM   24  C   UNL     1      -9.088   7.898  66.869  1.00  0.00    -0.172 C  
BRANCH  24  25
HETATM   25  C   UNL     1      -9.081   6.416  67.182  1.00  0.00    -0.120 C  
HETATM   26  H   UNL     1      -8.600   5.265  68.707  1.00  0.00     0.000 HD 
HETATM   27  O   UNL     1      -8.605   6.194  68.511  1.00  0.00    -0.113 OA 
BRANCH  25  28
HETATM   28  C   UNL     1     -10.455   5.747  67.028  1.00  0.00    -0.342 C  
BRANCH  28  29
HETATM   29  C   UNL     1     -10.456   4.606  65.982  1.00  0.00    -0.264 C  
HETATM   30  O   UNL     1     -11.563   4.741  65.085  1.00  0.00    -1.050 OA 
HETATM   31  H   UNL     1     -11.564   4.040  64.443  1.00  0.00     0.000 HD 
BRANCH  29  32
HETATM   32  C   UNL     1      -9.205   4.615  65.103  1.00  0.00    -0.156 C  
HETATM   33  C   UNL     1      -9.049   3.340  64.325  1.00  0.00    -0.122 C  
HETATM   34  O   UNL     1      -9.977   2.668  63.905  1.00  0.00    -0.145 OA 
HETATM   35  O   UNL     1      -7.757   3.001  64.112  1.00  0.00    -0.074 OA 
ENDBRANCH  29  32
ENDBRANCH  28  29
ENDBRANCH  25  28
ENDBRANCH  24  25
ENDBRANCH   8  23
TORSDOF 8
ENDMDL
MODEL       41
REMARK 921   NORMALIZED FREE ENERGY PREDICTED BY IDOCK:   -6.53 KCAL/MOL
REMARK 922        TOTAL FREE ENERGY PREDICTED BY IDOCK:  -11.12 KCAL/MOL
REMARK 923 INTER-LIGAND FREE ENERGY PREDICTED BY IDOCK:   -9.13 KCAL/MOL
REMARK 924 INTRA-LIGAND FREE ENERGY PREDICTED BY IDOCK:   -1.99 KCAL/MOL
REMARK 927      BINDING AFFINITY PREDICTED BY RF-SCORE:    0.00 PKD
ROOT
HETATM    1  C   UNL     1     -11.080   7.123  70.219  1.00  0.00    -0.303 C  
HETATM    2  C   UNL     1     -11.058   8.657  70.122  1.00  0.00    -0.199 C  
HETATM    3  C   UNL     1     -10.061   9.211  71.145  1.00  0.00    -0.384 C  
HETATM    4  C   UNL     1     -10.715   9.157  68.722  1.00  0.00    -0.131 A  
HETATM    5  N   UNL     1      -9.954   8.320  67.978  1.00  0.00    -0.177 NA 
HETATM    6  C   UNL     1      -9.603   8.750  66.768  1.00  0.00    -0.206 A  
HETATM    7  N   UNL     1      -9.880   9.941  66.249  1.00  0.00    -0.228 NA 
HETATM    8  C   UNL     1     -11.111  10.428  68.262  1.00  0.00    -0.338 A  
HETATM    9  C   UNL     1     -10.599  10.808  67.012  1.00  0.00    -0.260 A  
ENDROOT
BRANCH   6  10
HETATM   10  N   UNL     1      -9.072   7.779  65.900  1.00  0.00    -0.122 N  
HETATM   11  C   UNL     1      -9.225   6.387  66.342  1.00  0.00    -0.155 C  
BRANCH  10  12
HETATM   12  S   UNL     1      -7.623   8.202  65.170  1.00  0.00    -0.103 S  
HETATM   13  C   UNL     1      -6.808   6.649  64.839  1.00  0.00    -0.050 C  
HETATM   14  O   UNL     1      -7.944   8.791  63.882  1.00  0.00    -0.141 OA 
HETATM   15  O   UNL     1      -6.802   8.924  66.115  1.00  0.00    -0.072 OA 
ENDBRANCH  10  12
ENDBRANCH   6  10
BRANCH   9  16
HETATM   16  C   UNL     1     -10.748  12.152  66.374  1.00  0.00    -0.292 A  
HETATM   17  F   UNL     1     -11.251  15.857  64.526  1.00  0.00    -0.438 F  
HETATM   18  C   UNL     1     -11.866  12.431  65.554  1.00  0.00    -0.469 A  
HETATM   19  C   UNL     1     -12.037  13.671  64.926  1.00  0.00    -0.426 A  
HETATM   20  C   UNL     1      -9.957  14.422  65.875  1.00  0.00    -0.350 A  
HETATM   21  C   UNL     1     -11.086  14.662  65.107  1.00  0.00    -0.377 A  
HETATM   22  C   UNL     1      -9.783  13.172  66.484  1.00  0.00    -0.268 A  
ENDBRANCH   9  16
BRANCH   8  23
HETATM   23  C   UNL     1     -12.017  11.247  69.089  1.00  0.00    -0.405 C  
HETATM   24  C   UNL     1     -11.632  12.339  69.780  1.00  0.00    -0.314 C  
BRANCH  24  25
HETATM   25  C   UNL     1     -12.553  13.321  70.476  1.00  0.00    -0.189 C  
HETATM   26  H   UNL     1     -13.604  13.383  72.141  1.00  0.00     0.000 HD 
HETATM   27  O   UNL     1     -13.026  12.767  71.705  1.00  0.00    -0.371 OA 
BRANCH  25  28
HETATM   28  C   UNL     1     -11.899  14.682  70.763  1.00  0.00    -0.372 C  
BRANCH  28  29
HETATM   29  C   UNL     1     -11.365  15.374  69.486  1.00  0.00    -0.301 C  
HETATM   30  O   UNL     1     -12.400  15.495  68.504  1.00  0.00    -0.514 OA 
HETATM   31  H   UNL     1     -12.072  15.920  67.719  1.00  0.00     0.000 HD 
BRANCH  29  32
HETATM   32  C   UNL     1     -10.877  16.798  69.752  1.00  0.00    -0.156 C  
HETATM   33  C   UNL     1     -10.346  17.457  68.511  1.00  0.00    -0.378 C  
HETATM   34  O   UNL     1     -10.768  17.252  67.384  1.00  0.00    -0.329 OA 
HETATM   35  O   UNL     1      -9.344  18.331  68.759  1.00  0.00    -0.308 OA 
ENDBRANCH  29  32
ENDBRANCH  28  29
ENDBRANCH  25  28
ENDBRANCH  24  25
ENDBRANCH   8  23
TORSDOF 8
ENDMDL
MODEL       42
REMARK 921   NORMALIZED FREE ENERGY PREDICTED BY IDOCK:   -6.47 KCAL/MOL
REMARK 922        TOTAL FREE ENERGY PREDICTED BY IDOCK:  -11.04 KCAL/MOL
REMARK 923 INTER-LIGAND FREE ENERGY PREDICTED BY IDOCK:   -9.01 KCAL/MOL
REMARK 924 INTRA-LIGAND FREE ENERGY PREDICTED BY IDOCK:   -2.03 KCAL/MOL
REMARK 927      BINDING AFFINITY PREDICTED BY RF-SCORE:    0.00 PKD
ROOT
HETATM    1  C   UNL     1     -11.104   6.920  71.187  1.00  0.00    -0.297 C  
HETATM    2  C   UNL     1     -10.760   8.410  71.037  1.00  0.00    -0.267 C  
HETATM    3  C   UNL     1      -9.450   8.700  71.775  1.00  0.00    -0.354 C  
HETATM    4  C   UNL     1     -10.656   8.849  69.579  1.00  0.00    -0.228 A  
HETATM    5  N   UNL     1     -10.303   7.877  68.706  1.00  0.00    -0.206 NA 
HETATM    6  C   UNL     1     -10.161   8.241  67.433  1.00  0.00    -0.258 A  
HETATM    7  N   UNL     1     -10.277   9.475  66.953  1.00  0.00    -0.242 NA 
HETATM    8  C   UNL     1     -10.853  10.186  69.183  1.00  0.00    -0.260 A  
HETATM    9  C   UNL     1     -10.579  10.466  67.835  1.00  0.00    -0.232 A  
ENDROOT
BRANCH   6  10
HETATM   10  N   UNL     1     -10.085   7.194  66.497  1.00  0.00    -0.141 N  
HETATM   11  C   UNL     1     -10.830   5.978  66.850  1.00  0.00    -0.318 C  
BRANCH  10  12
HETATM   12  S   UNL     1      -8.584   6.998  65.778  1.00  0.00    -0.096 S  
HETATM   13  C   UNL     1      -8.605   5.338  65.123  1.00  0.00    -0.151 C  
HETATM   14  O   UNL     1      -8.529   7.898  64.639  1.00  0.00    -0.085 OA 
HETATM   15  O   UNL     1      -7.555   7.046  66.791  1.00  0.00    -0.087 OA 
ENDBRANCH  10  12
ENDBRANCH   6  10
BRANCH   9  16
HETATM   16  C   UNL     1     -10.569  11.822  67.205  1.00  0.00    -0.267 A  
HETATM   17  F   UNL     1     -10.642  15.579  65.396  1.00  0.00    -0.308 F  
HETATM   18  C   UNL     1     -11.731  12.323  66.572  1.00  0.00    -0.420 A  
HETATM   19  C   UNL     1     -11.759  13.580  65.958  1.00  0.00    -0.389 A  
HETATM   20  C   UNL     1      -9.448  13.903  66.543  1.00  0.00    -0.288 A  
HETATM   21  C   UNL     1     -10.618  14.367  65.965  1.00  0.00    -0.302 A  
HETATM   22  C   UNL     1      -9.421  12.635  67.139  1.00  0.00    -0.214 A  
ENDBRANCH   9  16
BRANCH   8  23
HETATM   23  C   UNL     1     -11.327  11.172  70.173  1.00  0.00    -0.295 C  
HETATM   24  C   UNL     1     -12.530  11.778  70.122  1.00  0.00    -0.182 C  
BRANCH  24  25
HETATM   25  C   UNL     1     -13.139  12.638  71.210  1.00  0.00    -0.145 C  
HETATM   26  H   UNL     1     -13.654  12.425  73.100  1.00  0.00     0.000 HD 
HETATM   27  O   UNL     1     -13.272  11.886  72.417  1.00  0.00    -0.329 OA 
BRANCH  25  28
HETATM   28  C   UNL     1     -12.340  13.916  71.505  1.00  0.00    -0.327 C  
BRANCH  28  29
HETATM   29  C   UNL     1     -12.299  14.892  70.304  1.00  0.00    -0.341 C  
HETATM   30  O   UNL     1     -13.504  15.661  70.234  1.00  0.00    -0.761 OA 
HETATM   31  H   UNL     1     -13.479  16.259  69.496  1.00  0.00     0.000 HD 
BRANCH  29  32
HETATM   32  C   UNL     1     -11.162  15.908  70.414  1.00  0.00    -0.392 C  
HETATM   33  C   UNL     1     -10.726  16.418  69.069  1.00  0.00    -0.322 C  
HETATM   34  O   UNL     1     -11.467  16.564  68.111  1.00  0.00    -0.251 OA 
HETATM   35  O   UNL     1      -9.409  16.722  69.017  1.00  0.00    -0.262 OA 
ENDBRANCH  29  32
ENDBRANCH  28  29
ENDBRANCH  25  28
ENDBRANCH  24  25
ENDBRANCH   8  23
TORSDOF 8
ENDMDL
MODEL       43
REMARK 921   NORMALIZED FREE ENERGY PREDICTED BY IDOCK:   -6.45 KCAL/MOL
REMARK 922        TOTAL FREE ENERGY PREDICTED BY IDOCK:  -11.00 KCAL/MOL
REMARK 923 INTER-LIGAND FREE ENERGY PREDICTED BY IDOCK:   -8.83 KCAL/MOL
REMARK 924 INTRA-LIGAND FREE ENERGY PREDICTED BY IDOCK:   -2.17 KCAL/MOL
REMARK 927      BINDING AFFINITY PREDICTED BY RF-SCORE:    0.00 PKD
ROOT
HETATM    1  C   UNL     1      -7.726   9.024  71.085  1.00  0.00    -0.143 C  
HETATM    2  C   UNL     1      -7.727  10.037  69.930  1.00  0.00    -0.183 C  
HETATM    3  C   UNL     1      -6.345  10.048  69.270  1.00  0.00    -0.045 C  
HETATM    4  C   UNL     1      -8.808   9.751  68.892  1.00  0.00    -0.140 A  
HETATM    5  N   UNL     1      -9.184   8.455  68.789  1.00  0.00    -0.143 NA 
HETATM    6  C   UNL     1     -10.095   8.169  67.861  1.00  0.00    -0.196 A  
HETATM    7  N   UNL     1     -10.623   9.025  66.992  1.00  0.00    -0.242 NA 
HETATM    8  C   UNL     1      -9.332  10.758  68.058  1.00  0.00    -0.152 A  
HETATM    9  C   UNL     1     -10.210  10.320  67.055  1.00  0.00    -0.228 A  
ENDROOT
BRANCH   6  10
HETATM   10  N   UNL     1     -10.690   6.898  67.952  1.00  0.00    -0.229 N  
HETATM   11  C   UNL     1     -11.133   6.505  69.296  1.00  0.00    -0.334 C  
BRANCH  10  12
HETATM   12  S   UNL     1      -9.980   5.717  66.997  1.00  0.00    -0.191 S  
HETATM   13  C   UNL     1      -9.469   4.449  68.145  1.00  0.00    -0.152 C  
HETATM   14  O   UNL     1     -11.028   5.141  66.173  1.00  0.00    -0.237 OA 
HETATM   15  O   UNL     1      -8.784   6.248  66.385  1.00  0.00    -0.126 OA 
ENDBRANCH  10  12
ENDBRANCH   6  10
BRANCH   9  16
HETATM   16  C   UNL     1     -10.782  11.161  65.959  1.00  0.00    -0.272 A  
HETATM   17  F   UNL     1     -12.292  13.474  62.835  1.00  0.00    -0.554 F  
HETATM   18  C   UNL     1     -10.310  11.023  64.633  1.00  0.00    -0.410 A  
HETATM   19  C   UNL     1     -10.808  11.802  63.582  1.00  0.00    -0.508 A  
HETATM   20  C   UNL     1     -12.265  12.932  65.127  1.00  0.00    -0.519 A  
HETATM   21  C   UNL     1     -11.796  12.739  63.838  1.00  0.00    -0.468 A  
HETATM   22  C   UNL     1     -11.748  12.164  66.179  1.00  0.00    -0.384 A  
ENDBRANCH   9  16
BRANCH   8  23
HETATM   23  C   UNL     1      -8.946  12.163  68.289  1.00  0.00    -0.186 C  
HETATM   24  C   UNL     1      -8.285  12.924  67.393  1.00  0.00    -0.187 C  
BRANCH  24  25
HETATM   25  C   UNL     1      -8.043  14.416  67.501  1.00  0.00    -0.190 C  
HETATM   26  H   UNL     1      -6.524  15.651  67.285  1.00  0.00     0.000 HD 
HETATM   27  O   UNL     1      -6.676  14.716  67.217  1.00  0.00    -0.280 OA 
BRANCH  25  28
HETATM   28  C   UNL     1      -8.939  15.254  66.576  1.00  0.00    -0.340 C  
BRANCH  28  29
HETATM   29  C   UNL     1      -9.946  16.138  67.350  1.00  0.00    -0.247 C  
HETATM   30  O   UNL     1     -10.495  17.148  66.497  1.00  0.00    -0.312 OA 
HETATM   31  H   UNL     1     -11.113  17.691  66.973  1.00  0.00     0.000 HD 
BRANCH  29  32
HETATM   32  C   UNL     1     -11.140  15.342  67.877  1.00  0.00    -0.323 C  
HETATM   33  C   UNL     1     -11.227  15.375  69.376  1.00  0.00    -0.296 C  
HETATM   34  O   UNL     1     -10.881  16.319  70.069  1.00  0.00    -0.335 OA 
HETATM   35  O   UNL     1     -11.748  14.244  69.904  1.00  0.00    -0.279 OA 
ENDBRANCH  29  32
ENDBRANCH  28  29
ENDBRANCH  25  28
ENDBRANCH  24  25
ENDBRANCH   8  23
TORSDOF 8
ENDMDL
MODEL       44
REMARK 921   NORMALIZED FREE ENERGY PREDICTED BY IDOCK:   -6.43 KCAL/MOL
REMARK 922        TOTAL FREE ENERGY PREDICTED BY IDOCK:  -10.98 KCAL/MOL
REMARK 923 INTER-LIGAND FREE ENERGY PREDICTED BY IDOCK:   -9.05 KCAL/MOL
REMARK 924 INTRA-LIGAND FREE ENERGY PREDICTED BY IDOCK:   -1.92 KCAL/MOL
REMARK 927      BINDING AFFINITY PREDICTED BY RF-SCORE:    0.00 PKD
ROOT
HETATM    1  C   UNL     1     -11.807  10.807  69.993  1.00  0.00    -0.424 C  
HETATM    2  C   UNL     1     -10.869  10.323  68.876  1.00  0.00    -0.263 C  
HETATM    3  C   UNL     1      -9.489  10.958  69.069  1.00  0.00    -0.160 C  
HETATM    4  C   UNL     1     -10.751   8.803  68.820  1.00  0.00    -0.077 A  
HETATM    5  N   UNL     1     -10.957   8.162  69.994  1.00  0.00    -0.233 NA 
HETATM    6  C   UNL     1     -10.817   6.838  69.985  1.00  0.00    -0.266 A  
HETATM    7  N   UNL     1     -10.438   6.098  68.947  1.00  0.00    -0.210 NA 
HETATM    8  C   UNL     1     -10.390   8.122  67.641  1.00  0.00    -0.313 A  
HETATM    9  C   UNL     1     -10.177   6.742  67.778  1.00  0.00    -0.171 A  
ENDROOT
BRANCH   6  10
HETATM   10  N   UNL     1     -11.310   6.158  71.112  1.00  0.00    -0.296 N  
HETATM   11  C   UNL     1     -12.517   6.736  71.718  1.00  0.00    -0.349 C  
BRANCH  10  12
HETATM   12  S   UNL     1     -10.134   5.564  72.149  1.00  0.00    -0.192 S  
HETATM   13  C   UNL     1      -9.752   3.937  71.522  1.00  0.00    -0.177 C  
HETATM   14  O   UNL     1      -8.944   6.376  71.962  1.00  0.00    -0.138 OA 
HETATM   15  O   UNL     1     -10.697   5.395  73.468  1.00  0.00    -0.246 OA 
ENDBRANCH  10  12
ENDBRANCH   6  10
BRANCH   9  16
HETATM   16  C   UNL     1      -9.651   5.826  66.720  1.00  0.00    -0.161 A  
HETATM   17  F   UNL     1      -8.284   3.218  63.767  1.00  0.00    -0.085 F  
HETATM   18  C   UNL     1     -10.534   4.995  65.992  1.00  0.00    -0.289 A  
HETATM   19  C   UNL     1     -10.080   4.113  65.004  1.00  0.00    -0.220 A  
HETATM   20  C   UNL     1      -7.819   4.815  65.435  1.00  0.00    -0.091 A  
HETATM   21  C   UNL     1      -8.725   4.044  64.723  1.00  0.00    -0.119 A  
HETATM   22  C   UNL     1      -8.278   5.681  66.436  1.00  0.00    -0.107 A  
ENDBRANCH   9  16
BRANCH   8  23
HETATM   23  C   UNL     1     -10.273   8.875  66.377  1.00  0.00    -0.273 C  
HETATM   24  C   UNL     1      -9.104   9.288  65.848  1.00  0.00    -0.246 C  
BRANCH  24  25
HETATM   25  C   UNL     1      -8.914   9.884  64.467  1.00  0.00    -0.234 C  
HETATM   26  H   UNL     1      -8.648   9.218  62.633  1.00  0.00     0.000 HD 
HETATM   27  O   UNL     1      -8.767   8.845  63.498  1.00  0.00    -0.146 OA 
BRANCH  25  28
HETATM   28  C   UNL     1     -10.059  10.811  64.033  1.00  0.00    -0.410 C  
BRANCH  28  29
HETATM   29  C   UNL     1     -10.024  12.185  64.744  1.00  0.00    -0.200 C  
HETATM   30  O   UNL     1      -9.922  13.248  63.790  1.00  0.00    -0.699 OA 
HETATM   31  H   UNL     1      -9.899  14.092  64.227  1.00  0.00     0.000 HD 
BRANCH  29  32
HETATM   32  C   UNL     1     -11.297  12.465  65.543  1.00  0.00    -0.387 C  
HETATM   33  C   UNL     1     -12.410  12.978  64.675  1.00  0.00    -0.422 C  
HETATM   34  O   UNL     1     -12.584  12.656  63.510  1.00  0.00    -0.696 OA 
HETATM   35  O   UNL     1     -13.233  13.839  65.318  1.00  0.00    -0.755 OA 
ENDBRANCH  29  32
ENDBRANCH  28  29
ENDBRANCH  25  28
ENDBRANCH  24  25
ENDBRANCH   8  23
TORSDOF 8
ENDMDL
MODEL       45
REMARK 921   NORMALIZED FREE ENERGY PREDICTED BY IDOCK:   -6.43 KCAL/MOL
REMARK 922        TOTAL FREE ENERGY PREDICTED BY IDOCK:  -10.97 KCAL/MOL
REMARK 923 INTER-LIGAND FREE ENERGY PREDICTED BY IDOCK:   -9.83 KCAL/MOL
REMARK 924 INTRA-LIGAND FREE ENERGY PREDICTED BY IDOCK:   -1.14 KCAL/MOL
REMARK 927      BINDING AFFINITY PREDICTED BY RF-SCORE:    0.00 PKD
ROOT
HETATM    1  C   UNL     1      -9.223  11.185  63.047  1.00  0.00    -0.329 C  
HETATM    2  C   UNL     1     -10.219  11.911  63.966  1.00  0.00    -0.394 C  
HETATM    3  C   UNL     1     -11.570  12.022  63.255  1.00  0.00    -0.409 C  
HETATM    4  C   UNL     1     -10.386  11.224  65.318  1.00  0.00    -0.280 A  
HETATM    5  N   UNL     1     -10.153   9.891  65.323  1.00  0.00    -0.263 NA 
HETATM    6  C   UNL     1     -10.334   9.257  66.480  1.00  0.00    -0.200 A  
HETATM    7  N   UNL     1     -10.775   9.801  67.610  1.00  0.00    -0.277 NA 
HETATM    8  C   UNL     1     -10.812  11.921  66.465  1.00  0.00    -0.317 A  
HETATM    9  C   UNL     1     -11.062  11.131  67.598  1.00  0.00    -0.287 A  
ENDROOT
BRANCH   6  10
HETATM   10  N   UNL     1      -9.817   7.952  66.556  1.00  0.00    -0.225 N  
HETATM   11  C   UNL     1     -10.581   7.020  67.397  1.00  0.00    -0.302 C  
BRANCH  10  12
HETATM   12  S   UNL     1      -8.145   7.856  66.621  1.00  0.00    -0.109 S  
HETATM   13  C   UNL     1      -7.808   6.347  67.512  1.00  0.00    -0.105 C  
HETATM   14  O   UNL     1      -7.670   7.657  65.263  1.00  0.00    -0.096 OA 
HETATM   15  O   UNL     1      -7.632   8.948  67.416  1.00  0.00    -0.088 OA 
ENDBRANCH  10  12
ENDBRANCH   6  10
BRANCH   9  16
HETATM   16  C   UNL     1     -11.657  11.604  68.885  1.00  0.00    -0.377 A  
HETATM   17  F   UNL     1     -13.277  13.029  72.454  1.00  0.00    -0.541 F  
HETATM   18  C   UNL     1     -11.729  12.987  69.172  1.00  0.00    -0.378 A  
HETATM   19  C   UNL     1     -12.266  13.471  70.371  1.00  0.00    -0.426 A  
HETATM   20  C   UNL     1     -12.664  11.209  71.090  1.00  0.00    -0.510 A  
HETATM   21  C   UNL     1     -12.745  12.574  71.313  1.00  0.00    -0.252 A  
HETATM   22  C   UNL     1     -12.107  10.731  69.896  1.00  0.00    -0.410 A  
ENDBRANCH   9  16
BRANCH   8  23
HETATM   23  C   UNL     1     -10.956  13.388  66.410  1.00  0.00    -0.297 C  
HETATM   24  C   UNL     1      -9.924  14.246  66.289  1.00  0.00    -0.319 C  
BRANCH  24  25
HETATM   25  C   UNL     1     -10.031  15.735  66.028  1.00  0.00    -0.332 C  
HETATM   26  H   UNL     1     -10.799  16.907  64.644  1.00  0.00     0.000 HD 
HETATM   27  O   UNL     1     -10.732  15.974  64.807  1.00  0.00    -0.611 OA 
BRANCH  25  28
HETATM   28  C   UNL     1     -10.722  16.511  67.160  1.00  0.00    -0.220 C  
BRANCH  28  29
HETATM   29  C   UNL     1      -9.726  17.275  68.064  1.00  0.00    -0.277 C  
HETATM   30  O   UNL     1     -10.373  18.370  68.721  1.00  0.00    -0.408 OA 
HETATM   31  H   UNL     1      -9.761  18.839  69.276  1.00  0.00     0.000 HD 
BRANCH  29  32
HETATM   32  C   UNL     1      -9.156  16.398  69.179  1.00  0.00    -0.202 C  
HETATM   33  C   UNL     1      -7.660  16.279  69.098  1.00  0.00    -0.227 C  
HETATM   34  O   UNL     1      -6.917  17.158  68.692  1.00  0.00    -0.188 OA 
HETATM   35  O   UNL     1      -7.197  15.087  69.539  1.00  0.00    -0.176 OA 
ENDBRANCH  29  32
ENDBRANCH  28  29
ENDBRANCH  25  28
ENDBRANCH  24  25
ENDBRANCH   8  23
TORSDOF 8
ENDMDL
MODEL       46
REMARK 921   NORMALIZED FREE ENERGY PREDICTED BY IDOCK:   -6.41 KCAL/MOL
REMARK 922        TOTAL FREE ENERGY PREDICTED BY IDOCK:  -10.95 KCAL/MOL
REMARK 923 INTER-LIGAND FREE ENERGY PREDICTED BY IDOCK:   -9.22 KCAL/MOL
REMARK 924 INTRA-LIGAND FREE ENERGY PREDICTED BY IDOCK:   -1.73 KCAL/MOL
REMARK 927      BINDING AFFINITY PREDICTED BY RF-SCORE:    0.00 PKD
ROOT
HETATM    1  C   UNL     1      -5.962  11.559  70.486  1.00  0.00    -0.093 C  
HETATM    2  C   UNL     1      -6.333  12.006  69.063  1.00  0.00    -0.085 C  
HETATM    3  C   UNL     1      -5.205  11.617  68.103  1.00  0.00    -0.044 C  
HETATM    4  C   UNL     1      -7.660  11.422  68.586  1.00  0.00    -0.130 A  
HETATM    5  N   UNL     1      -8.005  10.238  69.144  1.00  0.00    -0.123 NA 
HETATM    6  C   UNL     1      -9.137   9.683  68.715  1.00  0.00    -0.134 A  
HETATM    7  N   UNL     1      -9.924  10.153  67.752  1.00  0.00    -0.162 NA 
HETATM    8  C   UNL     1      -8.437  12.042  67.589  1.00  0.00    -0.160 A  
HETATM    9  C   UNL     1      -9.554  11.316  67.150  1.00  0.00    -0.177 A  
ENDROOT
BRANCH   6  10
HETATM   10  N   UNL     1      -9.636   8.622  69.490  1.00  0.00    -0.168 N  
HETATM   11  C   UNL     1     -10.346   7.576  68.743  1.00  0.00    -0.200 C  
BRANCH  10  12
HETATM   12  S   UNL     1     -10.266   9.071  70.978  1.00  0.00    -0.303 S  
HETATM   13  C   UNL     1     -11.369   7.740  71.427  1.00  0.00    -0.251 C  
HETATM   14  O   UNL     1      -9.173   9.050  71.934  1.00  0.00    -0.353 OA 
HETATM   15  O   UNL     1     -11.071  10.260  70.820  1.00  0.00    -0.326 OA 
ENDBRANCH  10  12
ENDBRANCH   6  10
BRANCH   9  16
HETATM   16  C   UNL     1     -10.448  11.684  66.010  1.00  0.00    -0.294 A  
HETATM   17  F   UNL     1     -12.859  12.682  62.756  1.00  0.00    -0.210 F  
HETATM   18  C   UNL     1     -10.099  11.330  64.685  1.00  0.00    -0.343 A  
HETATM   19  C   UNL     1     -10.901  11.668  63.589  1.00  0.00    -0.503 A  
HETATM   20  C   UNL     1     -12.442  12.769  65.073  1.00  0.00    -0.572 A  
HETATM   21  C   UNL     1     -12.076  12.372  63.797  1.00  0.00    -0.529 A  
HETATM   22  C   UNL     1     -11.625  12.444  66.164  1.00  0.00    -0.452 A  
ENDBRANCH   9  16
BRANCH   8  23
HETATM   23  C   UNL     1      -8.048  13.377  67.094  1.00  0.00    -0.096 C  
HETATM   24  C   UNL     1      -8.755  14.503  67.315  1.00  0.00    -0.225 C  
BRANCH  24  25
HETATM   25  C   UNL     1      -8.300  15.914  67.003  1.00  0.00    -0.223 C  
HETATM   26  H   UNL     1      -8.471  17.188  65.510  1.00  0.00     0.000 HD 
HETATM   27  O   UNL     1      -8.756  16.304  65.706  1.00  0.00    -0.390 OA 
BRANCH  25  28
HETATM   28  C   UNL     1      -8.771  16.955  68.030  1.00  0.00    -0.215 C  
BRANCH  28  29
HETATM   29  C   UNL     1     -10.256  17.353  67.848  1.00  0.00    -0.348 C  
HETATM   30  O   UNL     1     -11.083  16.675  68.799  1.00  0.00    -0.325 OA 
HETATM   31  H   UNL     1     -11.995  16.918  68.687  1.00  0.00     0.000 HD 
BRANCH  29  32
HETATM   32  C   UNL     1     -10.495  18.845  68.076  1.00  0.00    -0.427 C  
HETATM   33  C   UNL     1     -10.215  19.660  66.845  1.00  0.00    -0.442 C  
HETATM   34  O   UNL     1     -10.395  19.270  65.703  1.00  0.00    -0.489 OA 
HETATM   35  O   UNL     1      -9.748  20.898  67.122  1.00  0.00    -0.431 OA 
ENDBRANCH  29  32
ENDBRANCH  28  29
ENDBRANCH  25  28
ENDBRANCH  24  25
ENDBRANCH   8  23
TORSDOF 8
ENDMDL
MODEL       47
REMARK 921   NORMALIZED FREE ENERGY PREDICTED BY IDOCK:   -6.37 KCAL/MOL
REMARK 922        TOTAL FREE ENERGY PREDICTED BY IDOCK:  -10.90 KCAL/MOL
REMARK 923 INTER-LIGAND FREE ENERGY PREDICTED BY IDOCK:   -9.90 KCAL/MOL
REMARK 924 INTRA-LIGAND FREE ENERGY PREDICTED BY IDOCK:   -1.00 KCAL/MOL
REMARK 927      BINDING AFFINITY PREDICTED BY RF-SCORE:    0.00 PKD
ROOT
HETATM    1  C   UNL     1     -11.694  16.115  71.882  1.00  0.00    -0.575 C  
HETATM    2  C   UNL     1     -12.234  15.100  70.862  1.00  0.00    -0.398 C  
HETATM    3  C   UNL     1     -13.729  15.353  70.645  1.00  0.00    -0.034 C  
HETATM    4  C   UNL     1     -11.489  15.145  69.531  1.00  0.00    -0.296 A  
HETATM    5  N   UNL     1     -10.931  16.338  69.220  1.00  0.00    -0.301 NA 
HETATM    6  C   UNL     1     -10.312  16.418  68.044  1.00  0.00    -0.288 A  
HETATM    7  N   UNL     1     -10.242  15.457  67.128  1.00  0.00    -0.247 NA 
HETATM    8  C   UNL     1     -11.442  14.038  68.662  1.00  0.00    -0.337 A  
HETATM    9  C   UNL     1     -10.848  14.273  67.412  1.00  0.00    -0.285 A  
ENDROOT
BRANCH   6  10
HETATM   10  N   UNL     1      -9.494  17.546  67.854  1.00  0.00    -0.271 N  
HETATM   11  C   UNL     1      -8.825  18.049  69.061  1.00  0.00    -0.003 C  
BRANCH  10  12
HETATM   12  S   UNL     1     -10.094  18.679  66.774  1.00  0.00    -0.406 S  
HETATM   13  C   UNL     1      -8.701  19.730  66.395  1.00  0.00    -0.368 C  
HETATM   14  O   UNL     1     -10.433  17.973  65.551  1.00  0.00    -0.636 OA 
HETATM   15  O   UNL     1     -11.081  19.499  67.438  1.00  0.00    -0.433 OA 
ENDBRANCH  10  12
ENDBRANCH   6  10
BRANCH   9  16
HETATM   16  C   UNL     1     -10.805  13.314  66.266  1.00  0.00    -0.293 A  
HETATM   17  F   UNL     1     -10.585  10.597  63.110  1.00  0.00    -0.283 F  
HETATM   18  C   UNL     1      -9.874  12.249  66.261  1.00  0.00    -0.254 A  
HETATM   19  C   UNL     1      -9.791  11.338  65.202  1.00  0.00    -0.298 A  
HETATM   20  C   UNL     1     -11.549  12.522  64.064  1.00  0.00    -0.485 A  
HETATM   21  C   UNL     1     -10.644  11.475  64.119  1.00  0.00    -0.363 A  
HETATM   22  C   UNL     1     -11.613  13.443  65.119  1.00  0.00    -0.329 A  
ENDBRANCH   9  16
BRANCH   8  23
HETATM   23  C   UNL     1     -11.991  12.743  69.107  1.00  0.00    -0.296 C  
HETATM   24  C   UNL     1     -11.446  11.982  70.076  1.00  0.00    -0.183 C  
BRANCH  24  25
HETATM   25  C   UNL     1     -12.075  10.754  70.703  1.00  0.00    -0.370 C  
HETATM   26  H   UNL     1     -13.537   9.504  70.276  1.00  0.00     0.000 HD 
HETATM   27  O   UNL     1     -13.142  10.273  69.884  1.00  0.00     0.018 OA 
BRANCH  25  28
HETATM   28  C   UNL     1     -11.081   9.609  70.948  1.00  0.00    -0.422 C  
BRANCH  28  29
HETATM   29  C   UNL     1     -10.346   9.163  69.660  1.00  0.00    -0.219 C  
HETATM   30  O   UNL     1     -11.069   9.574  68.495  1.00  0.00    -0.449 OA 
HETATM   31  H   UNL     1     -10.619   9.300  67.705  1.00  0.00     0.000 HD 
BRANCH  29  32
HETATM   32  C   UNL     1      -8.957   9.790  69.531  1.00  0.00    -0.215 C  
HETATM   33  C   UNL     1      -7.970   9.181  70.485  1.00  0.00    -0.154 C  
HETATM   34  O   UNL     1      -7.986   8.015  70.848  1.00  0.00    -0.088 OA 
HETATM   35  O   UNL     1      -7.029  10.056  70.907  1.00  0.00    -0.337 OA 
ENDBRANCH  29  32
ENDBRANCH  28  29
ENDBRANCH  25  28
ENDBRANCH  24  25
ENDBRANCH   8  23
TORSDOF 8
ENDMDL
MODEL       48
REMARK 921   NORMALIZED FREE ENERGY PREDICTED BY IDOCK:   -6.35 KCAL/MOL
REMARK 922        TOTAL FREE ENERGY PREDICTED BY IDOCK:  -10.86 KCAL/MOL
REMARK 923 INTER-LIGAND FREE ENERGY PREDICTED BY IDOCK:   -9.00 KCAL/MOL
REMARK 924 INTRA-LIGAND FREE ENERGY PREDICTED BY IDOCK:   -1.86 KCAL/MOL
REMARK 927      BINDING AFFINITY PREDICTED BY RF-SCORE:    0.00 PKD
ROOT
HETATM    1  C   UNL     1     -10.548   6.919  66.788  1.00  0.00    -0.304 C  
HETATM    2  C   UNL     1     -10.628   8.231  67.584  1.00  0.00    -0.264 C  
HETATM    3  C   UNL     1      -9.795   8.095  68.862  1.00  0.00    -0.178 C  
HETATM    4  C   UNL     1     -10.169   9.442  66.778  1.00  0.00    -0.250 A  
HETATM    5  N   UNL     1      -9.271   9.179  65.800  1.00  0.00    -0.218 NA 
HETATM    6  C   UNL     1      -8.819  10.224  65.108  1.00  0.00    -0.184 A  
HETATM    7  N   UNL     1      -9.123  11.499  65.327  1.00  0.00    -0.090 NA 
HETATM    8  C   UNL     1     -10.604  10.748  67.073  1.00  0.00    -0.312 A  
HETATM    9  C   UNL     1      -9.984  11.775  66.343  1.00  0.00    -0.211 A  
ENDROOT
BRANCH   6  10
HETATM   10  N   UNL     1      -8.125   9.924  63.923  1.00  0.00    -0.143 N  
HETATM   11  C   UNL     1      -8.719   8.866  63.095  1.00  0.00    -0.045 C  
BRANCH  10  12
HETATM   12  S   UNL     1      -6.454   9.952  64.057  1.00  0.00    -0.131 S  
HETATM   13  C   UNL     1      -5.964   8.236  64.014  1.00  0.00    -0.066 C  
HETATM   14  O   UNL     1      -5.933  10.567  62.849  1.00  0.00    -0.144 OA 
HETATM   15  O   UNL     1      -6.084  10.471  65.353  1.00  0.00    -0.124 OA 
ENDBRANCH  10  12
ENDBRANCH   6  10
BRANCH   9  16
HETATM   16  C   UNL     1     -10.160  13.242  66.568  1.00  0.00    -0.275 A  
HETATM   17  F   UNL     1     -10.681  17.347  67.086  1.00  0.00    -0.335 F  
HETATM   18  C   UNL     1     -10.802  14.041  65.594  1.00  0.00    -0.295 A  
HETATM   19  C   UNL     1     -10.973  15.421  65.759  1.00  0.00    -0.311 A  
HETATM   20  C   UNL     1      -9.839  15.294  67.877  1.00  0.00    -0.216 A  
HETATM   21  C   UNL     1     -10.504  16.032  66.911  1.00  0.00    -0.306 A  
HETATM   22  C   UNL     1      -9.653  13.917  67.696  1.00  0.00    -0.215 A  
ENDBRANCH   9  16
BRANCH   8  23
HETATM   23  C   UNL     1     -11.654  10.949  68.090  1.00  0.00    -0.317 C  
HETATM   24  C   UNL     1     -11.413  11.300  69.369  1.00  0.00    -0.370 C  
BRANCH  24  25
HETATM   25  C   UNL     1     -12.455  11.709  70.391  1.00  0.00    -0.221 C  
HETATM   26  H   UNL     1     -13.006  11.145  72.196  1.00  0.00     0.000 HD 
HETATM   27  O   UNL     1     -12.353  10.889  71.555  1.00  0.00    -0.324 OA 
BRANCH  25  28
HETATM   28  C   UNL     1     -12.359  13.184  70.810  1.00  0.00    -0.404 C  
BRANCH  28  29
HETATM   29  C   UNL     1     -13.674  13.721  71.426  1.00  0.00    -0.126 C  
HETATM   30  O   UNL     1     -13.995  13.018  72.630  1.00  0.00    -0.731 OA 
HETATM   31  H   UNL     1     -14.802  13.347  73.008  1.00  0.00     0.000 HD 
BRANCH  29  32
HETATM   32  C   UNL     1     -13.577  15.196  71.818  1.00  0.00    -0.553 C  
HETATM   33  C   UNL     1     -12.974  15.382  73.182  1.00  0.00    -0.515 C  
HETATM   34  O   UNL     1     -12.121  14.655  73.665  1.00  0.00    -0.266 OA 
HETATM   35  O   UNL     1     -13.461  16.460  73.837  1.00  0.00    -0.560 OA 
ENDBRANCH  29  32
ENDBRANCH  28  29
ENDBRANCH  25  28
ENDBRANCH  24  25
ENDBRANCH   8  23
TORSDOF 8
ENDMDL
MODEL       49
REMARK 921   NORMALIZED FREE ENERGY PREDICTED BY IDOCK:   -6.33 KCAL/MOL
REMARK 922        TOTAL FREE ENERGY PREDICTED BY IDOCK:  -10.83 KCAL/MOL
REMARK 923 INTER-LIGAND FREE ENERGY PREDICTED BY IDOCK:   -8.66 KCAL/MOL
REMARK 924 INTRA-LIGAND FREE ENERGY PREDICTED BY IDOCK:   -2.16 KCAL/MOL
REMARK 927      BINDING AFFINITY PREDICTED BY RF-SCORE:    0.00 PKD
ROOT
HETATM    1  C   UNL     1     -13.161  11.966  71.800  1.00  0.00    -0.465 C  
HETATM    2  C   UNL     1     -12.633  10.586  71.378  1.00  0.00    -0.539 C  
HETATM    3  C   UNL     1     -13.797   9.592  71.342  1.00  0.00    -0.225 C  
HETATM    4  C   UNL     1     -11.916  10.613  70.031  1.00  0.00    -0.329 A  
HETATM    5  N   UNL     1     -12.320  11.585  69.180  1.00  0.00    -0.304 NA 
HETATM    6  C   UNL     1     -11.742  11.605  67.980  1.00  0.00    -0.281 A  
HETATM    7  N   UNL     1     -10.853  10.729  67.524  1.00  0.00    -0.267 NA 
HETATM    8  C   UNL     1     -10.947   9.654  69.678  1.00  0.00    -0.253 A  
HETATM    9  C   UNL     1     -10.483   9.718  68.356  1.00  0.00    -0.218 A  
ENDROOT
BRANCH   6  10
HETATM   10  N   UNL     1     -11.944  12.770  67.219  1.00  0.00    -0.343 N  
HETATM   11  C   UNL     1     -11.966  12.575  65.763  1.00  0.00    -0.420 C  
BRANCH  10  12
HETATM   12  S   UNL     1     -11.169  14.138  67.802  1.00  0.00    -0.302 S  
HETATM   13  C   UNL     1     -10.881  15.149  66.360  1.00  0.00    -0.326 C  
HETATM   14  O   UNL     1     -12.121  14.852  68.634  1.00  0.00    -0.266 OA 
HETATM   15  O   UNL     1      -9.876  13.768  68.332  1.00  0.00    -0.224 OA 
ENDBRANCH  10  12
ENDBRANCH   6  10
BRANCH   9  16
HETATM   16  C   UNL     1      -9.571   8.733  67.696  1.00  0.00    -0.179 A  
HETATM   17  F   UNL     1      -6.939   6.051  65.888  1.00  0.00    -0.055 F  
HETATM   18  C   UNL     1      -8.175   8.798  67.912  1.00  0.00    -0.111 A  
HETATM   19  C   UNL     1      -7.286   7.904  67.302  1.00  0.00    -0.092 A  
HETATM   20  C   UNL     1      -9.137   6.842  66.192  1.00  0.00    -0.138 A  
HETATM   21  C   UNL     1      -7.780   6.922  66.460  1.00  0.00    -0.101 A  
HETATM   22  C   UNL     1     -10.020   7.752  66.790  1.00  0.00    -0.331 A  
ENDBRANCH   9  16
BRANCH   8  23
HETATM   23  C   UNL     1     -10.489   8.682  70.689  1.00  0.00    -0.243 C  
HETATM   24  C   UNL     1      -9.412   8.862  71.480  1.00  0.00    -0.347 C  
BRANCH  24  25
HETATM   25  C   UNL     1      -9.020   7.995  72.660  1.00  0.00    -0.218 C  
HETATM   26  H   UNL     1      -7.838   8.142  74.229  1.00  0.00     0.000 HD 
HETATM   27  O   UNL     1      -8.084   8.685  73.490  1.00  0.00    -0.408 OA 
BRANCH  25  28
HETATM   28  C   UNL     1     -10.212   7.546  73.518  1.00  0.00    -0.380 C  
BRANCH  28  29
HETATM   29  C   UNL     1     -10.492   6.028  73.414  1.00  0.00    -0.249 C  
HETATM   30  O   UNL     1     -11.810   5.789  72.907  1.00  0.00    -0.522 OA 
HETATM   31  H   UNL     1     -11.982   4.857  72.843  1.00  0.00     0.000 HD 
BRANCH  29  32
HETATM   32  C   UNL     1      -9.540   5.321  72.448  1.00  0.00    -0.175 C  
HETATM   33  C   UNL     1      -9.528   3.833  72.652  1.00  0.00    -0.124 C  
HETATM   34  O   UNL     1     -10.492   3.176  73.010  1.00  0.00    -0.154 OA 
HETATM   35  O   UNL     1      -8.329   3.269  72.382  1.00  0.00    -0.076 OA 
ENDBRANCH  29  32
ENDBRANCH  28  29
ENDBRANCH  25  28
ENDBRANCH  24  25
ENDBRANCH   8  23
TORSDOF 8
ENDMDL
MODEL       50
REMARK 921   NORMALIZED FREE ENERGY PREDICTED BY IDOCK:   -6.31 KCAL/MOL
REMARK 922        TOTAL FREE ENERGY PREDICTED BY IDOCK:  -10.80 KCAL/MOL
REMARK 923 INTER-LIGAND FREE ENERGY PREDICTED BY IDOCK:  -10.20 KCAL/MOL
REMARK 924 INTRA-LIGAND FREE ENERGY PREDICTED BY IDOCK:   -0.60 KCAL/MOL
REMARK 927      BINDING AFFINITY PREDICTED BY RF-SCORE:    0.00 PKD
ROOT
HETATM    1  C   UNL     1     -10.526  11.279  65.171  1.00  0.00    -0.351 C  
HETATM    2  C   UNL     1     -11.333  12.412  65.824  1.00  0.00    -0.393 C  
HETATM    3  C   UNL     1     -12.710  12.496  65.159  1.00  0.00    -0.208 C  
HETATM    4  C   UNL     1     -11.481  12.239  67.333  1.00  0.00    -0.352 A  
HETATM    5  N   UNL     1     -11.435  10.962  67.776  1.00  0.00    -0.513 NA 
HETATM    6  C   UNL     1     -11.606  10.777  69.084  1.00  0.00    -0.305 A  
HETATM    7  N   UNL     1     -11.874  11.722  69.980  1.00  0.00    -0.341 NA 
HETATM    8  C   UNL     1     -11.712  13.330  68.193  1.00  0.00    -0.397 A  
HETATM    9  C   UNL     1     -11.975  13.002  69.532  1.00  0.00    -0.289 A  
ENDROOT
BRANCH   6  10
HETATM   10  N   UNL     1     -11.270   9.503  69.576  1.00  0.00    -0.139 N  
HETATM   11  C   UNL     1     -11.703   9.226  70.952  1.00  0.00    -0.296 C  
BRANCH  10  12
HETATM   12  S   UNL     1      -9.759   8.944  69.114  1.00  0.00    -0.172 S  
HETATM   13  C   UNL     1      -8.698  10.377  69.196  1.00  0.00    -0.166 C  
HETATM   14  O   UNL     1      -9.305   8.026  70.144  1.00  0.00    -0.155 OA 
HETATM   15  O   UNL     1      -9.804   8.522  67.733  1.00  0.00    -0.159 OA 
ENDBRANCH  10  12
ENDBRANCH   6  10
BRANCH   9  16
HETATM   16  C   UNL     1     -12.391  13.957  70.605  1.00  0.00    -0.451 A  
HETATM   17  F   UNL     1     -13.662  16.579  73.588  1.00  0.00    -0.507 F  
HETATM   18  C   UNL     1     -13.659  13.830  71.219  1.00  0.00    -0.170 A  
HETATM   19  C   UNL     1     -14.093  14.712  72.217  1.00  0.00    -0.588 A  
HETATM   20  C   UNL     1     -12.026  15.927  72.024  1.00  0.00    -0.602 A  
HETATM   21  C   UNL     1     -13.262  15.744  72.622  1.00  0.00    -0.502 A  
HETATM   22  C   UNL     1     -11.605  15.053  71.012  1.00  0.00    -0.367 A  
ENDBRANCH   9  16
BRANCH   8  23
HETATM   23  C   UNL     1     -11.656  14.702  67.654  1.00  0.00    -0.383 C  
HETATM   24  C   UNL     1     -10.676  15.585  67.930  1.00  0.00    -0.294 C  
BRANCH  24  25
HETATM   25  C   UNL     1     -10.468  16.924  67.251  1.00  0.00    -0.301 C  
HETATM   26  H   UNL     1     -10.613  18.827  67.738  1.00  0.00     0.000 HD 
HETATM   27  O   UNL     1     -10.743  17.988  68.163  1.00  0.00    -0.355 OA 
BRANCH  25  28
HETATM   28  C   UNL     1      -9.054  17.112  66.679  1.00  0.00    -0.280 C  
BRANCH  28  29
HETATM   29  C   UNL     1      -7.954  17.070  67.766  1.00  0.00    -0.185 C  
HETATM   30  O   UNL     1      -8.201  18.054  68.776  1.00  0.00    -0.289 OA 
HETATM   31  H   UNL     1      -7.524  18.029  69.443  1.00  0.00     0.000 HD 
BRANCH  29  32
HETATM   32  C   UNL     1      -7.901  15.728  68.496  1.00  0.00    -0.139 C  
HETATM   33  C   UNL     1      -7.067  14.716  67.762  1.00  0.00    -0.177 C  
HETATM   34  O   UNL     1      -6.084  14.985  67.091  1.00  0.00    -0.259 OA 
HETATM   35  O   UNL     1      -7.505  13.447  67.926  1.00  0.00    -0.116 OA 
ENDBRANCH  29  32
ENDBRANCH  28  29
ENDBRANCH  25  28
ENDBRANCH  24  25
ENDBRANCH   8  23
TORSDOF 8
ENDMDL
MODEL       51
REMARK 921   NORMALIZED FREE ENERGY PREDICTED BY IDOCK:   -6.30 KCAL/MOL
REMARK 922        TOTAL FREE ENERGY PREDICTED BY IDOCK:  -10.79 KCAL/MOL
REMARK 923 INTER-LIGAND FREE ENERGY PREDICTED BY IDOCK:   -9.38 KCAL/MOL
REMARK 924 INTRA-LIGAND FREE ENERGY PREDICTED BY IDOCK:   -1.41 KCAL/MOL
REMARK 927      BINDING AFFINITY PREDICTED BY RF-SCORE:    0.00 PKD
ROOT
HETATM    1  C   UNL     1     -10.006   7.412  67.300  1.00  0.00    -0.259 C  
HETATM    2  C   UNL     1      -9.841   8.597  68.265  1.00  0.00    -0.186 C  
HETATM    3  C   UNL     1      -8.544   8.421  69.060  1.00  0.00    -0.131 C  
HETATM    4  C   UNL     1      -9.848   9.946  67.552  1.00  0.00    -0.169 A  
HETATM    5  N   UNL     1      -9.422   9.924  66.267  1.00  0.00    -0.180 NA 
HETATM    6  C   UNL     1      -9.375  11.094  65.634  1.00  0.00    -0.219 A  
HETATM    7  N   UNL     1      -9.651  12.283  66.162  1.00  0.00    -0.245 NA 
HETATM    8  C   UNL     1     -10.212  11.139  68.207  1.00  0.00    -0.197 A  
HETATM    9  C   UNL     1     -10.028  12.318  67.469  1.00  0.00    -0.199 A  
ENDROOT
BRANCH   6  10
HETATM   10  N   UNL     1      -9.219  11.034  64.238  1.00  0.00    -0.184 N  
HETATM   11  C   UNL     1     -10.450  11.215  63.458  1.00  0.00    -0.358 C  
BRANCH  10  12
HETATM   12  S   UNL     1      -8.126   9.882  63.700  1.00  0.00    -0.162 S  
HETATM   13  C   UNL     1      -7.205  10.696  62.406  1.00  0.00    -0.112 C  
HETATM   14  O   UNL     1      -7.194   9.631  64.785  1.00  0.00    -0.107 OA 
HETATM   15  O   UNL     1      -8.844   8.786  63.091  1.00  0.00    -0.075 OA 
ENDBRANCH  10  12
ENDBRANCH   6  10
BRANCH   9  16
HETATM   16  C   UNL     1     -10.199  13.711  67.982  1.00  0.00    -0.248 A  
HETATM   17  F   UNL     1     -10.578  17.587  69.475  1.00  0.00    -0.332 F  
HETATM   18  C   UNL     1      -9.140  14.355  68.664  1.00  0.00    -0.178 A  
HETATM   19  C   UNL     1      -9.265  15.653  69.173  1.00  0.00    -0.254 A  
HETATM   20  C   UNL     1     -11.533  15.734  68.377  1.00  0.00    -0.367 A  
HETATM   21  C   UNL     1     -10.458  16.338  69.009  1.00  0.00    -0.276 A  
HETATM   22  C   UNL     1     -11.409  14.427  67.887  1.00  0.00    -0.322 A  
ENDBRANCH   9  16
BRANCH   8  23
HETATM   23  C   UNL     1     -10.755  11.075  69.578  1.00  0.00    -0.231 C  
HETATM   24  C   UNL     1     -12.033  11.360  69.900  1.00  0.00    -0.434 C  
BRANCH  24  25
HETATM   25  C   UNL     1     -12.685  11.119  71.247  1.00  0.00    -0.426 C  
HETATM   26  H   UNL     1     -13.786  12.142  72.520  1.00  0.00     0.000 HD 
HETATM   27  O   UNL     1     -13.378  12.292  71.676  1.00  0.00    -0.342 OA 
BRANCH  25  28
HETATM   28  C   UNL     1     -13.661   9.933  71.256  1.00  0.00    -0.265 C  
BRANCH  28  29
HETATM   29  C   UNL     1     -13.287   8.853  72.300  1.00  0.00    -0.449 C  
HETATM   30  O   UNL     1     -14.282   8.774  73.326  1.00  0.00    -1.164 OA 
HETATM   31  H   UNL     1     -14.052   8.111  73.968  1.00  0.00     0.000 HD 
BRANCH  29  32
HETATM   32  C   UNL     1     -13.203   7.453  71.692  1.00  0.00    -0.416 C  
HETATM   33  C   UNL     1     -11.831   7.147  71.162  1.00  0.00    -0.325 C  
HETATM   34  O   UNL     1     -10.792   7.570  71.644  1.00  0.00    -0.219 OA 
HETATM   35  O   UNL     1     -11.847   6.328  70.086  1.00  0.00    -0.349 OA 
ENDBRANCH  29  32
ENDBRANCH  28  29
ENDBRANCH  25  28
ENDBRANCH  24  25
ENDBRANCH   8  23
TORSDOF 8
ENDMDL
MODEL       52
REMARK 921   NORMALIZED FREE ENERGY PREDICTED BY IDOCK:   -6.30 KCAL/MOL
REMARK 922        TOTAL FREE ENERGY PREDICTED BY IDOCK:  -10.79 KCAL/MOL
REMARK 923 INTER-LIGAND FREE ENERGY PREDICTED BY IDOCK:   -9.21 KCAL/MOL
REMARK 924 INTRA-LIGAND FREE ENERGY PREDICTED BY IDOCK:   -1.58 KCAL/MOL
REMARK 927      BINDING AFFINITY PREDICTED BY RF-SCORE:    0.00 PKD
ROOT
HETATM    1  C   UNL     1     -13.187  10.837  71.373  1.00  0.00    -0.384 C  
HETATM    2  C   UNL     1     -12.477  11.447  70.154  1.00  0.00    -0.271 C  
HETATM    3  C   UNL     1     -12.039  12.876  70.491  1.00  0.00    -0.364 C  
HETATM    4  C   UNL     1     -11.281  10.621  69.691  1.00  0.00    -0.289 A  
HETATM    5  N   UNL     1     -10.678   9.884  70.653  1.00  0.00    -0.310 NA 
HETATM    6  C   UNL     1      -9.605   9.187  70.287  1.00  0.00    -0.213 A  
HETATM    7  N   UNL     1      -9.039   9.194  69.084  1.00  0.00    -0.142 NA 
HETATM    8  C   UNL     1     -10.801  10.673  68.368  1.00  0.00    -0.282 A  
HETATM    9  C   UNL     1      -9.608   9.975  68.127  1.00  0.00    -0.139 A  
ENDROOT
BRANCH   6  10
HETATM   10  N   UNL     1      -9.164   8.210  71.197  1.00  0.00    -0.148 N  
HETATM   11  C   UNL     1      -7.711   8.147  71.399  1.00  0.00    -0.092 C  
BRANCH  10  12
HETATM   12  S   UNL     1      -9.998   6.757  71.132  1.00  0.00    -0.180 S  
HETATM   13  C   UNL     1      -8.742   5.524  70.830  1.00  0.00    -0.135 C  
HETATM   14  O   UNL     1     -10.526   6.502  72.460  1.00  0.00    -0.195 OA 
HETATM   15  O   UNL     1     -10.879   6.760  69.987  1.00  0.00    -0.234 OA 
ENDBRANCH  10  12
ENDBRANCH   6  10
BRANCH   9  16
HETATM   16  C   UNL     1      -8.821   9.993  66.855  1.00  0.00    -0.142 A  
HETATM   17  F   UNL     1      -6.701   9.967  63.264  1.00  0.00    -0.105 F  
HETATM   18  C   UNL     1      -9.342   9.390  65.686  1.00  0.00    -0.309 A  
HETATM   19  C   UNL     1      -8.631   9.373  64.480  1.00  0.00    -0.219 A  
HETATM   20  C   UNL     1      -6.815  10.534  65.547  1.00  0.00    -0.100 A  
HETATM   21  C   UNL     1      -7.379   9.962  64.419  1.00  0.00    -0.133 A  
HETATM   22  C   UNL     1      -7.523  10.531  66.757  1.00  0.00    -0.115 A  
ENDBRANCH   9  16
BRANCH   8  23
HETATM   23  C   UNL     1     -11.562  11.424  67.351  1.00  0.00    -0.266 C  
HETATM   24  C   UNL     1     -11.098  12.516  66.711  1.00  0.00    -0.323 C  
BRANCH  24  25
HETATM   25  C   UNL     1     -11.753  13.199  65.527  1.00  0.00    -0.357 C  
HETATM   26  H   UNL     1     -13.381  12.963  64.444  1.00  0.00     0.000 HD 
HETATM   27  O   UNL     1     -12.971  12.535  65.187  1.00  0.00    -0.700 OA 
BRANCH  25  28
HETATM   28  C   UNL     1     -12.046  14.689  65.759  1.00  0.00    -0.201 C  
BRANCH  28  29
HETATM   29  C   UNL     1     -11.119  15.620  64.941  1.00  0.00    -0.402 C  
HETATM   30  O   UNL     1     -11.819  16.178  63.824  1.00  0.00    -1.408 OA 
HETATM   31  H   UNL     1     -11.250  16.750  63.322  1.00  0.00     0.000 HD 
BRANCH  29  32
HETATM   32  C   UNL     1     -10.617  16.812  65.757  1.00  0.00    -0.259 C  
HETATM   33  C   UNL     1      -9.349  16.497  66.498  1.00  0.00    -0.269 C  
HETATM   34  O   UNL     1      -8.482  15.737  66.096  1.00  0.00    -0.291 OA 
HETATM   35  O   UNL     1      -9.241  17.159  67.673  1.00  0.00    -0.234 OA 
ENDBRANCH  29  32
ENDBRANCH  28  29
ENDBRANCH  25  28
ENDBRANCH  24  25
ENDBRANCH   8  23
TORSDOF 8
ENDMDL
MODEL       53
REMARK 921   NORMALIZED FREE ENERGY PREDICTED BY IDOCK:   -6.28 KCAL/MOL
REMARK 922        TOTAL FREE ENERGY PREDICTED BY IDOCK:  -10.76 KCAL/MOL
REMARK 923 INTER-LIGAND FREE ENERGY PREDICTED BY IDOCK:   -8.96 KCAL/MOL
REMARK 924 INTRA-LIGAND FREE ENERGY PREDICTED BY IDOCK:   -1.80 KCAL/MOL
REMARK 927      BINDING AFFINITY PREDICTED BY RF-SCORE:    0.00 PKD
ROOT
HETATM    1  C   UNL     1      -8.316   7.122  69.583  1.00  0.00    -0.133 C  
HETATM    2  C   UNL     1      -8.660   8.619  69.532  1.00  0.00    -0.131 C  
HETATM    3  C   UNL     1      -7.503   9.422  70.133  1.00  0.00    -0.120 C  
HETATM    4  C   UNL     1      -8.968   9.108  68.120  1.00  0.00    -0.129 A  
HETATM    5  N   UNL     1      -8.371   8.413  67.124  1.00  0.00    -0.121 NA 
HETATM    6  C   UNL     1      -8.587   8.844  65.883  1.00  0.00    -0.158 A  
HETATM    7  N   UNL     1      -9.284   9.922  65.538  1.00  0.00    -0.186 NA 
HETATM    8  C   UNL     1      -9.769  10.241  67.877  1.00  0.00    -0.165 A  
HETATM    9  C   UNL     1      -9.843  10.656  66.538  1.00  0.00    -0.204 A  
ENDROOT
BRANCH   6  10
HETATM   10  N   UNL     1      -8.215   7.964  64.851  1.00  0.00    -0.145 N  
HETATM   11  C   UNL     1      -8.091   6.554  65.241  1.00  0.00    -0.133 C  
BRANCH  10  12
HETATM   12  S   UNL     1      -7.077   8.573  63.781  1.00  0.00    -0.094 S  
HETATM   13  C   UNL     1      -6.122   7.152  63.274  1.00  0.00    -0.045 C  
HETATM   14  O   UNL     1      -7.794   9.037  62.606  1.00  0.00    -0.118 OA 
HETATM   15  O   UNL     1      -6.182   9.462  64.485  1.00  0.00    -0.074 OA 
ENDBRANCH  10  12
ENDBRANCH   6  10
BRANCH   9  16
HETATM   16  C   UNL     1     -10.500  11.903  66.041  1.00  0.00    -0.282 A  
HETATM   17  F   UNL     1     -12.235  15.438  64.667  1.00  0.00    -0.308 F  
HETATM   18  C   UNL     1      -9.722  13.038  65.714  1.00  0.00    -0.157 A  
HETATM   19  C   UNL     1     -10.300  14.229  65.259  1.00  0.00    -0.417 A  
HETATM   20  C   UNL     1     -12.480  13.233  65.460  1.00  0.00    -0.531 A  
HETATM   21  C   UNL     1     -11.676  14.309  65.120  1.00  0.00    -0.368 A  
HETATM   22  C   UNL     1     -11.898  12.050  65.934  1.00  0.00    -0.232 A  
ENDBRANCH   9  16
BRANCH   8  23
HETATM   23  C   UNL     1     -10.463  10.892  69.004  1.00  0.00    -0.244 C  
HETATM   24  C   UNL     1     -11.507  10.352  69.664  1.00  0.00    -0.326 C  
BRANCH  24  25
HETATM   25  C   UNL     1     -12.122  10.884  70.943  1.00  0.00    -0.349 C  
HETATM   26  H   UNL     1     -12.782  12.614  71.617  1.00  0.00     0.000 HD 
HETATM   27  O   UNL     1     -12.397  12.280  70.815  1.00  0.00    -0.377 OA 
BRANCH  25  28
HETATM   28  C   UNL     1     -13.411  10.158  71.356  1.00  0.00    -0.413 C  
BRANCH  28  29
HETATM   29  C   UNL     1     -13.153   8.972  72.316  1.00  0.00    -0.445 C  
HETATM   30  O   UNL     1     -14.173   8.899  73.318  1.00  0.00    -1.197 OA 
HETATM   31  H   UNL     1     -14.014   8.171  73.908  1.00  0.00     0.000 HD 
BRANCH  29  32
HETATM   32  C   UNL     1     -13.177   7.622  71.599  1.00  0.00    -0.395 C  
HETATM   33  C   UNL     1     -11.795   7.108  71.312  1.00  0.00    -0.318 C  
HETATM   34  O   UNL     1     -10.822   7.305  72.022  1.00  0.00    -0.225 OA 
HETATM   35  O   UNL     1     -11.724   6.376  70.176  1.00  0.00    -0.422 OA 
ENDBRANCH  29  32
ENDBRANCH  28  29
ENDBRANCH  25  28
ENDBRANCH  24  25
ENDBRANCH   8  23
TORSDOF 8
ENDMDL
MODEL       54
REMARK 921   NORMALIZED FREE ENERGY PREDICTED BY IDOCK:   -6.27 KCAL/MOL
REMARK 922        TOTAL FREE ENERGY PREDICTED BY IDOCK:  -10.75 KCAL/MOL
REMARK 923 INTER-LIGAND FREE ENERGY PREDICTED BY IDOCK:   -9.00 KCAL/MOL
REMARK 924 INTRA-LIGAND FREE ENERGY PREDICTED BY IDOCK:   -1.75 KCAL/MOL
REMARK 927      BINDING AFFINITY PREDICTED BY RF-SCORE:    0.00 PKD
ROOT
HETATM    1  C   UNL     1     -12.489  13.010  71.027  1.00  0.00    -0.385 C  
HETATM    2  C   UNL     1     -12.162  11.531  70.766  1.00  0.00    -0.463 C  
HETATM    3  C   UNL     1     -13.399  10.681  71.071  1.00  0.00    -0.125 C  
HETATM    4  C   UNL     1     -11.680  11.274  69.341  1.00  0.00    -0.339 A  
HETATM    5  N   UNL     1     -12.133  12.147  68.411  1.00  0.00    -0.356 NA 
HETATM    6  C   UNL     1     -11.764  11.921  67.152  1.00  0.00    -0.236 A  
HETATM    7  N   UNL     1     -11.044  10.891  66.719  1.00  0.00    -0.210 NA 
HETATM    8  C   UNL     1     -10.872  10.169  69.011  1.00  0.00    -0.257 A  
HETATM    9  C   UNL     1     -10.631   9.981  67.642  1.00  0.00    -0.270 A  
ENDROOT
BRANCH   6  10
HETATM   10  N   UNL     1     -11.986  12.973  66.246  1.00  0.00    -0.410 N  
HETATM   11  C   UNL     1     -12.439  12.568  64.909  1.00  0.00    -0.450 C  
BRANCH  10  12
HETATM   12  S   UNL     1     -10.879  14.229  66.338  1.00  0.00    -0.312 S  
HETATM   13  C   UNL     1     -11.451  15.242  67.693  1.00  0.00    -0.280 C  
HETATM   14  O   UNL     1      -9.610  13.657  66.749  1.00  0.00    -0.258 OA 
HETATM   15  O   UNL     1     -10.961  15.031  65.139  1.00  0.00    -0.356 OA 
ENDBRANCH  10  12
ENDBRANCH   6  10
BRANCH   9  16
HETATM   16  C   UNL     1      -9.932   8.811  67.026  1.00  0.00    -0.307 A  
HETATM   17  F   UNL     1      -8.053   5.478  65.367  1.00  0.00    -0.102 F  
HETATM   18  C   UNL     1     -10.473   7.510  67.150  1.00  0.00    -0.407 A  
HETATM   19  C   UNL     1      -9.843   6.388  66.601  1.00  0.00    -0.203 A  
HETATM   20  C   UNL     1      -8.067   7.795  65.794  1.00  0.00    -0.125 A  
HETATM   21  C   UNL     1      -8.652   6.544  65.912  1.00  0.00    -0.149 A  
HETATM   22  C   UNL     1      -8.693   8.913  66.363  1.00  0.00    -0.148 A  
ENDBRANCH   9  16
BRANCH   8  23
HETATM   23  C   UNL     1     -10.339   9.314  70.089  1.00  0.00    -0.258 C  
HETATM   24  C   UNL     1      -9.029   9.191  70.381  1.00  0.00    -0.263 C  
BRANCH  24  25
HETATM   25  C   UNL     1      -8.449   8.490  71.593  1.00  0.00    -0.178 C  
HETATM   26  H   UNL     1      -6.943   8.760  72.833  1.00  0.00     0.000 HD 
HETATM   27  O   UNL     1      -7.306   9.199  72.074  1.00  0.00    -0.335 OA 
BRANCH  25  28
HETATM   28  C   UNL     1      -9.451   8.320  72.744  1.00  0.00    -0.343 C  
BRANCH  28  29
HETATM   29  C   UNL     1      -9.880   6.848  72.958  1.00  0.00    -0.179 C  
HETATM   30  O   UNL     1      -9.430   6.368  74.229  1.00  0.00    -0.171 OA 
HETATM   31  H   UNL     1      -9.693   5.464  74.360  1.00  0.00     0.000 HD 
BRANCH  29  32
HETATM   32  C   UNL     1     -11.399   6.675  72.961  1.00  0.00    -0.099 C  
HETATM   33  C   UNL     1     -11.961   6.574  71.571  1.00  0.00    -0.329 C  
HETATM   34  O   UNL     1     -11.379   6.069  70.624  1.00  0.00    -0.311 OA 
HETATM   35  O   UNL     1     -13.206   7.093  71.462  1.00  0.00    -0.383 OA 
ENDBRANCH  29  32
ENDBRANCH  28  29
ENDBRANCH  25  28
ENDBRANCH  24  25
ENDBRANCH   8  23
TORSDOF 8
ENDMDL
MODEL       55
REMARK 921   NORMALIZED FREE ENERGY PREDICTED BY IDOCK:   -6.26 KCAL/MOL
REMARK 922        TOTAL FREE ENERGY PREDICTED BY IDOCK:  -10.73 KCAL/MOL
REMARK 923 INTER-LIGAND FREE ENERGY PREDICTED BY IDOCK:   -9.96 KCAL/MOL
REMARK 924 INTRA-LIGAND FREE ENERGY PREDICTED BY IDOCK:   -0.77 KCAL/MOL
REMARK 927      BINDING AFFINITY PREDICTED BY RF-SCORE:    0.00 PKD
ROOT
HETATM    1  C   UNL     1      -9.574  11.368  63.086  1.00  0.00    -0.398 C  
HETATM    2  C   UNL     1     -10.534  12.082  64.051  1.00  0.00    -0.410 C  
HETATM    3  C   UNL     1     -11.913  12.198  63.395  1.00  0.00    -0.578 C  
HETATM    4  C   UNL     1     -10.645  11.382  65.401  1.00  0.00    -0.275 A  
HETATM    5  N   UNL     1     -10.411  10.049  65.383  1.00  0.00    -0.165 NA 
HETATM    6  C   UNL     1     -10.544   9.403  66.540  1.00  0.00    -0.054 A  
HETATM    7  N   UNL     1     -10.941   9.934  67.692  1.00  0.00    -0.264 NA 
HETATM    8  C   UNL     1     -11.027  12.066  66.572  1.00  0.00    -0.337 A  
HETATM    9  C   UNL     1     -11.230  11.263  67.705  1.00  0.00    -0.291 A  
ENDROOT
BRANCH   6  10
HETATM   10  N   UNL     1     -10.023   8.098  66.581  1.00  0.00    -0.267 N  
HETATM   11  C   UNL     1     -10.760   7.153  67.431  1.00  0.00    -0.298 C  
BRANCH  10  12
HETATM   12  S   UNL     1      -8.349   8.006  66.595  1.00  0.00    -0.124 S  
HETATM   13  C   UNL     1      -7.980   6.562  67.579  1.00  0.00    -0.114 C  
HETATM   14  O   UNL     1      -7.922   7.710  65.239  1.00  0.00    -0.114 OA 
HETATM   15  O   UNL     1      -7.811   9.150  67.293  1.00  0.00    -0.098 OA 
ENDBRANCH  10  12
ENDBRANCH   6  10
BRANCH   9  16
HETATM   16  C   UNL     1     -11.774  11.722  69.020  1.00  0.00    -0.390 A  
HETATM   17  F   UNL     1     -13.337  12.897  72.703  1.00  0.00    -0.595 F  
HETATM   18  C   UNL     1     -12.294  10.785  69.943  1.00  0.00    -0.340 A  
HETATM   19  C   UNL     1     -12.826  11.175  71.178  1.00  0.00    -0.473 A  
HETATM   20  C   UNL     1     -12.381  13.474  70.629  1.00  0.00    -0.432 A  
HETATM   21  C   UNL     1     -12.848  12.518  71.516  1.00  0.00    -0.265 A  
HETATM   22  C   UNL     1     -11.868  13.080  69.386  1.00  0.00    -0.380 A  
ENDBRANCH   9  16
BRANCH   8  23
HETATM   23  C   UNL     1     -11.175  13.533  66.537  1.00  0.00    -0.322 C  
HETATM   24  C   UNL     1     -10.212  14.401  66.908  1.00  0.00    -0.265 C  
BRANCH  24  25
HETATM   25  C   UNL     1     -10.241  15.902  66.705  1.00  0.00    -0.288 C  
HETATM   26  H   UNL     1     -10.579  17.501  67.804  1.00  0.00     0.000 HD 
HETATM   27  O   UNL     1     -10.560  16.560  67.932  1.00  0.00    -0.308 OA 
BRANCH  25  28
HETATM   28  C   UNL     1      -8.925  16.476  66.159  1.00  0.00    -0.344 C  
BRANCH  28  29
HETATM   29  C   UNL     1      -8.281  17.515  67.108  1.00  0.00    -0.212 C  
HETATM   30  O   UNL     1      -6.862  17.337  67.169  1.00  0.00    -0.154 OA 
HETATM   31  H   UNL     1      -6.467  17.975  67.752  1.00  0.00     0.000 HD 
BRANCH  29  32
HETATM   32  C   UNL     1      -8.501  18.953  66.638  1.00  0.00    -0.308 C  
HETATM   33  C   UNL     1      -9.410  19.718  67.557  1.00  0.00    -0.340 C  
HETATM   34  O   UNL     1      -9.477  19.547  68.764  1.00  0.00    -0.379 OA 
HETATM   35  O   UNL     1     -10.156  20.647  66.916  1.00  0.00    -0.384 OA 
ENDBRANCH  29  32
ENDBRANCH  28  29
ENDBRANCH  25  28
ENDBRANCH  24  25
ENDBRANCH   8  23
TORSDOF 8
ENDMDL
MODEL       56
REMARK 921   NORMALIZED FREE ENERGY PREDICTED BY IDOCK:   -6.26 KCAL/MOL
REMARK 922        TOTAL FREE ENERGY PREDICTED BY IDOCK:  -10.73 KCAL/MOL
REMARK 923 INTER-LIGAND FREE ENERGY PREDICTED BY IDOCK:   -8.92 KCAL/MOL
REMARK 924 INTRA-LIGAND FREE ENERGY PREDICTED BY IDOCK:   -1.81 KCAL/MOL
REMARK 927      BINDING AFFINITY PREDICTED BY RF-SCORE:    0.00 PKD
ROOT
HETATM    1  C   UNL     1     -11.669   6.537  71.093  1.00  0.00    -0.392 C  
HETATM    2  C   UNL     1     -11.563   8.066  70.990  1.00  0.00    -0.303 C  
HETATM    3  C   UNL     1     -10.807   8.601  72.210  1.00  0.00    -0.392 C  
HETATM    4  C   UNL     1     -10.887   8.528  69.702  1.00  0.00    -0.151 A  
HETATM    5  N   UNL     1     -10.011   7.649  69.162  1.00  0.00    -0.176 NA 
HETATM    6  C   UNL     1      -9.373   8.043  68.061  1.00  0.00    -0.138 A  
HETATM    7  N   UNL     1      -9.475   9.235  67.481  1.00  0.00    -0.130 NA 
HETATM    8  C   UNL     1     -11.115   9.804  69.152  1.00  0.00    -0.158 A  
HETATM    9  C   UNL     1     -10.314  10.142  68.050  1.00  0.00    -0.190 A  
ENDROOT
BRANCH   6  10
HETATM   10  N   UNL     1      -8.697   7.038  67.348  1.00  0.00    -0.120 N  
HETATM   11  C   UNL     1      -7.560   7.497  66.539  1.00  0.00    -0.089 C  
BRANCH  10  12
HETATM   12  S   UNL     1      -9.684   5.854  66.689  1.00  0.00    -0.159 S  
HETATM   13  C   UNL     1      -9.589   4.490  67.838  1.00  0.00    -0.157 C  
HETATM   14  O   UNL     1     -11.048   6.351  66.740  1.00  0.00    -0.358 OA 
HETATM   15  O   UNL     1      -9.122   5.401  65.438  1.00  0.00    -0.154 OA 
ENDBRANCH  10  12
ENDBRANCH   6  10
BRANCH   9  16
HETATM   16  C   UNL     1     -10.258  11.478  67.382  1.00  0.00    -0.228 A  
HETATM   17  F   UNL     1     -10.032  15.242  65.601  1.00  0.00    -0.299 F  
HETATM   18  C   UNL     1      -9.307  12.441  67.792  1.00  0.00    -0.196 A  
HETATM   19  C   UNL     1      -9.231  13.709  67.202  1.00  0.00    -0.244 A  
HETATM   20  C   UNL     1     -11.081  13.140  65.773  1.00  0.00    -0.293 A  
HETATM   21  C   UNL     1     -10.110  14.040  66.184  1.00  0.00    -0.309 A  
HETATM   22  C   UNL     1     -11.164  11.880  66.381  1.00  0.00    -0.387 A  
ENDBRANCH   9  16
BRANCH   8  23
HETATM   23  C   UNL     1     -12.153  10.672  69.740  1.00  0.00    -0.343 C  
HETATM   24  C   UNL     1     -11.912  11.613  70.675  1.00  0.00    -0.356 C  
BRANCH  24  25
HETATM   25  C   UNL     1     -12.898  12.656  71.161  1.00  0.00    -0.220 C  
HETATM   26  H   UNL     1     -14.204  12.836  72.625  1.00  0.00     0.000 HD 
HETATM   27  O   UNL     1     -13.586  12.183  72.320  1.00  0.00    -0.432 OA 
BRANCH  25  28
HETATM   28  C   UNL     1     -12.252  14.012  71.484  1.00  0.00    -0.285 C  
BRANCH  28  29
HETATM   29  C   UNL     1     -12.276  14.991  70.286  1.00  0.00    -0.340 C  
HETATM   30  O   UNL     1     -13.513  15.711  70.244  1.00  0.00    -0.761 OA 
HETATM   31  H   UNL     1     -13.528  16.312  69.508  1.00  0.00     0.000 HD 
BRANCH  29  32
HETATM   32  C   UNL     1     -11.179  16.053  70.375  1.00  0.00    -0.401 C  
HETATM   33  C   UNL     1     -10.731  16.520  69.019  1.00  0.00    -0.332 C  
HETATM   34  O   UNL     1     -11.455  16.597  68.040  1.00  0.00    -0.167 OA 
HETATM   35  O   UNL     1      -9.425  16.869  68.982  1.00  0.00    -0.256 OA 
ENDBRANCH  29  32
ENDBRANCH  28  29
ENDBRANCH  25  28
ENDBRANCH  24  25
ENDBRANCH   8  23
TORSDOF 8
ENDMDL
MODEL       57
REMARK 921   NORMALIZED FREE ENERGY PREDICTED BY IDOCK:   -6.25 KCAL/MOL
REMARK 922        TOTAL FREE ENERGY PREDICTED BY IDOCK:  -10.71 KCAL/MOL
REMARK 923 INTER-LIGAND FREE ENERGY PREDICTED BY IDOCK:   -8.87 KCAL/MOL
REMARK 924 INTRA-LIGAND FREE ENERGY PREDICTED BY IDOCK:   -1.84 KCAL/MOL
REMARK 927      BINDING AFFINITY PREDICTED BY RF-SCORE:    0.00 PKD
ROOT
HETATM    1  C   UNL     1      -7.702   9.111  70.917  1.00  0.00    -0.152 C  
HETATM    2  C   UNL     1      -7.758  10.165  69.800  1.00  0.00    -0.176 C  
HETATM    3  C   UNL     1      -6.380  10.275  69.143  1.00  0.00    -0.045 C  
HETATM    4  C   UNL     1      -8.824   9.861  68.752  1.00  0.00    -0.136 A  
HETATM    5  N   UNL     1      -9.130   8.551  68.600  1.00  0.00    -0.139 NA 
HETATM    6  C   UNL     1     -10.025   8.252  67.661  1.00  0.00    -0.190 A  
HETATM    7  N   UNL     1     -10.599   9.110  66.824  1.00  0.00    -0.191 NA 
HETATM    8  C   UNL     1      -9.401  10.869  67.955  1.00  0.00    -0.160 A  
HETATM    9  C   UNL     1     -10.256  10.422  66.936  1.00  0.00    -0.227 A  
ENDROOT
BRANCH   6  10
HETATM   10  N   UNL     1     -10.551   6.948  67.704  1.00  0.00    -0.231 N  
HETATM   11  C   UNL     1     -11.121   6.541  68.994  1.00  0.00    -0.310 C  
BRANCH  10  12
HETATM   12  S   UNL     1      -9.669   5.803  66.854  1.00  0.00    -0.159 S  
HETATM   13  C   UNL     1      -8.879   4.812  68.111  1.00  0.00    -0.104 C  
HETATM   14  O   UNL     1     -10.621   4.941  66.176  1.00  0.00    -0.309 OA 
HETATM   15  O   UNL     1      -8.623   6.461  66.105  1.00  0.00    -0.133 OA 
ENDBRANCH  10  12
ENDBRANCH   6  10
BRANCH   9  16
HETATM   16  C   UNL     1     -10.873  11.272  65.872  1.00  0.00    -0.264 A  
HETATM   17  F   UNL     1     -12.508  13.616  62.835  1.00  0.00    -0.483 F  
HETATM   18  C   UNL     1     -10.395  11.210  64.542  1.00  0.00    -0.400 A  
HETATM   19  C   UNL     1     -10.936  11.999  63.520  1.00  0.00    -0.514 A  
HETATM   20  C   UNL     1     -12.450  12.991  65.105  1.00  0.00    -0.552 A  
HETATM   21  C   UNL     1     -11.972  12.872  63.810  1.00  0.00    -0.512 A  
HETATM   22  C   UNL     1     -11.891  12.212  66.128  1.00  0.00    -0.327 A  
ENDBRANCH   9  16
BRANCH   8  23
HETATM   23  C   UNL     1      -9.091  12.283  68.239  1.00  0.00    -0.187 C  
HETATM   24  C   UNL     1      -8.501  13.120  67.362  1.00  0.00    -0.201 C  
BRANCH  24  25
HETATM   25  C   UNL     1      -8.343  14.617  67.530  1.00  0.00    -0.190 C  
HETATM   26  H   UNL     1      -6.868  15.923  67.522  1.00  0.00     0.000 HD 
HETATM   27  O   UNL     1      -6.967  14.984  67.417  1.00  0.00    -0.193 OA 
BRANCH  25  28
HETATM   28  C   UNL     1      -9.162  15.440  66.524  1.00  0.00    -0.323 C  
BRANCH  28  29
HETATM   29  C   UNL     1     -10.378  16.146  67.171  1.00  0.00    -0.291 C  
HETATM   30  O   UNL     1     -11.281  15.188  67.733  1.00  0.00    -0.304 OA 
HETATM   31  H   UNL     1     -12.028  15.621  68.130  1.00  0.00     0.000 HD 
BRANCH  29  32
HETATM   32  C   UNL     1      -9.976  17.066  68.324  1.00  0.00    -0.285 C  
HETATM   33  C   UNL     1     -10.081  18.518  67.954  1.00  0.00    -0.369 C  
HETATM   34  O   UNL     1     -10.909  18.977  67.183  1.00  0.00    -0.462 OA 
HETATM   35  O   UNL     1      -9.165  19.294  68.577  1.00  0.00    -0.353 OA 
ENDBRANCH  29  32
ENDBRANCH  28  29
ENDBRANCH  25  28
ENDBRANCH  24  25
ENDBRANCH   8  23
TORSDOF 8
ENDMDL
MODEL       58
REMARK 921   NORMALIZED FREE ENERGY PREDICTED BY IDOCK:   -6.24 KCAL/MOL
REMARK 922        TOTAL FREE ENERGY PREDICTED BY IDOCK:  -10.70 KCAL/MOL
REMARK 923 INTER-LIGAND FREE ENERGY PREDICTED BY IDOCK:   -9.37 KCAL/MOL
REMARK 924 INTRA-LIGAND FREE ENERGY PREDICTED BY IDOCK:   -1.33 KCAL/MOL
REMARK 927      BINDING AFFINITY PREDICTED BY RF-SCORE:    0.00 PKD
ROOT
HETATM    1  C   UNL     1     -10.523  13.987  64.687  1.00  0.00    -0.398 C  
HETATM    2  C   UNL     1     -11.303  12.941  65.498  1.00  0.00    -0.340 C  
HETATM    3  C   UNL     1     -12.635  12.654  64.798  1.00  0.00    -0.530 C  
HETATM    4  C   UNL     1     -10.521  11.646  65.701  1.00  0.00    -0.268 A  
HETATM    5  N   UNL     1      -9.608  11.365  64.743  1.00  0.00    -0.232 NA 
HETATM    6  C   UNL     1      -8.941  10.219  64.872  1.00  0.00    -0.201 A  
HETATM    7  N   UNL     1      -9.131   9.305  65.818  1.00  0.00    -0.193 NA 
HETATM    8  C   UNL     1     -10.778  10.777  66.779  1.00  0.00    -0.291 A  
HETATM    9  C   UNL     1     -10.085   9.557  66.754  1.00  0.00    -0.245 A  
ENDROOT
BRANCH   6  10
HETATM   10  N   UNL     1      -7.807  10.071  64.054  1.00  0.00    -0.148 N  
HETATM   11  C   UNL     1      -7.898   9.015  63.038  1.00  0.00    -0.131 C  
BRANCH  10  12
HETATM   12  S   UNL     1      -6.339  10.259  64.842  1.00  0.00    -0.094 S  
HETATM   13  C   UNL     1      -5.848   8.603  65.293  1.00  0.00    -0.048 C  
HETATM   14  O   UNL     1      -5.379  10.729  63.860  1.00  0.00    -0.156 OA 
HETATM   15  O   UNL     1      -6.543  10.994  66.069  1.00  0.00    -0.111 OA 
ENDBRANCH  10  12
ENDBRANCH   6  10
BRANCH   9  16
HETATM   16  C   UNL     1     -10.288   8.412  67.694  1.00  0.00    -0.317 A  
HETATM   17  F   UNL     1     -10.926   5.170  70.238  1.00  0.00    -0.297 F  
HETATM   18  C   UNL     1     -10.937   7.235  67.254  1.00  0.00    -0.284 A  
HETATM   19  C   UNL     1     -11.160   6.147  68.106  1.00  0.00    -0.328 A  
HETATM   20  C   UNL     1     -10.124   7.360  69.906  1.00  0.00    -0.195 A  
HETATM   21  C   UNL     1     -10.734   6.214  69.422  1.00  0.00    -0.320 A  
HETATM   22  C   UNL     1      -9.922   8.454  69.054  1.00  0.00    -0.194 A  
ENDBRANCH   9  16
BRANCH   8  23
HETATM   23  C   UNL     1     -11.721  11.193  67.836  1.00  0.00    -0.260 C  
HETATM   24  C   UNL     1     -11.423  12.073  68.812  1.00  0.00    -0.355 C  
BRANCH  24  25
HETATM   25  C   UNL     1     -12.407  12.679  69.793  1.00  0.00    -0.025 C  
HETATM   26  H   UNL     1     -12.805  12.529  71.716  1.00  0.00     0.000 HD 
HETATM   27  O   UNL     1     -12.189  12.150  71.102  1.00  0.00    -0.248 OA 
BRANCH  25  28
HETATM   28  C   UNL     1     -12.345  14.213  69.860  1.00  0.00    -0.382 C  
BRANCH  28  29
HETATM   29  C   UNL     1     -11.611  14.732  71.119  1.00  0.00    -0.270 C  
HETATM   30  O   UNL     1     -10.290  15.175  70.791  1.00  0.00    -0.493 OA 
HETATM   31  H   UNL     1      -9.839  15.493  71.564  1.00  0.00     0.000 HD 
BRANCH  29  32
HETATM   32  C   UNL     1     -12.309  15.937  71.750  1.00  0.00    -0.533 C  
HETATM   33  C   UNL     1     -12.882  15.618  73.102  1.00  0.00    -0.509 C  
HETATM   34  O   UNL     1     -12.392  14.826  73.891  1.00  0.00    -0.481 OA 
HETATM   35  O   UNL     1     -14.008  16.313  73.380  1.00  0.00    -0.500 OA 
ENDBRANCH  29  32
ENDBRANCH  28  29
ENDBRANCH  25  28
ENDBRANCH  24  25
ENDBRANCH   8  23
TORSDOF 8
ENDMDL
MODEL       59
REMARK 921   NORMALIZED FREE ENERGY PREDICTED BY IDOCK:   -6.22 KCAL/MOL
REMARK 922        TOTAL FREE ENERGY PREDICTED BY IDOCK:  -10.68 KCAL/MOL
REMARK 923 INTER-LIGAND FREE ENERGY PREDICTED BY IDOCK:   -8.91 KCAL/MOL
REMARK 924 INTRA-LIGAND FREE ENERGY PREDICTED BY IDOCK:   -1.76 KCAL/MOL
REMARK 927      BINDING AFFINITY PREDICTED BY RF-SCORE:    0.00 PKD
ROOT
HETATM    1  C   UNL     1     -14.109   9.158  72.120  1.00  0.00    -0.416 C  
HETATM    2  C   UNL     1     -13.148  10.013  71.280  1.00  0.00    -0.493 C  
HETATM    3  C   UNL     1     -13.132  11.441  71.832  1.00  0.00    -0.505 C  
HETATM    4  C   UNL     1     -11.733   9.444  71.237  1.00  0.00    -0.360 A  
HETATM    5  N   UNL     1     -11.375   8.700  72.309  1.00  0.00    -0.363 NA 
HETATM    6  C   UNL     1     -10.131   8.227  72.320  1.00  0.00    -0.300 A  
HETATM    7  N   UNL     1      -9.194   8.466  71.407  1.00  0.00    -0.168 NA 
HETATM    8  C   UNL     1     -10.842   9.728  70.184  1.00  0.00    -0.340 A  
HETATM    9  C   UNL     1      -9.531   9.258  70.354  1.00  0.00    -0.246 A  
ENDROOT
BRANCH   6  10
HETATM   10  N   UNL     1      -9.859   7.229  73.272  1.00  0.00    -0.227 N  
HETATM   11  C   UNL     1      -8.770   7.533  74.209  1.00  0.00    -0.218 C  
BRANCH  10  12
HETATM   12  S   UNL     1      -9.966   5.657  72.697  1.00  0.00    -0.176 S  
HETATM   13  C   UNL     1     -10.707   4.733  74.032  1.00  0.00    -0.296 C  
HETATM   14  O   UNL     1     -10.925   5.661  71.606  1.00  0.00    -0.253 OA 
HETATM   15  O   UNL     1      -8.637   5.128  72.494  1.00  0.00    -0.119 OA 
ENDBRANCH  10  12
ENDBRANCH   6  10
BRANCH   9  16
HETATM   16  C   UNL     1      -8.370   9.551  69.458  1.00  0.00    -0.145 A  
HETATM   17  F   UNL     1      -5.146  10.264  66.910  1.00  0.00    -0.038 F  
HETATM   18  C   UNL     1      -8.111   8.731  68.335  1.00  0.00    -0.117 A  
HETATM   19  C   UNL     1      -7.027   8.962  67.480  1.00  0.00    -0.075 A  
HETATM   20  C   UNL     1      -6.369  10.834  68.841  1.00  0.00    -0.045 A  
HETATM   21  C   UNL     1      -6.174  10.024  67.734  1.00  0.00    -0.054 A  
HETATM   22  C   UNL     1      -7.445  10.585  69.705  1.00  0.00    -0.145 A  
ENDBRANCH   9  16
BRANCH   8  23
HETATM   23  C   UNL     1     -11.329  10.468  69.003  1.00  0.00    -0.319 C  
HETATM   24  C   UNL     1     -11.031  11.757  68.742  1.00  0.00    -0.281 C  
BRANCH  24  25
HETATM   25  C   UNL     1     -11.338  12.497  67.455  1.00  0.00    -0.312 C  
HETATM   26  H   UNL     1     -12.290  12.129  65.771  1.00  0.00     0.000 HD 
HETATM   27  O   UNL     1     -12.098  11.666  66.577  1.00  0.00    -0.405 OA 
BRANCH  25  28
HETATM   28  C   UNL     1     -12.093  13.817  67.669  1.00  0.00    -0.333 C  
BRANCH  28  29
HETATM   29  C   UNL     1     -11.170  14.972  68.128  1.00  0.00    -0.308 C  
HETATM   30  O   UNL     1     -10.767  15.773  67.012  1.00  0.00    -0.315 OA 
HETATM   31  H   UNL     1     -10.199  16.482  67.294  1.00  0.00     0.000 HD 
BRANCH  29  32
HETATM   32  C   UNL     1     -11.864  15.928  69.098  1.00  0.00    -0.340 C  
HETATM   33  C   UNL     1     -12.231  15.256  70.390  1.00  0.00    -0.363 C  
HETATM   34  O   UNL     1     -11.587  14.359  70.911  1.00  0.00    -0.260 OA 
HETATM   35  O   UNL     1     -13.358  15.755  70.948  1.00  0.00    -0.576 OA 
ENDBRANCH  29  32
ENDBRANCH  28  29
ENDBRANCH  25  28
ENDBRANCH  24  25
ENDBRANCH   8  23
TORSDOF 8
ENDMDL
MODEL       60
REMARK 921   NORMALIZED FREE ENERGY PREDICTED BY IDOCK:   -6.15 KCAL/MOL
REMARK 922        TOTAL FREE ENERGY PREDICTED BY IDOCK:  -10.57 KCAL/MOL
REMARK 923 INTER-LIGAND FREE ENERGY PREDICTED BY IDOCK:   -8.73 KCAL/MOL
REMARK 924 INTRA-LIGAND FREE ENERGY PREDICTED BY IDOCK:   -1.84 KCAL/MOL
REMARK 927      BINDING AFFINITY PREDICTED BY RF-SCORE:    0.00 PKD
ROOT
HETATM    1  C   UNL     1     -13.115  10.664  70.969  1.00  0.00    -0.376 C  
HETATM    2  C   UNL     1     -12.109  10.876  69.826  1.00  0.00    -0.409 C  
HETATM    3  C   UNL     1     -11.350  12.185  70.060  1.00  0.00    -0.028 C  
HETATM    4  C   UNL     1     -11.131   9.714  69.676  1.00  0.00    -0.193 A  
HETATM    5  N   UNL     1     -10.886   9.014  70.808  1.00  0.00    -0.233 NA 
HETATM    6  C   UNL     1     -10.003   8.022  70.716  1.00  0.00    -0.188 A  
HETATM    7  N   UNL     1      -9.301   7.695  69.636  1.00  0.00    -0.157 NA 
HETATM    8  C   UNL     1     -10.483   9.433  68.458  1.00  0.00    -0.239 A  
HETATM    9  C   UNL     1      -9.503   8.430  68.509  1.00  0.00    -0.146 A  
ENDROOT
BRANCH   6  10
HETATM   10  N   UNL     1      -9.970   7.124  71.798  1.00  0.00    -0.176 N  
HETATM   11  C   UNL     1     -11.279   6.756  72.351  1.00  0.00    -0.264 C  
BRANCH  10  12
HETATM   12  S   UNL     1      -8.715   7.373  72.883  1.00  0.00    -0.138 S  
HETATM   13  C   UNL     1      -7.465   6.188  72.413  1.00  0.00    -0.094 C  
HETATM   14  O   UNL     1      -8.167   8.691  72.615  1.00  0.00    -0.372 OA 
HETATM   15  O   UNL     1      -9.156   7.026  74.214  1.00  0.00    -0.193 OA 
ENDBRANCH  10  12
ENDBRANCH   6  10
BRANCH   9  16
HETATM   16  C   UNL     1      -8.579   8.048  67.397  1.00  0.00    -0.125 A  
HETATM   17  F   UNL     1      -5.936   7.074  64.322  1.00  0.00    -0.034 F  
HETATM   18  C   UNL     1      -7.319   8.677  67.269  1.00  0.00    -0.088 A  
HETATM   19  C   UNL     1      -6.431   8.359  66.235  1.00  0.00    -0.054 A  
HETATM   20  C   UNL     1      -8.025   6.779  65.370  1.00  0.00    -0.121 A  
HETATM   21  C   UNL     1      -6.787   7.398  65.303  1.00  0.00    -0.048 A  
HETATM   22  C   UNL     1      -8.918   7.116  66.396  1.00  0.00    -0.178 A  
ENDBRANCH   9  16
BRANCH   8  23
HETATM   23  C   UNL     1     -10.869  10.177  67.243  1.00  0.00    -0.295 C  
HETATM   24  C   UNL     1     -10.114  11.136  66.671  1.00  0.00    -0.256 C  
BRANCH  24  25
HETATM   25  C   UNL     1     -10.369  11.784  65.325  1.00  0.00    -0.274 C  
HETATM   26  H   UNL     1     -10.373  11.230  63.434  1.00  0.00     0.000 HD 
HETATM   27  O   UNL     1     -10.213  10.824  64.278  1.00  0.00    -0.334 OA 
BRANCH  25  28
HETATM   28  C   UNL     1     -11.757  12.430  65.205  1.00  0.00    -0.437 C  
BRANCH  28  29
HETATM   29  C   UNL     1     -11.701  13.887  64.686  1.00  0.00    -0.397 C  
HETATM   30  O   UNL     1     -13.018  14.383  64.423  1.00  0.00    -0.516 OA 
HETATM   31  H   UNL     1     -12.984  15.277  64.104  1.00  0.00     0.000 HD 
BRANCH  29  32
HETATM   32  C   UNL     1     -11.090  14.849  65.706  1.00  0.00    -0.342 C  
HETATM   33  C   UNL     1     -10.826  16.206  65.117  1.00  0.00    -0.361 C  
HETATM   34  O   UNL     1     -11.507  16.728  64.249  1.00  0.00    -1.125 OA 
HETATM   35  O   UNL     1      -9.749  16.820  65.659  1.00  0.00    -0.539 OA 
ENDBRANCH  29  32
ENDBRANCH  28  29
ENDBRANCH  25  28
ENDBRANCH  24  25
ENDBRANCH   8  23
TORSDOF 8
ENDMDL
MODEL       61
REMARK 921   NORMALIZED FREE ENERGY PREDICTED BY IDOCK:   -6.13 KCAL/MOL
REMARK 922        TOTAL FREE ENERGY PREDICTED BY IDOCK:  -10.54 KCAL/MOL
REMARK 923 INTER-LIGAND FREE ENERGY PREDICTED BY IDOCK:   -9.94 KCAL/MOL
REMARK 924 INTRA-LIGAND FREE ENERGY PREDICTED BY IDOCK:   -0.60 KCAL/MOL
REMARK 927      BINDING AFFINITY PREDICTED BY RF-SCORE:    0.00 PKD
ROOT
HETATM    1  C   UNL     1     -12.420  15.841  71.362  1.00  0.00    -0.513 C  
HETATM    2  C   UNL     1     -12.630  14.343  71.094  1.00  0.00    -0.422 C  
HETATM    3  C   UNL     1     -14.132  14.049  71.029  1.00  0.00     0.249 C  
HETATM    4  C   UNL     1     -11.941  13.867  69.819  1.00  0.00    -0.338 A  
HETATM    5  N   UNL     1     -11.775  14.811  68.864  1.00  0.00    -0.300 NA 
HETATM    6  C   UNL     1     -11.216  14.414  67.722  1.00  0.00    -0.300 A  
HETATM    7  N   UNL     1     -10.861  13.170  67.415  1.00  0.00    -0.253 NA 
HETATM    8  C   UNL     1     -11.563  12.524  69.627  1.00  0.00    -0.323 A  
HETATM    9  C   UNL     1     -11.076  12.206  68.350  1.00  0.00    -0.245 A  
ENDROOT
BRANCH   6  10
HETATM   10  N   UNL     1     -10.782  15.436  66.860  1.00  0.00    -0.311 N  
HETATM   11  C   UNL     1     -11.024  16.805  67.334  1.00  0.00    -0.092 C  
BRANCH  10  12
HETATM   12  S   UNL     1     -11.017  15.131  65.228  1.00  0.00    -0.415 S  
HETATM   13  C   UNL     1     -12.620  14.350  65.138  1.00  0.00    -0.315 C  
HETATM   14  O   UNL     1     -11.138  16.415  64.562  1.00  0.00    -0.742 OA 
HETATM   15  O   UNL     1     -10.044  14.165  64.775  1.00  0.00    -0.374 OA 
ENDBRANCH  10  12
ENDBRANCH   6  10
BRANCH   9  16
HETATM   16  C   UNL     1     -10.747  10.835  67.851  1.00  0.00    -0.282 A  
HETATM   17  F   UNL     1      -9.837   7.052  66.352  1.00  0.00    -0.229 F  
HETATM   18  C   UNL     1     -10.398  10.635  66.496  1.00  0.00    -0.299 A  
HETATM   19  C   UNL     1     -10.098   9.366  65.986  1.00  0.00    -0.302 A  
HETATM   20  C   UNL     1     -10.512   8.410  68.154  1.00  0.00    -0.228 A  
HETATM   21  C   UNL     1     -10.142   8.266  66.827  1.00  0.00    -0.303 A  
HETATM   22  C   UNL     1     -10.830   9.680  68.654  1.00  0.00    -0.203 A  
ENDBRANCH   9  16
BRANCH   8  23
HETATM   23  C   UNL     1     -11.689  11.570  70.746  1.00  0.00     0.008 C  
HETATM   24  C   UNL     1     -12.821  10.902  71.048  1.00  0.00    -0.472 C  
BRANCH  24  25
HETATM   25  C   UNL     1     -12.946   9.773  72.051  1.00  0.00    -0.423 C  
HETATM   26  H   UNL     1     -14.262   8.375  72.493  1.00  0.00     0.000 HD 
HETATM   27  O   UNL     1     -14.183   9.082  71.864  1.00  0.00    -0.360 OA 
BRANCH  25  28
HETATM   28  C   UNL     1     -11.794   8.759  71.986  1.00  0.00    -0.442 C  
BRANCH  28  29
HETATM   29  C   UNL     1     -12.285   7.292  71.936  1.00  0.00    -0.313 C  
HETATM   30  O   UNL     1     -12.429   6.850  70.582  1.00  0.00    -0.570 OA 
HETATM   31  H   UNL     1     -12.731   5.950  70.552  1.00  0.00     0.000 HD 
BRANCH  29  32
HETATM   32  C   UNL     1     -11.299   6.322  72.588  1.00  0.00    -0.283 C  
HETATM   33  C   UNL     1     -10.239   5.861  71.628  1.00  0.00    -0.202 C  
HETATM   34  O   UNL     1      -9.782   6.541  70.723  1.00  0.00    -0.178 OA 
HETATM   35  O   UNL     1      -9.813   4.601  71.871  1.00  0.00    -0.164 OA 
ENDBRANCH  29  32
ENDBRANCH  28  29
ENDBRANCH  25  28
ENDBRANCH  24  25
ENDBRANCH   8  23
TORSDOF 8
ENDMDL
MODEL       62
REMARK 921   NORMALIZED FREE ENERGY PREDICTED BY IDOCK:   -6.08 KCAL/MOL
REMARK 922        TOTAL FREE ENERGY PREDICTED BY IDOCK:  -10.46 KCAL/MOL
REMARK 923 INTER-LIGAND FREE ENERGY PREDICTED BY IDOCK:   -8.65 KCAL/MOL
REMARK 924 INTRA-LIGAND FREE ENERGY PREDICTED BY IDOCK:   -1.81 KCAL/MOL
REMARK 927      BINDING AFFINITY PREDICTED BY RF-SCORE:    0.00 PKD
ROOT
HETATM    1  C   UNL     1     -10.020  13.819  66.151  1.00  0.00    -0.318 C  
HETATM    2  C   UNL     1     -10.975  12.896  66.925  1.00  0.00    -0.294 C  
HETATM    3  C   UNL     1     -12.127  12.480  66.007  1.00  0.00    -0.390 C  
HETATM    4  C   UNL     1     -10.277  11.664  67.493  1.00  0.00    -0.195 A  
HETATM    5  N   UNL     1      -9.181  11.254  66.812  1.00  0.00    -0.171 NA 
HETATM    6  C   UNL     1      -8.577  10.155  67.260  1.00  0.00    -0.125 A  
HETATM    7  N   UNL     1      -8.982   9.396  68.272  1.00  0.00    -0.128 NA 
HETATM    8  C   UNL     1     -10.776  10.968  68.611  1.00  0.00    -0.234 A  
HETATM    9  C   UNL     1     -10.113   9.773  68.928  1.00  0.00    -0.183 A  
ENDROOT
BRANCH   6  10
HETATM   10  N   UNL     1      -7.295   9.903  66.741  1.00  0.00    -0.094 N  
HETATM   11  C   UNL     1      -6.410  11.071  66.653  1.00  0.00    -0.124 C  
BRANCH  10  12
HETATM   12  S   UNL     1      -7.248   8.802  65.478  1.00  0.00    -0.085 S  
HETATM   13  C   UNL     1      -6.608   7.301  66.203  1.00  0.00    -0.052 C  
HETATM   14  O   UNL     1      -8.622   8.529  65.092  1.00  0.00    -0.177 OA 
HETATM   15  O   UNL     1      -6.291   9.244  64.490  1.00  0.00    -0.074 OA 
ENDBRANCH  10  12
ENDBRANCH   6  10
BRANCH   9  16
HETATM   16  C   UNL     1     -10.534   8.784  69.967  1.00  0.00    -0.222 A  
HETATM   17  F   UNL     1     -11.755   5.962  72.784  1.00  0.00    -0.310 F  
HETATM   18  C   UNL     1     -11.019   7.511  69.586  1.00  0.00    -0.164 A  
HETATM   19  C   UNL     1     -11.437   6.563  70.527  1.00  0.00    -0.448 A  
HETATM   20  C   UNL     1     -10.939   8.117  72.295  1.00  0.00    -0.399 A  
HETATM   21  C   UNL     1     -11.376   6.870  71.877  1.00  0.00    -0.263 A  
HETATM   22  C   UNL     1     -10.542   9.069  71.347  1.00  0.00    -0.393 A  
ENDBRANCH   9  16
BRANCH   8  23
HETATM   23  C   UNL     1     -11.919  11.525  69.360  1.00  0.00    -0.392 C  
HETATM   24  C   UNL     1     -11.807  12.195  70.525  1.00  0.00    -0.185 C  
BRANCH  24  25
HETATM   25  C   UNL     1     -12.917  12.953  71.225  1.00  0.00    -0.228 C  
HETATM   26  H   UNL     1     -14.276  12.578  72.601  1.00  0.00     0.000 HD 
HETATM   27  O   UNL     1     -13.580  12.103  72.162  1.00  0.00    -0.431 OA 
BRANCH  25  28
HETATM   28  C   UNL     1     -12.437  14.218  71.952  1.00  0.00    -0.364 C  
BRANCH  28  29
HETATM   29  C   UNL     1     -12.800  15.520  71.199  1.00  0.00    -0.489 C  
HETATM   30  O   UNL     1     -12.004  16.615  71.665  1.00  0.00    -0.598 OA 
HETATM   31  H   UNL     1     -12.228  17.415  71.203  1.00  0.00     0.000 HD 
BRANCH  29  32
HETATM   32  C   UNL     1     -12.535  15.423  69.696  1.00  0.00    -0.171 C  
HETATM   33  C   UNL     1     -11.116  15.770  69.347  1.00  0.00    -0.314 C  
HETATM   34  O   UNL     1     -10.153  15.547  70.063  1.00  0.00    -0.301 OA 
HETATM   35  O   UNL     1     -10.994  16.352  68.132  1.00  0.00    -0.337 OA 
ENDBRANCH  29  32
ENDBRANCH  28  29
ENDBRANCH  25  28
ENDBRANCH  24  25
ENDBRANCH   8  23
TORSDOF 8
ENDMDL
MODEL       63
REMARK 921   NORMALIZED FREE ENERGY PREDICTED BY IDOCK:   -6.07 KCAL/MOL
REMARK 922        TOTAL FREE ENERGY PREDICTED BY IDOCK:  -10.45 KCAL/MOL
REMARK 923 INTER-LIGAND FREE ENERGY PREDICTED BY IDOCK:   -8.68 KCAL/MOL
REMARK 924 INTRA-LIGAND FREE ENERGY PREDICTED BY IDOCK:   -1.77 KCAL/MOL
REMARK 927      BINDING AFFINITY PREDICTED BY RF-SCORE:    0.00 PKD
ROOT
HETATM    1  C   UNL     1     -10.527  14.016  64.825  1.00  0.00    -0.445 C  
HETATM    2  C   UNL     1     -11.324  12.967  65.615  1.00  0.00    -0.330 C  
HETATM    3  C   UNL     1     -12.648  12.695  64.896  1.00  0.00    -0.525 C  
HETATM    4  C   UNL     1     -10.553  11.666  65.817  1.00  0.00    -0.271 A  
HETATM    5  N   UNL     1      -9.629  11.388  64.868  1.00  0.00    -0.232 NA 
HETATM    6  C   UNL     1      -8.971  10.237  64.995  1.00  0.00    -0.196 A  
HETATM    7  N   UNL     1      -9.178   9.315  65.930  1.00  0.00    -0.201 NA 
HETATM    8  C   UNL     1     -10.829  10.789  66.883  1.00  0.00    -0.288 A  
HETATM    9  C   UNL     1     -10.143   9.565  66.856  1.00  0.00    -0.230 A  
ENDROOT
BRANCH   6  10
HETATM   10  N   UNL     1      -7.827  10.089  64.191  1.00  0.00    -0.142 N  
HETATM   11  C   UNL     1      -7.899   9.023  63.183  1.00  0.00    -0.133 C  
BRANCH  10  12
HETATM   12  S   UNL     1      -6.369  10.296  64.992  1.00  0.00    -0.101 S  
HETATM   13  C   UNL     1      -5.826   8.641  65.385  1.00  0.00    -0.048 C  
HETATM   14  O   UNL     1      -5.420  10.832  64.032  1.00  0.00    -0.135 OA 
HETATM   15  O   UNL     1      -6.601  10.980  66.243  1.00  0.00    -0.130 OA 
ENDBRANCH  10  12
ENDBRANCH   6  10
BRANCH   9  16
HETATM   16  C   UNL     1     -10.365   8.412  67.782  1.00  0.00    -0.297 A  
HETATM   17  F   UNL     1     -10.919   5.251  70.445  1.00  0.00    -0.319 F  
HETATM   18  C   UNL     1      -9.999   8.512  69.145  1.00  0.00    -0.194 A  
HETATM   19  C   UNL     1     -10.177   7.452  70.042  1.00  0.00    -0.211 A  
HETATM   20  C   UNL     1     -11.069   6.109  68.256  1.00  0.00    -0.336 A  
HETATM   21  C   UNL     1     -10.728   6.263  69.590  1.00  0.00    -0.306 A  
HETATM   22  C   UNL     1     -10.870   7.167  67.359  1.00  0.00    -0.346 A  
ENDBRANCH   9  16
BRANCH   8  23
HETATM   23  C   UNL     1     -11.782  11.200  67.932  1.00  0.00    -0.260 C  
HETATM   24  C   UNL     1     -11.430  11.823  69.074  1.00  0.00    -0.358 C  
BRANCH  24  25
HETATM   25  C   UNL     1     -12.380  12.440  70.081  1.00  0.00    -0.136 C  
HETATM   26  H   UNL     1     -13.073  11.997  71.871  1.00  0.00     0.000 HD 
HETATM   27  O   UNL     1     -12.477  11.611  71.240  1.00  0.00    -0.339 OA 
BRANCH  25  28
HETATM   28  C   UNL     1     -11.982  13.858  70.515  1.00  0.00    -0.384 C  
BRANCH  28  29
HETATM   29  C   UNL     1     -11.524  14.744  69.332  1.00  0.00    -0.301 C  
HETATM   30  O   UNL     1     -12.532  15.704  68.996  1.00  0.00    -0.596 OA 
HETATM   31  H   UNL     1     -12.250  16.248  68.269  1.00  0.00     0.000 HD 
BRANCH  29  32
HETATM   32  C   UNL     1     -10.269  15.555  69.658  1.00  0.00    -0.289 C  
HETATM   33  C   UNL     1      -9.054  15.032  68.946  1.00  0.00    -0.202 C  
HETATM   34  O   UNL     1      -9.070  14.516  67.840  1.00  0.00    -0.181 OA 
HETATM   35  O   UNL     1      -7.911  15.201  69.649  1.00  0.00    -0.218 OA 
ENDBRANCH  29  32
ENDBRANCH  28  29
ENDBRANCH  25  28
ENDBRANCH  24  25
ENDBRANCH   8  23
TORSDOF 8
ENDMDL
MODEL       64
REMARK 921   NORMALIZED FREE ENERGY PREDICTED BY IDOCK:   -6.03 KCAL/MOL
REMARK 922        TOTAL FREE ENERGY PREDICTED BY IDOCK:  -10.39 KCAL/MOL
REMARK 923 INTER-LIGAND FREE ENERGY PREDICTED BY IDOCK:   -9.24 KCAL/MOL
REMARK 924 INTRA-LIGAND FREE ENERGY PREDICTED BY IDOCK:   -1.15 KCAL/MOL
REMARK 927      BINDING AFFINITY PREDICTED BY RF-SCORE:    0.00 PKD
ROOT
HETATM    1  C   UNL     1      -9.066  10.401  62.640  1.00  0.00    -0.305 C  
HETATM    2  C   UNL     1      -8.926   9.803  64.049  1.00  0.00    -0.275 C  
HETATM    3  C   UNL     1      -7.441   9.718  64.414  1.00  0.00    -0.132 C  
HETATM    4  C   UNL     1      -9.688  10.596  65.106  1.00  0.00    -0.271 A  
HETATM    5  N   UNL     1      -9.859  11.910  64.833  1.00  0.00    -0.232 NA 
HETATM    6  C   UNL     1     -10.483  12.636  65.758  1.00  0.00    -0.277 A  
HETATM    7  N   UNL     1     -10.898  12.204  66.945  1.00  0.00    -0.239 NA 
HETATM    8  C   UNL     1     -10.127  10.011  66.310  1.00  0.00    -0.310 A  
HETATM    9  C   UNL     1     -10.681  10.896  67.248  1.00  0.00    -0.268 A  
ENDROOT
BRANCH   6  10
HETATM   10  N   UNL     1     -10.914  13.912  65.354  1.00  0.00    -0.306 N  
HETATM   11  C   UNL     1     -10.614  15.004  66.290  1.00  0.00    -0.307 C  
BRANCH  10  12
HETATM   12  S   UNL     1     -12.403  13.943  64.584  1.00  0.00    -0.358 S  
HETATM   13  C   UNL     1     -12.491  12.394  63.700  1.00  0.00    -0.508 C  
HETATM   14  O   UNL     1     -13.424  13.896  65.615  1.00  0.00    -0.590 OA 
HETATM   15  O   UNL     1     -12.412  15.000  63.599  1.00  0.00    -0.667 OA 
ENDBRANCH  10  12
ENDBRANCH   6  10
BRANCH   9  16
HETATM   16  C   UNL     1     -11.084  10.553  68.647  1.00  0.00    -0.319 A  
HETATM   17  F   UNL     1     -12.293   9.676  72.541  1.00  0.00    -0.324 F  
HETATM   18  C   UNL     1     -12.316  11.014  69.167  1.00  0.00    -0.079 A  
HETATM   19  C   UNL     1     -12.723  10.728  70.476  1.00  0.00    -0.388 A  
HETATM   20  C   UNL     1     -10.671   9.526  70.838  1.00  0.00    -0.403 A  
HETATM   21  C   UNL     1     -11.902   9.971  71.294  1.00  0.00    -0.385 A  
HETATM   22  C   UNL     1     -10.260   9.833  69.534  1.00  0.00    -0.238 A  
ENDBRANCH   9  16
BRANCH   8  23
HETATM   23  C   UNL     1      -9.989   8.554  66.500  1.00  0.00    -0.350 C  
HETATM   24  C   UNL     1      -8.937   7.965  67.103  1.00  0.00    -0.142 C  
BRANCH  24  25
HETATM   25  C   UNL     1      -8.842   6.505  67.498  1.00  0.00    -0.112 C  
HETATM   26  H   UNL     1      -7.667   4.976  67.097  1.00  0.00     0.000 HD 
HETATM   27  O   UNL     1      -7.727   5.891  66.850  1.00  0.00    -0.098 OA 
BRANCH  25  28
HETATM   28  C   UNL     1      -8.722   6.283  69.013  1.00  0.00    -0.125 C  
BRANCH  28  29
HETATM   29  C   UNL     1     -10.018   5.719  69.644  1.00  0.00    -0.189 C  
HETATM   30  O   UNL     1     -10.258   4.380  69.200  1.00  0.00    -0.050 OA 
HETATM   31  H   UNL     1     -11.054   4.034  69.587  1.00  0.00     0.000 HD 
BRANCH  29  32
HETATM   32  C   UNL     1      -9.943   5.645  71.169  1.00  0.00    -0.244 C  
HETATM   33  C   UNL     1     -11.131   6.286  71.827  1.00  0.00    -0.273 C  
HETATM   34  O   UNL     1     -12.259   6.298  71.359  1.00  0.00    -0.214 OA 
HETATM   35  O   UNL     1     -10.838   6.851  73.021  1.00  0.00    -0.265 OA 
ENDBRANCH  29  32
ENDBRANCH  28  29
ENDBRANCH  25  28
ENDBRANCH  24  25
ENDBRANCH   8  23
TORSDOF 8
ENDMDL
MODEL       65
REMARK 921   NORMALIZED FREE ENERGY PREDICTED BY IDOCK:   -6.03 KCAL/MOL
REMARK 922        TOTAL FREE ENERGY PREDICTED BY IDOCK:  -10.39 KCAL/MOL
REMARK 923 INTER-LIGAND FREE ENERGY PREDICTED BY IDOCK:   -7.95 KCAL/MOL
REMARK 924 INTRA-LIGAND FREE ENERGY PREDICTED BY IDOCK:   -2.44 KCAL/MOL
REMARK 927      BINDING AFFINITY PREDICTED BY RF-SCORE:    0.00 PKD
ROOT
HETATM    1  C   UNL     1     -13.144  12.259  71.917  1.00  0.00    -0.469 C  
HETATM    2  C   UNL     1     -12.713  10.828  71.561  1.00  0.00    -0.536 C  
HETATM    3  C   UNL     1     -13.942   9.914  71.575  1.00  0.00     0.018 C  
HETATM    4  C   UNL     1     -12.003  10.741  70.214  1.00  0.00    -0.351 A  
HETATM    5  N   UNL     1     -12.343  11.695  69.317  1.00  0.00    -0.199 NA 
HETATM    6  C   UNL     1     -11.772  11.618  68.117  1.00  0.00    -0.295 A  
HETATM    7  N   UNL     1     -10.946  10.663  67.703  1.00  0.00    -0.292 NA 
HETATM    8  C   UNL     1     -11.102   9.702  69.907  1.00  0.00    -0.268 A  
HETATM    9  C   UNL     1     -10.641   9.670  68.582  1.00  0.00    -0.217 A  
ENDROOT
BRANCH   6  10
HETATM   10  N   UNL     1     -11.897  12.756  67.300  1.00  0.00    -0.373 N  
HETATM   11  C   UNL     1     -11.904  12.495  65.855  1.00  0.00    -0.430 C  
BRANCH  10  12
HETATM   12  S   UNL     1     -11.061  14.106  67.837  1.00  0.00    -0.279 S  
HETATM   13  C   UNL     1     -10.707  15.042  66.358  1.00  0.00    -0.322 C  
HETATM   14  O   UNL     1     -11.986  14.902  68.626  1.00  0.00    -0.302 OA 
HETATM   15  O   UNL     1      -9.795  13.696  68.398  1.00  0.00    -0.225 OA 
ENDBRANCH  10  12
ENDBRANCH   6  10
BRANCH   9  16
HETATM   16  C   UNL     1      -9.802   8.595  67.970  1.00  0.00    -0.201 A  
HETATM   17  F   UNL     1      -7.368   5.665  66.271  1.00  0.00    -0.072 F  
HETATM   18  C   UNL     1      -8.391   8.693  67.991  1.00  0.00    -0.123 A  
HETATM   19  C   UNL     1      -7.570   7.716  67.416  1.00  0.00    -0.109 A  
HETATM   20  C   UNL     1      -9.525   6.493  66.732  1.00  0.00    -0.188 A  
HETATM   21  C   UNL     1      -8.147   6.614  66.806  1.00  0.00    -0.113 A  
HETATM   22  C   UNL     1     -10.342   7.484  67.291  1.00  0.00    -0.366 A  
ENDBRANCH   9  16
BRANCH   8  23
HETATM   23  C   UNL     1     -10.707   8.751  70.963  1.00  0.00    -0.290 C  
HETATM   24  C   UNL     1      -9.531   8.797  71.622  1.00  0.00    -0.358 C  
BRANCH  24  25
HETATM   25  C   UNL     1      -9.162   7.975  72.841  1.00  0.00    -0.265 C  
HETATM   26  H   UNL     1     -10.109   7.079  74.318  1.00  0.00     0.000 HD 
HETATM   27  O   UNL     1     -10.340   7.594  73.554  1.00  0.00    -0.336 OA 
BRANCH  25  28
HETATM   28  C   UNL     1      -8.350   6.715  72.511  1.00  0.00    -0.113 C  
BRANCH  28  29
HETATM   29  C   UNL     1      -8.001   6.599  71.007  1.00  0.00    -0.107 C  
HETATM   30  O   UNL     1      -6.628   6.933  70.778  1.00  0.00    -0.050 OA 
HETATM   31  H   UNL     1      -6.413   6.863  69.855  1.00  0.00     0.000 HD 
BRANCH  29  32
HETATM   32  C   UNL     1      -8.179   5.178  70.472  1.00  0.00    -0.102 C  
HETATM   33  C   UNL     1      -9.627   4.806  70.323  1.00  0.00    -0.199 C  
HETATM   34  O   UNL     1     -10.516   5.589  70.033  1.00  0.00    -0.260 OA 
HETATM   35  O   UNL     1      -9.861   3.490  70.531  1.00  0.00    -0.162 OA 
ENDBRANCH  29  32
ENDBRANCH  28  29
ENDBRANCH  25  28
ENDBRANCH  24  25
ENDBRANCH   8  23
TORSDOF 8
ENDMDL
MODEL       66
REMARK 921   NORMALIZED FREE ENERGY PREDICTED BY IDOCK:   -6.00 KCAL/MOL
REMARK 922        TOTAL FREE ENERGY PREDICTED BY IDOCK:  -10.34 KCAL/MOL
REMARK 923 INTER-LIGAND FREE ENERGY PREDICTED BY IDOCK:   -8.59 KCAL/MOL
REMARK 924 INTRA-LIGAND FREE ENERGY PREDICTED BY IDOCK:   -1.75 KCAL/MOL
REMARK 927      BINDING AFFINITY PREDICTED BY RF-SCORE:    0.00 PKD
ROOT
HETATM    1  C   UNL     1     -12.398  13.360  69.695  1.00  0.00    -0.187 C  
HETATM    2  C   UNL     1     -11.592  12.053  69.625  1.00  0.00    -0.371 C  
HETATM    3  C   UNL     1     -12.425  10.915  70.222  1.00  0.00    -0.383 C  
HETATM    4  C   UNL     1     -11.155  11.703  68.205  1.00  0.00    -0.234 A  
HETATM    5  N   UNL     1     -11.952  12.179  67.220  1.00  0.00    -0.578 NA 
HETATM    6  C   UNL     1     -11.619  11.852  65.973  1.00  0.00    -0.227 A  
HETATM    7  N   UNL     1     -10.616  11.058  65.613  1.00  0.00    -0.231 NA 
HETATM    8  C   UNL     1     -10.036  10.889  67.945  1.00  0.00    -0.195 A  
HETATM    9  C   UNL     1      -9.843  10.532  66.601  1.00  0.00    -0.199 A  
ENDROOT
BRANCH   6  10
HETATM   10  N   UNL     1     -12.262  12.576  64.954  1.00  0.00    -0.465 N  
HETATM   11  C   UNL     1     -12.211  11.964  63.619  1.00  0.00    -0.479 C  
BRANCH  10  12
HETATM   12  S   UNL     1     -12.082  14.240  65.048  1.00  0.00    -0.436 S  
HETATM   13  C   UNL     1     -10.320  14.513  64.961  1.00  0.00    -0.413 C  
HETATM   14  O   UNL     1     -12.654  14.805  63.839  1.00  0.00    -0.834 OA 
HETATM   15  O   UNL     1     -12.524  14.699  66.344  1.00  0.00    -0.206 OA 
ENDBRANCH  10  12
ENDBRANCH   6  10
BRANCH   9  16
HETATM   16  C   UNL     1      -8.825   9.567  66.086  1.00  0.00    -0.177 A  
HETATM   17  F   UNL     1      -6.043   6.788  64.695  1.00  0.00    -0.032 F  
HETATM   18  C   UNL     1      -9.084   8.177  66.107  1.00  0.00    -0.232 A  
HETATM   19  C   UNL     1      -8.152   7.239  65.647  1.00  0.00    -0.133 A  
HETATM   20  C   UNL     1      -6.622   9.027  65.146  1.00  0.00    -0.072 A  
HETATM   21  C   UNL     1      -6.933   7.677  65.154  1.00  0.00    -0.055 A  
HETATM   22  C   UNL     1      -7.552   9.959  65.626  1.00  0.00    -0.119 A  
ENDBRANCH   9  16
BRANCH   8  23
HETATM   23  C   UNL     1      -9.159  10.484  69.061  1.00  0.00    -0.188 C  
HETATM   24  C   UNL     1      -9.178   9.263  69.634  1.00  0.00    -0.182 C  
BRANCH  24  25
HETATM   25  C   UNL     1      -8.172   8.737  70.638  1.00  0.00    -0.144 C  
HETATM   26  H   UNL     1      -8.090   8.459  72.587  1.00  0.00     0.000 HD 
HETATM   27  O   UNL     1      -8.720   8.788  71.957  1.00  0.00    -0.319 OA 
BRANCH  25  28
HETATM   28  C   UNL     1      -7.704   7.303  70.348  1.00  0.00    -0.094 C  
BRANCH  28  29
HETATM   29  C   UNL     1      -8.786   6.446  69.647  1.00  0.00    -0.138 C  
HETATM   30  O   UNL     1      -8.184   5.494  68.764  1.00  0.00    -0.101 OA 
HETATM   31  H   UNL     1      -8.849   4.968  68.333  1.00  0.00     0.000 HD 
BRANCH  29  32
HETATM   32  C   UNL     1      -9.618   5.630  70.636  1.00  0.00    -0.213 C  
HETATM   33  C   UNL     1     -11.052   6.076  70.674  1.00  0.00    -0.301 C  
HETATM   34  O   UNL     1     -11.665   6.517  69.715  1.00  0.00    -0.382 OA 
HETATM   35  O   UNL     1     -11.624   5.927  71.891  1.00  0.00    -0.270 OA 
ENDBRANCH  29  32
ENDBRANCH  28  29
ENDBRANCH  25  28
ENDBRANCH  24  25
ENDBRANCH   8  23
TORSDOF 8
ENDMDL
MODEL       67
REMARK 921   NORMALIZED FREE ENERGY PREDICTED BY IDOCK:   -5.99 KCAL/MOL
REMARK 922        TOTAL FREE ENERGY PREDICTED BY IDOCK:  -10.33 KCAL/MOL
REMARK 923 INTER-LIGAND FREE ENERGY PREDICTED BY IDOCK:   -8.75 KCAL/MOL
REMARK 924 INTRA-LIGAND FREE ENERGY PREDICTED BY IDOCK:   -1.58 KCAL/MOL
REMARK 927      BINDING AFFINITY PREDICTED BY RF-SCORE:    0.00 PKD
ROOT
HETATM    1  C   UNL     1      -5.577  16.475  66.943  1.00  0.00    -0.034 C  
HETATM    2  C   UNL     1      -6.260  15.626  68.027  1.00  0.00    -0.149 C  
HETATM    3  C   UNL     1      -5.358  15.567  69.263  1.00  0.00    -0.097 C  
HETATM    4  C   UNL     1      -7.643  16.149  68.404  1.00  0.00    -0.158 A  
HETATM    5  N   UNL     1      -7.828  17.478  68.226  1.00  0.00    -0.244 NA 
HETATM    6  C   UNL     1      -9.012  17.969  68.588  1.00  0.00    -0.268 A  
HETATM    7  N   UNL     1     -10.001  17.290  69.159  1.00  0.00    -0.252 NA 
HETATM    8  C   UNL     1      -8.635  15.315  68.957  1.00  0.00    -0.226 A  
HETATM    9  C   UNL     1      -9.801  15.964  69.390  1.00  0.00    -0.280 A  
ENDROOT
BRANCH   6  10
HETATM   10  N   UNL     1      -9.303  19.269  68.138  1.00  0.00    -0.327 N  
HETATM   11  C   UNL     1     -10.145  20.072  69.034  1.00  0.00    -0.229 C  
BRANCH  10  12
HETATM   12  S   UNL     1      -9.587  19.398  66.490  1.00  0.00    -0.392 S  
HETATM   13  C   UNL     1     -10.191  17.790  66.004  1.00  0.00    -0.293 C  
HETATM   14  O   UNL     1     -10.686  20.331  66.314  1.00  0.00    -0.259 OA 
HETATM   15  O   UNL     1      -8.335  19.612  65.802  1.00  0.00    -0.408 OA 
ENDBRANCH  10  12
ENDBRANCH   6  10
BRANCH   9  16
HETATM   16  C   UNL     1     -10.932  15.332  70.138  1.00  0.00    -0.312 A  
HETATM   17  F   UNL     1     -14.123  13.527  72.124  1.00  0.00    -0.510 F  
HETATM   18  C   UNL     1     -11.752  14.368  69.508  1.00  0.00    -0.362 A  
HETATM   19  C   UNL     1     -12.829  13.763  70.168  1.00  0.00    -0.017 A  
HETATM   20  C   UNL     1     -12.351  15.079  72.125  1.00  0.00    -0.433 A  
HETATM   21  C   UNL     1     -13.107  14.114  71.479  1.00  0.00    -0.353 A  
HETATM   22  C   UNL     1     -11.287  15.695  71.452  1.00  0.00    -0.448 A  
ENDBRANCH   9  16
BRANCH   8  23
HETATM   23  C   UNL     1      -8.397  13.861  69.035  1.00  0.00     0.188 C  
HETATM   24  C   UNL     1      -8.847  12.970  68.129  1.00  0.00    -0.194 C  
BRANCH  24  25
HETATM   25  C   UNL     1      -8.466  11.506  68.056  1.00  0.00    -0.148 C  
HETATM   26  H   UNL     1      -7.544  10.196  69.203  1.00  0.00     0.000 HD 
HETATM   27  O   UNL     1      -7.783  11.114  69.248  1.00  0.00    -0.109 OA 
BRANCH  25  28
HETATM   28  C   UNL     1      -9.661  10.567  67.835  1.00  0.00    -0.171 C  
BRANCH  28  29
HETATM   29  C   UNL     1     -10.831  10.842  68.811  1.00  0.00    -0.221 C  
HETATM   30  O   UNL     1     -12.075  10.908  68.107  1.00  0.00    -0.785 OA 
HETATM   31  H   UNL     1     -12.793  11.077  68.706  1.00  0.00     0.000 HD 
BRANCH  29  32
HETATM   32  C   UNL     1     -10.999   9.733  69.851  1.00  0.00    -0.299 C  
HETATM   33  C   UNL     1     -12.117  10.022  70.812  1.00  0.00    -0.327 C  
HETATM   34  O   UNL     1     -13.137  10.629  70.525  1.00  0.00    -0.295 OA 
HETATM   35  O   UNL     1     -11.896   9.525  72.050  1.00  0.00    -0.341 OA 
ENDBRANCH  29  32
ENDBRANCH  28  29
ENDBRANCH  25  28
ENDBRANCH  24  25
ENDBRANCH   8  23
TORSDOF 8
ENDMDL
MODEL       68
REMARK 921   NORMALIZED FREE ENERGY PREDICTED BY IDOCK:   -5.97 KCAL/MOL
REMARK 922        TOTAL FREE ENERGY PREDICTED BY IDOCK:  -10.30 KCAL/MOL
REMARK 923 INTER-LIGAND FREE ENERGY PREDICTED BY IDOCK:   -8.76 KCAL/MOL
REMARK 924 INTRA-LIGAND FREE ENERGY PREDICTED BY IDOCK:   -1.54 KCAL/MOL
REMARK 927      BINDING AFFINITY PREDICTED BY RF-SCORE:    0.00 PKD
ROOT
HETATM    1  C   UNL     1      -6.362   9.914  70.474  1.00  0.00    -0.109 C  
HETATM    2  C   UNL     1      -6.578  10.756  69.207  1.00  0.00    -0.074 C  
HETATM    3  C   UNL     1      -5.347  10.631  68.304  1.00  0.00    -0.033 C  
HETATM    4  C   UNL     1      -7.839  10.363  68.443  1.00  0.00    -0.104 A  
HETATM    5  N   UNL     1      -8.233   9.078  68.599  1.00  0.00    -0.117 NA 
HETATM    6  C   UNL     1      -9.306   8.695  67.909  1.00  0.00    -0.142 A  
HETATM    7  N   UNL     1      -9.986   9.438  67.042  1.00  0.00    -0.205 NA 
HETATM    8  C   UNL     1      -8.507  11.260  67.587  1.00  0.00    -0.124 A  
HETATM    9  C   UNL     1      -9.562  10.715  66.840  1.00  0.00    -0.171 A  
ENDROOT
BRANCH   6  10
HETATM   10  N   UNL     1      -9.879   7.469  68.290  1.00  0.00    -0.159 N  
HETATM   11  C   UNL     1     -10.709   6.817  67.269  1.00  0.00    -0.353 C  
BRANCH  10  12
HETATM   12  S   UNL     1     -10.414   7.403  69.878  1.00  0.00    -0.235 S  
HETATM   13  C   UNL     1     -10.968   9.061  70.241  1.00  0.00    -0.244 C  
HETATM   14  O   UNL     1     -11.590   6.552  69.902  1.00  0.00    -0.409 OA 
HETATM   15  O   UNL     1      -9.297   7.124  70.750  1.00  0.00    -0.160 OA 
ENDBRANCH  10  12
ENDBRANCH   6  10
BRANCH   9  16
HETATM   16  C   UNL     1     -10.328  11.413  65.763  1.00  0.00    -0.304 A  
HETATM   17  F   UNL     1     -12.554  13.375  62.831  1.00  0.00    -0.446 F  
HETATM   18  C   UNL     1     -11.519  12.111  66.072  1.00  0.00    -0.427 A  
HETATM   19  C   UNL     1     -12.273  12.766  65.091  1.00  0.00    -0.530 A  
HETATM   20  C   UNL     1     -10.707  12.035  63.418  1.00  0.00    -0.475 A  
HETATM   21  C   UNL     1     -11.849  12.735  63.773  1.00  0.00    -0.499 A  
HETATM   22  C   UNL     1      -9.967  11.365  64.401  1.00  0.00    -0.321 A  
ENDBRANCH   9  16
BRANCH   8  23
HETATM   23  C   UNL     1      -8.077  12.671  67.538  1.00  0.00    -0.178 C  
HETATM   24  C   UNL     1      -8.648  13.662  68.252  1.00  0.00    -0.170 C  
BRANCH  24  25
HETATM   25  C   UNL     1      -8.122  15.076  68.388  1.00  0.00    -0.141 C  
HETATM   26  H   UNL     1      -7.227  16.401  67.237  1.00  0.00     0.000 HD 
HETATM   27  O   UNL     1      -7.557  15.515  67.152  1.00  0.00    -0.200 OA 
BRANCH  25  28
HETATM   28  C   UNL     1      -9.186  16.089  68.837  1.00  0.00    -0.233 C  
BRANCH  28  29
HETATM   29  C   UNL     1     -10.452  16.067  67.947  1.00  0.00    -0.292 C  
HETATM   30  O   UNL     1     -11.588  15.617  68.692  1.00  0.00    -0.356 OA 
HETATM   31  H   UNL     1     -12.366  15.602  68.146  1.00  0.00     0.000 HD 
BRANCH  29  32
HETATM   32  C   UNL     1     -10.823  17.453  67.419  1.00  0.00    -0.165 C  
HETATM   33  C   UNL     1     -10.419  17.640  65.984  1.00  0.00    -0.278 C  
HETATM   34  O   UNL     1     -10.402  16.750  65.149  1.00  0.00    -0.639 OA 
HETATM   35  O   UNL     1     -10.082  18.916  65.688  1.00  0.00    -0.466 OA 
ENDBRANCH  29  32
ENDBRANCH  28  29
ENDBRANCH  25  28
ENDBRANCH  24  25
ENDBRANCH   8  23
TORSDOF 8
ENDMDL
MODEL       69
REMARK 921   NORMALIZED FREE ENERGY PREDICTED BY IDOCK:   -5.94 KCAL/MOL
REMARK 922        TOTAL FREE ENERGY PREDICTED BY IDOCK:  -10.26 KCAL/MOL
REMARK 923 INTER-LIGAND FREE ENERGY PREDICTED BY IDOCK:   -8.84 KCAL/MOL
REMARK 924 INTRA-LIGAND FREE ENERGY PREDICTED BY IDOCK:   -1.42 KCAL/MOL
REMARK 927      BINDING AFFINITY PREDICTED BY RF-SCORE:    0.00 PKD
ROOT
HETATM    1  C   UNL     1     -11.100   6.558  66.790  1.00  0.00    -0.229 C  
HETATM    2  C   UNL     1      -9.930   7.130  67.606  1.00  0.00    -0.201 C  
HETATM    3  C   UNL     1      -8.679   6.284  67.352  1.00  0.00    -0.105 C  
HETATM    4  C   UNL     1      -9.652   8.597  67.295  1.00  0.00    -0.167 A  
HETATM    5  N   UNL     1     -10.003   9.002  66.052  1.00  0.00    -0.256 NA 
HETATM    6  C   UNL     1      -9.731  10.267  65.737  1.00  0.00    -0.238 A  
HETATM    7  N   UNL     1      -9.098  11.147  66.506  1.00  0.00    -0.176 NA 
HETATM    8  C   UNL     1      -9.016   9.452  68.216  1.00  0.00    -0.128 A  
HETATM    9  C   UNL     1      -8.694  10.731  67.737  1.00  0.00    -0.130 A  
ENDROOT
BRANCH   6  10
HETATM   10  N   UNL     1     -10.351  10.759  64.575  1.00  0.00    -0.355 N  
HETATM   11  C   UNL     1      -9.532  10.712  63.357  1.00  0.00    -0.319 C  
BRANCH  10  12
HETATM   12  S   UNL     1     -11.312  12.113  64.807  1.00  0.00    -0.319 S  
HETATM   13  C   UNL     1     -12.607  11.968  63.587  1.00  0.00    -0.490 C  
HETATM   14  O   UNL     1     -11.943  11.977  66.108  1.00  0.00    -0.581 OA 
HETATM   15  O   UNL     1     -10.554  13.301  64.489  1.00  0.00    -0.379 OA 
ENDBRANCH  10  12
ENDBRANCH   6  10
BRANCH   9  16
HETATM   16  C   UNL     1      -7.895  11.765  68.462  1.00  0.00    -0.144 A  
HETATM   17  F   UNL     1      -5.721  14.733  70.426  1.00  0.00    -0.114 F  
HETATM   18  C   UNL     1      -8.264  13.129  68.395  1.00  0.00    -0.130 A  
HETATM   19  C   UNL     1      -7.535  14.130  69.046  1.00  0.00    -0.082 A  
HETATM   20  C   UNL     1      -5.995  12.465  69.850  1.00  0.00    -0.146 A  
HETATM   21  C   UNL     1      -6.414  13.784  69.784  1.00  0.00    -0.079 A  
HETATM   22  C   UNL     1      -6.718  11.470  69.179  1.00  0.00    -0.108 A  
ENDBRANCH   9  16
BRANCH   8  23
HETATM   23  C   UNL     1      -8.747   8.969  69.585  1.00  0.00    -0.143 C  
HETATM   24  C   UNL     1      -9.673   8.909  70.563  1.00  0.00    -0.244 C  
BRANCH  24  25
HETATM   25  C   UNL     1      -9.499   8.242  71.912  1.00  0.00    -0.220 C  
HETATM   26  H   UNL     1      -8.390   8.503  73.519  1.00  0.00     0.000 HD 
HETATM   27  O   UNL     1      -8.499   8.921  72.673  1.00  0.00    -0.388 OA 
BRANCH  25  28
HETATM   28  C   UNL     1     -10.793   8.174  72.737  1.00  0.00    -0.390 C  
BRANCH  28  29
HETATM   29  C   UNL     1     -12.069   8.201  71.861  1.00  0.00    -0.323 C  
HETATM   30  O   UNL     1     -12.780   6.963  71.962  1.00  0.00    -0.486 OA 
HETATM   31  H   UNL     1     -13.563   6.980  71.424  1.00  0.00     0.000 HD 
BRANCH  29  32
HETATM   32  C   UNL     1     -13.055   9.286  72.296  1.00  0.00    -0.517 C  
HETATM   33  C   UNL     1     -12.987  10.500  71.414  1.00  0.00    -0.440 C  
HETATM   34  O   UNL     1     -12.730  10.476  70.221  1.00  0.00    -0.310 OA 
HETATM   35  O   UNL     1     -13.258  11.651  72.071  1.00  0.00    -0.501 OA 
ENDBRANCH  29  32
ENDBRANCH  28  29
ENDBRANCH  25  28
ENDBRANCH  24  25
ENDBRANCH   8  23
TORSDOF 8
ENDMDL
MODEL       70
REMARK 921   NORMALIZED FREE ENERGY PREDICTED BY IDOCK:   -5.93 KCAL/MOL
REMARK 922        TOTAL FREE ENERGY PREDICTED BY IDOCK:  -10.25 KCAL/MOL
REMARK 923 INTER-LIGAND FREE ENERGY PREDICTED BY IDOCK:   -8.82 KCAL/MOL
REMARK 924 INTRA-LIGAND FREE ENERGY PREDICTED BY IDOCK:   -1.43 KCAL/MOL
REMARK 927      BINDING AFFINITY PREDICTED BY RF-SCORE:    0.00 PKD
ROOT
HETATM    1  C   UNL     1     -11.274  15.028  67.463  1.00  0.00    -0.333 C  
HETATM    2  C   UNL     1     -10.779  13.626  67.850  1.00  0.00    -0.257 C  
HETATM    3  C   UNL     1      -9.273  13.682  68.121  1.00  0.00    -0.204 C  
HETATM    4  C   UNL     1     -11.515  13.051  69.057  1.00  0.00    -0.303 A  
HETATM    5  N   UNL     1     -12.013  13.966  69.921  1.00  0.00    -0.321 NA 
HETATM    6  C   UNL     1     -12.621  13.493  71.007  1.00  0.00    -0.359 A  
HETATM    7  N   UNL     1     -12.733  12.213  71.347  1.00  0.00    -0.327 NA 
HETATM    8  C   UNL     1     -11.612  11.665  69.286  1.00  0.00    -0.385 A  
HETATM    9  C   UNL     1     -12.187  11.290  70.510  1.00  0.00    -0.383 A  
ENDROOT
BRANCH   6  10
HETATM   10  N   UNL     1     -13.382  14.420  71.740  1.00  0.00    -0.342 N  
HETATM   11  C   UNL     1     -14.363  15.187  70.961  1.00  0.00    -0.160 C  
BRANCH  10  12
HETATM   12  S   UNL     1     -12.538  15.238  72.936  1.00  0.00    -0.459 S  
HETATM   13  C   UNL     1     -11.332  16.216  72.055  1.00  0.00    -0.032 C  
HETATM   14  O   UNL     1     -13.462  16.170  73.557  1.00  0.00    -0.638 OA 
HETATM   15  O   UNL     1     -11.810  14.288  73.746  1.00  0.00     0.076 OA 
ENDBRANCH  10  12
ENDBRANCH   6  10
BRANCH   9  16
HETATM   16  C   UNL     1     -12.272   9.899  71.051  1.00  0.00    -0.446 A  
HETATM   17  F   UNL     1     -12.623   6.028  72.562  1.00  0.00    -0.262 F  
HETATM   18  C   UNL     1     -13.516   9.228  71.103  1.00  0.00    -0.224 A  
HETATM   19  C   UNL     1     -13.641   7.932  71.615  1.00  0.00    -0.397 A  
HETATM   20  C   UNL     1     -11.282   7.906  72.088  1.00  0.00    -0.363 A  
HETATM   21  C   UNL     1     -12.516   7.276  72.088  1.00  0.00    -0.168 A  
HETATM   22  C   UNL     1     -11.167   9.212  71.592  1.00  0.00    -0.447 A  
ENDBRANCH   9  16
BRANCH   8  23
HETATM   23  C   UNL     1     -11.129  10.726  68.255  1.00  0.00    -0.327 C  
HETATM   24  C   UNL     1     -10.105   9.867  68.434  1.00  0.00    -0.189 C  
BRANCH  24  25
HETATM   25  C   UNL     1      -9.702   8.754  67.488  1.00  0.00    -0.167 C  
HETATM   26  H   UNL     1      -8.066   8.170  66.560  1.00  0.00     0.000 HD 
HETATM   27  O   UNL     1      -8.318   8.867  67.153  1.00  0.00    -0.103 OA 
BRANCH  25  28
HETATM   28  C   UNL     1      -9.967   7.347  68.043  1.00  0.00    -0.195 C  
BRANCH  28  29
HETATM   29  C   UNL     1      -9.304   6.231  67.200  1.00  0.00    -0.123 C  
HETATM   30  O   UNL     1      -8.508   5.376  68.027  1.00  0.00    -0.099 OA 
HETATM   31  H   UNL     1      -8.100   4.691  67.509  1.00  0.00     0.000 HD 
BRANCH  29  32
HETATM   32  C   UNL     1     -10.329   5.321  66.523  1.00  0.00    -0.332 C  
HETATM   33  C   UNL     1      -9.691   4.385  65.535  1.00  0.00    -0.200 C  
HETATM   34  O   UNL     1      -8.571   3.916  65.651  1.00  0.00    -0.109 OA 
HETATM   35  O   UNL     1     -10.494   4.090  64.487  1.00  0.00    -0.241 OA 
ENDBRANCH  29  32
ENDBRANCH  28  29
ENDBRANCH  25  28
ENDBRANCH  24  25
ENDBRANCH   8  23
TORSDOF 8
ENDMDL
MODEL       71
REMARK 921   NORMALIZED FREE ENERGY PREDICTED BY IDOCK:   -5.92 KCAL/MOL
REMARK 922        TOTAL FREE ENERGY PREDICTED BY IDOCK:  -10.24 KCAL/MOL
REMARK 923 INTER-LIGAND FREE ENERGY PREDICTED BY IDOCK:   -8.13 KCAL/MOL
REMARK 924 INTRA-LIGAND FREE ENERGY PREDICTED BY IDOCK:   -2.11 KCAL/MOL
REMARK 927      BINDING AFFINITY PREDICTED BY RF-SCORE:    0.00 PKD
ROOT
HETATM    1  C   UNL     1     -12.005  14.551  70.482  1.00  0.00    -0.387 C  
HETATM    2  C   UNL     1     -11.976  13.015  70.451  1.00  0.00    -0.337 C  
HETATM    3  C   UNL     1     -13.385  12.480  70.723  1.00  0.00     0.600 C  
HETATM    4  C   UNL     1     -11.442  12.459  69.135  1.00  0.00    -0.302 A  
HETATM    5  N   UNL     1     -11.621  13.255  68.055  1.00  0.00    -0.314 NA 
HETATM    6  C   UNL     1     -11.204  12.777  66.885  1.00  0.00    -0.296 A  
HETATM    7  N   UNL     1     -10.683  11.573  66.671  1.00  0.00    -0.257 NA 
HETATM    8  C   UNL     1     -10.859  11.180  69.042  1.00  0.00    -0.276 A  
HETATM    9  C   UNL     1     -10.549  10.747  67.744  1.00  0.00    -0.228 A  
ENDROOT
BRANCH   6  10
HETATM   10  N   UNL     1     -11.123  13.706  65.832  1.00  0.00    -0.284 N  
HETATM   11  C   UNL     1     -10.826  15.087  66.233  1.00  0.00    -0.333 C  
BRANCH  10  12
HETATM   12  S   UNL     1     -12.245  13.483  64.606  1.00  0.00    -0.399 S  
HETATM   13  C   UNL     1     -11.371  12.561  63.351  1.00  0.00    -0.422 C  
HETATM   14  O   UNL     1     -13.282  12.607  65.123  1.00  0.00    -0.646 OA 
HETATM   15  O   UNL     1     -12.593  14.763  64.034  1.00  0.00    -0.822 OA 
ENDBRANCH  10  12
ENDBRANCH   6  10
BRANCH   9  16
HETATM   16  C   UNL     1     -10.064   9.384  67.365  1.00  0.00    -0.271 A  
HETATM   17  F   UNL     1      -8.809   5.540  66.345  1.00  0.00    -0.116 F  
HETATM   18  C   UNL     1     -10.963   8.294  67.318  1.00  0.00     0.095 A  
HETATM   19  C   UNL     1     -10.546   7.000  66.983  1.00  0.00    -0.412 A  
HETATM   20  C   UNL     1      -8.290   7.802  66.752  1.00  0.00    -0.125 A  
HETATM   21  C   UNL     1      -9.213   6.770  66.686  1.00  0.00    -0.159 A  
HETATM   22  C   UNL     1      -8.710   9.090  67.108  1.00  0.00    -0.123 A  
ENDBRANCH   9  16
BRANCH   8  23
HETATM   23  C   UNL     1     -10.610  10.407  70.274  1.00  0.00    -0.184 C  
HETATM   24  C   UNL     1     -11.473   9.510  70.792  1.00  0.00    -0.378 C  
BRANCH  24  25
HETATM   25  C   UNL     1     -11.183   8.553  71.931  1.00  0.00    -0.327 C  
HETATM   26  H   UNL     1     -12.218   7.575  73.293  1.00  0.00     0.000 HD 
HETATM   27  O   UNL     1     -12.399   8.175  72.579  1.00  0.00    -0.323 OA 
BRANCH  25  28
HETATM   28  C   UNL     1     -10.434   7.285  71.496  1.00  0.00    -0.220 C  
BRANCH  28  29
HETATM   29  C   UNL     1      -9.225   6.957  72.404  1.00  0.00    -0.133 C  
HETATM   30  O   UNL     1      -8.237   6.212  71.684  1.00  0.00    -0.116 OA 
HETATM   31  H   UNL     1      -7.494   6.011  72.242  1.00  0.00     0.000 HD 
BRANCH  29  32
HETATM   32  C   UNL     1      -8.514   8.213  72.910  1.00  0.00    -0.259 C  
HETATM   33  C   UNL     1      -7.523   8.743  71.913  1.00  0.00    -0.008 C  
HETATM   34  O   UNL     1      -7.653   8.668  70.701  1.00  0.00    -0.064 OA 
HETATM   35  O   UNL     1      -6.456   9.341  72.490  1.00  0.00    -0.307 OA 
ENDBRANCH  29  32
ENDBRANCH  28  29
ENDBRANCH  25  28
ENDBRANCH  24  25
ENDBRANCH   8  23
TORSDOF 8
ENDMDL
MODEL       72
REMARK 921   NORMALIZED FREE ENERGY PREDICTED BY IDOCK:   -5.86 KCAL/MOL
REMARK 922        TOTAL FREE ENERGY PREDICTED BY IDOCK:  -10.15 KCAL/MOL
REMARK 923 INTER-LIGAND FREE ENERGY PREDICTED BY IDOCK:   -8.46 KCAL/MOL
REMARK 924 INTRA-LIGAND FREE ENERGY PREDICTED BY IDOCK:   -1.69 KCAL/MOL
REMARK 927      BINDING AFFINITY PREDICTED BY RF-SCORE:    0.00 PKD
ROOT
HETATM    1  C   UNL     1      -6.374   7.871  66.254  1.00  0.00    -0.046 C  
HETATM    2  C   UNL     1      -7.738   8.465  66.641  1.00  0.00    -0.090 C  
HETATM    3  C   UNL     1      -8.676   8.400  65.432  1.00  0.00    -0.175 C  
HETATM    4  C   UNL     1      -8.369   7.765  67.841  1.00  0.00    -0.123 A  
HETATM    5  N   UNL     1      -8.007   6.472  68.014  1.00  0.00    -0.108 NA 
HETATM    6  C   UNL     1      -8.576   5.824  69.028  1.00  0.00    -0.106 A  
HETATM    7  N   UNL     1      -9.506   6.308  69.845  1.00  0.00    -0.149 NA 
HETATM    8  C   UNL     1      -9.311   8.404  68.671  1.00  0.00    -0.143 A  
HETATM    9  C   UNL     1      -9.914   7.590  69.643  1.00  0.00    -0.184 A  
ENDROOT
BRANCH   6  10
HETATM   10  N   UNL     1      -7.990   4.595  69.381  1.00  0.00    -0.066 N  
HETATM   11  C   UNL     1      -6.548   4.641  69.654  1.00  0.00    -0.033 C  
BRANCH  10  12
HETATM   12  S   UNL     1      -8.574   3.267  68.540  1.00  0.00    -0.097 S  
HETATM   13  C   UNL     1      -9.364   2.254  69.779  1.00  0.00    -0.091 C  
HETATM   14  O   UNL     1      -9.624   3.744  67.656  1.00  0.00    -0.191 OA 
HETATM   15  O   UNL     1      -7.466   2.509  68.008  1.00  0.00    -0.055 OA 
ENDBRANCH  10  12
ENDBRANCH   6  10
BRANCH   9  16
HETATM   16  C   UNL     1     -11.040   7.986  70.544  1.00  0.00    -0.251 A  
HETATM   17  F   UNL     1     -14.243   9.002  73.014  1.00  0.00    -0.410 F  
HETATM   18  C   UNL     1     -12.146   7.123  70.725  1.00  0.00    -0.331 A  
HETATM   19  C   UNL     1     -13.226   7.462  71.548  1.00  0.00    -0.426 A  
HETATM   20  C   UNL     1     -12.176   9.570  72.036  1.00  0.00    -0.370 A  
HETATM   21  C   UNL     1     -13.222   8.678  72.210  1.00  0.00    -0.372 A  
HETATM   22  C   UNL     1     -11.107   9.234  71.195  1.00  0.00    -0.411 A  
ENDBRANCH   9  16
BRANCH   8  23
HETATM   23  C   UNL     1      -9.587   9.840  68.481  1.00  0.00    -0.155 C  
HETATM   24  C   UNL     1     -10.701  10.326  67.897  1.00  0.00    -0.310 C  
BRANCH  24  25
HETATM   25  C   UNL     1     -11.122  11.781  67.857  1.00  0.00    -0.245 C  
HETATM   26  H   UNL     1     -12.177  12.947  66.669  1.00  0.00     0.000 HD 
HETATM   27  O   UNL     1     -11.913  12.035  66.695  1.00  0.00    -0.614 OA 
BRANCH  25  28
HETATM   28  C   UNL     1     -11.905  12.231  69.100  1.00  0.00    -0.355 C  
BRANCH  28  29
HETATM   29  C   UNL     1     -11.753  13.743  69.393  1.00  0.00    -0.325 C  
HETATM   30  O   UNL     1     -12.526  14.519  68.470  1.00  0.00    -0.589 OA 
HETATM   31  H   UNL     1     -12.433  15.447  68.650  1.00  0.00     0.000 HD 
BRANCH  29  32
HETATM   32  C   UNL     1     -12.260  14.124  70.784  1.00  0.00    -0.435 C  
HETATM   33  C   UNL     1     -11.666  15.416  71.270  1.00  0.00    -0.380 C  
HETATM   34  O   UNL     1     -11.366  16.354  70.548  1.00  0.00    -0.363 OA 
HETATM   35  O   UNL     1     -11.504  15.456  72.612  1.00  0.00    -0.459 OA 
ENDBRANCH  29  32
ENDBRANCH  28  29
ENDBRANCH  25  28
ENDBRANCH  24  25
ENDBRANCH   8  23
TORSDOF 8
ENDMDL
MODEL       73
REMARK 921   NORMALIZED FREE ENERGY PREDICTED BY IDOCK:   -5.86 KCAL/MOL
REMARK 922        TOTAL FREE ENERGY PREDICTED BY IDOCK:  -10.14 KCAL/MOL
REMARK 923 INTER-LIGAND FREE ENERGY PREDICTED BY IDOCK:   -9.36 KCAL/MOL
REMARK 924 INTRA-LIGAND FREE ENERGY PREDICTED BY IDOCK:   -0.78 KCAL/MOL
REMARK 927      BINDING AFFINITY PREDICTED BY RF-SCORE:    0.00 PKD
ROOT
HETATM    1  C   UNL     1      -8.195  10.344  65.101  1.00  0.00    -0.158 C  
HETATM    2  C   UNL     1      -9.431  11.159  65.516  1.00  0.00    -0.251 C  
HETATM    3  C   UNL     1     -10.620  10.749  64.642  1.00  0.00    -0.269 C  
HETATM    4  C   UNL     1      -9.777  10.999  66.993  1.00  0.00    -0.182 A  
HETATM    5  N   UNL     1      -9.394   9.828  67.554  1.00  0.00    -0.133 NA 
HETATM    6  C   UNL     1      -9.722   9.643  68.831  1.00  0.00    -0.162 A  
HETATM    7  N   UNL     1     -10.438  10.472  69.584  1.00  0.00    -0.236 NA 
HETATM    8  C   UNL     1     -10.500  11.977  67.703  1.00  0.00    -0.226 A  
HETATM    9  C   UNL     1     -10.872  11.627  69.010  1.00  0.00    -0.203 A  
ENDROOT
BRANCH   6  10
HETATM   10  N   UNL     1      -9.081   8.576  69.484  1.00  0.00    -0.149 N  
HETATM   11  C   UNL     1      -9.893   7.364  69.659  1.00  0.00    -0.175 C  
BRANCH  10  12
HETATM   12  S   UNL     1      -8.080   9.024  70.752  1.00  0.00    -0.174 S  
HETATM   13  C   UNL     1      -6.846   7.736  70.836  1.00  0.00    -0.042 C  
HETATM   14  O   UNL     1      -7.392  10.238  70.352  1.00  0.00    -0.258 OA 
HETATM   15  O   UNL     1      -8.825   8.985  71.989  1.00  0.00    -0.373 OA 
ENDBRANCH  10  12
ENDBRANCH   6  10
BRANCH   9  16
HETATM   16  C   UNL     1     -11.760  12.421  69.913  1.00  0.00    -0.339 A  
HETATM   17  F   UNL     1     -14.284  14.538  72.470  1.00  0.00    -0.513 F  
HETATM   18  C   UNL     1     -12.504  11.777  70.930  1.00  0.00    -0.416 A  
HETATM   19  C   UNL     1     -13.357  12.482  71.787  1.00  0.00    -0.382 A  
HETATM   20  C   UNL     1     -12.802  14.522  70.639  1.00  0.00    -0.399 A  
HETATM   21  C   UNL     1     -13.485  13.854  71.643  1.00  0.00    -0.352 A  
HETATM   22  C   UNL     1     -11.964  13.808  69.772  1.00  0.00    -0.406 A  
ENDBRANCH   9  16
BRANCH   8  23
HETATM   23  C   UNL     1     -10.803  13.267  67.055  1.00  0.00    -0.278 C  
HETATM   24  C   UNL     1      -9.873  14.190  66.735  1.00  0.00    -0.275 C  
BRANCH  24  25
HETATM   25  C   UNL     1     -10.105  15.431  65.896  1.00  0.00    -0.345 C  
HETATM   26  H   UNL     1     -11.469  16.088  64.637  1.00  0.00     0.000 HD 
HETATM   27  O   UNL     1     -11.325  15.311  65.163  1.00  0.00    -0.357 OA 
BRANCH  25  28
HETATM   28  C   UNL     1     -10.141  16.730  66.715  1.00  0.00    -0.295 C  
BRANCH  28  29
HETATM   29  C   UNL     1      -8.745  17.376  66.884  1.00  0.00    -0.246 C  
HETATM   30  O   UNL     1      -7.836  16.887  65.892  1.00  0.00    -0.391 OA 
HETATM   31  H   UNL     1      -6.979  17.283  65.996  1.00  0.00     0.000 HD 
BRANCH  29  32
HETATM   32  C   UNL     1      -8.776  18.894  66.709  1.00  0.00    -0.307 C  
HETATM   33  C   UNL     1      -9.589  19.571  67.775  1.00  0.00    -0.346 C  
HETATM   34  O   UNL     1      -9.688  19.176  68.926  1.00  0.00    -0.403 OA 
HETATM   35  O   UNL     1     -10.206  20.694  67.341  1.00  0.00    -0.320 OA 
ENDBRANCH  29  32
ENDBRANCH  28  29
ENDBRANCH  25  28
ENDBRANCH  24  25
ENDBRANCH   8  23
TORSDOF 8
ENDMDL
MODEL       74
REMARK 921   NORMALIZED FREE ENERGY PREDICTED BY IDOCK:   -5.84 KCAL/MOL
REMARK 922        TOTAL FREE ENERGY PREDICTED BY IDOCK:  -10.11 KCAL/MOL
REMARK 923 INTER-LIGAND FREE ENERGY PREDICTED BY IDOCK:   -8.58 KCAL/MOL
REMARK 924 INTRA-LIGAND FREE ENERGY PREDICTED BY IDOCK:   -1.52 KCAL/MOL
REMARK 927      BINDING AFFINITY PREDICTED BY RF-SCORE:    0.00 PKD
ROOT
HETATM    1  C   UNL     1      -6.624  10.326  70.621  1.00  0.00    -0.042 C  
HETATM    2  C   UNL     1      -6.798  10.925  69.217  1.00  0.00    -0.105 C  
HETATM    3  C   UNL     1      -5.693  10.390  68.301  1.00  0.00    -0.040 C  
HETATM    4  C   UNL     1      -8.171  10.637  68.616  1.00  0.00    -0.135 A  
HETATM    5  N   UNL     1      -8.772   9.508  69.060  1.00  0.00    -0.137 NA 
HETATM    6  C   UNL     1      -9.952   9.208  68.520  1.00  0.00    -0.174 A  
HETATM    7  N   UNL     1     -10.563   9.881  67.550  1.00  0.00    -0.259 NA 
HETATM    8  C   UNL     1      -8.743  11.457  67.624  1.00  0.00    -0.136 A  
HETATM    9  C   UNL     1      -9.939  10.987  67.062  1.00  0.00    -0.190 A  
ENDROOT
BRANCH   6  10
HETATM   10  N   UNL     1     -10.697   8.215  69.180  1.00  0.00    -0.158 N  
HETATM   11  C   UNL     1     -10.943   8.457  70.608  1.00  0.00    -0.243 C  
BRANCH  10  12
HETATM   12  S   UNL     1     -10.347   6.643  68.713  1.00  0.00    -0.210 S  
HETATM   13  C   UNL     1     -10.910   6.534  67.022  1.00  0.00    -0.395 C  
HETATM   14  O   UNL     1      -8.901   6.513  68.684  1.00  0.00    -0.122 OA 
HETATM   15  O   UNL     1     -11.144   5.723  69.490  1.00  0.00    -0.366 OA 
ENDBRANCH  10  12
ENDBRANCH   6  10
BRANCH   9  16
HETATM   16  C   UNL     1     -10.662  11.591  65.901  1.00  0.00    -0.325 A  
HETATM   17  F   UNL     1     -12.760  13.312  62.734  1.00  0.00    -0.262 F  
HETATM   18  C   UNL     1     -11.758  12.459  66.116  1.00  0.00    -0.460 A  
HETATM   19  C   UNL     1     -12.470  13.034  65.057  1.00  0.00    -0.534 A  
HETATM   20  C   UNL     1     -11.051  11.879  63.494  1.00  0.00    -0.506 A  
HETATM   21  C   UNL     1     -12.097  12.751  63.753  1.00  0.00    -0.517 A  
HETATM   22  C   UNL     1     -10.355  11.291  64.559  1.00  0.00    -0.381 A  
ENDBRANCH   9  16
BRANCH   8  23
HETATM   23  C   UNL     1      -8.076  12.721  67.257  1.00  0.00    -0.172 C  
HETATM   24  C   UNL     1      -8.333  13.910  67.838  1.00  0.00    -0.167 C  
BRANCH  24  25
HETATM   25  C   UNL     1      -7.542  15.187  67.639  1.00  0.00    -0.174 C  
HETATM   26  H   UNL     1      -5.737  15.686  67.029  1.00  0.00     0.000 HD 
HETATM   27  O   UNL     1      -6.233  14.886  67.153  1.00  0.00    -0.249 OA 
BRANCH  25  28
HETATM   28  C   UNL     1      -8.212  16.184  66.681  1.00  0.00    -0.321 C  
BRANCH  28  29
HETATM   29  C   UNL     1      -7.648  17.619  66.813  1.00  0.00    -0.222 C  
HETATM   30  O   UNL     1      -8.384  18.531  65.991  1.00  0.00    -0.476 OA 
HETATM   31  H   UNL     1      -8.038  19.412  66.072  1.00  0.00     0.000 HD 
BRANCH  29  32
HETATM   32  C   UNL     1      -7.757  18.162  68.238  1.00  0.00    -0.291 C  
HETATM   33  C   UNL     1      -6.958  19.420  68.428  1.00  0.00    -0.288 C  
HETATM   34  O   UNL     1      -6.773  20.260  67.562  1.00  0.00    -0.223 OA 
HETATM   35  O   UNL     1      -6.461  19.551  69.680  1.00  0.00    -0.305 OA 
ENDBRANCH  29  32
ENDBRANCH  28  29
ENDBRANCH  25  28
ENDBRANCH  24  25
ENDBRANCH   8  23
TORSDOF 8
ENDMDL
MODEL       75
REMARK 921   NORMALIZED FREE ENERGY PREDICTED BY IDOCK:   -5.80 KCAL/MOL
REMARK 922        TOTAL FREE ENERGY PREDICTED BY IDOCK:  -10.06 KCAL/MOL
REMARK 923 INTER-LIGAND FREE ENERGY PREDICTED BY IDOCK:   -9.01 KCAL/MOL
REMARK 924 INTRA-LIGAND FREE ENERGY PREDICTED BY IDOCK:   -1.05 KCAL/MOL
REMARK 927      BINDING AFFINITY PREDICTED BY RF-SCORE:    0.00 PKD
ROOT
HETATM    1  C   UNL     1      -7.860   9.648  63.759  1.00  0.00    -0.139 C  
HETATM    2  C   UNL     1      -8.851  10.583  64.469  1.00  0.00    -0.214 C  
HETATM    3  C   UNL     1      -9.994  10.926  63.510  1.00  0.00    -0.419 C  
HETATM    4  C   UNL     1      -9.402   9.991  65.762  1.00  0.00    -0.189 A  
HETATM    5  N   UNL     1      -9.439   8.638  65.810  1.00  0.00    -0.174 NA 
HETATM    6  C   UNL     1      -9.956   8.094  66.909  1.00  0.00    -0.273 A  
HETATM    7  N   UNL     1     -10.489   8.752  67.933  1.00  0.00    -0.231 NA 
HETATM    8  C   UNL     1      -9.894  10.797  66.806  1.00  0.00    -0.233 A  
HETATM    9  C   UNL     1     -10.504  10.111  67.868  1.00  0.00    -0.222 A  
ENDROOT
BRANCH   6  10
HETATM   10  N   UNL     1      -9.728   6.717  67.080  1.00  0.00    -0.135 N  
HETATM   11  C   UNL     1     -10.897   5.854  66.863  1.00  0.00    -0.296 C  
BRANCH  10  12
HETATM   12  S   UNL     1      -8.703   6.323  68.347  1.00  0.00    -0.115 S  
HETATM   13  C   UNL     1      -8.046   4.719  67.921  1.00  0.00    -0.092 C  
HETATM   14  O   UNL     1      -7.590   7.256  68.308  1.00  0.00    -0.112 OA 
HETATM   15  O   UNL     1      -9.474   6.163  69.558  1.00  0.00    -0.139 OA 
ENDBRANCH  10  12
ENDBRANCH   6  10
BRANCH   9  16
HETATM   16  C   UNL     1     -11.229  10.736  69.017  1.00  0.00    -0.322 A  
HETATM   17  F   UNL     1     -13.270  12.373  72.264  1.00  0.00    -0.574 F  
HETATM   18  C   UNL     1     -11.560   9.965  70.156  1.00  0.00    -0.281 A  
HETATM   19  C   UNL     1     -12.250  10.508  71.245  1.00  0.00    -0.472 A  
HETATM   20  C   UNL     1     -12.353  12.626  70.108  1.00  0.00    -0.222 A  
HETATM   21  C   UNL     1     -12.626  11.841  71.218  1.00  0.00    -0.296 A  
HETATM   22  C   UNL     1     -11.679  12.071  69.012  1.00  0.00    -0.382 A  
ENDBRANCH   9  16
BRANCH   8  23
HETATM   23  C   UNL     1      -9.736  12.262  66.726  1.00  0.00    -0.219 C  
HETATM   24  C   UNL     1     -10.602  13.084  66.101  1.00  0.00    -0.289 C  
BRANCH  24  25
HETATM   25  C   UNL     1     -10.592  14.599  66.160  1.00  0.00    -0.312 C  
HETATM   26  H   UNL     1     -11.131  16.092  64.995  1.00  0.00     0.000 HD 
HETATM   27  O   UNL     1     -11.138  15.143  64.958  1.00  0.00    -0.375 OA 
BRANCH  25  28
HETATM   28  C   UNL     1     -11.358  15.173  67.361  1.00  0.00    -0.309 C  
BRANCH  28  29
HETATM   29  C   UNL     1     -10.452  15.976  68.326  1.00  0.00    -0.269 C  
HETATM   30  O   UNL     1      -9.741  15.097  69.203  1.00  0.00    -0.215 OA 
HETATM   31  H   UNL     1      -9.185  15.589  69.796  1.00  0.00     0.000 HD 
BRANCH  29  32
HETATM   32  C   UNL     1      -9.383  16.784  67.590  1.00  0.00    -0.228 C  
HETATM   33  C   UNL     1      -9.931  18.058  67.014  1.00  0.00    -0.329 C  
HETATM   34  O   UNL     1     -10.829  18.715  67.517  1.00  0.00    -0.435 OA 
HETATM   35  O   UNL     1      -9.318  18.431  65.867  1.00  0.00    -0.494 OA 
ENDBRANCH  29  32
ENDBRANCH  28  29
ENDBRANCH  25  28
ENDBRANCH  24  25
ENDBRANCH   8  23
TORSDOF 8
ENDMDL
MODEL       76
REMARK 921   NORMALIZED FREE ENERGY PREDICTED BY IDOCK:   -5.80 KCAL/MOL
REMARK 922        TOTAL FREE ENERGY PREDICTED BY IDOCK:  -10.05 KCAL/MOL
REMARK 923 INTER-LIGAND FREE ENERGY PREDICTED BY IDOCK:   -7.81 KCAL/MOL
REMARK 924 INTRA-LIGAND FREE ENERGY PREDICTED BY IDOCK:   -2.24 KCAL/MOL
REMARK 927      BINDING AFFINITY PREDICTED BY RF-SCORE:    0.00 PKD
ROOT
HETATM    1  C   UNL     1     -13.041  12.331  71.769  1.00  0.00    -0.449 C  
HETATM    2  C   UNL     1     -12.623  10.884  71.465  1.00  0.00    -0.480 C  
HETATM    3  C   UNL     1     -13.862   9.984  71.500  1.00  0.00    -0.048 C  
HETATM    4  C   UNL     1     -11.903  10.745  70.127  1.00  0.00    -0.343 A  
HETATM    5  N   UNL     1     -12.227  11.672  69.196  1.00  0.00    -0.286 NA 
HETATM    6  C   UNL     1     -11.646  11.549  68.004  1.00  0.00    -0.300 A  
HETATM    7  N   UNL     1     -10.828  10.571  67.629  1.00  0.00    -0.279 NA 
HETATM    8  C   UNL     1     -11.012   9.687  69.862  1.00  0.00    -0.281 A  
HETATM    9  C   UNL     1     -10.541   9.606  68.543  1.00  0.00    -0.220 A  
ENDROOT
BRANCH   6  10
HETATM   10  N   UNL     1     -11.753  12.660  67.149  1.00  0.00    -0.366 N  
HETATM   11  C   UNL     1     -11.759  12.351  65.713  1.00  0.00    -0.414 C  
BRANCH  10  12
HETATM   12  S   UNL     1     -10.901  14.016  67.644  1.00  0.00    -0.265 S  
HETATM   13  C   UNL     1     -10.124  14.633  66.159  1.00  0.00    -0.300 C  
HETATM   14  O   UNL     1     -11.875  15.013  68.052  1.00  0.00    -0.335 OA 
HETATM   15  O   UNL     1      -9.846  13.618  68.546  1.00  0.00    -0.230 OA 
ENDBRANCH  10  12
ENDBRANCH   6  10
BRANCH   9  16
HETATM   16  C   UNL     1      -9.708   8.502  67.974  1.00  0.00    -0.180 A  
HETATM   17  F   UNL     1      -7.291   5.483  66.413  1.00  0.00    -0.072 F  
HETATM   18  C   UNL     1      -8.312   8.472  68.200  1.00  0.00    -0.127 A  
HETATM   19  C   UNL     1      -7.495   7.465  67.674  1.00  0.00    -0.097 A  
HETATM   20  C   UNL     1      -9.420   6.469  66.628  1.00  0.00    -0.193 A  
HETATM   21  C   UNL     1      -8.062   6.461  66.905  1.00  0.00    -0.109 A  
HETATM   22  C   UNL     1     -10.229   7.491  67.142  1.00  0.00    -0.350 A  
ENDBRANCH   9  16
BRANCH   8  23
HETATM   23  C   UNL     1     -10.634   8.768  70.953  1.00  0.00    -0.276 C  
HETATM   24  C   UNL     1     -11.103   7.510  71.080  1.00  0.00    -0.274 C  
BRANCH  24  25
HETATM   25  C   UNL     1     -10.599   6.467  72.057  1.00  0.00    -0.217 C  
HETATM   26  H   UNL     1     -11.356   4.966  73.083  1.00  0.00     0.000 HD 
HETATM   27  O   UNL     1     -11.672   5.619  72.470  1.00  0.00    -0.297 OA 
BRANCH  25  28
HETATM   28  C   UNL     1      -9.463   5.598  71.500  1.00  0.00    -0.177 C  
BRANCH  28  29
HETATM   29  C   UNL     1      -8.146   5.739  72.302  1.00  0.00    -0.107 C  
HETATM   30  O   UNL     1      -7.358   4.549  72.196  1.00  0.00    -0.067 OA 
HETATM   31  H   UNL     1      -6.550   4.636  72.689  1.00  0.00     0.000 HD 
BRANCH  29  32
HETATM   32  C   UNL     1      -7.262   6.873  71.782  1.00  0.00    -0.079 C  
HETATM   33  C   UNL     1      -7.357   8.104  72.637  1.00  0.00    -0.111 C  
HETATM   34  O   UNL     1      -7.540   8.095  73.844  1.00  0.00    -0.156 OA 
HETATM   35  O   UNL     1      -7.203   9.251  71.938  1.00  0.00    -0.326 OA 
ENDBRANCH  29  32
ENDBRANCH  28  29
ENDBRANCH  25  28
ENDBRANCH  24  25
ENDBRANCH   8  23
TORSDOF 8
ENDMDL
MODEL       77
REMARK 921   NORMALIZED FREE ENERGY PREDICTED BY IDOCK:   -5.80 KCAL/MOL
REMARK 922        TOTAL FREE ENERGY PREDICTED BY IDOCK:  -10.05 KCAL/MOL
REMARK 923 INTER-LIGAND FREE ENERGY PREDICTED BY IDOCK:   -9.30 KCAL/MOL
REMARK 924 INTRA-LIGAND FREE ENERGY PREDICTED BY IDOCK:   -0.74 KCAL/MOL
REMARK 927      BINDING AFFINITY PREDICTED BY RF-SCORE:    0.00 PKD
ROOT
HETATM    1  C   UNL     1      -7.697   5.365  67.975  1.00  0.00    -0.091 C  
HETATM    2  C   UNL     1      -8.713   6.498  67.759  1.00  0.00    -0.115 C  
HETATM    3  C   UNL     1      -9.743   6.057  66.715  1.00  0.00    -0.182 C  
HETATM    4  C   UNL     1      -9.412   6.921  69.048  1.00  0.00    -0.137 A  
HETATM    5  N   UNL     1      -9.509   5.960  69.996  1.00  0.00    -0.156 NA 
HETATM    6  C   UNL     1     -10.153   6.287  71.114  1.00  0.00    -0.183 A  
HETATM    7  N   UNL     1     -10.755   7.446  71.360  1.00  0.00    -0.220 NA 
HETATM    8  C   UNL     1      -9.970   8.203  69.212  1.00  0.00    -0.188 A  
HETATM    9  C   UNL     1     -10.707   8.398  70.390  1.00  0.00    -0.231 A  
ENDROOT
BRANCH   6  10
HETATM   10  N   UNL     1     -10.000   5.402  72.195  1.00  0.00    -0.176 N  
HETATM   11  C   UNL     1     -11.228   5.106  72.945  1.00  0.00    -0.294 C  
BRANCH  10  12
HETATM   12  S   UNL     1      -8.587   5.600  73.076  1.00  0.00    -0.120 S  
HETATM   13  C   UNL     1      -7.523   4.273  72.536  1.00  0.00    -0.074 C  
HETATM   14  O   UNL     1      -7.972   6.839  72.632  1.00  0.00    -0.100 OA 
HETATM   15  O   UNL     1      -8.861   5.387  74.478  1.00  0.00    -0.116 OA 
ENDBRANCH  10  12
ENDBRANCH   6  10
BRANCH   9  16
HETATM   16  C   UNL     1     -11.515   9.610  70.730  1.00  0.00    -0.399 A  
HETATM   17  F   UNL     1     -13.687  13.055  71.627  1.00  0.00    -0.406 F  
HETATM   18  C   UNL     1     -11.212  10.858  70.138  1.00  0.00    -0.317 A  
HETATM   19  C   UNL     1     -11.933  12.019  70.440  1.00  0.00    -0.379 A  
HETATM   20  C   UNL     1     -13.290  10.759  71.976  1.00  0.00    -0.403 A  
HETATM   21  C   UNL     1     -12.979  11.954  71.347  1.00  0.00    -0.284 A  
HETATM   22  C   UNL     1     -12.551   9.605  71.685  1.00  0.00    -0.493 A  
ENDBRANCH   9  16
BRANCH   8  23
HETATM   23  C   UNL     1      -9.744   9.229  68.176  1.00  0.00    -0.169 C  
HETATM   24  C   UNL     1     -10.622   9.522  67.195  1.00  0.00    -0.295 C  
BRANCH  24  25
HETATM   25  C   UNL     1     -10.528  10.692  66.237  1.00  0.00    -0.203 C  
HETATM   26  H   UNL     1      -9.704  12.481  66.220  1.00  0.00     0.000 HD 
HETATM   27  O   UNL     1      -9.764  11.748  66.820  1.00  0.00    -0.192 OA 
BRANCH  25  28
HETATM   28  C   UNL     1      -9.914  10.326  64.877  1.00  0.00    -0.393 C  
BRANCH  28  29
HETATM   29  C   UNL     1     -10.281  11.332  63.760  1.00  0.00    -0.377 C  
HETATM   30  O   UNL     1     -10.084  10.749  62.467  1.00  0.00    -0.707 OA 
HETATM   31  H   UNL     1     -10.309  11.367  61.781  1.00  0.00     0.000 HD 
BRANCH  29  32
HETATM   32  C   UNL     1     -11.750  11.752  63.808  1.00  0.00    -0.499 C  
HETATM   33  C   UNL     1     -11.922  13.159  64.306  1.00  0.00    -0.411 C  
HETATM   34  O   UNL     1     -11.126  14.063  64.111  1.00  0.00    -0.257 OA 
HETATM   35  O   UNL     1     -13.072  13.343  64.994  1.00  0.00    -0.734 OA 
ENDBRANCH  29  32
ENDBRANCH  28  29
ENDBRANCH  25  28
ENDBRANCH  24  25
ENDBRANCH   8  23
TORSDOF 8
ENDMDL
MODEL       78
REMARK 921   NORMALIZED FREE ENERGY PREDICTED BY IDOCK:   -5.79 KCAL/MOL
REMARK 922        TOTAL FREE ENERGY PREDICTED BY IDOCK:  -10.05 KCAL/MOL
REMARK 923 INTER-LIGAND FREE ENERGY PREDICTED BY IDOCK:   -8.41 KCAL/MOL
REMARK 924 INTRA-LIGAND FREE ENERGY PREDICTED BY IDOCK:   -1.64 KCAL/MOL
REMARK 927      BINDING AFFINITY PREDICTED BY RF-SCORE:    0.00 PKD
ROOT
HETATM    1  C   UNL     1      -7.261   9.274  63.240  1.00  0.00    -0.092 C  
HETATM    2  C   UNL     1      -8.372  10.022  63.993  1.00  0.00    -0.170 C  
HETATM    3  C   UNL     1      -9.584  10.184  63.071  1.00  0.00    -0.216 C  
HETATM    4  C   UNL     1      -8.780   9.327  65.289  1.00  0.00    -0.184 A  
HETATM    5  N   UNL     1      -8.592   7.986  65.310  1.00  0.00    -0.129 NA 
HETATM    6  C   UNL     1      -8.981   7.347  66.412  1.00  0.00    -0.163 A  
HETATM    7  N   UNL     1      -9.585   7.892  67.462  1.00  0.00    -0.147 NA 
HETATM    8  C   UNL     1      -9.369  10.024  66.361  1.00  0.00    -0.211 A  
HETATM    9  C   UNL     1      -9.826   9.231  67.424  1.00  0.00    -0.178 A  
ENDROOT
BRANCH   6  10
HETATM   10  N   UNL     1      -8.524   6.024  66.550  1.00  0.00    -0.112 N  
HETATM   11  C   UNL     1      -7.070   5.845  66.437  1.00  0.00    -0.068 C  
BRANCH  10  12
HETATM   12  S   UNL     1      -9.502   4.862  65.841  1.00  0.00    -0.172 S  
HETATM   13  C   UNL     1      -9.117   3.350  66.710  1.00  0.00    -0.167 C  
HETATM   14  O   UNL     1     -10.877   5.196  66.170  1.00  0.00    -0.282 OA 
HETATM   15  O   UNL     1      -9.109   4.677  64.464  1.00  0.00    -0.155 OA 
ENDBRANCH  10  12
ENDBRANCH   6  10
BRANCH   9  16
HETATM   16  C   UNL     1     -10.611   9.709  68.603  1.00  0.00    -0.246 A  
HETATM   17  F   UNL     1     -12.768  10.951  71.950  1.00  0.00    -0.476 F  
HETATM   18  C   UNL     1     -10.450   9.092  69.866  1.00  0.00    -0.239 A  
HETATM   19  C   UNL     1     -11.176   9.501  70.990  1.00  0.00    -0.432 A  
HETATM   20  C   UNL     1     -12.299  11.153  69.650  1.00  0.00    -0.287 A  
HETATM   21  C   UNL     1     -12.083  10.541  70.874  1.00  0.00    -0.383 A  
HETATM   22  C   UNL     1     -11.583  10.726  68.523  1.00  0.00    -0.325 A  
ENDBRANCH   9  16
BRANCH   8  23
HETATM   23  C   UNL     1      -9.457  11.496  66.305  1.00  0.00    -0.235 C  
HETATM   24  C   UNL     1     -10.473  12.173  65.733  1.00  0.00    -0.287 C  
BRANCH  24  25
HETATM   25  C   UNL     1     -10.709  13.667  65.824  1.00  0.00    -0.280 C  
HETATM   26  H   UNL     1     -10.945  15.170  64.572  1.00  0.00     0.000 HD 
HETATM   27  O   UNL     1     -10.797  14.234  64.515  1.00  0.00    -0.381 OA 
BRANCH  25  28
HETATM   28  C   UNL     1     -11.969  14.045  66.616  1.00  0.00    -0.473 C  
BRANCH  28  29
HETATM   29  C   UNL     1     -11.651  14.793  67.934  1.00  0.00    -0.351 C  
HETATM   30  O   UNL     1     -12.634  14.501  68.933  1.00  0.00    -0.560 OA 
HETATM   31  H   UNL     1     -12.438  14.961  69.741  1.00  0.00     0.000 HD 
BRANCH  29  32
HETATM   32  C   UNL     1     -10.309  14.375  68.535  1.00  0.00    -0.248 C  
HETATM   33  C   UNL     1      -9.808  15.366  69.547  1.00  0.00    -0.260 C  
HETATM   34  O   UNL     1     -10.525  16.030  70.279  1.00  0.00    -0.253 OA 
HETATM   35  O   UNL     1      -8.459  15.450  69.588  1.00  0.00    -0.247 OA 
ENDBRANCH  29  32
ENDBRANCH  28  29
ENDBRANCH  25  28
ENDBRANCH  24  25
ENDBRANCH   8  23
TORSDOF 8
ENDMDL
MODEL       79
REMARK 921   NORMALIZED FREE ENERGY PREDICTED BY IDOCK:   -5.78 KCAL/MOL
REMARK 922        TOTAL FREE ENERGY PREDICTED BY IDOCK:  -10.03 KCAL/MOL
REMARK 923 INTER-LIGAND FREE ENERGY PREDICTED BY IDOCK:   -8.48 KCAL/MOL
REMARK 924 INTRA-LIGAND FREE ENERGY PREDICTED BY IDOCK:   -1.54 KCAL/MOL
REMARK 927      BINDING AFFINITY PREDICTED BY RF-SCORE:    0.00 PKD
ROOT
HETATM    1  C   UNL     1      -5.360  16.485  67.179  1.00  0.00    -0.129 C  
HETATM    2  C   UNL     1      -6.107  15.683  68.257  1.00  0.00    -0.119 C  
HETATM    3  C   UNL     1      -5.303  15.723  69.560  1.00  0.00    -0.107 C  
HETATM    4  C   UNL     1      -7.527  16.189  68.494  1.00  0.00    -0.167 A  
HETATM    5  N   UNL     1      -7.728  17.499  68.221  1.00  0.00    -0.237 NA 
HETATM    6  C   UNL     1      -8.946  17.979  68.460  1.00  0.00    -0.289 A  
HETATM    7  N   UNL     1      -9.962  17.307  68.993  1.00  0.00    -0.294 NA 
HETATM    8  C   UNL     1      -8.539  15.363  69.019  1.00  0.00    -0.227 A  
HETATM    9  C   UNL     1      -9.750  16.004  69.320  1.00  0.00    -0.257 A  
ENDROOT
BRANCH   6  10
HETATM   10  N   UNL     1      -9.231  19.241  67.909  1.00  0.00    -0.307 N  
HETATM   11  C   UNL     1     -10.233  20.033  68.635  1.00  0.00    -0.320 C  
BRANCH  10  12
HETATM   12  S   UNL     1      -9.278  19.286  66.234  1.00  0.00    -0.278 S  
HETATM   13  C   UNL     1      -7.658  19.858  65.747  1.00  0.00    -0.297 C  
HETATM   14  O   UNL     1      -9.397  17.916  65.768  1.00  0.00    -0.507 OA 
HETATM   15  O   UNL     1     -10.231  20.284  65.807  1.00  0.00    -0.399 OA 
ENDBRANCH  10  12
ENDBRANCH   6  10
BRANCH   9  16
HETATM   16  C   UNL     1     -10.921  15.387  70.016  1.00  0.00    -0.313 A  
HETATM   17  F   UNL     1     -14.211  13.609  71.861  1.00  0.00    -0.464 F  
HETATM   18  C   UNL     1     -11.614  14.305  69.425  1.00  0.00    -0.354 A  
HETATM   19  C   UNL     1     -12.723  13.709  70.036  1.00  0.00    -0.044 A  
HETATM   20  C   UNL     1     -12.536  15.265  71.861  1.00  0.00    -0.428 A  
HETATM   21  C   UNL     1     -13.163  14.186  71.260  1.00  0.00    -0.329 A  
HETATM   22  C   UNL     1     -11.439  15.871  71.234  1.00  0.00    -0.489 A  
ENDBRANCH   9  16
BRANCH   8  23
HETATM   23  C   UNL     1      -8.275  13.923  69.205  1.00  0.00     0.277 C  
HETATM   24  C   UNL     1      -8.580  12.974  68.297  1.00  0.00    -0.167 C  
BRANCH  24  25
HETATM   25  C   UNL     1      -8.153  11.521  68.352  1.00  0.00    -0.149 C  
HETATM   26  H   UNL     1      -6.830  10.442  69.334  1.00  0.00     0.000 HD 
HETATM   27  O   UNL     1      -7.098  11.352  69.300  1.00  0.00    -0.118 OA 
BRANCH  25  28
HETATM   28  C   UNL     1      -9.296  10.556  68.701  1.00  0.00    -0.172 C  
BRANCH  28  29
HETATM   29  C   UNL     1      -9.736   9.684  67.501  1.00  0.00    -0.158 C  
HETATM   30  O   UNL     1     -11.114   9.315  67.620  1.00  0.00    -0.485 OA 
HETATM   31  H   UNL     1     -11.385   8.780  66.883  1.00  0.00     0.000 HD 
BRANCH  29  32
HETATM   32  C   UNL     1      -9.616  10.420  66.166  1.00  0.00    -0.245 C  
HETATM   33  C   UNL     1     -10.820  11.270  65.877  1.00  0.00    -0.202 C  
HETATM   34  O   UNL     1     -11.488  11.836  66.728  1.00  0.00    -0.401 OA 
HETATM   35  O   UNL     1     -11.098  11.368  64.557  1.00  0.00    -0.309 OA 
ENDBRANCH  29  32
ENDBRANCH  28  29
ENDBRANCH  25  28
ENDBRANCH  24  25
ENDBRANCH   8  23
TORSDOF 8
ENDMDL
MODEL       80
REMARK 921   NORMALIZED FREE ENERGY PREDICTED BY IDOCK:   -5.76 KCAL/MOL
REMARK 922        TOTAL FREE ENERGY PREDICTED BY IDOCK:  -10.00 KCAL/MOL
REMARK 923 INTER-LIGAND FREE ENERGY PREDICTED BY IDOCK:   -8.02 KCAL/MOL
REMARK 924 INTRA-LIGAND FREE ENERGY PREDICTED BY IDOCK:   -1.98 KCAL/MOL
REMARK 927      BINDING AFFINITY PREDICTED BY RF-SCORE:    0.00 PKD
ROOT
HETATM    1  C   UNL     1     -10.730   4.979  73.126  1.00  0.00    -0.314 C  
HETATM    2  C   UNL     1     -10.715   6.380  72.495  1.00  0.00    -0.256 C  
HETATM    3  C   UNL     1     -10.123   7.376  73.497  1.00  0.00    -0.390 C  
HETATM    4  C   UNL     1      -9.945   6.429  71.179  1.00  0.00    -0.180 A  
HETATM    5  N   UNL     1      -8.962   5.507  71.049  1.00  0.00    -0.139 NA 
HETATM    6  C   UNL     1      -8.244   5.554  69.929  1.00  0.00    -0.105 A  
HETATM    7  N   UNL     1      -8.364   6.454  68.959  1.00  0.00    -0.118 NA 
HETATM    8  C   UNL     1     -10.199   7.406  70.197  1.00  0.00    -0.207 A  
HETATM    9  C   UNL     1      -9.315   7.416  69.108  1.00  0.00    -0.146 A  
ENDROOT
BRANCH   6  10
HETATM   10  N   UNL     1      -7.434   4.435  69.669  1.00  0.00    -0.051 N  
HETATM   11  C   UNL     1      -5.987   4.688  69.680  1.00  0.00    -0.018 C  
BRANCH  10  12
HETATM   12  S   UNL     1      -8.026   3.393  68.496  1.00  0.00    -0.061 S  
HETATM   13  C   UNL     1      -7.309   1.806  68.892  1.00  0.00    -0.043 C  
HETATM   14  O   UNL     1      -9.458   3.272  68.710  1.00  0.00    -0.171 OA 
HETATM   15  O   UNL     1      -7.515   3.784  67.203  1.00  0.00    -0.070 OA 
ENDBRANCH  10  12
ENDBRANCH   6  10
BRANCH   9  16
HETATM   16  C   UNL     1      -9.280   8.436  68.015  1.00  0.00    -0.143 A  
HETATM   17  F   UNL     1      -9.137  11.356  65.040  1.00  0.00    -0.205 F  
HETATM   18  C   UNL     1      -8.568   9.646  68.190  1.00  0.00    -0.119 A  
HETATM   19  C   UNL     1      -8.522  10.632  67.198  1.00  0.00    -0.128 A  
HETATM   20  C   UNL     1      -9.929   9.271  65.799  1.00  0.00    -0.215 A  
HETATM   21  C   UNL     1      -9.192  10.426  66.002  1.00  0.00    -0.167 A  
HETATM   22  C   UNL     1      -9.988   8.296  66.804  1.00  0.00    -0.355 A  
ENDBRANCH   9  16
BRANCH   8  23
HETATM   23  C   UNL     1     -11.346   8.319  70.364  1.00  0.00    -0.177 C  
HETATM   24  C   UNL     1     -11.239   9.609  70.739  1.00  0.00    -0.403 C  
BRANCH  24  25
HETATM   25  C   UNL     1     -12.355  10.633  70.732  1.00  0.00    -0.376 C  
HETATM   26  H   UNL     1     -13.647  11.370  72.024  1.00  0.00     0.000 HD 
HETATM   27  O   UNL     1     -12.947  10.728  72.029  1.00  0.00    -0.463 OA 
BRANCH  25  28
HETATM   28  C   UNL     1     -11.905  12.033  70.287  1.00  0.00    -0.356 C  
BRANCH  28  29
HETATM   29  C   UNL     1     -11.552  12.102  68.781  1.00  0.00    -0.327 C  
HETATM   30  O   UNL     1     -12.237  11.078  68.052  1.00  0.00    -0.703 OA 
HETATM   31  H   UNL     1     -12.020  11.120  67.128  1.00  0.00     0.000 HD 
BRANCH  29  32
HETATM   32  C   UNL     1     -11.974  13.424  68.140  1.00  0.00    -0.356 C  
HETATM   33  C   UNL     1     -11.793  13.414  66.649  1.00  0.00    -0.395 C  
HETATM   34  O   UNL     1     -11.920  12.426  65.942  1.00  0.00    -0.516 OA 
HETATM   35  O   UNL     1     -11.483  14.629  66.142  1.00  0.00    -0.346 OA 
ENDBRANCH  29  32
ENDBRANCH  28  29
ENDBRANCH  25  28
ENDBRANCH  24  25
ENDBRANCH   8  23
TORSDOF 8
ENDMDL
MODEL       81
REMARK 921   NORMALIZED FREE ENERGY PREDICTED BY IDOCK:   -5.75 KCAL/MOL
REMARK 922        TOTAL FREE ENERGY PREDICTED BY IDOCK:   -9.98 KCAL/MOL
REMARK 923 INTER-LIGAND FREE ENERGY PREDICTED BY IDOCK:   -8.54 KCAL/MOL
REMARK 924 INTRA-LIGAND FREE ENERGY PREDICTED BY IDOCK:   -1.45 KCAL/MOL
REMARK 927      BINDING AFFINITY PREDICTED BY RF-SCORE:    0.00 PKD
ROOT
HETATM    1  C   UNL     1     -10.455   9.319  71.546  1.00  0.00    -0.385 C  
HETATM    2  C   UNL     1     -10.617   9.624  70.048  1.00  0.00    -0.300 C  
HETATM    3  C   UNL     1     -11.583   8.608  69.431  1.00  0.00     0.664 C  
HETATM    4  C   UNL     1     -11.101  11.046  69.783  1.00  0.00    -0.235 A  
HETATM    5  N   UNL     1     -11.837  11.602  70.774  1.00  0.00    -0.169 NA 
HETATM    6  C   UNL     1     -12.310  12.826  70.551  1.00  0.00    -0.275 A  
HETATM    7  N   UNL     1     -12.175  13.526  69.429  1.00  0.00    -0.278 NA 
HETATM    8  C   UNL     1     -10.851  11.708  68.565  1.00  0.00    -0.257 A  
HETATM    9  C   UNL     1     -11.483  12.952  68.409  1.00  0.00    -0.312 A  
ENDROOT
BRANCH   6  10
HETATM   10  N   UNL     1     -12.814  13.506  71.674  1.00  0.00    -0.346 N  
HETATM   11  C   UNL     1     -13.949  12.858  72.345  1.00  0.00    -0.240 C  
BRANCH  10  12
HETATM   12  S   UNL     1     -12.855  15.176  71.529  1.00  0.00    -0.409 S  
HETATM   13  C   UNL     1     -13.168  15.770  73.183  1.00  0.00    -0.591 C  
HETATM   14  O   UNL     1     -11.516  15.611  71.173  1.00  0.00    -0.343 OA 
HETATM   15  O   UNL     1     -13.985  15.560  70.715  1.00  0.00    -0.421 OA 
ENDBRANCH  10  12
ENDBRANCH   6  10
BRANCH   9  16
HETATM   16  C   UNL     1     -11.496  13.779  67.164  1.00  0.00    -0.365 A  
HETATM   17  F   UNL     1     -11.479  16.172  63.748  1.00  0.00    -0.239 F  
HETATM   18  C   UNL     1     -10.707  14.950  67.077  1.00  0.00    -0.307 A  
HETATM   19  C   UNL     1     -10.703  15.760  65.936  1.00  0.00    -0.320 A  
HETATM   20  C   UNL     1     -12.307  14.294  64.904  1.00  0.00    -0.435 A  
HETATM   21  C   UNL     1     -11.492  15.413  64.851  1.00  0.00    -0.311 A  
HETATM   22  C   UNL     1     -12.322  13.498  66.058  1.00  0.00    -0.486 A  
ENDBRANCH   9  16
BRANCH   8  23
HETATM   23  C   UNL     1      -9.963  11.079  67.568  1.00  0.00    -0.199 C  
HETATM   24  C   UNL     1     -10.398  10.347  66.523  1.00  0.00    -0.287 C  
BRANCH  24  25
HETATM   25  C   UNL     1      -9.548   9.852  65.369  1.00  0.00    -0.285 C  
HETATM   26  H   UNL     1      -8.280  10.626  64.075  1.00  0.00     0.000 HD 
HETATM   27  O   UNL     1      -8.813  10.935  64.798  1.00  0.00    -0.177 OA 
BRANCH  25  28
HETATM   28  C   UNL     1      -8.567   8.736  65.761  1.00  0.00    -0.185 C  
BRANCH  28  29
HETATM   29  C   UNL     1      -9.237   7.343  65.831  1.00  0.00     0.031 C  
HETATM   30  O   UNL     1      -8.702   6.472  64.829  1.00  0.00    -0.349 OA 
HETATM   31  H   UNL     1      -9.114   5.616  64.871  1.00  0.00     0.000 HD 
BRANCH  29  32
HETATM   32  C   UNL     1      -8.992   6.641  67.167  1.00  0.00    -0.118 C  
HETATM   33  C   UNL     1      -9.971   5.528  67.411  1.00  0.00    -0.162 C  
HETATM   34  O   UNL     1     -10.457   4.830  66.535  1.00  0.00    -0.268 OA 
HETATM   35  O   UNL     1     -10.262   5.352  68.720  1.00  0.00    -0.178 OA 
ENDBRANCH  29  32
ENDBRANCH  28  29
ENDBRANCH  25  28
ENDBRANCH  24  25
ENDBRANCH   8  23
TORSDOF 8
ENDMDL
MODEL       82
REMARK 921   NORMALIZED FREE ENERGY PREDICTED BY IDOCK:   -5.73 KCAL/MOL
REMARK 922        TOTAL FREE ENERGY PREDICTED BY IDOCK:   -9.95 KCAL/MOL
REMARK 923 INTER-LIGAND FREE ENERGY PREDICTED BY IDOCK:   -8.53 KCAL/MOL
REMARK 924 INTRA-LIGAND FREE ENERGY PREDICTED BY IDOCK:   -1.42 KCAL/MOL
REMARK 927      BINDING AFFINITY PREDICTED BY RF-SCORE:    0.00 PKD
ROOT
HETATM    1  C   UNL     1     -10.299   9.340  71.433  1.00  0.00    -0.392 C  
HETATM    2  C   UNL     1     -10.437   9.692  69.943  1.00  0.00    -0.285 C  
HETATM    3  C   UNL     1     -11.381   8.688  69.275  1.00  0.00     0.391 C  
HETATM    4  C   UNL     1     -10.930  11.118  69.715  1.00  0.00    -0.150 A  
HETATM    5  N   UNL     1     -11.689  11.634  70.709  1.00  0.00    -0.010 NA 
HETATM    6  C   UNL     1     -12.170  12.861  70.518  1.00  0.00    -0.314 A  
HETATM    7  N   UNL     1     -12.021  13.598  69.422  1.00  0.00    -0.334 NA 
HETATM    8  C   UNL     1     -10.663  11.821  68.525  1.00  0.00    -0.251 A  
HETATM    9  C   UNL     1     -11.304  13.064  68.397  1.00  0.00    -0.291 A  
ENDROOT
BRANCH   6  10
HETATM   10  N   UNL     1     -12.702  13.499  71.653  1.00  0.00    -0.320 N  
HETATM   11  C   UNL     1     -13.985  12.968  72.130  1.00  0.00    -0.243 C  
BRANCH  10  12
HETATM   12  S   UNL     1     -12.492  15.162  71.691  1.00  0.00    -0.386 S  
HETATM   13  C   UNL     1     -13.112  15.663  73.288  1.00  0.00    -0.564 C  
HETATM   14  O   UNL     1     -11.062  15.417  71.696  1.00  0.00    -0.363 OA 
HETATM   15  O   UNL     1     -13.336  15.775  70.692  1.00  0.00    -0.486 OA 
ENDBRANCH  10  12
ENDBRANCH   6  10
BRANCH   9  16
HETATM   16  C   UNL     1     -11.303  13.932  67.180  1.00  0.00    -0.346 A  
HETATM   17  F   UNL     1     -11.363  16.274  63.730  1.00  0.00    -0.187 F  
HETATM   18  C   UNL     1     -12.173  13.649  66.101  1.00  0.00    -0.490 A  
HETATM   19  C   UNL     1     -12.193  14.428  64.939  1.00  0.00    -0.440 A  
HETATM   20  C   UNL     1     -10.443  15.807  65.848  1.00  0.00    -0.366 A  
HETATM   21  C   UNL     1     -11.337  15.512  64.831  1.00  0.00    -0.335 A  
HETATM   22  C   UNL     1     -10.414  15.011  67.001  1.00  0.00    -0.278 A  
ENDBRANCH   9  16
BRANCH   8  23
HETATM   23  C   UNL     1      -9.751  11.234  67.525  1.00  0.00    -0.192 C  
HETATM   24  C   UNL     1      -8.429  11.491  67.461  1.00  0.00    -0.143 C  
BRANCH  24  25
HETATM   25  C   UNL     1      -7.423  10.768  66.589  1.00  0.00    -0.135 C  
HETATM   26  H   UNL     1      -5.473  10.493  66.560  1.00  0.00     0.000 HD 
HETATM   27  O   UNL     1      -6.104  10.946  67.106  1.00  0.00    -0.058 OA 
BRANCH  25  28
HETATM   28  C   UNL     1      -7.702   9.264  66.445  1.00  0.00    -0.093 C  
BRANCH  28  29
HETATM   29  C   UNL     1      -7.864   8.820  64.971  1.00  0.00    -0.111 C  
HETATM   30  O   UNL     1      -9.105   8.132  64.782  1.00  0.00    -0.332 OA 
HETATM   31  H   UNL     1      -9.205   7.859  63.877  1.00  0.00     0.000 HD 
BRANCH  29  32
HETATM   32  C   UNL     1      -7.892  10.003  64.002  1.00  0.00    -0.150 C  
HETATM   33  C   UNL     1      -9.294  10.435  63.675  1.00  0.00    -0.291 C  
HETATM   34  O   UNL     1     -10.236  10.370  64.448  1.00  0.00    -0.333 OA 
HETATM   35  O   UNL     1      -9.419  10.928  62.422  1.00  0.00    -0.247 OA 
ENDBRANCH  29  32
ENDBRANCH  28  29
ENDBRANCH  25  28
ENDBRANCH  24  25
ENDBRANCH   8  23
TORSDOF 8
ENDMDL
MODEL       83
REMARK 921   NORMALIZED FREE ENERGY PREDICTED BY IDOCK:   -5.72 KCAL/MOL
REMARK 922        TOTAL FREE ENERGY PREDICTED BY IDOCK:   -9.94 KCAL/MOL
REMARK 923 INTER-LIGAND FREE ENERGY PREDICTED BY IDOCK:   -8.11 KCAL/MOL
REMARK 924 INTRA-LIGAND FREE ENERGY PREDICTED BY IDOCK:   -1.83 KCAL/MOL
REMARK 927      BINDING AFFINITY PREDICTED BY RF-SCORE:    0.00 PKD
ROOT
HETATM    1  C   UNL     1     -11.846  11.918  63.791  1.00  0.00    -0.558 C  
HETATM    2  C   UNL     1     -10.756  11.000  64.367  1.00  0.00    -0.340 C  
HETATM    3  C   UNL     1      -9.559  10.980  63.411  1.00  0.00    -0.361 C  
HETATM    4  C   UNL     1     -10.310  11.416  65.765  1.00  0.00    -0.255 A  
HETATM    5  N   UNL     1     -10.449  12.731  66.050  1.00  0.00    -0.269 NA 
HETATM    6  C   UNL     1     -10.027  13.130  67.249  1.00  0.00    -0.230 A  
HETATM    7  N   UNL     1      -9.433  12.370  68.163  1.00  0.00    -0.210 NA 
HETATM    8  C   UNL     1      -9.737  10.503  66.672  1.00  0.00    -0.232 A  
HETATM    9  C   UNL     1      -9.242  11.058  67.862  1.00  0.00    -0.155 A  
ENDROOT
BRANCH   6  10
HETATM   10  N   UNL     1     -10.434  14.415  67.649  1.00  0.00    -0.245 N  
HETATM   11  C   UNL     1     -11.876  14.577  67.878  1.00  0.00    -0.336 C  
BRANCH  10  12
HETATM   12  S   UNL     1      -9.626  15.678  66.898  1.00  0.00    -0.240 S  
HETATM   13  C   UNL     1      -9.966  17.106  67.914  1.00  0.00    -0.292 C  
HETATM   14  O   UNL     1      -8.203  15.409  67.014  1.00  0.00    -0.200 OA 
HETATM   15  O   UNL     1     -10.216  15.923  65.602  1.00  0.00    -0.334 OA 
ENDBRANCH  10  12
ENDBRANCH   6  10
BRANCH   9  16
HETATM   16  C   UNL     1      -8.464  10.332  68.912  1.00  0.00    -0.138 A  
HETATM   17  F   UNL     1      -6.385   8.314  71.912  1.00  0.00    -0.042 F  
HETATM   18  C   UNL     1      -9.117   9.819  70.057  1.00  0.00    -0.258 A  
HETATM   19  C   UNL     1      -8.423   9.146  71.070  1.00  0.00    -0.221 A  
HETATM   20  C   UNL     1      -6.366   9.488  69.870  1.00  0.00    -0.050 A  
HETATM   21  C   UNL     1      -7.053   8.973  70.957  1.00  0.00    -0.100 A  
HETATM   22  C   UNL     1      -7.063  10.178  68.869  1.00  0.00    -0.069 A  
ENDBRANCH   9  16
BRANCH   8  23
HETATM   23  C   UNL     1      -9.703   9.067  66.330  1.00  0.00    -0.345 C  
HETATM   24  C   UNL     1     -10.072   8.080  67.170  1.00  0.00    -0.334 C  
BRANCH  24  25
HETATM   25  C   UNL     1     -10.245   6.619  66.805  1.00  0.00    -0.195 C  
HETATM   26  H   UNL     1      -9.078   5.094  66.365  1.00  0.00     0.000 HD 
HETATM   27  O   UNL     1      -8.970   6.010  66.594  1.00  0.00    -0.120 OA 
BRANCH  25  28
HETATM   28  C   UNL     1     -11.017   5.808  67.855  1.00  0.00    -0.140 C  
BRANCH  28  29
HETATM   29  C   UNL     1     -10.872   6.382  69.286  1.00  0.00    -0.327 C  
HETATM   30  O   UNL     1     -12.116   6.922  69.744  1.00  0.00    -0.623 OA 
HETATM   31  H   UNL     1     -12.027   7.274  70.622  1.00  0.00     0.000 HD 
BRANCH  29  32
HETATM   32  C   UNL     1     -10.479   5.315  70.308  1.00  0.00    -0.332 C  
HETATM   33  C   UNL     1     -10.250   5.897  71.674  1.00  0.00    -0.202 C  
HETATM   34  O   UNL     1     -10.851   6.858  72.127  1.00  0.00    -0.216 OA 
HETATM   35  O   UNL     1      -9.306   5.235  72.382  1.00  0.00    -0.140 OA 
ENDBRANCH  29  32
ENDBRANCH  28  29
ENDBRANCH  25  28
ENDBRANCH  24  25
ENDBRANCH   8  23
TORSDOF 8
ENDMDL
MODEL       84
REMARK 921   NORMALIZED FREE ENERGY PREDICTED BY IDOCK:   -5.71 KCAL/MOL
REMARK 922        TOTAL FREE ENERGY PREDICTED BY IDOCK:   -9.92 KCAL/MOL
REMARK 923 INTER-LIGAND FREE ENERGY PREDICTED BY IDOCK:   -8.39 KCAL/MOL
REMARK 924 INTRA-LIGAND FREE ENERGY PREDICTED BY IDOCK:   -1.53 KCAL/MOL
REMARK 927      BINDING AFFINITY PREDICTED BY RF-SCORE:    0.00 PKD
ROOT
HETATM    1  C   UNL     1      -5.459  16.008  68.764  1.00  0.00    -0.111 C  
HETATM    2  C   UNL     1      -6.567  14.949  68.652  1.00  0.00    -0.087 C  
HETATM    3  C   UNL     1      -7.202  14.738  70.030  1.00  0.00     0.035 C  
HETATM    4  C   UNL     1      -7.635  15.317  67.626  1.00  0.00    -0.172 A  
HETATM    5  N   UNL     1      -7.802  16.643  67.415  1.00  0.00    -0.158 NA 
HETATM    6  C   UNL     1      -8.758  16.995  66.557  1.00  0.00    -0.263 A  
HETATM    7  N   UNL     1      -9.597  16.171  65.937  1.00  0.00    -0.384 NA 
HETATM    8  C   UNL     1      -8.432  14.344  66.992  1.00  0.00    -0.206 A  
HETATM    9  C   UNL     1      -9.469  14.840  66.187  1.00  0.00    -0.292 A  
ENDROOT
BRANCH   6  10
HETATM   10  N   UNL     1      -8.734  18.332  66.123  1.00  0.00    -0.165 N  
HETATM   11  C   UNL     1      -7.408  18.962  66.095  1.00  0.00    -0.266 C  
BRANCH  10  12
HETATM   12  S   UNL     1     -10.022  19.268  66.649  1.00  0.00    -0.415 S  
HETATM   13  C   UNL     1      -9.268  20.700  67.402  1.00  0.00    -0.300 C  
HETATM   14  O   UNL     1     -10.726  19.737  65.468  1.00  0.00    -0.479 OA 
HETATM   15  O   UNL     1     -10.736  18.563  67.688  1.00  0.00    -0.423 OA 
ENDBRANCH  10  12
ENDBRANCH   6  10
BRANCH   9  16
HETATM   16  C   UNL     1     -10.535  14.025  65.528  1.00  0.00    -0.339 A  
HETATM   17  F   UNL     1     -13.437  11.729  63.604  1.00  0.00    -0.440 F  
HETATM   18  C   UNL     1     -10.221  13.195  64.427  1.00  0.00    -0.319 A  
HETATM   19  C   UNL     1     -11.192  12.427  63.773  1.00  0.00    -0.520 A  
HETATM   20  C   UNL     1     -12.866  13.299  65.265  1.00  0.00    -0.368 A  
HETATM   21  C   UNL     1     -12.506  12.475  64.211  1.00  0.00    -0.432 A  
HETATM   22  C   UNL     1     -11.893  14.081  65.902  1.00  0.00    -0.395 A  
ENDBRANCH   9  16
BRANCH   8  23
HETATM   23  C   UNL     1      -8.132  12.915  67.200  1.00  0.00    -0.122 C  
HETATM   24  C   UNL     1      -9.051  11.989  67.542  1.00  0.00    -0.177 C  
BRANCH  24  25
HETATM   25  C   UNL     1      -8.835  10.490  67.571  1.00  0.00    -0.131 C  
HETATM   26  H   UNL     1      -8.507   9.105  68.933  1.00  0.00     0.000 HD 
HETATM   27  O   UNL     1      -8.643  10.045  68.915  1.00  0.00    -0.122 OA 
BRANCH  25  28
HETATM   28  C   UNL     1      -9.984   9.689  66.941  1.00  0.00    -0.272 C  
BRANCH  28  29
HETATM   29  C   UNL     1      -9.940   8.185  67.302  1.00  0.00    -0.218 C  
HETATM   30  O   UNL     1     -11.259   7.680  67.534  1.00  0.00    -0.491 OA 
HETATM   31  H   UNL     1     -11.232   6.756  67.756  1.00  0.00     0.000 HD 
BRANCH  29  32
HETATM   32  C   UNL     1      -9.358   7.329  66.177  1.00  0.00    -0.101 C  
HETATM   33  C   UNL     1      -7.868   7.180  66.291  1.00  0.00    -0.107 C  
HETATM   34  O   UNL     1      -7.255   7.143  67.346  1.00  0.00    -0.085 OA 
HETATM   35  O   UNL     1      -7.250   7.072  65.092  1.00  0.00    -0.068 OA 
ENDBRANCH  29  32
ENDBRANCH  28  29
ENDBRANCH  25  28
ENDBRANCH  24  25
ENDBRANCH   8  23
TORSDOF 8
ENDMDL
MODEL       85
REMARK 921   NORMALIZED FREE ENERGY PREDICTED BY IDOCK:   -5.66 KCAL/MOL
REMARK 922        TOTAL FREE ENERGY PREDICTED BY IDOCK:   -9.85 KCAL/MOL
REMARK 923 INTER-LIGAND FREE ENERGY PREDICTED BY IDOCK:   -8.45 KCAL/MOL
REMARK 924 INTRA-LIGAND FREE ENERGY PREDICTED BY IDOCK:   -1.40 KCAL/MOL
REMARK 927      BINDING AFFINITY PREDICTED BY RF-SCORE:    0.00 PKD
ROOT
HETATM    1  C   UNL     1     -10.873  14.788  66.735  1.00  0.00    -0.316 C  
HETATM    2  C   UNL     1     -11.312  13.378  67.158  1.00  0.00    -0.344 C  
HETATM    3  C   UNL     1     -12.046  12.709  65.992  1.00  0.00    -0.429 C  
HETATM    4  C   UNL     1     -10.146  12.508  67.619  1.00  0.00    -0.217 A  
HETATM    5  N   UNL     1      -8.943  12.820  67.083  1.00  0.00    -0.207 NA 
HETATM    6  C   UNL     1      -7.915  12.051  67.434  1.00  0.00    -0.165 A  
HETATM    7  N   UNL     1      -7.972  10.975  68.213  1.00  0.00    -0.118 NA 
HETATM    8  C   UNL     1     -10.323  11.420  68.495  1.00  0.00    -0.219 A  
HETATM    9  C   UNL     1      -9.188  10.625  68.713  1.00  0.00    -0.180 A  
ENDROOT
BRANCH   6  10
HETATM   10  N   UNL     1      -6.638  12.545  67.116  1.00  0.00    -0.118 N  
HETATM   11  C   UNL     1      -5.727  11.577  66.491  1.00  0.00    -0.113 C  
BRANCH  10  12
HETATM   12  S   UNL     1      -5.988  13.600  68.244  1.00  0.00    -0.119 S  
HETATM   13  C   UNL     1      -7.387  14.508  68.879  1.00  0.00    -0.128 C  
HETATM   14  O   UNL     1      -5.475  12.798  69.341  1.00  0.00    -0.074 OA 
HETATM   15  O   UNL     1      -5.128  14.549  67.575  1.00  0.00    -0.326 OA 
ENDBRANCH  10  12
ENDBRANCH   6  10
BRANCH   9  16
HETATM   16  C   UNL     1      -9.149   9.339  69.476  1.00  0.00    -0.163 A  
HETATM   17  F   UNL     1      -8.993   5.810  71.693  1.00  0.00    -0.133 F  
HETATM   18  C   UNL     1      -8.872   9.341  70.863  1.00  0.00    -0.252 A  
HETATM   19  C   UNL     1      -8.812   8.159  71.610  1.00  0.00    -0.202 A  
HETATM   20  C   UNL     1      -9.271   6.891  69.618  1.00  0.00    -0.146 A  
HETATM   21  C   UNL     1      -9.029   6.944  70.982  1.00  0.00    -0.151 A  
HETATM   22  C   UNL     1      -9.310   8.077  68.872  1.00  0.00    -0.150 A  
ENDBRANCH   9  16
BRANCH   8  23
HETATM   23  C   UNL     1     -11.644  11.196  69.114  1.00  0.00    -0.393 C  
HETATM   24  C   UNL     1     -11.938  11.487  70.397  1.00  0.00    -0.459 C  
BRANCH  24  25
HETATM   25  C   UNL     1     -13.319  11.463  71.020  1.00  0.00     0.342 C  
HETATM   26  H   UNL     1     -14.492  10.134  71.879  1.00  0.00     0.000 HD 
HETATM   27  O   UNL     1     -13.627  10.149  71.489  1.00  0.00    -0.281 OA 
BRANCH  25  28
HETATM   28  C   UNL     1     -13.490  12.458  72.178  1.00  0.00    -0.481 C  
BRANCH  28  29
HETATM   29  C   UNL     1     -13.040  13.893  71.811  1.00  0.00    -0.377 C  
HETATM   30  O   UNL     1     -13.714  14.351  70.634  1.00  0.00    -0.386 OA 
HETATM   31  H   UNL     1     -13.437  15.232  70.409  1.00  0.00     0.000 HD 
BRANCH  29  32
HETATM   32  C   UNL     1     -13.373  14.909  72.904  1.00  0.00    -0.576 C  
HETATM   33  C   UNL     1     -12.354  16.010  72.983  1.00  0.00    -0.520 C  
HETATM   34  O   UNL     1     -11.739  16.454  72.027  1.00  0.00    -0.499 OA 
HETATM   35  O   UNL     1     -12.185  16.490  74.237  1.00  0.00    -0.548 OA 
ENDBRANCH  29  32
ENDBRANCH  28  29
ENDBRANCH  25  28
ENDBRANCH  24  25
ENDBRANCH   8  23
TORSDOF 8
ENDMDL
MODEL       86
REMARK 921   NORMALIZED FREE ENERGY PREDICTED BY IDOCK:   -5.63 KCAL/MOL
REMARK 922        TOTAL FREE ENERGY PREDICTED BY IDOCK:   -9.80 KCAL/MOL
REMARK 923 INTER-LIGAND FREE ENERGY PREDICTED BY IDOCK:   -7.96 KCAL/MOL
REMARK 924 INTRA-LIGAND FREE ENERGY PREDICTED BY IDOCK:   -1.84 KCAL/MOL
REMARK 927      BINDING AFFINITY PREDICTED BY RF-SCORE:    0.00 PKD
ROOT
HETATM    1  C   UNL     1     -13.965   7.919  71.589  1.00  0.00    -0.482 C  
HETATM    2  C   UNL     1     -13.219   9.206  71.204  1.00  0.00    -0.205 C  
HETATM    3  C   UNL     1     -13.235  10.171  72.394  1.00  0.00    -0.211 C  
HETATM    4  C   UNL     1     -11.786   8.947  70.750  1.00  0.00    -0.230 A  
HETATM    5  N   UNL     1     -11.207   7.837  71.266  1.00  0.00    -0.251 NA 
HETATM    6  C   UNL     1      -9.941   7.609  70.922  1.00  0.00    -0.180 A  
HETATM    7  N   UNL     1      -9.180   8.397  70.169  1.00  0.00    -0.157 NA 
HETATM    8  C   UNL     1     -11.095   9.835  69.903  1.00  0.00    -0.293 A  
HETATM    9  C   UNL     1      -9.740   9.541  69.691  1.00  0.00    -0.200 A  
ENDROOT
BRANCH   6  10
HETATM   10  N   UNL     1      -9.444   6.327  71.215  1.00  0.00    -0.160 N  
HETATM   11  C   UNL     1     -10.370   5.217  70.952  1.00  0.00    -0.232 C  
BRANCH  10  12
HETATM   12  S   UNL     1      -8.502   6.235  72.598  1.00  0.00    -0.123 S  
HETATM   13  C   UNL     1      -8.573   4.518  73.085  1.00  0.00    -0.101 C  
HETATM   14  O   UNL     1      -7.130   6.502  72.205  1.00  0.00    -0.078 OA 
HETATM   15  O   UNL     1      -9.119   7.006  73.653  1.00  0.00    -0.141 OA 
ENDBRANCH  10  12
ENDBRANCH   6  10
BRANCH   9  16
HETATM   16  C   UNL     1      -8.759  10.400  68.959  1.00  0.00    -0.170 A  
HETATM   17  F   UNL     1      -5.973  12.819  67.016  1.00  0.00    -0.144 F  
HETATM   18  C   UNL     1      -7.590  10.862  69.608  1.00  0.00     0.012 A  
HETATM   19  C   UNL     1      -6.655  11.679  68.963  1.00  0.00    -0.092 A  
HETATM   20  C   UNL     1      -8.019  11.653  66.981  1.00  0.00    -0.164 A  
HETATM   21  C   UNL     1      -6.872  12.054  67.646  1.00  0.00    -0.115 A  
HETATM   22  C   UNL     1      -8.962  10.851  67.639  1.00  0.00    -0.140 A  
ENDBRANCH   9  16
BRANCH   8  23
HETATM   23  C   UNL     1     -11.818  10.973  69.304  1.00  0.00    -0.411 C  
HETATM   24  C   UNL     1     -11.534  12.267  69.555  1.00  0.00    -0.318 C  
BRANCH  24  25
HETATM   25  C   UNL     1     -12.108  13.462  68.821  1.00  0.00    -0.246 C  
HETATM   26  H   UNL     1     -12.344  15.388  69.161  1.00  0.00     0.000 HD 
HETATM   27  O   UNL     1     -11.984  14.639  69.621  1.00  0.00    -0.293 OA 
BRANCH  25  28
HETATM   28  C   UNL     1     -11.454  13.718  67.455  1.00  0.00    -0.372 C  
BRANCH  28  29
HETATM   29  C   UNL     1     -12.227  13.063  66.284  1.00  0.00    -0.320 C  
HETATM   30  O   UNL     1     -12.697  14.057  65.368  1.00  0.00    -0.561 OA 
HETATM   31  H   UNL     1     -13.172  13.656  64.649  1.00  0.00     0.000 HD 
BRANCH  29  32
HETATM   32  C   UNL     1     -11.352  12.117  65.461  1.00  0.00    -0.393 C  
HETATM   33  C   UNL     1     -10.593  12.840  64.384  1.00  0.00    -0.379 C  
HETATM   34  O   UNL     1     -10.180  13.985  64.478  1.00  0.00    -0.381 OA 
HETATM   35  O   UNL     1     -10.390  12.086  63.280  1.00  0.00    -0.434 OA 
ENDBRANCH  29  32
ENDBRANCH  28  29
ENDBRANCH  25  28
ENDBRANCH  24  25
ENDBRANCH   8  23
TORSDOF 8
ENDMDL
MODEL       87
REMARK 921   NORMALIZED FREE ENERGY PREDICTED BY IDOCK:   -5.59 KCAL/MOL
REMARK 922        TOTAL FREE ENERGY PREDICTED BY IDOCK:   -9.75 KCAL/MOL
REMARK 923 INTER-LIGAND FREE ENERGY PREDICTED BY IDOCK:   -8.61 KCAL/MOL
REMARK 924 INTRA-LIGAND FREE ENERGY PREDICTED BY IDOCK:   -1.14 KCAL/MOL
REMARK 927      BINDING AFFINITY PREDICTED BY RF-SCORE:    0.00 PKD
ROOT
HETATM    1  C   UNL     1     -11.039   6.745  71.434  1.00  0.00    -0.293 C  
HETATM    2  C   UNL     1     -10.731   8.017  70.629  1.00  0.00    -0.235 C  
HETATM    3  C   UNL     1      -9.704   8.859  71.393  1.00  0.00    -0.370 C  
HETATM    4  C   UNL     1     -10.229   7.719  69.220  1.00  0.00    -0.211 A  
HETATM    5  N   UNL     1      -9.597   6.531  69.069  1.00  0.00    -0.133 NA 
HETATM    6  C   UNL     1      -9.110   6.263  67.860  1.00  0.00    -0.111 A  
HETATM    7  N   UNL     1      -9.136   7.075  66.807  1.00  0.00    -0.137 NA 
HETATM    8  C   UNL     1     -10.360   8.644  68.165  1.00  0.00    -0.267 A  
HETATM    9  C   UNL     1      -9.722   8.292  66.966  1.00  0.00    -0.211 A  
ENDROOT
BRANCH   6  10
HETATM   10  N   UNL     1      -8.722   4.931  67.632  1.00  0.00    -0.103 N  
HETATM   11  C   UNL     1      -9.504   3.916  68.351  1.00  0.00    -0.147 C  
BRANCH  10  12
HETATM   12  S   UNL     1      -7.068   4.688  67.512  1.00  0.00    -0.066 S  
HETATM   13  C   UNL     1      -6.801   3.040  68.143  1.00  0.00    -0.048 C  
HETATM   14  O   UNL     1      -6.738   4.656  66.098  1.00  0.00    -0.047 OA 
HETATM   15  O   UNL     1      -6.382   5.602  68.397  1.00  0.00    -0.037 OA 
ENDBRANCH  10  12
ENDBRANCH   6  10
BRANCH   9  16
HETATM   16  C   UNL     1      -9.589   9.159  65.755  1.00  0.00    -0.323 A  
HETATM   17  F   UNL     1      -9.114  11.530  62.358  1.00  0.00    -0.362 F  
HETATM   18  C   UNL     1      -8.561   8.917  64.814  1.00  0.00    -0.184 A  
HETATM   19  C   UNL     1      -8.393   9.714  63.676  1.00  0.00    -0.172 A  
HETATM   20  C   UNL     1     -10.256  11.070  64.366  1.00  0.00    -0.409 A  
HETATM   21  C   UNL     1      -9.255  10.775  63.454  1.00  0.00    -0.268 A  
HETATM   22  C   UNL     1     -10.406  10.281  65.514  1.00  0.00    -0.239 A  
ENDBRANCH   9  16
BRANCH   8  23
HETATM   23  C   UNL     1     -11.142   9.877  68.377  1.00  0.00    -0.193 C  
HETATM   24  C   UNL     1     -10.633  11.019  68.881  1.00  0.00    -0.239 C  
BRANCH  24  25
HETATM   25  C   UNL     1     -11.337  12.360  68.931  1.00  0.00    -0.294 C  
HETATM   26  H   UNL     1     -12.601  13.370  67.808  1.00  0.00     0.000 HD 
HETATM   27  O   UNL     1     -12.160  12.529  67.776  1.00  0.00    -0.409 OA 
BRANCH  25  28
HETATM   28  C   UNL     1     -12.197  12.558  70.189  1.00  0.00    -0.307 C  
BRANCH  28  29
HETATM   29  C   UNL     1     -12.230  14.028  70.671  1.00  0.00    -0.372 C  
HETATM   30  O   UNL     1     -12.816  14.875  69.677  1.00  0.00    -0.582 OA 
HETATM   31  H   UNL     1     -12.836  15.778  69.973  1.00  0.00     0.000 HD 
BRANCH  29  32
HETATM   32  C   UNL     1     -13.079  14.214  71.929  1.00  0.00    -0.456 C  
HETATM   33  C   UNL     1     -12.539  15.292  72.824  1.00  0.00    -0.391 C  
HETATM   34  O   UNL     1     -11.962  16.294  72.430  1.00  0.00    -0.516 OA 
HETATM   35  O   UNL     1     -12.766  15.058  74.137  1.00  0.00    -0.476 OA 
ENDBRANCH  29  32
ENDBRANCH  28  29
ENDBRANCH  25  28
ENDBRANCH  24  25
ENDBRANCH   8  23
TORSDOF 8
ENDMDL
MODEL       88
REMARK 921   NORMALIZED FREE ENERGY PREDICTED BY IDOCK:   -5.58 KCAL/MOL
REMARK 922        TOTAL FREE ENERGY PREDICTED BY IDOCK:   -9.73 KCAL/MOL
REMARK 923 INTER-LIGAND FREE ENERGY PREDICTED BY IDOCK:   -7.77 KCAL/MOL
REMARK 924 INTRA-LIGAND FREE ENERGY PREDICTED BY IDOCK:   -1.96 KCAL/MOL
REMARK 927      BINDING AFFINITY PREDICTED BY RF-SCORE:    0.00 PKD
ROOT
HETATM    1  C   UNL     1     -12.796   7.234  71.719  1.00  0.00    -0.369 C  
HETATM    2  C   UNL     1     -12.100   8.374  70.960  1.00  0.00    -0.218 C  
HETATM    3  C   UNL     1     -11.740   9.489  71.946  1.00  0.00    -0.311 C  
HETATM    4  C   UNL     1     -10.857   7.911  70.205  1.00  0.00    -0.241 A  
HETATM    5  N   UNL     1     -10.232   6.830  70.727  1.00  0.00    -0.195 NA 
HETATM    6  C   UNL     1      -9.120   6.430  70.115  1.00  0.00    -0.154 A  
HETATM    7  N   UNL     1      -8.538   7.026  69.079  1.00  0.00    -0.129 NA 
HETATM    8  C   UNL     1     -10.362   8.600  69.081  1.00  0.00    -0.227 A  
HETATM    9  C   UNL     1      -9.132   8.145  68.583  1.00  0.00    -0.143 A  
ENDROOT
BRANCH   6  10
HETATM   10  N   UNL     1      -8.644   5.156  70.472  1.00  0.00    -0.116 N  
HETATM   11  C   UNL     1      -9.672   4.118  70.618  1.00  0.00    -0.203 C  
BRANCH  10  12
HETATM   12  S   UNL     1      -7.385   5.158  71.580  1.00  0.00    -0.088 S  
HETATM   13  C   UNL     1      -5.916   4.887  70.603  1.00  0.00    -0.018 C  
HETATM   14  O   UNL     1      -7.288   6.503  72.120  1.00  0.00    -0.088 OA 
HETATM   15  O   UNL     1      -7.525   4.027  72.467  1.00  0.00    -0.064 OA 
ENDBRANCH  10  12
ENDBRANCH   6  10
BRANCH   9  16
HETATM   16  C   UNL     1      -8.330   8.792  67.500  1.00  0.00    -0.109 A  
HETATM   17  F   UNL     1      -6.057  10.675  64.554  1.00  0.00    -0.133 F  
HETATM   18  C   UNL     1      -7.382   9.793  67.815  1.00  0.00    -0.089 A  
HETATM   19  C   UNL     1      -6.621  10.433  66.830  1.00  0.00    -0.078 A  
HETATM   20  C   UNL     1      -7.735   9.130  65.142  1.00  0.00    -0.104 A  
HETATM   21  C   UNL     1      -6.794  10.082  65.501  1.00  0.00    -0.120 A  
HETATM   22  C   UNL     1      -8.508   8.508  66.131  1.00  0.00    -0.139 A  
ENDBRANCH   9  16
BRANCH   8  23
HETATM   23  C   UNL     1     -11.146   9.714  68.512  1.00  0.00    -0.091 C  
HETATM   24  C   UNL     1     -10.916  11.015  68.778  1.00  0.00    -0.270 C  
BRANCH  24  25
HETATM   25  C   UNL     1     -11.556  12.194  68.071  1.00  0.00    -0.348 C  
HETATM   26  H   UNL     1     -12.397  13.900  68.583  1.00  0.00     0.000 HD 
HETATM   27  O   UNL     1     -11.996  13.161  69.026  1.00  0.00    -0.311 OA 
BRANCH  25  28
HETATM   28  C   UNL     1     -10.629  12.881  67.057  1.00  0.00    -0.261 C  
BRANCH  28  29
HETATM   29  C   UNL     1     -11.299  13.097  65.679  1.00  0.00    -0.303 C  
HETATM   30  O   UNL     1     -12.416  12.217  65.514  1.00  0.00    -0.597 OA 
HETATM   31  H   UNL     1     -12.827  12.350  64.667  1.00  0.00     0.000 HD 
BRANCH  29  32
HETATM   32  C   UNL     1     -11.856  14.512  65.514  1.00  0.00    -0.330 C  
HETATM   33  C   UNL     1     -12.289  14.790  64.103  1.00  0.00    -0.231 C  
HETATM   34  O   UNL     1     -12.754  13.953  63.344  1.00  0.00    -0.806 OA 
HETATM   35  O   UNL     1     -12.129  16.083  63.742  1.00  0.00    -0.882 OA 
ENDBRANCH  29  32
ENDBRANCH  28  29
ENDBRANCH  25  28
ENDBRANCH  24  25
ENDBRANCH   8  23
TORSDOF 8
ENDMDL
MODEL       89
REMARK 921   NORMALIZED FREE ENERGY PREDICTED BY IDOCK:   -5.57 KCAL/MOL
REMARK 922        TOTAL FREE ENERGY PREDICTED BY IDOCK:   -9.72 KCAL/MOL
REMARK 923 INTER-LIGAND FREE ENERGY PREDICTED BY IDOCK:   -8.96 KCAL/MOL
REMARK 924 INTRA-LIGAND FREE ENERGY PREDICTED BY IDOCK:   -0.76 KCAL/MOL
REMARK 927      BINDING AFFINITY PREDICTED BY RF-SCORE:    0.00 PKD
ROOT
HETATM    1  C   UNL     1      -9.394  10.940  62.765  1.00  0.00    -0.366 C  
HETATM    2  C   UNL     1      -9.196  10.293  64.145  1.00  0.00    -0.309 C  
HETATM    3  C   UNL     1      -7.701  10.271  64.480  1.00  0.00    -0.107 C  
HETATM    4  C   UNL     1      -9.976  11.002  65.248  1.00  0.00    -0.266 A  
HETATM    5  N   UNL     1     -10.220  12.316  65.033  1.00  0.00    -0.283 NA 
HETATM    6  C   UNL     1     -10.861  12.970  65.999  1.00  0.00    -0.272 A  
HETATM    7  N   UNL     1     -11.230  12.468  67.173  1.00  0.00    -0.283 NA 
HETATM    8  C   UNL     1     -10.360  10.347  66.434  1.00  0.00    -0.278 A  
HETATM    9  C   UNL     1     -10.941  11.162  67.418  1.00  0.00    -0.290 A  
ENDROOT
BRANCH   6  10
HETATM   10  N   UNL     1     -11.364  14.237  65.656  1.00  0.00    -0.312 N  
HETATM   11  C   UNL     1     -12.121  14.295  64.398  1.00  0.00    -0.468 C  
BRANCH  10  12
HETATM   12  S   UNL     1     -10.342  15.520  66.001  1.00  0.00    -0.349 S  
HETATM   13  C   UNL     1     -10.877  16.113  67.598  1.00  0.00    -0.297 C  
HETATM   14  O   UNL     1      -9.009  14.974  66.182  1.00  0.00    -0.261 OA 
HETATM   15  O   UNL     1     -10.568  16.584  65.051  1.00  0.00    -0.670 OA 
ENDBRANCH  10  12
ENDBRANCH   6  10
BRANCH   9  16
HETATM   16  C   UNL     1     -11.298  10.743  68.808  1.00  0.00    -0.352 A  
HETATM   17  F   UNL     1     -12.240   9.472  72.666  1.00  0.00    -0.250 F  
HETATM   18  C   UNL     1     -10.712   9.588  69.377  1.00  0.00    -0.244 A  
HETATM   19  C   UNL     1     -11.030   9.153  70.669  1.00  0.00    -0.319 A  
HETATM   20  C   UNL     1     -12.569  10.988  70.893  1.00  0.00    -0.488 A  
HETATM   21  C   UNL     1     -11.945   9.870  71.422  1.00  0.00    -0.404 A  
HETATM   22  C   UNL     1     -12.262  11.407  69.592  1.00  0.00    -0.316 A  
ENDBRANCH   9  16
BRANCH   8  23
HETATM   23  C   UNL     1     -10.145   8.892  66.560  1.00  0.00    -0.356 C  
HETATM   24  C   UNL     1      -8.981   8.329  66.942  1.00  0.00    -0.169 C  
BRANCH  24  25
HETATM   25  C   UNL     1      -8.768   6.867  67.277  1.00  0.00    -0.119 C  
HETATM   26  H   UNL     1      -7.571   5.413  66.699  1.00  0.00     0.000 HD 
HETATM   27  O   UNL     1      -7.704   6.330  66.490  1.00  0.00    -0.096 OA 
BRANCH  25  28
HETATM   28  C   UNL     1      -8.466   6.612  68.762  1.00  0.00    -0.123 C  
BRANCH  28  29
HETATM   29  C   UNL     1      -9.636   5.922  69.504  1.00  0.00    -0.140 C  
HETATM   30  O   UNL     1     -10.625   5.463  68.577  1.00  0.00    -0.167 OA 
HETATM   31  H   UNL     1     -11.343   5.039  69.033  1.00  0.00     0.000 HD 
BRANCH  29  32
HETATM   32  C   UNL     1      -9.186   4.683  70.281  1.00  0.00    -0.195 C  
HETATM   33  C   UNL     1      -9.392   3.418  69.498  1.00  0.00    -0.170 C  
HETATM   34  O   UNL     1      -9.304   3.334  68.283  1.00  0.00    -0.173 OA 
HETATM   35  O   UNL     1      -9.676   2.350  70.278  1.00  0.00    -0.069 OA 
ENDBRANCH  29  32
ENDBRANCH  28  29
ENDBRANCH  25  28
ENDBRANCH  24  25
ENDBRANCH   8  23
TORSDOF 8
ENDMDL
MODEL       90
REMARK 921   NORMALIZED FREE ENERGY PREDICTED BY IDOCK:   -5.53 KCAL/MOL
REMARK 922        TOTAL FREE ENERGY PREDICTED BY IDOCK:   -9.65 KCAL/MOL
REMARK 923 INTER-LIGAND FREE ENERGY PREDICTED BY IDOCK:   -9.32 KCAL/MOL
REMARK 924 INTRA-LIGAND FREE ENERGY PREDICTED BY IDOCK:   -0.33 KCAL/MOL
REMARK 927      BINDING AFFINITY PREDICTED BY RF-SCORE:    0.00 PKD
ROOT
HETATM    1  C   UNL     1     -10.590   8.964  72.149  1.00  0.00    -0.323 C  
HETATM    2  C   UNL     1     -10.965   8.921  70.659  1.00  0.00    -0.287 C  
HETATM    3  C   UNL     1     -12.136   7.953  70.463  1.00  0.00     0.104 C  
HETATM    4  C   UNL     1     -11.312  10.295  70.096  1.00  0.00    -0.316 A  
HETATM    5  N   UNL     1     -11.799  11.183  70.995  1.00  0.00    -0.162 NA 
HETATM    6  C   UNL     1     -12.152  12.377  70.524  1.00  0.00    -0.275 A  
HETATM    7  N   UNL     1     -12.125  12.756  69.250  1.00  0.00    -0.227 NA 
HETATM    8  C   UNL     1     -11.193  10.596  68.726  1.00  0.00    -0.337 A  
HETATM    9  C   UNL     1     -11.688  11.850  68.334  1.00  0.00    -0.326 A  
ENDROOT
BRANCH   6  10
HETATM   10  N   UNL     1     -12.375  13.378  71.485  1.00  0.00    -0.151 N  
HETATM   11  C   UNL     1     -13.592  13.218  72.291  1.00  0.00    -0.605 C  
BRANCH  10  12
HETATM   12  S   UNL     1     -11.973  14.930  70.995  1.00  0.00    -0.345 S  
HETATM   13  C   UNL     1     -11.809  15.860  72.510  1.00  0.00    -0.508 C  
HETATM   14  O   UNL     1     -10.651  14.866  70.397  1.00  0.00    -0.107 OA 
HETATM   15  O   UNL     1     -13.076  15.502  70.258  1.00  0.00    -0.257 OA 
ENDBRANCH  10  12
ENDBRANCH   6  10
BRANCH   9  16
HETATM   16  C   UNL     1     -11.812  12.345  66.928  1.00  0.00    -0.377 A  
HETATM   17  F   UNL     1     -12.081  13.646  62.975  1.00  0.00    -0.491 F  
HETATM   18  C   UNL     1     -11.262  11.601  65.859  1.00  0.00    -0.296 A  
HETATM   19  C   UNL     1     -11.343  12.036  64.531  1.00  0.00    -0.393 A  
HETATM   20  C   UNL     1     -12.506  14.011  65.264  1.00  0.00    -0.495 A  
HETATM   21  C   UNL     1     -11.981  13.232  64.245  1.00  0.00    -0.421 A  
HETATM   22  C   UNL     1     -12.403  13.579  66.593  1.00  0.00    -0.351 A  
ENDBRANCH   9  16
BRANCH   8  23
HETATM   23  C   UNL     1     -10.568   9.613  67.820  1.00  0.00    -0.320 C  
HETATM   24  C   UNL     1      -9.282   9.219  67.902  1.00  0.00    -0.140 C  
BRANCH  24  25
HETATM   25  C   UNL     1      -8.651   8.076  67.132  1.00  0.00    -0.124 C  
HETATM   26  H   UNL     1      -7.541   6.501  67.539  1.00  0.00     0.000 HD 
HETATM   27  O   UNL     1      -7.936   7.217  68.021  1.00  0.00    -0.115 OA 
BRANCH  25  28
HETATM   28  C   UNL     1      -9.662   7.238  66.334  1.00  0.00    -0.148 C  
BRANCH  28  29
HETATM   29  C   UNL     1     -10.397   6.191  67.206  1.00  0.00    -0.219 C  
HETATM   30  O   UNL     1     -11.780   6.532  67.350  1.00  0.00    -0.618 OA 
HETATM   31  H   UNL     1     -12.231   5.889  67.885  1.00  0.00     0.000 HD 
BRANCH  29  32
HETATM   32  C   UNL     1     -10.374   4.794  66.586  1.00  0.00    -0.258 C  
HETATM   33  C   UNL     1      -9.384   3.889  67.263  1.00  0.00    -0.191 C  
HETATM   34  O   UNL     1      -9.099   3.940  68.449  1.00  0.00    -0.116 OA 
HETATM   35  O   UNL     1      -8.833   2.981  66.425  1.00  0.00    -0.130 OA 
ENDBRANCH  29  32
ENDBRANCH  28  29
ENDBRANCH  25  28
ENDBRANCH  24  25
ENDBRANCH   8  23
TORSDOF 8
ENDMDL
MODEL       91
REMARK 921   NORMALIZED FREE ENERGY PREDICTED BY IDOCK:   -5.51 KCAL/MOL
REMARK 922        TOTAL FREE ENERGY PREDICTED BY IDOCK:   -9.62 KCAL/MOL
REMARK 923 INTER-LIGAND FREE ENERGY PREDICTED BY IDOCK:   -8.23 KCAL/MOL
REMARK 924 INTRA-LIGAND FREE ENERGY PREDICTED BY IDOCK:   -1.39 KCAL/MOL
REMARK 927      BINDING AFFINITY PREDICTED BY RF-SCORE:    0.00 PKD
ROOT
HETATM    1  C   UNL     1      -7.709  10.158  64.011  1.00  0.00    -0.136 C  
HETATM    2  C   UNL     1      -8.917  10.704  64.788  1.00  0.00    -0.218 C  
HETATM    3  C   UNL     1     -10.124  10.785  63.849  1.00  0.00    -0.397 C  
HETATM    4  C   UNL     1      -9.257   9.867  66.018  1.00  0.00    -0.170 A  
HETATM    5  N   UNL     1      -8.904   8.562  65.946  1.00  0.00    -0.173 NA 
HETATM    6  C   UNL     1      -9.228   7.798  66.987  1.00  0.00    -0.145 A  
HETATM    7  N   UNL     1      -9.913   8.184  68.059  1.00  0.00    -0.176 NA 
HETATM    8  C   UNL     1      -9.946  10.404  67.123  1.00  0.00    -0.239 A  
HETATM    9  C   UNL     1     -10.318   9.482  68.113  1.00  0.00    -0.208 A  
ENDROOT
BRANCH   6  10
HETATM   10  N   UNL     1      -8.612   6.535  67.040  1.00  0.00    -0.112 N  
HETATM   11  C   UNL     1      -7.425   6.378  66.190  1.00  0.00    -0.082 C  
BRANCH  10  12
HETATM   12  S   UNL     1      -9.670   5.238  67.137  1.00  0.00    -0.165 S  
HETATM   13  C   UNL     1      -8.920   3.963  66.138  1.00  0.00    -0.130 C  
HETATM   14  O   UNL     1      -9.647   4.764  68.510  1.00  0.00    -0.140 OA 
HETATM   15  O   UNL     1     -10.923   5.592  66.512  1.00  0.00    -0.250 OA 
ENDBRANCH  10  12
ENDBRANCH   6  10
BRANCH   9  16
HETATM   16  C   UNL     1     -11.176   9.769  69.303  1.00  0.00    -0.128 A  
HETATM   17  F   UNL     1     -13.594  10.674  72.578  1.00  0.00    -0.403 F  
HETATM   18  C   UNL     1     -12.042  10.888  69.305  1.00  0.00    -0.332 A  
HETATM   19  C   UNL     1     -12.850  11.200  70.404  1.00  0.00    -0.176 A  
HETATM   20  C   UNL     1     -11.952   9.307  71.586  1.00  0.00    -0.448 A  
HETATM   21  C   UNL     1     -12.810  10.394  71.530  1.00  0.00    -0.464 A  
HETATM   22  C   UNL     1     -11.131   9.011  70.490  1.00  0.00    -0.297 A  
ENDBRANCH   9  16
BRANCH   8  23
HETATM   23  C   UNL     1     -10.216  11.854  67.173  1.00  0.00    -0.230 C  
HETATM   24  C   UNL     1      -9.402  12.756  67.756  1.00  0.00    -0.199 C  
BRANCH  24  25
HETATM   25  C   UNL     1      -9.532  14.263  67.662  1.00  0.00    -0.211 C  
HETATM   26  H   UNL     1      -9.184  15.660  66.318  1.00  0.00     0.000 HD 
HETATM   27  O   UNL     1      -9.103  14.716  66.377  1.00  0.00    -0.264 OA 
BRANCH  25  28
HETATM   28  C   UNL     1     -10.956  14.776  67.921  1.00  0.00    -0.282 C  
BRANCH  28  29
HETATM   29  C   UNL     1     -11.131  15.381  69.334  1.00  0.00    -0.282 C  
HETATM   30  O   UNL     1     -10.791  16.772  69.336  1.00  0.00    -0.318 OA 
HETATM   31  H   UNL     1     -10.898  17.144  70.204  1.00  0.00     0.000 HD 
BRANCH  29  32
HETATM   32  C   UNL     1     -12.575  15.305  69.830  1.00  0.00    -0.213 C  
HETATM   33  C   UNL     1     -12.700  15.693  71.276  1.00  0.00    -0.475 C  
HETATM   34  O   UNL     1     -11.999  16.524  71.832  1.00  0.00    -0.409 OA 
HETATM   35  O   UNL     1     -13.691  15.035  71.920  1.00  0.00    -0.365 OA 
ENDBRANCH  29  32
ENDBRANCH  28  29
ENDBRANCH  25  28
ENDBRANCH  24  25
ENDBRANCH   8  23
TORSDOF 8
ENDMDL
MODEL       92
REMARK 921   NORMALIZED FREE ENERGY PREDICTED BY IDOCK:   -5.46 KCAL/MOL
REMARK 922        TOTAL FREE ENERGY PREDICTED BY IDOCK:   -9.56 KCAL/MOL
REMARK 923 INTER-LIGAND FREE ENERGY PREDICTED BY IDOCK:   -9.32 KCAL/MOL
REMARK 924 INTRA-LIGAND FREE ENERGY PREDICTED BY IDOCK:   -0.24 KCAL/MOL
REMARK 927      BINDING AFFINITY PREDICTED BY RF-SCORE:    0.00 PKD
ROOT
HETATM    1  C   UNL     1      -7.552   8.485  67.098  1.00  0.00    -0.096 C  
HETATM    2  C   UNL     1      -8.714   9.491  67.118  1.00  0.00    -0.137 C  
HETATM    3  C   UNL     1      -9.707   9.134  66.008  1.00  0.00    -0.358 C  
HETATM    4  C   UNL     1      -9.424   9.547  68.467  1.00  0.00    -0.141 A  
HETATM    5  N   UNL     1      -9.367   8.411  69.200  1.00  0.00    -0.151 NA 
HETATM    6  C   UNL     1     -10.015   8.417  70.363  1.00  0.00    -0.185 A  
HETATM    7  N   UNL     1     -10.757   9.411  70.841  1.00  0.00    -0.296 NA 
HETATM    8  C   UNL     1     -10.141  10.683  68.890  1.00  0.00    -0.215 A  
HETATM    9  C   UNL     1     -10.863  10.536  70.084  1.00  0.00    -0.227 A  
ENDROOT
BRANCH   6  10
HETATM   10  N   UNL     1      -9.715   7.361  71.242  1.00  0.00    -0.165 N  
HETATM   11  C   UNL     1      -8.297   7.222  71.599  1.00  0.00    -0.108 C  
BRANCH  10  12
HETATM   12  S   UNL     1     -10.586   5.953  70.975  1.00  0.00    -0.260 S  
HETATM   13  C   UNL     1      -9.508   4.931  69.984  1.00  0.00    -0.166 C  
HETATM   14  O   UNL     1     -10.733   5.287  72.258  1.00  0.00    -0.220 OA 
HETATM   15  O   UNL     1     -11.750   6.252  70.174  1.00  0.00    -0.398 OA 
ENDBRANCH  10  12
ENDBRANCH   6  10
BRANCH   9  16
HETATM   16  C   UNL     1     -11.813  11.534  70.666  1.00  0.00    -0.279 A  
HETATM   17  F   UNL     1     -14.410  14.401  72.223  1.00  0.00    -0.517 F  
HETATM   18  C   UNL     1     -11.914  12.831  70.108  1.00  0.00    -0.371 A  
HETATM   19  C   UNL     1     -12.779  13.799  70.631  1.00  0.00    -0.330 A  
HETATM   20  C   UNL     1     -13.475  12.242  72.328  1.00  0.00    -0.365 A  
HETATM   21  C   UNL     1     -13.566  13.488  71.729  1.00  0.00    -0.350 A  
HETATM   22  C   UNL     1     -12.592  11.283  71.812  1.00  0.00    -0.266 A  
ENDBRANCH   9  16
BRANCH   8  23
HETATM   23  C   UNL     1     -10.083  11.918  68.084  1.00  0.00    -0.200 C  
HETATM   24  C   UNL     1     -11.077  12.344  67.278  1.00  0.00    -0.329 C  
BRANCH  24  25
HETATM   25  C   UNL     1     -11.147  13.693  66.591  1.00  0.00    -0.306 C  
HETATM   26  H   UNL     1     -12.550  14.965  66.051  1.00  0.00     0.000 HD 
HETATM   27  O   UNL     1     -12.506  14.120  66.482  1.00  0.00    -0.447 OA 
BRANCH  25  28
HETATM   28  C   UNL     1     -10.335  14.788  67.298  1.00  0.00    -0.247 C  
BRANCH  28  29
HETATM   29  C   UNL     1     -11.187  16.027  67.667  1.00  0.00    -0.183 C  
HETATM   30  O   UNL     1     -11.459  16.055  69.072  1.00  0.00    -0.348 OA 
HETATM   31  H   UNL     1     -11.983  16.815  69.298  1.00  0.00     0.000 HD 
BRANCH  29  32
HETATM   32  C   UNL     1     -10.474  17.343  67.354  1.00  0.00    -0.336 C  
HETATM   33  C   UNL     1      -9.937  17.377  65.952  1.00  0.00    -0.149 C  
HETATM   34  O   UNL     1     -10.460  16.826  64.996  1.00  0.00    -0.675 OA 
HETATM   35  O   UNL     1      -8.801  18.102  65.835  1.00  0.00    -0.500 OA 
ENDBRANCH  29  32
ENDBRANCH  28  29
ENDBRANCH  25  28
ENDBRANCH  24  25
ENDBRANCH   8  23
TORSDOF 8
ENDMDL
MODEL       93
REMARK 921   NORMALIZED FREE ENERGY PREDICTED BY IDOCK:   -5.46 KCAL/MOL
REMARK 922        TOTAL FREE ENERGY PREDICTED BY IDOCK:   -9.55 KCAL/MOL
REMARK 923 INTER-LIGAND FREE ENERGY PREDICTED BY IDOCK:   -8.35 KCAL/MOL
REMARK 924 INTRA-LIGAND FREE ENERGY PREDICTED BY IDOCK:   -1.20 KCAL/MOL
REMARK 927      BINDING AFFINITY PREDICTED BY RF-SCORE:    0.00 PKD
ROOT
HETATM    1  C   UNL     1      -6.792   9.894  65.944  1.00  0.00    -0.101 C  
HETATM    2  C   UNL     1      -7.241  10.221  67.377  1.00  0.00    -0.092 C  
HETATM    3  C   UNL     1      -6.110  10.956  68.103  1.00  0.00    -0.049 C  
HETATM    4  C   UNL     1      -8.524  11.044  67.422  1.00  0.00    -0.132 A  
HETATM    5  N   UNL     1      -8.749  11.825  66.339  1.00  0.00    -0.179 NA 
HETATM    6  C   UNL     1      -9.840  12.588  66.370  1.00  0.00    -0.253 A  
HETATM    7  N   UNL     1     -10.692  12.697  67.384  1.00  0.00    -0.227 NA 
HETATM    8  C   UNL     1      -9.381  11.038  68.539  1.00  0.00    -0.188 A  
HETATM    9  C   UNL     1     -10.442  11.955  68.497  1.00  0.00    -0.224 A  
ENDROOT
BRANCH   6  10
HETATM   10  N   UNL     1     -10.222  13.166  65.146  1.00  0.00    -0.301 N  
HETATM   11  C   UNL     1     -10.951  14.437  65.251  1.00  0.00    -0.350 C  
BRANCH  10  12
HETATM   12  S   UNL     1     -10.736  12.075  63.981  1.00  0.00    -0.421 S  
HETATM   13  C   UNL     1     -12.141  12.860  63.209  1.00  0.00    -0.440 C  
HETATM   14  O   UNL     1      -9.692  11.998  62.973  1.00  0.00    -0.383 OA 
HETATM   15  O   UNL     1     -11.215  10.874  64.625  1.00  0.00    -0.012 OA 
ENDBRANCH  10  12
ENDBRANCH   6  10
BRANCH   9  16
HETATM   16  C   UNL     1     -11.397  12.245  69.610  1.00  0.00    -0.207 A  
HETATM   17  F   UNL     1     -14.092  12.944  72.715  1.00  0.00    -0.548 F  
HETATM   18  C   UNL     1     -11.994  11.186  70.332  1.00  0.00    -0.469 A  
HETATM   19  C   UNL     1     -12.904  11.414  71.371  1.00  0.00    -0.502 A  
HETATM   20  C   UNL     1     -12.703  13.784  71.008  1.00  0.00    -0.416 A  
HETATM   21  C   UNL     1     -13.237  12.716  71.710  1.00  0.00    -0.359 A  
HETATM   22  C   UNL     1     -11.808  13.548  69.956  1.00  0.00    -0.371 A  
ENDBRANCH   9  16
BRANCH   8  23
HETATM   23  C   UNL     1      -9.124  10.093  69.643  1.00  0.00    -0.195 C  
HETATM   24  C   UNL     1      -9.096   8.752  69.502  1.00  0.00    -0.146 C  
BRANCH  24  25
HETATM   25  C   UNL     1      -8.644   7.756  70.550  1.00  0.00    -0.132 C  
HETATM   26  H   UNL     1      -7.014   6.726  70.955  1.00  0.00     0.000 HD 
HETATM   27  O   UNL     1      -7.298   7.351  70.298  1.00  0.00    -0.074 OA 
BRANCH  25  28
HETATM   28  C   UNL     1      -8.742   8.288  71.988  1.00  0.00    -0.243 C  
BRANCH  28  29
HETATM   29  C   UNL     1      -9.050   7.178  73.022  1.00  0.00    -0.136 C  
HETATM   30  O   UNL     1      -9.761   7.712  74.143  1.00  0.00    -0.387 OA 
HETATM   31  H   UNL     1      -9.949   7.030  74.778  1.00  0.00     0.000 HD 
BRANCH  29  32
HETATM   32  C   UNL     1      -9.941   6.075  72.450  1.00  0.00    -0.190 C  
HETATM   33  C   UNL     1     -11.402   6.398  72.589  1.00  0.00    -0.231 C  
HETATM   34  O   UNL     1     -11.869   7.525  72.542  1.00  0.00    -0.285 OA 
HETATM   35  O   UNL     1     -12.175   5.302  72.760  1.00  0.00    -0.107 OA 
ENDBRANCH  29  32
ENDBRANCH  28  29
ENDBRANCH  25  28
ENDBRANCH  24  25
ENDBRANCH   8  23
TORSDOF 8
ENDMDL
MODEL       94
REMARK 921   NORMALIZED FREE ENERGY PREDICTED BY IDOCK:   -5.43 KCAL/MOL
REMARK 922        TOTAL FREE ENERGY PREDICTED BY IDOCK:   -9.51 KCAL/MOL
REMARK 923 INTER-LIGAND FREE ENERGY PREDICTED BY IDOCK:   -7.80 KCAL/MOL
REMARK 924 INTRA-LIGAND FREE ENERGY PREDICTED BY IDOCK:   -1.71 KCAL/MOL
REMARK 927      BINDING AFFINITY PREDICTED BY RF-SCORE:    0.00 PKD
ROOT
HETATM    1  C   UNL     1      -9.778   5.868  71.622  1.00  0.00    -0.185 C  
HETATM    2  C   UNL     1      -9.928   7.395  71.708  1.00  0.00    -0.192 C  
HETATM    3  C   UNL     1      -8.972   7.935  72.776  1.00  0.00    -0.258 C  
HETATM    4  C   UNL     1      -9.681   8.091  70.373  1.00  0.00    -0.178 A  
HETATM    5  N   UNL     1      -8.852   7.438  69.525  1.00  0.00    -0.137 NA 
HETATM    6  C   UNL     1      -8.583   8.043  68.370  1.00  0.00    -0.127 A  
HETATM    7  N   UNL     1      -9.005   9.248  68.000  1.00  0.00    -0.128 NA 
HETATM    8  C   UNL     1     -10.228   9.354  70.073  1.00  0.00    -0.262 A  
HETATM    9  C   UNL     1      -9.795   9.933  68.870  1.00  0.00    -0.176 A  
ENDROOT
BRANCH   6  10
HETATM   10  N   UNL     1      -7.972   7.247  67.385  1.00  0.00    -0.111 N  
HETATM   11  C   UNL     1      -8.371   5.834  67.380  1.00  0.00    -0.104 C  
BRANCH  10  12
HETATM   12  S   UNL     1      -6.356   7.594  67.101  1.00  0.00    -0.055 S  
HETATM   13  C   UNL     1      -5.645   7.819  68.723  1.00  0.00    -0.027 C  
HETATM   14  O   UNL     1      -5.751   6.399  66.539  1.00  0.00    -0.013 OA 
HETATM   15  O   UNL     1      -6.251   8.857  66.407  1.00  0.00    -0.062 OA 
ENDBRANCH  10  12
ENDBRANCH   6  10
BRANCH   9  16
HETATM   16  C   UNL     1     -10.110  11.316  68.398  1.00  0.00    -0.202 A  
HETATM   17  F   UNL     1     -11.064  15.130  67.006  1.00  0.00    -0.314 F  
HETATM   18  C   UNL     1     -11.227  11.547  67.563  1.00  0.00    -0.360 A  
HETATM   19  C   UNL     1     -11.548  12.824  67.088  1.00  0.00    -0.426 A  
HETATM   20  C   UNL     1      -9.628  13.718  68.229  1.00  0.00    -0.219 A  
HETATM   21  C   UNL     1     -10.753  13.902  67.441  1.00  0.00    -0.272 A  
HETATM   22  C   UNL     1      -9.301  12.434  68.685  1.00  0.00    -0.004 A  
ENDBRANCH   9  16
BRANCH   8  23
HETATM   23  C   UNL     1     -11.197   9.963  71.004  1.00  0.00    -0.435 C  
HETATM   24  C   UNL     1     -12.423  10.395  70.646  1.00  0.00    -0.437 C  
BRANCH  24  25
HETATM   25  C   UNL     1     -13.520  10.840  71.592  1.00  0.00    -0.149 C  
HETATM   26  H   UNL     1     -14.474  10.098  73.147  1.00  0.00     0.000 HD 
HETATM   27  O   UNL     1     -13.786   9.819  72.555  1.00  0.00    -0.340 OA 
BRANCH  25  28
HETATM   28  C   UNL     1     -13.204  12.150  72.330  1.00  0.00    -0.286 C  
BRANCH  28  29
HETATM   29  C   UNL     1     -13.638  13.407  71.538  1.00  0.00    -0.133 C  
HETATM   30  O   UNL     1     -14.360  14.313  72.380  1.00  0.00    -0.551 OA 
HETATM   31  H   UNL     1     -14.627  15.085  71.894  1.00  0.00     0.000 HD 
BRANCH  29  32
HETATM   32  C   UNL     1     -12.447  14.200  70.998  1.00  0.00    -0.438 C  
HETATM   33  C   UNL     1     -11.972  15.242  71.971  1.00  0.00    -0.411 C  
HETATM   34  O   UNL     1     -12.015  15.125  73.186  1.00  0.00    -0.386 OA 
HETATM   35  O   UNL     1     -11.465  16.341  71.368  1.00  0.00    -0.422 OA 
ENDBRANCH  29  32
ENDBRANCH  28  29
ENDBRANCH  25  28
ENDBRANCH  24  25
ENDBRANCH   8  23
TORSDOF 8
ENDMDL
MODEL       95
REMARK 921   NORMALIZED FREE ENERGY PREDICTED BY IDOCK:   -5.43 KCAL/MOL
REMARK 922        TOTAL FREE ENERGY PREDICTED BY IDOCK:   -9.51 KCAL/MOL
REMARK 923 INTER-LIGAND FREE ENERGY PREDICTED BY IDOCK:   -7.81 KCAL/MOL
REMARK 924 INTRA-LIGAND FREE ENERGY PREDICTED BY IDOCK:   -1.70 KCAL/MOL
REMARK 927      BINDING AFFINITY PREDICTED BY RF-SCORE:    0.00 PKD
ROOT
HETATM    1  C   UNL     1      -6.006  13.249  70.458  1.00  0.00    -0.110 C  
HETATM    2  C   UNL     1      -6.650  13.735  69.150  1.00  0.00    -0.112 C  
HETATM    3  C   UNL     1      -5.553  14.233  68.204  1.00  0.00    -0.124 C  
HETATM    4  C   UNL     1      -7.491  12.659  68.468  1.00  0.00    -0.121 A  
HETATM    5  N   UNL     1      -7.116  11.384  68.723  1.00  0.00    -0.094 NA 
HETATM    6  C   UNL     1      -7.804  10.425  68.107  1.00  0.00    -0.108 A  
HETATM    7  N   UNL     1      -8.782  10.606  67.225  1.00  0.00    -0.129 NA 
HETATM    8  C   UNL     1      -8.542  12.976  67.587  1.00  0.00    -0.190 A  
HETATM    9  C   UNL     1      -9.127  11.886  66.923  1.00  0.00    -0.196 A  
ENDROOT
BRANCH   6  10
HETATM   10  N   UNL     1      -7.611   9.119  68.591  1.00  0.00    -0.083 N  
HETATM   11  C   UNL     1      -7.137   8.144  67.601  1.00  0.00    -0.087 C  
BRANCH  10  12
HETATM   12  S   UNL     1      -8.759   8.600  69.698  1.00  0.00    -0.134 S  
HETATM   13  C   UNL     1      -9.936   7.668  68.731  1.00  0.00    -0.174 C  
HETATM   14  O   UNL     1      -8.105   7.655  70.587  1.00  0.00    -0.104 OA 
HETATM   15  O   UNL     1      -9.457   9.743  70.239  1.00  0.00    -0.249 OA 
ENDBRANCH  10  12
ENDBRANCH   6  10
BRANCH   9  16
HETATM   16  C   UNL     1     -10.153  11.967  65.838  1.00  0.00    -0.265 A  
HETATM   17  F   UNL     1     -13.094  12.210  62.891  1.00  0.00    -0.433 F  
HETATM   18  C   UNL     1     -11.452  12.449  66.119  1.00  0.00    -0.430 A  
HETATM   19  C   UNL     1     -12.445  12.527  65.135  1.00  0.00    -0.451 A  
HETATM   20  C   UNL     1     -10.907  11.610  63.529  1.00  0.00    -0.497 A  
HETATM   21  C   UNL     1     -12.156  12.121  63.842  1.00  0.00    -0.488 A  
HETATM   22  C   UNL     1      -9.923  11.516  64.522  1.00  0.00    -0.306 A  
ENDBRANCH   9  16
BRANCH   8  23
HETATM   23  C   UNL     1      -8.956  14.383  67.428  1.00  0.00    -0.204 C  
HETATM   24  C   UNL     1      -8.762  15.109  66.308  1.00  0.00    -0.125 C  
BRANCH  24  25
HETATM   25  C   UNL     1      -9.340  16.481  66.026  1.00  0.00    -0.267 C  
HETATM   26  H   UNL     1     -10.986  17.471  66.461  1.00  0.00     0.000 HD 
HETATM   27  O   UNL     1     -10.624  16.611  66.639  1.00  0.00    -0.286 OA 
BRANCH  25  28
HETATM   28  C   UNL     1      -8.444  17.636  66.498  1.00  0.00    -0.294 C  
BRANCH  28  29
HETATM   29  C   UNL     1      -9.000  18.358  67.748  1.00  0.00    -0.281 C  
HETATM   30  O   UNL     1      -9.027  17.475  68.875  1.00  0.00    -0.245 OA 
HETATM   31  H   UNL     1      -9.369  17.919  69.642  1.00  0.00     0.000 HD 
BRANCH  29  32
HETATM   32  C   UNL     1      -8.136  19.547  68.171  1.00  0.00    -0.354 C  
HETATM   33  C   UNL     1      -6.869  19.113  68.853  1.00  0.00    -0.322 C  
HETATM   34  O   UNL     1      -6.258  18.089  68.590  1.00  0.00    -0.194 OA 
HETATM   35  O   UNL     1      -6.447  19.985  69.796  1.00  0.00    -0.349 OA 
ENDBRANCH  29  32
ENDBRANCH  28  29
ENDBRANCH  25  28
ENDBRANCH  24  25
ENDBRANCH   8  23
TORSDOF 8
ENDMDL
MODEL       96
REMARK 921   NORMALIZED FREE ENERGY PREDICTED BY IDOCK:   -5.41 KCAL/MOL
REMARK 922        TOTAL FREE ENERGY PREDICTED BY IDOCK:   -9.49 KCAL/MOL
REMARK 923 INTER-LIGAND FREE ENERGY PREDICTED BY IDOCK:   -7.65 KCAL/MOL
REMARK 924 INTRA-LIGAND FREE ENERGY PREDICTED BY IDOCK:   -1.84 KCAL/MOL
REMARK 927      BINDING AFFINITY PREDICTED BY RF-SCORE:    0.00 PKD
ROOT
HETATM    1  C   UNL     1      -6.438   8.744  71.655  1.00  0.00    -0.075 C  
HETATM    2  C   UNL     1      -6.469   9.288  70.219  1.00  0.00    -0.058 C  
HETATM    3  C   UNL     1      -5.487   8.490  69.357  1.00  0.00    -0.031 C  
HETATM    4  C   UNL     1      -7.865   9.253  69.603  1.00  0.00    -0.090 A  
HETATM    5  N   UNL     1      -8.689   8.296  70.090  1.00  0.00    -0.131 NA 
HETATM    6  C   UNL     1      -9.899   8.214  69.540  1.00  0.00    -0.181 A  
HETATM    7  N   UNL     1     -10.348   8.943  68.523  1.00  0.00    -0.198 NA 
HETATM    8  C   UNL     1      -8.245  10.117  68.557  1.00  0.00    -0.111 A  
HETATM    9  C   UNL     1      -9.506   9.870  67.993  1.00  0.00    -0.134 A  
ENDROOT
BRANCH   6  10
HETATM   10  N   UNL     1     -10.839   7.431  70.233  1.00  0.00    -0.242 N  
HETATM   11  C   UNL     1     -11.589   6.473  69.411  1.00  0.00    -0.180 C  
BRANCH  10  12
HETATM   12  S   UNL     1     -11.680   8.240  71.437  1.00  0.00    -0.297 S  
HETATM   13  C   UNL     1     -11.251   7.387  72.945  1.00  0.00    -0.319 C  
HETATM   14  O   UNL     1     -11.118   9.575  71.534  1.00  0.00    -0.367 OA 
HETATM   15  O   UNL     1     -13.100   8.063  71.233  1.00  0.00    -0.266 OA 
ENDBRANCH  10  12
ENDBRANCH   6  10
BRANCH   9  16
HETATM   16  C   UNL     1     -10.076  10.544  66.786  1.00  0.00    -0.270 A  
HETATM   17  F   UNL     1     -11.743  12.476  63.488  1.00  0.00    -0.442 F  
HETATM   18  C   UNL     1     -11.003  11.602  66.932  1.00  0.00    -0.342 A  
HETATM   19  C   UNL     1     -11.571  12.249  65.828  1.00  0.00    -0.443 A  
HETATM   20  C   UNL     1     -10.340  10.796  64.358  1.00  0.00    -0.405 A  
HETATM   21  C   UNL     1     -11.219  11.849  64.549  1.00  0.00    -0.319 A  
HETATM   22  C   UNL     1      -9.791  10.138  65.467  1.00  0.00    -0.365 A  
ENDBRANCH   9  16
BRANCH   8  23
HETATM   23  C   UNL     1      -7.329  11.196  68.141  1.00  0.00    -0.087 C  
HETATM   24  C   UNL     1      -7.274  12.410  68.724  1.00  0.00    -0.094 C  
BRANCH  24  25
HETATM   25  C   UNL     1      -6.225  13.474  68.468  1.00  0.00    -0.090 C  
HETATM   26  H   UNL     1      -4.926  13.908  67.053  1.00  0.00     0.000 HD 
HETATM   27  O   UNL     1      -5.583  13.242  67.213  1.00  0.00    -0.356 OA 
BRANCH  25  28
HETATM   28  C   UNL     1      -6.782  14.905  68.486  1.00  0.00    -0.092 C  
BRANCH  28  29
HETATM   29  C   UNL     1      -8.307  14.962  68.232  1.00  0.00    -0.148 C  
HETATM   30  O   UNL     1      -8.930  15.920  69.094  1.00  0.00    -0.229 OA 
HETATM   31  H   UNL     1      -9.867  15.954  68.939  1.00  0.00     0.000 HD 
BRANCH  29  32
HETATM   32  C   UNL     1      -8.648  15.400  66.807  1.00  0.00    -0.308 C  
HETATM   33  C   UNL     1      -8.717  16.895  66.675  1.00  0.00    -0.247 C  
HETATM   34  O   UNL     1      -8.031  17.678  67.314  1.00  0.00    -0.201 OA 
HETATM   35  O   UNL     1      -9.617  17.307  65.754  1.00  0.00    -0.528 OA 
ENDBRANCH  29  32
ENDBRANCH  28  29
ENDBRANCH  25  28
ENDBRANCH  24  25
ENDBRANCH   8  23
TORSDOF 8
ENDMDL
MODEL       97
REMARK 921   NORMALIZED FREE ENERGY PREDICTED BY IDOCK:   -5.40 KCAL/MOL
REMARK 922        TOTAL FREE ENERGY PREDICTED BY IDOCK:   -9.47 KCAL/MOL
REMARK 923 INTER-LIGAND FREE ENERGY PREDICTED BY IDOCK:   -7.87 KCAL/MOL
REMARK 924 INTRA-LIGAND FREE ENERGY PREDICTED BY IDOCK:   -1.59 KCAL/MOL
REMARK 927      BINDING AFFINITY PREDICTED BY RF-SCORE:    0.00 PKD
ROOT
HETATM    1  C   UNL     1      -8.742   9.225  71.005  1.00  0.00    -0.182 C  
HETATM    2  C   UNL     1      -8.285   8.706  69.632  1.00  0.00    -0.114 C  
HETATM    3  C   UNL     1      -6.755   8.643  69.602  1.00  0.00    -0.039 C  
HETATM    4  C   UNL     1      -8.879   7.344  69.287  1.00  0.00    -0.136 A  
HETATM    5  N   UNL     1      -9.194   6.564  70.347  1.00  0.00    -0.155 NA 
HETATM    6  C   UNL     1      -9.674   5.352  70.075  1.00  0.00    -0.185 A  
HETATM    7  N   UNL     1      -9.816   4.819  68.866  1.00  0.00    -0.173 NA 
HETATM    8  C   UNL     1      -9.029   6.907  67.956  1.00  0.00    -0.121 A  
HETATM    9  C   UNL     1      -9.450   5.577  67.797  1.00  0.00    -0.116 A  
ENDROOT
BRANCH   6  10
HETATM   10  N   UNL     1     -10.266   4.667  71.151  1.00  0.00    -0.169 N  
HETATM   11  C   UNL     1     -11.068   5.497  72.060  1.00  0.00    -0.184 C  
BRANCH  10  12
HETATM   12  S   UNL     1      -9.314   3.470  71.837  1.00  0.00    -0.137 S  
HETATM   13  C   UNL     1      -8.841   4.120  73.431  1.00  0.00    -0.097 C  
HETATM   14  O   UNL     1     -10.172   2.326  72.088  1.00  0.00    -0.160 OA 
HETATM   15  O   UNL     1      -8.105   3.315  71.061  1.00  0.00    -0.059 OA 
ENDBRANCH  10  12
ENDBRANCH   6  10
BRANCH   9  16
HETATM   16  C   UNL     1      -9.544   4.835  66.503  1.00  0.00    -0.181 A  
HETATM   17  F   UNL     1      -9.691   2.760  62.889  1.00  0.00    -0.093 F  
HETATM   18  C   UNL     1      -8.394   4.231  65.942  1.00  0.00    -0.109 A  
HETATM   19  C   UNL     1      -8.437   3.539  64.726  1.00  0.00    -0.100 A  
HETATM   20  C   UNL     1     -10.782   4.041  64.538  1.00  0.00    -0.181 A  
HETATM   21  C   UNL     1      -9.637   3.437  64.043  1.00  0.00    -0.143 A  
HETATM   22  C   UNL     1     -10.729   4.749  65.746  1.00  0.00    -0.220 A  
ENDBRANCH   9  16
BRANCH   8  23
HETATM   23  C   UNL     1      -8.753   7.844  66.851  1.00  0.00    -0.136 C  
HETATM   24  C   UNL     1      -9.633   8.758  66.395  1.00  0.00    -0.316 C  
BRANCH  24  25
HETATM   25  C   UNL     1      -9.333   9.866  65.407  1.00  0.00    -0.239 C  
HETATM   26  H   UNL     1      -8.918  10.015  63.487  1.00  0.00     0.000 HD 
HETATM   27  O   UNL     1      -9.107   9.321  64.106  1.00  0.00    -0.166 OA 
BRANCH  25  28
HETATM   28  C   UNL     1     -10.439  10.928  65.316  1.00  0.00    -0.299 C  
BRANCH  28  29
HETATM   29  C   UNL     1     -10.390  11.739  63.999  1.00  0.00    -0.356 C  
HETATM   30  O   UNL     1     -11.352  11.243  63.062  1.00  0.00    -0.847 OA 
HETATM   31  H   UNL     1     -11.322  11.740  62.253  1.00  0.00     0.000 HD 
BRANCH  29  32
HETATM   32  C   UNL     1     -10.733  13.214  64.206  1.00  0.00    -0.431 C  
HETATM   33  C   UNL     1     -12.215  13.447  64.286  1.00  0.00    -0.392 C  
HETATM   34  O   UNL     1     -13.015  12.653  64.757  1.00  0.00    -0.816 OA 
HETATM   35  O   UNL     1     -12.593  14.648  63.794  1.00  0.00    -0.820 OA 
ENDBRANCH  29  32
ENDBRANCH  28  29
ENDBRANCH  25  28
ENDBRANCH  24  25
ENDBRANCH   8  23
TORSDOF 8
ENDMDL
MODEL       98
REMARK 921   NORMALIZED FREE ENERGY PREDICTED BY IDOCK:   -5.40 KCAL/MOL
REMARK 922        TOTAL FREE ENERGY PREDICTED BY IDOCK:   -9.46 KCAL/MOL
REMARK 923 INTER-LIGAND FREE ENERGY PREDICTED BY IDOCK:   -8.15 KCAL/MOL
REMARK 924 INTRA-LIGAND FREE ENERGY PREDICTED BY IDOCK:   -1.32 KCAL/MOL
REMARK 927      BINDING AFFINITY PREDICTED BY RF-SCORE:    0.00 PKD
ROOT
HETATM    1  C   UNL     1     -14.002   9.214  71.778  1.00  0.00    -0.372 C  
HETATM    2  C   UNL     1     -13.093  10.247  71.094  1.00  0.00    -0.481 C  
HETATM    3  C   UNL     1     -12.918  11.454  72.020  1.00  0.00    -0.378 C  
HETATM    4  C   UNL     1     -11.732   9.674  70.707  1.00  0.00    -0.314 A  
HETATM    5  N   UNL     1     -11.301   8.642  71.468  1.00  0.00    -0.268 NA 
HETATM    6  C   UNL     1     -10.097   8.151  71.181  1.00  0.00    -0.184 A  
HETATM    7  N   UNL     1      -9.261   8.616  70.258  1.00  0.00    -0.160 NA 
HETATM    8  C   UNL     1     -10.955  10.224  69.669  1.00  0.00    -0.314 A  
HETATM    9  C   UNL     1      -9.667   9.688  69.525  1.00  0.00    -0.203 A  
ENDROOT
BRANCH   6  10
HETATM   10  N   UNL     1      -9.780   6.913  71.767  1.00  0.00    -0.160 N  
HETATM   11  C   UNL     1      -9.198   5.916  70.859  1.00  0.00    -0.153 C  
BRANCH  10  12
HETATM   12  S   UNL     1     -10.885   6.368  72.905  1.00  0.00    -0.256 S  
HETATM   13  C   UNL     1     -10.163   4.872  73.561  1.00  0.00    -0.184 C  
HETATM   14  O   UNL     1     -10.902   7.335  73.988  1.00  0.00    -0.212 OA 
HETATM   15  O   UNL     1     -12.113   5.997  72.243  1.00  0.00    -0.301 OA 
ENDBRANCH  10  12
ENDBRANCH   6  10
BRANCH   9  16
HETATM   16  C   UNL     1      -8.603  10.192  68.604  1.00  0.00    -0.123 A  
HETATM   17  F   UNL     1      -5.605  11.678  66.113  1.00  0.00    -0.145 F  
HETATM   18  C   UNL     1      -7.610  11.081  69.079  1.00  0.00    -0.134 A  
HETATM   19  C   UNL     1      -6.606  11.588  68.246  1.00  0.00    -0.061 A  
HETATM   20  C   UNL     1      -7.545  10.371  66.395  1.00  0.00    -0.123 A  
HETATM   21  C   UNL     1      -6.574  11.213  66.912  1.00  0.00    -0.124 A  
HETATM   22  C   UNL     1      -8.560   9.883  67.229  1.00  0.00    -0.125 A  
ENDBRANCH   9  16
BRANCH   8  23
HETATM   23  C   UNL     1     -11.528  11.287  68.820  1.00  0.00    -0.359 C  
HETATM   24  C   UNL     1     -11.089  12.561  68.802  1.00  0.00    -0.314 C  
BRANCH  24  25
HETATM   25  C   UNL     1     -11.506  13.632  67.814  1.00  0.00    -0.318 C  
HETATM   26  H   UNL     1     -12.719  13.776  66.268  1.00  0.00     0.000 HD 
HETATM   27  O   UNL     1     -12.457  13.105  66.888  1.00  0.00    -0.279 OA 
BRANCH  25  28
HETATM   28  C   UNL     1     -12.098  14.885  68.476  1.00  0.00    -0.193 C  
BRANCH  28  29
HETATM   29  C   UNL     1     -11.108  16.075  68.506  1.00  0.00    -0.347 C  
HETATM   30  O   UNL     1     -10.392  16.108  69.745  1.00  0.00    -0.269 OA 
HETATM   31  H   UNL     1      -9.784  16.839  69.764  1.00  0.00     0.000 HD 
BRANCH  29  32
HETATM   32  C   UNL     1     -10.044  15.980  67.412  1.00  0.00    -0.258 C  
HETATM   33  C   UNL     1      -9.426  17.315  67.105  1.00  0.00    -0.256 C  
HETATM   34  O   UNL     1      -9.256  18.203  67.925  1.00  0.00    -0.260 OA 
HETATM   35  O   UNL     1      -9.053  17.443  65.812  1.00  0.00    -0.517 OA 
ENDBRANCH  29  32
ENDBRANCH  28  29
ENDBRANCH  25  28
ENDBRANCH  24  25
ENDBRANCH   8  23
TORSDOF 8
ENDMDL
MODEL       99
REMARK 921   NORMALIZED FREE ENERGY PREDICTED BY IDOCK:   -5.37 KCAL/MOL
REMARK 922        TOTAL FREE ENERGY PREDICTED BY IDOCK:   -9.42 KCAL/MOL
REMARK 923 INTER-LIGAND FREE ENERGY PREDICTED BY IDOCK:   -7.84 KCAL/MOL
REMARK 924 INTRA-LIGAND FREE ENERGY PREDICTED BY IDOCK:   -1.58 KCAL/MOL
REMARK 927      BINDING AFFINITY PREDICTED BY RF-SCORE:    0.00 PKD
ROOT
HETATM    1  C   UNL     1     -11.919   6.786  71.692  1.00  0.00    -0.391 C  
HETATM    2  C   UNL     1     -11.414   7.976  70.860  1.00  0.00    -0.291 C  
HETATM    3  C   UNL     1     -10.995   9.107  71.804  1.00  0.00    -0.429 C  
HETATM    4  C   UNL     1     -10.261   7.604  69.934  1.00  0.00    -0.215 A  
HETATM    5  N   UNL     1      -9.498   6.564  70.347  1.00  0.00    -0.162 NA 
HETATM    6  C   UNL     1      -8.458   6.245  69.580  1.00  0.00    -0.129 A  
HETATM    7  N   UNL     1      -8.068   6.886  68.483  1.00  0.00    -0.119 NA 
HETATM    8  C   UNL     1      -9.974   8.332  68.763  1.00  0.00    -0.193 A  
HETATM    9  C   UNL     1      -8.798   7.964  68.091  1.00  0.00    -0.125 A  
ENDROOT
BRANCH   6  10
HETATM   10  N   UNL     1      -7.853   5.004  69.848  1.00  0.00    -0.070 N  
HETATM   11  C   UNL     1      -6.413   4.933  69.567  1.00  0.00    -0.038 C  
BRANCH  10  12
HETATM   12  S   UNL     1      -8.783   3.665  69.455  1.00  0.00    -0.086 S  
HETATM   13  C   UNL     1      -9.482   4.048  67.858  1.00  0.00    -0.173 C  
HETATM   14  O   UNL     1      -7.873   2.550  69.259  1.00  0.00    -0.043 OA 
HETATM   15  O   UNL     1      -9.880   3.553  70.388  1.00  0.00    -0.156 OA 
ENDBRANCH  10  12
ENDBRANCH   6  10
BRANCH   9  16
HETATM   16  C   UNL     1      -8.200   8.671  66.917  1.00  0.00    -0.105 A  
HETATM   17  F   UNL     1      -6.553  10.549  63.578  1.00  0.00    -0.137 F  
HETATM   18  C   UNL     1      -8.362   8.150  65.612  1.00  0.00    -0.148 A  
HETATM   19  C   UNL     1      -7.806   8.772  64.489  1.00  0.00    -0.129 A  
HETATM   20  C   UNL     1      -6.858  10.465  65.912  1.00  0.00    -0.131 A  
HETATM   21  C   UNL     1      -7.072   9.936  64.649  1.00  0.00    -0.137 A  
HETATM   22  C   UNL     1      -7.401   9.826  67.035  1.00  0.00    -0.091 A  
ENDBRANCH   9  16
BRANCH   8  23
HETATM   23  C   UNL     1     -10.902   9.392  68.325  1.00  0.00    -0.163 C  
HETATM   24  C   UNL     1     -10.718  10.706  68.565  1.00  0.00    -0.252 C  
BRANCH  24  25
HETATM   25  C   UNL     1     -11.528  11.841  67.971  1.00  0.00    -0.319 C  
HETATM   26  H   UNL     1     -11.691  13.787  68.228  1.00  0.00     0.000 HD 
HETATM   27  O   UNL     1     -11.183  13.076  68.600  1.00  0.00    -0.245 OA 
BRANCH  25  28
HETATM   28  C   UNL     1     -11.357  11.991  66.452  1.00  0.00    -0.411 C  
BRANCH  28  29
HETATM   29  C   UNL     1     -10.535  13.242  66.059  1.00  0.00    -0.286 C  
HETATM   30  O   UNL     1      -9.133  12.999  66.218  1.00  0.00    -0.435 OA 
HETATM   31  H   UNL     1      -8.629  13.767  65.977  1.00  0.00     0.000 HD 
BRANCH  29  32
HETATM   32  C   UNL     1     -10.726  13.632  64.593  1.00  0.00    -0.433 C  
HETATM   33  C   UNL     1     -12.173  13.842  64.246  1.00  0.00    -0.400 C  
HETATM   34  O   UNL     1     -13.013  14.277  65.017  1.00  0.00    -0.693 OA 
HETATM   35  O   UNL     1     -12.467  13.511  62.968  1.00  0.00    -0.709 OA 
ENDBRANCH  29  32
ENDBRANCH  28  29
ENDBRANCH  25  28
ENDBRANCH  24  25
ENDBRANCH   8  23
TORSDOF 8
ENDMDL
MODEL      100
REMARK 921   NORMALIZED FREE ENERGY PREDICTED BY IDOCK:   -5.36 KCAL/MOL
REMARK 922        TOTAL FREE ENERGY PREDICTED BY IDOCK:   -9.42 KCAL/MOL
REMARK 923 INTER-LIGAND FREE ENERGY PREDICTED BY IDOCK:   -7.27 KCAL/MOL
REMARK 924 INTRA-LIGAND FREE ENERGY PREDICTED BY IDOCK:   -2.14 KCAL/MOL
REMARK 927      BINDING AFFINITY PREDICTED BY RF-SCORE:    0.00 PKD
ROOT
HETATM    1  C   UNL     1      -9.572   5.955  68.905  1.00  0.00    -0.158 C  
HETATM    2  C   UNL     1      -9.885   7.073  67.898  1.00  0.00    -0.161 C  
HETATM    3  C   UNL     1     -11.005   6.607  66.962  1.00  0.00    -0.463 C  
HETATM    4  C   UNL     1     -10.269   8.386  68.573  1.00  0.00    -0.201 A  
HETATM    5  N   UNL     1     -10.828   8.266  69.799  1.00  0.00    -0.222 NA 
HETATM    6  C   UNL     1     -11.213   9.393  70.393  1.00  0.00    -0.262 A  
HETATM    7  N   UNL     1     -11.153  10.614  69.871  1.00  0.00    -0.289 NA 
HETATM    8  C   UNL     1     -10.109   9.632  67.935  1.00  0.00    -0.222 A  
HETATM    9  C   UNL     1     -10.641  10.737  68.617  1.00  0.00    -0.199 A  
ENDROOT
BRANCH   6  10
HETATM   10  N   UNL     1     -11.517   9.296  71.763  1.00  0.00    -0.384 N  
HETATM   11  C   UNL     1     -10.885   8.174  72.470  1.00  0.00    -0.361 C  
BRANCH  10  12
HETATM   12  S   UNL     1     -13.103   9.664  72.162  1.00  0.00    -0.403 S  
HETATM   13  C   UNL     1     -14.072   9.049  70.795  1.00  0.00     0.407 C  
HETATM   14  O   UNL     1     -13.455   8.862  73.320  1.00  0.00    -0.095 OA 
HETATM   15  O   UNL     1     -13.270  11.099  72.194  1.00  0.00    -0.481 OA 
ENDBRANCH  10  12
ENDBRANCH   6  10
BRANCH   9  16
HETATM   16  C   UNL     1     -10.730  12.133  68.091  1.00  0.00    -0.238 A  
HETATM   17  F   UNL     1     -11.072  16.000  66.566  1.00  0.00    -0.273 F  
HETATM   18  C   UNL     1     -11.890  12.566  67.407  1.00  0.00    -0.381 A  
HETATM   19  C   UNL     1     -12.008  13.860  66.887  1.00  0.00    -0.467 A  
HETATM   20  C   UNL     1      -9.792  14.364  67.676  1.00  0.00    -0.224 A  
HETATM   21  C   UNL     1     -10.961  14.754  67.043  1.00  0.00    -0.324 A  
HETATM   22  C   UNL     1      -9.672  13.060  68.177  1.00  0.00    -0.228 A  
ENDBRANCH   9  16
BRANCH   8  23
HETATM   23  C   UNL     1      -9.406   9.696  66.638  1.00  0.00    -0.200 C  
HETATM   24  C   UNL     1     -10.024   9.842  65.449  1.00  0.00    -0.302 C  
BRANCH  24  25
HETATM   25  C   UNL     1      -9.345  10.112  64.121  1.00  0.00    -0.287 C  
HETATM   26  H   UNL     1      -8.836  11.688  63.055  1.00  0.00     0.000 HD 
HETATM   27  O   UNL     1      -9.261  11.518  63.887  1.00  0.00    -0.080 OA 
BRANCH  25  28
HETATM   28  C   UNL     1      -7.938   9.505  64.014  1.00  0.00    -0.141 C  
BRANCH  28  29
HETATM   29  C   UNL     1      -7.951   8.033  63.537  1.00  0.00    -0.131 C  
HETATM   30  O   UNL     1      -6.982   7.825  62.504  1.00  0.00    -0.078 OA 
HETATM   31  H   UNL     1      -6.990   6.921  62.211  1.00  0.00     0.000 HD 
BRANCH  29  32
HETATM   32  C   UNL     1      -7.589   7.051  64.652  1.00  0.00    -0.106 C  
HETATM   33  C   UNL     1      -7.988   5.642  64.319  1.00  0.00    -0.125 C  
HETATM   34  O   UNL     1      -7.996   5.173  63.192  1.00  0.00    -0.079 OA 
HETATM   35  O   UNL     1      -8.333   4.915  65.406  1.00  0.00    -0.116 OA 
ENDBRANCH  29  32
ENDBRANCH  28  29
ENDBRANCH  25  28
ENDBRANCH  24  25
ENDBRANCH   8  23
TORSDOF 8
ENDMDL
MODEL      101
REMARK 921   NORMALIZED FREE ENERGY PREDICTED BY IDOCK:   -5.33 KCAL/MOL
REMARK 922        TOTAL FREE ENERGY PREDICTED BY IDOCK:   -9.37 KCAL/MOL
REMARK 923 INTER-LIGAND FREE ENERGY PREDICTED BY IDOCK:   -8.50 KCAL/MOL
REMARK 924 INTRA-LIGAND FREE ENERGY PREDICTED BY IDOCK:   -0.87 KCAL/MOL
REMARK 927      BINDING AFFINITY PREDICTED BY RF-SCORE:    0.00 PKD
ROOT
HETATM    1  C   UNL     1     -10.492   8.872  71.963  1.00  0.00    -0.383 C  
HETATM    2  C   UNL     1     -10.867   8.826  70.474  1.00  0.00    -0.268 C  
HETATM    3  C   UNL     1     -12.004   7.821  70.272  1.00  0.00     0.208 C  
HETATM    4  C   UNL     1     -11.260  10.191  69.919  1.00  0.00    -0.287 A  
HETATM    5  N   UNL     1     -11.775  11.057  70.824  1.00  0.00    -0.273 NA 
HETATM    6  C   UNL     1     -12.169  12.241  70.360  1.00  0.00    -0.288 A  
HETATM    7  N   UNL     1     -12.156  12.628  69.089  1.00  0.00    -0.209 NA 
HETATM    8  C   UNL     1     -11.152  10.505  68.551  1.00  0.00    -0.329 A  
HETATM    9  C   UNL     1     -11.689  11.743  68.167  1.00  0.00    -0.307 A  
ENDROOT
BRANCH   6  10
HETATM   10  N   UNL     1     -12.424  13.228  71.329  1.00  0.00    -0.314 N  
HETATM   11  C   UNL     1     -13.624  13.011  72.147  1.00  0.00    -0.526 C  
BRANCH  10  12
HETATM   12  S   UNL     1     -12.098  14.798  70.839  1.00  0.00    -0.350 S  
HETATM   13  C   UNL     1     -11.815  15.699  72.355  1.00  0.00    -0.483 C  
HETATM   14  O   UNL     1     -10.835  14.773  70.123  1.00  0.00    -0.183 OA 
HETATM   15  O   UNL     1     -13.274  15.362  70.219  1.00  0.00    -0.206 OA 
ENDBRANCH  10  12
ENDBRANCH   6  10
BRANCH   9  16
HETATM   16  C   UNL     1     -11.830  12.243  66.765  1.00  0.00    -0.349 A  
HETATM   17  F   UNL     1     -12.150  13.555  62.819  1.00  0.00    -0.431 F  
HETATM   18  C   UNL     1     -11.325  11.484  65.683  1.00  0.00    -0.151 A  
HETATM   19  C   UNL     1     -11.424  11.923  64.358  1.00  0.00    -0.393 A  
HETATM   20  C   UNL     1     -12.513  13.929  65.116  1.00  0.00    -0.479 A  
HETATM   21  C   UNL     1     -12.034  13.137  64.086  1.00  0.00    -0.436 A  
HETATM   22  C   UNL     1     -12.393  13.494  66.443  1.00  0.00    -0.413 A  
ENDBRANCH   9  16
BRANCH   8  23
HETATM   23  C   UNL     1     -10.495   9.549  67.639  1.00  0.00    -0.321 C  
HETATM   24  C   UNL     1      -9.161   9.362  67.569  1.00  0.00    -0.139 C  
BRANCH  24  25
HETATM   25  C   UNL     1      -8.456   8.263  66.802  1.00  0.00    -0.122 C  
HETATM   26  H   UNL     1      -7.078   8.137  65.399  1.00  0.00     0.000 HD 
HETATM   27  O   UNL     1      -7.520   8.826  65.881  1.00  0.00    -0.087 OA 
BRANCH  25  28
HETATM   28  C   UNL     1      -7.724   7.255  67.701  1.00  0.00    -0.112 C  
BRANCH  28  29
HETATM   29  C   UNL     1      -8.670   6.187  68.303  1.00  0.00    -0.114 C  
HETATM   30  O   UNL     1      -8.467   4.918  67.673  1.00  0.00    -0.105 OA 
HETATM   31  H   UNL     1      -9.048   4.262  68.043  1.00  0.00     0.000 HD 
BRANCH  29  32
HETATM   32  C   UNL     1      -8.421   5.958  69.794  1.00  0.00    -0.125 C  
HETATM   33  C   UNL     1      -9.455   5.058  70.409  1.00  0.00    -0.169 C  
HETATM   34  O   UNL     1     -10.011   4.142  69.825  1.00  0.00    -0.206 OA 
HETATM   35  O   UNL     1      -9.711   5.351  71.705  1.00  0.00    -0.151 OA 
ENDBRANCH  29  32
ENDBRANCH  28  29
ENDBRANCH  25  28
ENDBRANCH  24  25
ENDBRANCH   8  23
TORSDOF 8
ENDMDL
MODEL      102
REMARK 921   NORMALIZED FREE ENERGY PREDICTED BY IDOCK:   -5.33 KCAL/MOL
REMARK 922        TOTAL FREE ENERGY PREDICTED BY IDOCK:   -9.37 KCAL/MOL
REMARK 923 INTER-LIGAND FREE ENERGY PREDICTED BY IDOCK:   -7.72 KCAL/MOL
REMARK 924 INTRA-LIGAND FREE ENERGY PREDICTED BY IDOCK:   -1.64 KCAL/MOL
REMARK 927      BINDING AFFINITY PREDICTED BY RF-SCORE:    0.00 PKD
ROOT
HETATM    1  C   UNL     1     -12.057   6.501  71.485  1.00  0.00    -0.363 C  
HETATM    2  C   UNL     1     -11.436   7.730  70.804  1.00  0.00    -0.285 C  
HETATM    3  C   UNL     1     -10.773   8.612  71.867  1.00  0.00    -0.414 C  
HETATM    4  C   UNL     1     -10.429   7.361  69.718  1.00  0.00    -0.229 A  
HETATM    5  N   UNL     1      -9.811   6.168  69.884  1.00  0.00    -0.165 NA 
HETATM    6  C   UNL     1      -8.896   5.839  68.975  1.00  0.00    -0.111 A  
HETATM    7  N   UNL     1      -8.494   6.595  67.958  1.00  0.00    -0.116 NA 
HETATM    8  C   UNL     1     -10.122   8.230  68.654  1.00  0.00    -0.212 A  
HETATM    9  C   UNL     1      -9.073   7.818  67.817  1.00  0.00    -0.134 A  
ENDROOT
BRANCH   6  10
HETATM   10  N   UNL     1      -8.474   4.498  68.982  1.00  0.00    -0.079 N  
HETATM   11  C   UNL     1      -7.044   4.288  69.240  1.00  0.00    -0.050 C  
BRANCH  10  12
HETATM   12  S   UNL     1      -9.201   3.524  67.826  1.00  0.00    -0.193 S  
HETATM   13  C   UNL     1      -7.918   3.206  66.626  1.00  0.00    -0.080 C  
HETATM   14  O   UNL     1      -9.505   2.254  68.461  1.00  0.00    -0.191 OA 
HETATM   15  O   UNL     1     -10.241   4.268  67.155  1.00  0.00    -0.099 OA 
ENDBRANCH  10  12
ENDBRANCH   6  10
BRANCH   9  16
HETATM   16  C   UNL     1      -8.462   8.622  66.715  1.00  0.00    -0.117 A  
HETATM   17  F   UNL     1      -6.815  10.800  63.562  1.00  0.00    -0.039 F  
HETATM   18  C   UNL     1      -8.954   8.509  65.393  1.00  0.00    -0.150 A  
HETATM   19  C   UNL     1      -8.400   9.233  64.330  1.00  0.00    -0.175 A  
HETATM   20  C   UNL     1      -6.802  10.206  65.842  1.00  0.00    -0.115 A  
HETATM   21  C   UNL     1      -7.338  10.089  64.570  1.00  0.00    -0.142 A  
HETATM   22  C   UNL     1      -7.347   9.464  66.898  1.00  0.00    -0.090 A  
ENDBRANCH   9  16
BRANCH   8  23
HETATM   23  C   UNL     1     -10.902   9.471  68.484  1.00  0.00    -0.175 C  
HETATM   24  C   UNL     1     -10.513  10.678  68.941  1.00  0.00    -0.232 C  
BRANCH  24  25
HETATM   25  C   UNL     1     -11.173  12.004  68.623  1.00  0.00    -0.258 C  
HETATM   26  H   UNL     1     -12.270  12.759  67.171  1.00  0.00     0.000 HD 
HETATM   27  O   UNL     1     -11.857  11.927  67.371  1.00  0.00    -0.571 OA 
BRANCH  25  28
HETATM   28  C   UNL     1     -12.160  12.476  69.701  1.00  0.00    -0.272 C  
BRANCH  28  29
HETATM   29  C   UNL     1     -12.073  13.998  69.973  1.00  0.00    -0.348 C  
HETATM   30  O   UNL     1     -12.269  14.741  68.765  1.00  0.00    -0.549 OA 
HETATM   31  H   UNL     1     -12.216  15.675  68.932  1.00  0.00     0.000 HD 
BRANCH  29  32
HETATM   32  C   UNL     1     -13.153  14.483  70.941  1.00  0.00    -0.405 C  
HETATM   33  C   UNL     1     -12.634  15.520  71.896  1.00  0.00    -0.405 C  
HETATM   34  O   UNL     1     -11.768  16.337  71.626  1.00  0.00    -0.480 OA 
HETATM   35  O   UNL     1     -13.236  15.477  73.106  1.00  0.00    -0.475 OA 
ENDBRANCH  29  32
ENDBRANCH  28  29
ENDBRANCH  25  28
ENDBRANCH  24  25
ENDBRANCH   8  23
TORSDOF 8
ENDMDL
MODEL      103
REMARK 921   NORMALIZED FREE ENERGY PREDICTED BY IDOCK:   -5.30 KCAL/MOL
REMARK 922        TOTAL FREE ENERGY PREDICTED BY IDOCK:   -9.32 KCAL/MOL
REMARK 923 INTER-LIGAND FREE ENERGY PREDICTED BY IDOCK:   -7.79 KCAL/MOL
REMARK 924 INTRA-LIGAND FREE ENERGY PREDICTED BY IDOCK:   -1.52 KCAL/MOL
REMARK 927      BINDING AFFINITY PREDICTED BY RF-SCORE:    0.00 PKD
ROOT
HETATM    1  C   UNL     1     -11.871   7.127  70.475  1.00  0.00    -0.286 C  
HETATM    2  C   UNL     1     -11.437   8.601  70.494  1.00  0.00    -0.208 C  
HETATM    3  C   UNL     1     -11.710   9.188  71.883  1.00  0.00    -0.436 C  
HETATM    4  C   UNL     1      -9.971   8.791  70.117  1.00  0.00    -0.184 A  
HETATM    5  N   UNL     1      -9.163   7.739  70.384  1.00  0.00    -0.155 NA 
HETATM    6  C   UNL     1      -7.870   7.893  70.106  1.00  0.00    -0.097 A  
HETATM    7  N   UNL     1      -7.294   8.999  69.645  1.00  0.00    -0.061 NA 
HETATM    8  C   UNL     1      -9.485  10.001  69.585  1.00  0.00    -0.247 A  
HETATM    9  C   UNL     1      -8.093  10.079  69.425  1.00  0.00    -0.149 A  
ENDROOT
BRANCH   6  10
HETATM   10  N   UNL     1      -7.095   6.720  70.108  1.00  0.00    -0.069 N  
HETATM   11  C   UNL     1      -5.688   6.896  70.490  1.00  0.00    -0.024 C  
BRANCH  10  12
HETATM   12  S   UNL     1      -7.427   5.652  68.859  1.00  0.00    -0.085 S  
HETATM   13  C   UNL     1      -5.869   4.851  68.517  1.00  0.00    -0.021 C  
HETATM   14  O   UNL     1      -8.317   4.633  69.388  1.00  0.00    -0.075 OA 
HETATM   15  O   UNL     1      -7.796   6.395  67.676  1.00  0.00    -0.103 OA 
ENDBRANCH  10  12
ENDBRANCH   6  10
BRANCH   9  16
HETATM   16  C   UNL     1      -7.321  11.294  69.021  1.00  0.00    -0.115 A  
HETATM   17  F   UNL     1      -5.144  14.703  68.006  1.00  0.00    -0.097 F  
HETATM   18  C   UNL     1      -6.481  11.948  69.953  1.00  0.00    -0.048 A  
HETATM   19  C   UNL     1      -5.754  13.096  69.619  1.00  0.00    -0.105 A  
HETATM   20  C   UNL     1      -6.688  13.029  67.403  1.00  0.00    -0.123 A  
HETATM   21  C   UNL     1      -5.852  13.616  68.339  1.00  0.00    -0.098 A  
HETATM   22  C   UNL     1      -7.429  11.891  67.749  1.00  0.00    -0.121 A  
ENDBRANCH   9  16
BRANCH   8  23
HETATM   23  C   UNL     1     -10.437  11.072  69.231  1.00  0.00    -0.210 C  
HETATM   24  C   UNL     1     -10.904  11.289  67.986  1.00  0.00    -0.266 C  
BRANCH  24  25
HETATM   25  C   UNL     1     -12.025  12.237  67.609  1.00  0.00    -0.148 C  
HETATM   26  H   UNL     1     -12.723  13.969  68.237  1.00  0.00     0.000 HD 
HETATM   27  O   UNL     1     -12.021  13.374  68.473  1.00  0.00    -0.348 OA 
BRANCH  25  28
HETATM   28  C   UNL     1     -11.961  12.719  66.152  1.00  0.00    -0.476 C  
BRANCH  28  29
HETATM   29  C   UNL     1     -10.677  13.525  65.839  1.00  0.00    -0.277 C  
HETATM   30  O   UNL     1     -10.160  13.175  64.551  1.00  0.00    -0.561 OA 
HETATM   31  H   UNL     1      -9.371  13.670  64.359  1.00  0.00     0.000 HD 
BRANCH  29  32
HETATM   32  C   UNL     1     -10.928  15.032  65.792  1.00  0.00    -0.351 C  
HETATM   33  C   UNL     1     -11.647  15.449  64.541  1.00  0.00    -0.296 C  
HETATM   34  O   UNL     1     -12.470  14.763  63.955  1.00  0.00    -0.811 OA 
HETATM   35  O   UNL     1     -11.304  16.687  64.118  1.00  0.00    -1.141 OA 
ENDBRANCH  29  32
ENDBRANCH  28  29
ENDBRANCH  25  28
ENDBRANCH  24  25
ENDBRANCH   8  23
TORSDOF 8
ENDMDL
MODEL      104
REMARK 921   NORMALIZED FREE ENERGY PREDICTED BY IDOCK:   -5.28 KCAL/MOL
REMARK 922        TOTAL FREE ENERGY PREDICTED BY IDOCK:   -9.29 KCAL/MOL
REMARK 923 INTER-LIGAND FREE ENERGY PREDICTED BY IDOCK:   -7.59 KCAL/MOL
REMARK 924 INTRA-LIGAND FREE ENERGY PREDICTED BY IDOCK:   -1.70 KCAL/MOL
REMARK 927      BINDING AFFINITY PREDICTED BY RF-SCORE:    0.00 PKD
ROOT
HETATM    1  C   UNL     1      -7.331  10.124  63.786  1.00  0.00    -0.113 C  
HETATM    2  C   UNL     1      -8.517  10.160  64.763  1.00  0.00    -0.180 C  
HETATM    3  C   UNL     1      -9.822  10.256  63.967  1.00  0.00    -0.286 C  
HETATM    4  C   UNL     1      -8.553   8.953  65.696  1.00  0.00    -0.166 A  
HETATM    5  N   UNL     1      -7.981   7.827  65.208  1.00  0.00    -0.120 NA 
HETATM    6  C   UNL     1      -8.036   6.746  65.982  1.00  0.00    -0.119 A  
HETATM    7  N   UNL     1      -8.648   6.655  67.159  1.00  0.00    -0.112 NA 
HETATM    8  C   UNL     1      -9.191   8.993  66.950  1.00  0.00    -0.179 A  
HETATM    9  C   UNL     1      -9.271   7.768  67.631  1.00  0.00    -0.136 A  
ENDROOT
BRANCH   6  10
HETATM   10  N   UNL     1      -7.201   5.677  65.610  1.00  0.00    -0.070 N  
HETATM   11  C   UNL     1      -5.975   6.056  64.896  1.00  0.00    -0.025 C  
BRANCH  10  12
HETATM   12  S   UNL     1      -8.005   4.302  65.087  1.00  0.00    -0.098 S  
HETATM   13  C   UNL     1      -6.845   3.479  64.008  1.00  0.00    -0.044 C  
HETATM   14  O   UNL     1      -8.185   3.442  66.243  1.00  0.00    -0.095 OA 
HETATM   15  O   UNL     1      -9.141   4.686  64.283  1.00  0.00    -0.155 OA 
ENDBRANCH  10  12
ENDBRANCH   6  10
BRANCH   9  16
HETATM   16  C   UNL     1     -10.020   7.516  68.900  1.00  0.00    -0.168 A  
HETATM   17  F   UNL     1     -12.184   6.749  72.381  1.00  0.00    -0.284 F  
HETATM   18  C   UNL     1     -11.033   6.530  68.946  1.00  0.00    -0.376 A  
HETATM   19  C   UNL     1     -11.767   6.273  70.110  1.00  0.00    -0.274 A  
HETATM   20  C   UNL     1     -10.540   8.000  71.250  1.00  0.00    -0.245 A  
HETATM   21  C   UNL     1     -11.500   7.001  71.258  1.00  0.00    -0.286 A  
HETATM   22  C   UNL     1      -9.822   8.266  70.076  1.00  0.00    -0.182 A  
ENDBRANCH   9  16
BRANCH   8  23
HETATM   23  C   UNL     1      -9.710  10.278  67.457  1.00  0.00    -0.196 C  
HETATM   24  C   UNL     1     -11.016  10.613  67.476  1.00  0.00    -0.371 C  
BRANCH  24  25
HETATM   25  C   UNL     1     -11.614  11.824  68.162  1.00  0.00    -0.323 C  
HETATM   26  H   UNL     1     -12.092  12.353  69.999  1.00  0.00     0.000 HD 
HETATM   27  O   UNL     1     -11.718  11.594  69.568  1.00  0.00    -0.289 OA 
BRANCH  25  28
HETATM   28  C   UNL     1     -10.822  13.119  67.927  1.00  0.00    -0.260 C  
BRANCH  28  29
HETATM   29  C   UNL     1     -11.677  14.242  67.293  1.00  0.00    -0.395 C  
HETATM   30  O   UNL     1     -11.439  15.493  67.947  1.00  0.00    -0.330 OA 
HETATM   31  H   UNL     1     -11.964  16.182  67.557  1.00  0.00     0.000 HD 
BRANCH  29  32
HETATM   32  C   UNL     1     -11.342  14.472  65.819  1.00  0.00    -0.336 C  
HETATM   33  C   UNL     1     -12.150  13.591  64.909  1.00  0.00    -0.397 C  
HETATM   34  O   UNL     1     -13.294  13.227  65.135  1.00  0.00    -0.593 OA 
HETATM   35  O   UNL     1     -11.489  13.239  63.783  1.00  0.00    -0.390 OA 
ENDBRANCH  29  32
ENDBRANCH  28  29
ENDBRANCH  25  28
ENDBRANCH  24  25
ENDBRANCH   8  23
TORSDOF 8
ENDMDL
MODEL      105
REMARK 921   NORMALIZED FREE ENERGY PREDICTED BY IDOCK:   -5.28 KCAL/MOL
REMARK 922        TOTAL FREE ENERGY PREDICTED BY IDOCK:   -9.29 KCAL/MOL
REMARK 923 INTER-LIGAND FREE ENERGY PREDICTED BY IDOCK:   -8.43 KCAL/MOL
REMARK 924 INTRA-LIGAND FREE ENERGY PREDICTED BY IDOCK:   -0.85 KCAL/MOL
REMARK 927      BINDING AFFINITY PREDICTED BY RF-SCORE:    0.00 PKD
ROOT
HETATM    1  C   UNL     1     -13.682  13.943  72.268  1.00  0.00    -0.660 C  
HETATM    2  C   UNL     1     -12.611  14.088  71.177  1.00  0.00    -0.445 C  
HETATM    3  C   UNL     1     -11.317  14.610  71.808  1.00  0.00     0.214 C  
HETATM    4  C   UNL     1     -12.347  12.785  70.428  1.00  0.00    -0.247 A  
HETATM    5  N   UNL     1     -12.594  11.654  71.131  1.00  0.00    -0.378 NA 
HETATM    6  C   UNL     1     -12.331  10.502  70.518  1.00  0.00    -0.343 A  
HETATM    7  N   UNL     1     -11.798  10.361  69.308  1.00  0.00    -0.154 NA 
HETATM    8  C   UNL     1     -11.825  12.763  69.121  1.00  0.00    -0.352 A  
HETATM    9  C   UNL     1     -11.498  11.494  68.618  1.00  0.00    -0.293 A  
ENDROOT
BRANCH   6  10
HETATM   10  N   UNL     1     -12.854   9.347  71.126  1.00  0.00    -0.287 N  
HETATM   11  C   UNL     1     -13.794   9.587  72.229  1.00  0.00    -0.302 C  
BRANCH  10  12
HETATM   12  S   UNL     1     -11.763   8.086  71.302  1.00  0.00    -0.285 S  
HETATM   13  C   UNL     1     -10.190   8.880  71.588  1.00  0.00    -0.345 C  
HETATM   14  O   UNL     1     -12.108   7.385  72.527  1.00  0.00    -0.199 OA 
HETATM   15  O   UNL     1     -11.659   7.363  70.056  1.00  0.00    -0.142 OA 
ENDBRANCH  10  12
ENDBRANCH   6  10
BRANCH   9  16
HETATM   16  C   UNL     1     -10.799  11.215  67.326  1.00  0.00    -0.326 A  
HETATM   17  F   UNL     1      -8.914  10.517  63.672  1.00  0.00    -0.166 F  
HETATM   18  C   UNL     1     -10.945  12.098  66.231  1.00  0.00    -0.332 A  
HETATM   19  C   UNL     1     -10.321  11.865  65.000  1.00  0.00    -0.330 A  
HETATM   20  C   UNL     1      -9.387   9.827  65.875  1.00  0.00    -0.260 A  
HETATM   21  C   UNL     1      -9.531  10.737  64.840  1.00  0.00    -0.242 A  
HETATM   22  C   UNL     1     -10.031  10.056  67.098  1.00  0.00    -0.251 A  
ENDBRANCH   9  16
BRANCH   8  23
HETATM   23  C   UNL     1     -11.670  14.031  68.382  1.00  0.00    -0.389 C  
HETATM   24  C   UNL     1     -10.515  14.721  68.296  1.00  0.00    -0.241 C  
BRANCH  24  25
HETATM   25  C   UNL     1     -10.254  15.910  67.394  1.00  0.00    -0.270 C  
HETATM   26  H   UNL     1     -10.633  17.843  67.410  1.00  0.00     0.000 HD 
HETATM   27  O   UNL     1     -10.796  17.098  67.975  1.00  0.00    -0.378 OA 
BRANCH  25  28
HETATM   28  C   UNL     1      -8.766  16.139  67.090  1.00  0.00    -0.216 C  
BRANCH  28  29
HETATM   29  C   UNL     1      -7.829  15.464  68.121  1.00  0.00    -0.124 C  
HETATM   30  O   UNL     1      -7.292  14.245  67.596  1.00  0.00    -0.149 OA 
HETATM   31  H   UNL     1      -6.717  13.830  68.229  1.00  0.00     0.000 HD 
BRANCH  29  32
HETATM   32  C   UNL     1      -6.622  16.333  68.474  1.00  0.00    -0.130 C  
HETATM   33  C   UNL     1      -5.801  15.739  69.583  1.00  0.00    -0.135 C  
HETATM   34  O   UNL     1      -5.656  14.542  69.771  1.00  0.00    -0.093 OA 
HETATM   35  O   UNL     1      -5.209  16.671  70.364  1.00  0.00    -0.184 OA 
ENDBRANCH  29  32
ENDBRANCH  28  29
ENDBRANCH  25  28
ENDBRANCH  24  25
ENDBRANCH   8  23
TORSDOF 8
ENDMDL
MODEL      106
REMARK 921   NORMALIZED FREE ENERGY PREDICTED BY IDOCK:   -5.27 KCAL/MOL
REMARK 922        TOTAL FREE ENERGY PREDICTED BY IDOCK:   -9.27 KCAL/MOL
REMARK 923 INTER-LIGAND FREE ENERGY PREDICTED BY IDOCK:   -7.52 KCAL/MOL
REMARK 924 INTRA-LIGAND FREE ENERGY PREDICTED BY IDOCK:   -1.76 KCAL/MOL
REMARK 927      BINDING AFFINITY PREDICTED BY RF-SCORE:    0.00 PKD
ROOT
HETATM    1  C   UNL     1      -5.449  13.185  69.636  1.00  0.00    -0.091 C  
HETATM    2  C   UNL     1      -6.412  12.262  68.874  1.00  0.00    -0.089 C  
HETATM    3  C   UNL     1      -6.908  11.162  69.818  1.00  0.00    -0.090 C  
HETATM    4  C   UNL     1      -7.594  13.012  68.266  1.00  0.00    -0.135 A  
HETATM    5  N   UNL     1      -7.951  14.148  68.909  1.00  0.00    -0.098 NA 
HETATM    6  C   UNL     1      -9.007  14.800  68.426  1.00  0.00    -0.187 A  
HETATM    7  N   UNL     1      -9.773  14.409  67.413  1.00  0.00    -0.217 NA 
HETATM    8  C   UNL     1      -8.300  12.520  67.151  1.00  0.00    -0.179 A  
HETATM    9  C   UNL     1      -9.452  13.240  66.796  1.00  0.00    -0.257 A  
ENDROOT
BRANCH   6  10
HETATM   10  N   UNL     1      -9.194  16.109  68.903  1.00  0.00    -0.223 N  
HETATM   11  C   UNL     1     -10.592  16.520  69.085  1.00  0.00    -0.319 C  
BRANCH  10  12
HETATM   12  S   UNL     1      -8.130  17.246  68.281  1.00  0.00    -0.254 S  
HETATM   13  C   UNL     1      -8.926  18.819  68.566  1.00  0.00    -0.341 C  
HETATM   14  O   UNL     1      -6.938  17.222  69.110  1.00  0.00    -0.233 OA 
HETATM   15  O   UNL     1      -8.024  17.072  66.851  1.00  0.00    -0.187 OA 
ENDBRANCH  10  12
ENDBRANCH   6  10
BRANCH   9  16
HETATM   16  C   UNL     1     -10.447  12.846  65.753  1.00  0.00    -0.293 A  
HETATM   17  F   UNL     1     -13.145  11.767  62.761  1.00  0.00    -0.481 F  
HETATM   18  C   UNL     1     -10.035  12.639  64.415  1.00  0.00    -0.196 A  
HETATM   19  C   UNL     1     -10.937  12.283  63.406  1.00  0.00    -0.467 A  
HETATM   20  C   UNL     1     -12.733  12.351  65.005  1.00  0.00    -0.170 A  
HETATM   21  C   UNL     1     -12.278  12.126  63.716  1.00  0.00    -0.531 A  
HETATM   22  C   UNL     1     -11.828  12.727  66.007  1.00  0.00    -0.495 A  
ENDBRANCH   9  16
BRANCH   8  23
HETATM   23  C   UNL     1      -7.798  11.326  66.445  1.00  0.00    -0.109 C  
HETATM   24  C   UNL     1      -8.258  10.075  66.649  1.00  0.00    -0.122 C  
BRANCH  24  25
HETATM   25  C   UNL     1      -7.921   8.856  65.816  1.00  0.00    -0.101 C  
HETATM   26  H   UNL     1      -6.450   7.550  65.698  1.00  0.00     0.000 HD 
HETATM   27  O   UNL     1      -6.662   8.314  66.221  1.00  0.00    -0.056 OA 
BRANCH  25  28
HETATM   28  C   UNL     1      -8.984   7.749  65.883  1.00  0.00    -0.155 C  
BRANCH  28  29
HETATM   29  C   UNL     1      -9.877   7.848  67.144  1.00  0.00    -0.208 C  
HETATM   30  O   UNL     1     -11.168   7.281  66.897  1.00  0.00    -0.543 OA 
HETATM   31  H   UNL     1     -11.716   7.341  67.670  1.00  0.00     0.000 HD 
BRANCH  29  32
HETATM   32  C   UNL     1      -9.302   7.074  68.331  1.00  0.00    -0.130 C  
HETATM   33  C   UNL     1      -9.828   7.579  69.645  1.00  0.00    -0.180 C  
HETATM   34  O   UNL     1     -10.947   8.038  69.812  1.00  0.00    -0.227 OA 
HETATM   35  O   UNL     1      -8.936   7.464  70.655  1.00  0.00    -0.153 OA 
ENDBRANCH  29  32
ENDBRANCH  28  29
ENDBRANCH  25  28
ENDBRANCH  24  25
ENDBRANCH   8  23
TORSDOF 8
ENDMDL
MODEL      107
REMARK 921   NORMALIZED FREE ENERGY PREDICTED BY IDOCK:   -5.26 KCAL/MOL
REMARK 922        TOTAL FREE ENERGY PREDICTED BY IDOCK:   -9.27 KCAL/MOL
REMARK 923 INTER-LIGAND FREE ENERGY PREDICTED BY IDOCK:   -8.91 KCAL/MOL
REMARK 924 INTRA-LIGAND FREE ENERGY PREDICTED BY IDOCK:   -0.35 KCAL/MOL
REMARK 927      BINDING AFFINITY PREDICTED BY RF-SCORE:    0.00 PKD
ROOT
HETATM    1  C   UNL     1     -12.264  16.205  71.703  1.00  0.00    -0.424 C  
HETATM    2  C   UNL     1     -12.461  14.774  71.180  1.00  0.00    -0.397 C  
HETATM    3  C   UNL     1     -13.960  14.469  71.102  1.00  0.00    -0.248 C  
HETATM    4  C   UNL     1     -11.802  14.543  69.823  1.00  0.00    -0.315 A  
HETATM    5  N   UNL     1     -11.675  15.645  69.047  1.00  0.00    -0.385 NA 
HETATM    6  C   UNL     1     -11.142  15.466  67.840  1.00  0.00    -0.323 A  
HETATM    7  N   UNL     1     -10.780  14.303  67.308  1.00  0.00    -0.275 NA 
HETATM    8  C   UNL     1     -11.410  13.263  69.388  1.00  0.00    -0.280 A  
HETATM    9  C   UNL     1     -10.954  13.185  68.063  1.00  0.00    -0.247 A  
ENDROOT
BRANCH   6  10
HETATM   10  N   UNL     1     -10.747  16.632  67.161  1.00  0.00    -0.256 N  
HETATM   11  C   UNL     1     -10.661  16.512  65.700  1.00  0.00    -0.304 C  
BRANCH  10  12
HETATM   12  S   UNL     1      -9.559  17.529  67.933  1.00  0.00    -0.286 S  
HETATM   13  C   UNL     1      -8.402  16.317  68.551  1.00  0.00    -0.204 C  
HETATM   14  O   UNL     1      -8.862  18.292  66.912  1.00  0.00    -0.260 OA 
HETATM   15  O   UNL     1     -10.130  18.199  69.077  1.00  0.00    -0.377 OA 
ENDBRANCH  10  12
ENDBRANCH   6  10
BRANCH   9  16
HETATM   16  C   UNL     1     -10.622  11.930  67.321  1.00  0.00    -0.261 A  
HETATM   17  F   UNL     1      -9.652   8.494  65.166  1.00  0.00    -0.038 F  
HETATM   18  C   UNL     1      -9.799  11.978  66.171  1.00  0.00    -0.255 A  
HETATM   19  C   UNL     1      -9.476  10.829  65.441  1.00  0.00    -0.258 A  
HETATM   20  C   UNL     1     -10.809   9.510  66.948  1.00  0.00    -0.085 A  
HETATM   21  C   UNL     1      -9.972   9.601  65.848  1.00  0.00    -0.281 A  
HETATM   22  C   UNL     1     -11.145  10.667  67.664  1.00  0.00    -0.385 A  
ENDBRANCH   9  16
BRANCH   8  23
HETATM   23  C   UNL     1     -11.492  12.124  70.323  1.00  0.00     0.062 C  
HETATM   24  C   UNL     1     -12.623  11.439  70.585  1.00  0.00    -0.360 C  
BRANCH  24  25
HETATM   25  C   UNL     1     -12.719  10.149  71.375  1.00  0.00    -0.425 C  
HETATM   26  H   UNL     1     -13.785   8.494  71.313  1.00  0.00     0.000 HD 
HETATM   27  O   UNL     1     -13.725   9.302  70.817  1.00  0.00    -0.033 OA 
BRANCH  25  28
HETATM   28  C   UNL     1     -11.397   9.371  71.447  1.00  0.00    -0.451 C  
BRANCH  28  29
HETATM   29  C   UNL     1     -11.595   7.877  71.798  1.00  0.00    -0.278 C  
HETATM   30  O   UNL     1     -10.809   7.045  70.938  1.00  0.00    -0.232 OA 
HETATM   31  H   UNL     1     -10.931   6.127  71.152  1.00  0.00     0.000 HD 
BRANCH  29  32
HETATM   32  C   UNL     1     -11.148   7.544  73.221  1.00  0.00    -0.294 C  
HETATM   33  C   UNL     1      -9.667   7.719  73.406  1.00  0.00    -0.290 C  
HETATM   34  O   UNL     1      -8.992   8.556  72.828  1.00  0.00    -0.292 OA 
HETATM   35  O   UNL     1      -9.137   6.856  74.303  1.00  0.00    -0.179 OA 
ENDBRANCH  29  32
ENDBRANCH  28  29
ENDBRANCH  25  28
ENDBRANCH  24  25
ENDBRANCH   8  23
TORSDOF 8
ENDMDL
MODEL      108
REMARK 921   NORMALIZED FREE ENERGY PREDICTED BY IDOCK:   -5.21 KCAL/MOL
REMARK 922        TOTAL FREE ENERGY PREDICTED BY IDOCK:   -9.19 KCAL/MOL
REMARK 923 INTER-LIGAND FREE ENERGY PREDICTED BY IDOCK:   -6.91 KCAL/MOL
REMARK 924 INTRA-LIGAND FREE ENERGY PREDICTED BY IDOCK:   -2.28 KCAL/MOL
REMARK 927      BINDING AFFINITY PREDICTED BY RF-SCORE:    0.00 PKD
ROOT
HETATM    1  C   UNL     1     -10.909   9.158  67.387  1.00  0.00    -0.140 C  
HETATM    2  C   UNL     1     -10.852  10.656  67.724  1.00  0.00    -0.338 C  
HETATM    3  C   UNL     1     -11.811  10.948  68.882  1.00  0.00    -0.340 C  
HETATM    4  C   UNL     1      -9.444  11.131  68.070  1.00  0.00    -0.174 A  
HETATM    5  N   UNL     1      -8.624  10.186  68.586  1.00  0.00    -0.118 NA 
HETATM    6  C   UNL     1      -7.403  10.582  68.938  1.00  0.00    -0.098 A  
HETATM    7  N   UNL     1      -6.937  11.826  68.883  1.00  0.00    -0.103 NA 
HETATM    8  C   UNL     1      -9.047  12.474  67.919  1.00  0.00    -0.199 A  
HETATM    9  C   UNL     1      -7.773  12.791  68.415  1.00  0.00    -0.132 A  
ENDROOT
BRANCH   6  10
HETATM   10  N   UNL     1      -6.472   9.559  69.194  1.00  0.00    -0.045 N  
HETATM   11  C   UNL     1      -5.964   8.859  68.007  1.00  0.00    -0.046 C  
BRANCH  10  12
HETATM   12  S   UNL     1      -6.794   8.636  70.556  1.00  0.00    -0.046 S  
HETATM   13  C   UNL     1      -5.192   8.109  71.139  1.00  0.00    -0.029 C  
HETATM   14  O   UNL     1      -7.335   9.530  71.565  1.00  0.00    -0.314 OA 
HETATM   15  O   UNL     1      -7.523   7.450  70.170  1.00  0.00    -0.083 OA 
ENDBRANCH  10  12
ENDBRANCH   6  10
BRANCH   9  16
HETATM   16  C   UNL     1      -7.183  14.161  68.509  1.00  0.00    -0.110 A  
HETATM   17  F   UNL     1      -5.459  17.954  68.688  1.00  0.00    -0.155 F  
HETATM   18  C   UNL     1      -6.256  14.606  67.537  1.00  0.00    -0.005 A  
HETATM   19  C   UNL     1      -5.669  15.876  67.596  1.00  0.00    -0.163 A  
HETATM   20  C   UNL     1      -6.879  16.326  69.627  1.00  0.00    -0.125 A  
HETATM   21  C   UNL     1      -6.001  16.731  68.634  1.00  0.00    -0.136 A  
HETATM   22  C   UNL     1      -7.447  15.046  69.573  1.00  0.00    -0.194 A  
ENDBRANCH   9  16
BRANCH   8  23
HETATM   23  C   UNL     1      -9.961  13.429  67.263  1.00  0.00    -0.232 C  
HETATM   24  C   UNL     1      -9.698  14.049  66.096  1.00  0.00    -0.300 C  
BRANCH  24  25
HETATM   25  C   UNL     1     -10.677  14.877  65.287  1.00  0.00    -0.393 C  
HETATM   26  H   UNL     1     -12.632  15.009  65.085  1.00  0.00     0.000 HD 
HETATM   27  O   UNL     1     -12.018  14.490  65.591  1.00  0.00    -0.359 OA 
BRANCH  25  28
HETATM   28  C   UNL     1     -10.532  16.390  65.507  1.00  0.00    -0.349 C  
BRANCH  28  29
HETATM   29  C   UNL     1      -9.343  16.755  66.428  1.00  0.00    -0.278 C  
HETATM   30  O   UNL     1      -8.387  17.557  65.727  1.00  0.00    -0.538 OA 
HETATM   31  H   UNL     1      -7.656  17.781  66.293  1.00  0.00     0.000 HD 
BRANCH  29  32
HETATM   32  C   UNL     1      -9.773  17.582  67.640  1.00  0.00    -0.275 C  
HETATM   33  C   UNL     1      -9.865  19.048  67.322  1.00  0.00    -0.326 C  
HETATM   34  O   UNL     1     -10.192  19.501  66.237  1.00  0.00    -0.410 OA 
HETATM   35  O   UNL     1      -9.560  19.840  68.375  1.00  0.00    -0.359 OA 
ENDBRANCH  29  32
ENDBRANCH  28  29
ENDBRANCH  25  28
ENDBRANCH  24  25
ENDBRANCH   8  23
TORSDOF 8
ENDMDL
MODEL      109
REMARK 921   NORMALIZED FREE ENERGY PREDICTED BY IDOCK:   -5.20 KCAL/MOL
REMARK 922        TOTAL FREE ENERGY PREDICTED BY IDOCK:   -9.18 KCAL/MOL
REMARK 923 INTER-LIGAND FREE ENERGY PREDICTED BY IDOCK:   -8.21 KCAL/MOL
REMARK 924 INTRA-LIGAND FREE ENERGY PREDICTED BY IDOCK:   -0.97 KCAL/MOL
REMARK 927      BINDING AFFINITY PREDICTED BY RF-SCORE:    0.00 PKD
ROOT
HETATM    1  C   UNL     1     -13.884  12.521  72.193  1.00  0.00    -0.185 C  
HETATM    2  C   UNL     1     -12.914  12.809  71.036  1.00  0.00    -0.166 C  
HETATM    3  C   UNL     1     -11.965  13.940  71.446  1.00  0.00    -0.028 C  
HETATM    4  C   UNL     1     -12.119  11.578  70.610  1.00  0.00    -0.353 A  
HETATM    5  N   UNL     1     -11.922  10.652  71.577  1.00  0.00    -0.183 NA 
HETATM    6  C   UNL     1     -11.195   9.588  71.246  1.00  0.00    -0.382 A  
HETATM    7  N   UNL     1     -10.598   9.380  70.076  1.00  0.00    -0.220 NA 
HETATM    8  C   UNL     1     -11.576  11.447  69.317  1.00  0.00    -0.384 A  
HETATM    9  C   UNL     1     -10.747  10.333  69.117  1.00  0.00    -0.228 A  
ENDROOT
BRANCH   6  10
HETATM   10  N   UNL     1     -11.238   8.507  72.144  1.00  0.00    -0.342 N  
HETATM   11  C   UNL     1     -10.020   8.298  72.937  1.00  0.00    -0.226 C  
BRANCH  10  12
HETATM   12  S   UNL     1     -12.029   7.144  71.571  1.00  0.00    -0.347 S  
HETATM   13  C   UNL     1     -13.757   7.589  71.562  1.00  0.00    -0.372 C  
HETATM   14  O   UNL     1     -11.634   6.967  70.184  1.00  0.00    -0.322 OA 
HETATM   15  O   UNL     1     -11.869   6.063  72.516  1.00  0.00    -0.280 OA 
ENDBRANCH  10  12
ENDBRANCH   6  10
BRANCH   9  16
HETATM   16  C   UNL     1      -9.940  10.048  67.891  1.00  0.00    -0.183 A  
HETATM   17  F   UNL     1      -7.735   9.148  64.467  1.00  0.00    -0.102 F  
HETATM   18  C   UNL     1     -10.217   8.906  67.103  1.00  0.00    -0.339 A  
HETATM   19  C   UNL     1      -9.476   8.596  65.957  1.00  0.00    -0.278 A  
HETATM   20  C   UNL     1      -8.107  10.538  66.332  1.00  0.00    -0.135 A  
HETATM   21  C   UNL     1      -8.436   9.427  65.573  1.00  0.00    -0.143 A  
HETATM   22  C   UNL     1      -8.840  10.833  67.490  1.00  0.00    -0.128 A  
ENDBRANCH   9  16
BRANCH   8  23
HETATM   23  C   UNL     1     -11.909  12.450  68.287  1.00  0.00    -0.364 C  
HETATM   24  C   UNL     1     -11.243  13.610  68.116  1.00  0.00    -0.303 C  
BRANCH  24  25
HETATM   25  C   UNL     1     -11.416  14.572  66.958  1.00  0.00    -0.370 C  
HETATM   26  H   UNL     1     -10.279  15.803  65.923  1.00  0.00     0.000 HD 
HETATM   27  O   UNL     1     -10.171  15.200  66.649  1.00  0.00    -0.255 OA 
BRANCH  25  28
HETATM   28  C   UNL     1     -11.970  13.912  65.686  1.00  0.00    -0.409 C  
BRANCH  28  29
HETATM   29  C   UNL     1     -10.861  13.498  64.690  1.00  0.00    -0.405 C  
HETATM   30  O   UNL     1      -9.567  13.832  65.203  1.00  0.00    -0.556 OA 
HETATM   31  H   UNL     1      -8.886  13.578  64.590  1.00  0.00     0.000 HD 
BRANCH  29  32
HETATM   32  C   UNL     1     -10.833  11.990  64.438  1.00  0.00    -0.378 C  
HETATM   33  C   UNL     1      -9.929  11.622  63.296  1.00  0.00    -0.419 C  
HETATM   34  O   UNL     1      -8.906  12.221  63.003  1.00  0.00     0.423 OA 
HETATM   35  O   UNL     1     -10.352  10.534  62.612  1.00  0.00     0.153 OA 
ENDBRANCH  29  32
ENDBRANCH  28  29
ENDBRANCH  25  28
ENDBRANCH  24  25
ENDBRANCH   8  23
TORSDOF 8
ENDMDL
MODEL      110
REMARK 921   NORMALIZED FREE ENERGY PREDICTED BY IDOCK:   -5.20 KCAL/MOL
REMARK 922        TOTAL FREE ENERGY PREDICTED BY IDOCK:   -9.17 KCAL/MOL
REMARK 923 INTER-LIGAND FREE ENERGY PREDICTED BY IDOCK:   -7.71 KCAL/MOL
REMARK 924 INTRA-LIGAND FREE ENERGY PREDICTED BY IDOCK:   -1.47 KCAL/MOL
REMARK 927      BINDING AFFINITY PREDICTED BY RF-SCORE:    0.00 PKD
ROOT
HETATM    1  C   UNL     1      -9.122   3.992  68.180  1.00  0.00    -0.179 C  
HETATM    2  C   UNL     1      -9.371   5.324  67.456  1.00  0.00    -0.125 C  
HETATM    3  C   UNL     1     -10.447   5.120  66.384  1.00  0.00    -0.356 C  
HETATM    4  C   UNL     1      -9.776   6.448  68.405  1.00  0.00    -0.131 A  
HETATM    5  N   UNL     1     -10.398   6.051  69.540  1.00  0.00    -0.209 NA 
HETATM    6  C   UNL     1     -10.801   7.013  70.367  1.00  0.00    -0.254 A  
HETATM    7  N   UNL     1     -10.701   8.322  70.155  1.00  0.00    -0.238 NA 
HETATM    8  C   UNL     1      -9.570   7.805  68.092  1.00  0.00    -0.161 A  
HETATM    9  C   UNL     1     -10.125   8.728  68.992  1.00  0.00    -0.198 A  
ENDROOT
BRANCH   6  10
HETATM   10  N   UNL     1     -11.176   6.599  71.658  1.00  0.00    -0.252 N  
HETATM   11  C   UNL     1     -12.019   7.544  72.402  1.00  0.00    -0.222 C  
BRANCH  10  12
HETATM   12  S   UNL     1      -9.982   5.791  72.514  1.00  0.00    -0.172 S  
HETATM   13  C   UNL     1     -10.268   6.230  74.221  1.00  0.00    -0.335 C  
HETATM   14  O   UNL     1     -10.253   4.369  72.395  1.00  0.00    -0.181 OA 
HETATM   15  O   UNL     1      -8.688   6.317  72.147  1.00  0.00    -0.133 OA 
ENDBRANCH  10  12
ENDBRANCH   6  10
BRANCH   9  16
HETATM   16  C   UNL     1     -10.173  10.211  68.812  1.00  0.00    -0.200 A  
HETATM   17  F   UNL     1     -10.420  14.342  68.298  1.00  0.00    -0.225 F  
HETATM   18  C   UNL     1     -11.410  10.895  68.853  1.00  0.00    -0.354 A  
HETATM   19  C   UNL     1     -11.499  12.281  68.675  1.00  0.00    -0.355 A  
HETATM   20  C   UNL     1      -9.116  12.382  68.367  1.00  0.00    -0.141 A  
HETATM   21  C   UNL     1     -10.346  13.014  68.450  1.00  0.00    -0.252 A  
HETATM   22  C   UNL     1      -9.035  10.992  68.527  1.00  0.00    -0.163 A  
ENDBRANCH   9  16
BRANCH   8  23
HETATM   23  C   UNL     1      -8.802   8.161  66.883  1.00  0.00    -0.145 C  
HETATM   24  C   UNL     1      -9.348   8.671  65.761  1.00  0.00    -0.227 C  
BRANCH  24  25
HETATM   25  C   UNL     1      -8.587   9.234  64.578  1.00  0.00    -0.195 C  
HETATM   26  H   UNL     1      -7.271   8.581  63.266  1.00  0.00     0.000 HD 
HETATM   27  O   UNL     1      -7.748   8.229  64.007  1.00  0.00    -0.124 OA 
BRANCH  25  28
HETATM   28  C   UNL     1      -9.494   9.808  63.479  1.00  0.00    -0.008 C  
BRANCH  28  29
HETATM   29  C   UNL     1      -9.537  11.355  63.480  1.00  0.00    -0.298 C  
HETATM   30  O   UNL     1      -8.494  11.892  62.659  1.00  0.00    -0.494 OA 
HETATM   31  H   UNL     1      -8.520  12.842  62.660  1.00  0.00     0.000 HD 
BRANCH  29  32
HETATM   32  C   UNL     1     -10.843  11.906  62.908  1.00  0.00     0.128 C  
HETATM   33  C   UNL     1     -11.830  12.258  63.984  1.00  0.00    -0.444 C  
HETATM   34  O   UNL     1     -11.528  12.675  65.091  1.00  0.00    -0.305 OA 
HETATM   35  O   UNL     1     -13.117  12.082  63.605  1.00  0.00    -0.756 OA 
ENDBRANCH  29  32
ENDBRANCH  28  29
ENDBRANCH  25  28
ENDBRANCH  24  25
ENDBRANCH   8  23
TORSDOF 8
ENDMDL
MODEL      111
REMARK 921   NORMALIZED FREE ENERGY PREDICTED BY IDOCK:   -5.16 KCAL/MOL
REMARK 922        TOTAL FREE ENERGY PREDICTED BY IDOCK:   -9.12 KCAL/MOL
REMARK 923 INTER-LIGAND FREE ENERGY PREDICTED BY IDOCK:   -7.67 KCAL/MOL
REMARK 924 INTRA-LIGAND FREE ENERGY PREDICTED BY IDOCK:   -1.45 KCAL/MOL
REMARK 927      BINDING AFFINITY PREDICTED BY RF-SCORE:    0.00 PKD
ROOT
HETATM    1  C   UNL     1      -7.020  11.009  69.597  1.00  0.00    -0.110 C  
HETATM    2  C   UNL     1      -6.907  10.105  68.360  1.00  0.00    -0.061 C  
HETATM    3  C   UNL     1      -5.427   9.859  68.050  1.00  0.00    -0.039 C  
HETATM    4  C   UNL     1      -7.642   8.778  68.527  1.00  0.00    -0.098 A  
HETATM    5  N   UNL     1      -7.762   8.340  69.802  1.00  0.00    -0.096 NA 
HETATM    6  C   UNL     1      -8.361   7.163  69.974  1.00  0.00    -0.138 A  
HETATM    7  N   UNL     1      -8.795   6.357  69.011  1.00  0.00    -0.129 NA 
HETATM    8  C   UNL     1      -8.105   8.034  67.425  1.00  0.00    -0.122 A  
HETATM    9  C   UNL     1      -8.629   6.767  67.724  1.00  0.00    -0.121 A  
ENDROOT
BRANCH   6  10
HETATM   10  N   UNL     1      -8.742   6.852  71.291  1.00  0.00    -0.134 N  
HETATM   11  C   UNL     1      -9.178   5.467  71.510  1.00  0.00    -0.146 C  
BRANCH  10  12
HETATM   12  S   UNL     1      -9.590   8.062  72.084  1.00  0.00    -0.240 S  
HETATM   13  C   UNL     1     -10.683   7.198  73.199  1.00  0.00    -0.346 C  
HETATM   14  O   UNL     1      -8.638   8.787  72.908  1.00  0.00    -0.398 OA 
HETATM   15  O   UNL     1     -10.417   8.771  71.136  1.00  0.00    -0.210 OA 
ENDBRANCH  10  12
ENDBRANCH   6  10
BRANCH   9  16
HETATM   16  C   UNL     1      -9.048   5.732  66.730  1.00  0.00    -0.126 A  
HETATM   17  F   UNL     1     -10.327   2.868  63.982  1.00  0.00    -0.163 F  
HETATM   18  C   UNL     1     -10.402   5.630  66.334  1.00  0.00    -0.241 A  
HETATM   19  C   UNL     1     -10.838   4.667  65.417  1.00  0.00    -0.093 A  
HETATM   20  C   UNL     1      -8.591   3.820  65.259  1.00  0.00    -0.114 A  
HETATM   21  C   UNL     1      -9.922   3.780  64.875  1.00  0.00    -0.171 A  
HETATM   22  C   UNL     1      -8.165   4.775  66.192  1.00  0.00    -0.107 A  
ENDBRANCH   9  16
BRANCH   8  23
HETATM   23  C   UNL     1      -8.023   8.616  66.071  1.00  0.00    -0.107 C  
HETATM   24  C   UNL     1      -9.068   9.159  65.416  1.00  0.00    -0.271 C  
BRANCH  24  25
HETATM   25  C   UNL     1      -8.996   9.943  64.121  1.00  0.00    -0.240 C  
HETATM   26  H   UNL     1      -8.853   9.541  62.197  1.00  0.00     0.000 HD 
HETATM   27  O   UNL     1      -8.898   9.051  63.009  1.00  0.00    -0.172 OA 
BRANCH  25  28
HETATM   28  C   UNL     1     -10.191  10.882  63.901  1.00  0.00    -0.418 C  
BRANCH  28  29
HETATM   29  C   UNL     1     -10.061  12.215  64.678  1.00  0.00    -0.257 C  
HETATM   30  O   UNL     1     -10.096  13.330  63.781  1.00  0.00    -0.712 OA 
HETATM   31  H   UNL     1     -10.016  14.148  64.258  1.00  0.00     0.000 HD 
BRANCH  29  32
HETATM   32  C   UNL     1     -11.211  12.435  65.662  1.00  0.00    -0.360 C  
HETATM   33  C   UNL     1     -12.489  12.807  64.966  1.00  0.00    -0.506 C  
HETATM   34  O   UNL     1     -12.817  12.407  63.860  1.00  0.00    -0.718 OA 
HETATM   35  O   UNL     1     -13.271  13.633  65.697  1.00  0.00    -0.506 OA 
ENDBRANCH  29  32
ENDBRANCH  28  29
ENDBRANCH  25  28
ENDBRANCH  24  25
ENDBRANCH   8  23
TORSDOF 8
ENDMDL
MODEL      112
REMARK 921   NORMALIZED FREE ENERGY PREDICTED BY IDOCK:   -5.16 KCAL/MOL
REMARK 922        TOTAL FREE ENERGY PREDICTED BY IDOCK:   -9.12 KCAL/MOL
REMARK 923 INTER-LIGAND FREE ENERGY PREDICTED BY IDOCK:   -7.18 KCAL/MOL
REMARK 924 INTRA-LIGAND FREE ENERGY PREDICTED BY IDOCK:   -1.93 KCAL/MOL
REMARK 927      BINDING AFFINITY PREDICTED BY RF-SCORE:    0.00 PKD
ROOT
HETATM    1  C   UNL     1      -7.909  10.029  63.458  1.00  0.00    -0.156 C  
HETATM    2  C   UNL     1      -8.788  10.374  64.670  1.00  0.00    -0.216 C  
HETATM    3  C   UNL     1     -10.206  10.693  64.187  1.00  0.00    -0.365 C  
HETATM    4  C   UNL     1      -8.821   9.262  65.713  1.00  0.00    -0.177 A  
HETATM    5  N   UNL     1      -8.611   8.013  65.236  1.00  0.00    -0.129 NA 
HETATM    6  C   UNL     1      -8.677   7.017  66.117  1.00  0.00    -0.145 A  
HETATM    7  N   UNL     1      -8.986   7.131  67.405  1.00  0.00    -0.121 NA 
HETATM    8  C   UNL     1      -9.111   9.513  67.068  1.00  0.00    -0.154 A  
HETATM    9  C   UNL     1      -9.251   8.378  67.881  1.00  0.00    -0.135 A  
ENDROOT
BRANCH   6  10
HETATM   10  N   UNL     1      -8.178   5.776  65.685  1.00  0.00    -0.122 N  
HETATM   11  C   UNL     1      -7.219   5.836  64.574  1.00  0.00    -0.062 C  
BRANCH  10  12
HETATM   12  S   UNL     1      -9.299   4.530  65.670  1.00  0.00    -0.175 S  
HETATM   13  C   UNL     1      -9.029   3.692  64.117  1.00  0.00    -0.116 C  
HETATM   14  O   UNL     1      -8.925   3.600  66.720  1.00  0.00    -0.122 OA 
HETATM   15  O   UNL     1     -10.633   5.084  65.631  1.00  0.00    -0.146 OA 
ENDBRANCH  10  12
ENDBRANCH   6  10
BRANCH   9  16
HETATM   16  C   UNL     1      -9.698   8.368  69.307  1.00  0.00    -0.177 A  
HETATM   17  F   UNL     1     -11.053   8.327  73.251  1.00  0.00    -0.330 F  
HETATM   18  C   UNL     1     -11.016   7.975  69.640  1.00  0.00    -0.106 A  
HETATM   19  C   UNL     1     -11.478   7.966  70.961  1.00  0.00    -0.298 A  
HETATM   20  C   UNL     1      -9.337   8.776  71.701  1.00  0.00    -0.345 A  
HETATM   21  C   UNL     1     -10.625   8.351  71.983  1.00  0.00    -0.317 A  
HETATM   22  C   UNL     1      -8.886   8.802  70.375  1.00  0.00    -0.185 A  
ENDBRANCH   9  16
BRANCH   8  23
HETATM   23  C   UNL     1      -9.236  10.908  67.535  1.00  0.00    -0.153 C  
HETATM   24  C   UNL     1      -8.202  11.659  67.963  1.00  0.00    -0.146 C  
BRANCH  24  25
HETATM   25  C   UNL     1      -8.244  13.144  68.260  1.00  0.00    -0.154 C  
HETATM   26  H   UNL     1      -7.268  14.758  67.693  1.00  0.00     0.000 HD 
HETATM   27  O   UNL     1      -7.241  13.827  67.507  1.00  0.00    -0.168 OA 
BRANCH  25  28
HETATM   28  C   UNL     1      -9.608  13.791  67.976  1.00  0.00    -0.214 C  
BRANCH  28  29
HETATM   29  C   UNL     1      -9.509  15.021  67.043  1.00  0.00    -0.229 C  
HETATM   30  O   UNL     1      -9.608  14.627  65.670  1.00  0.00    -0.480 OA 
HETATM   31  H   UNL     1      -9.547  15.383  65.097  1.00  0.00     0.000 HD 
BRANCH  29  32
HETATM   32  C   UNL     1     -10.641  16.023  67.271  1.00  0.00    -0.313 C  
HETATM   33  C   UNL     1     -10.354  17.357  66.642  1.00  0.00    -0.306 C  
HETATM   34  O   UNL     1      -9.718  17.513  65.612  1.00  0.00    -0.532 OA 
HETATM   35  O   UNL     1     -10.888  18.394  67.326  1.00  0.00    -0.389 OA 
ENDBRANCH  29  32
ENDBRANCH  28  29
ENDBRANCH  25  28
ENDBRANCH  24  25
ENDBRANCH   8  23
TORSDOF 8
ENDMDL
MODEL      113
REMARK 921   NORMALIZED FREE ENERGY PREDICTED BY IDOCK:   -5.13 KCAL/MOL
REMARK 922        TOTAL FREE ENERGY PREDICTED BY IDOCK:   -9.08 KCAL/MOL
REMARK 923 INTER-LIGAND FREE ENERGY PREDICTED BY IDOCK:   -8.27 KCAL/MOL
REMARK 924 INTRA-LIGAND FREE ENERGY PREDICTED BY IDOCK:   -0.81 KCAL/MOL
REMARK 927      BINDING AFFINITY PREDICTED BY RF-SCORE:    0.00 PKD
ROOT
HETATM    1  C   UNL     1     -10.743   7.112  66.831  1.00  0.00    -0.363 C  
HETATM    2  C   UNL     1      -9.525   7.767  67.502  1.00  0.00    -0.170 C  
HETATM    3  C   UNL     1      -8.247   7.096  66.990  1.00  0.00    -0.117 C  
HETATM    4  C   UNL     1      -9.462   9.274  67.271  1.00  0.00    -0.144 A  
HETATM    5  N   UNL     1     -10.052   9.711  66.134  1.00  0.00    -0.277 NA 
HETATM    6  C   UNL     1      -9.975  11.016  65.884  1.00  0.00    -0.240 A  
HETATM    7  N   UNL     1      -9.325  11.916  66.615  1.00  0.00    -0.200 NA 
HETATM    8  C   UNL     1      -8.783  10.140  68.150  1.00  0.00    -0.122 A  
HETATM    9  C   UNL     1      -8.684  11.476  67.731  1.00  0.00    -0.142 A  
ENDROOT
BRANCH   6  10
HETATM   10  N   UNL     1     -10.824  11.503  64.875  1.00  0.00    -0.298 N  
HETATM   11  C   UNL     1     -10.180  11.761  63.580  1.00  0.00    -0.428 C  
BRANCH  10  12
HETATM   12  S   UNL     1     -11.981  12.599  65.394  1.00  0.00    -0.452 S  
HETATM   13  C   UNL     1     -11.173  14.189  65.312  1.00  0.00    -0.326 C  
HETATM   14  O   UNL     1     -13.039  12.614  64.399  1.00  0.00    -0.752 OA 
HETATM   15  O   UNL     1     -12.293  12.348  66.782  1.00  0.00    -0.457 OA 
ENDBRANCH  10  12
ENDBRANCH   6  10
BRANCH   9  16
HETATM   16  C   UNL     1      -7.895  12.551  68.406  1.00  0.00    -0.141 A  
HETATM   17  F   UNL     1      -5.631  15.471  70.341  1.00  0.00    -0.131 F  
HETATM   18  C   UNL     1      -6.705  12.233  69.102  1.00  0.00    -0.095 A  
HETATM   19  C   UNL     1      -5.945  13.208  69.758  1.00  0.00    -0.127 A  
HETATM   20  C   UNL     1      -7.539  14.882  69.091  1.00  0.00    -0.160 A  
HETATM   21  C   UNL     1      -6.362  14.529  69.732  1.00  0.00    -0.148 A  
HETATM   22  C   UNL     1      -8.306  13.898  68.453  1.00  0.00    -0.157 A  
ENDBRANCH   9  16
BRANCH   8  23
HETATM   23  C   UNL     1      -8.244   9.609  69.417  1.00  0.00    -0.132 C  
HETATM   24  C   UNL     1      -9.006   9.201  70.452  1.00  0.00    -0.263 C  
BRANCH  24  25
HETATM   25  C   UNL     1      -8.514   8.469  71.684  1.00  0.00    -0.178 C  
HETATM   26  H   UNL     1      -7.077   8.686  73.014  1.00  0.00     0.000 HD 
HETATM   27  O   UNL     1      -7.386   9.145  72.242  1.00  0.00    -0.325 OA 
BRANCH  25  28
HETATM   28  C   UNL     1      -9.585   8.306  72.773  1.00  0.00    -0.338 C  
BRANCH  28  29
HETATM   29  C   UNL     1     -10.027   6.835  72.968  1.00  0.00    -0.178 C  
HETATM   30  O   UNL     1     -10.752   6.681  74.192  1.00  0.00    -0.455 OA 
HETATM   31  H   UNL     1     -11.023   5.778  74.312  1.00  0.00     0.000 HD 
BRANCH  29  32
HETATM   32  C   UNL     1     -10.969   6.355  71.863  1.00  0.00    -0.295 C  
HETATM   33  C   UNL     1     -10.367   5.245  71.048  1.00  0.00    -0.228 C  
HETATM   34  O   UNL     1      -9.602   4.401  71.487  1.00  0.00    -0.143 OA 
HETATM   35  O   UNL     1     -10.769   5.255  69.757  1.00  0.00    -0.286 OA 
ENDBRANCH  29  32
ENDBRANCH  28  29
ENDBRANCH  25  28
ENDBRANCH  24  25
ENDBRANCH   8  23
TORSDOF 8
ENDMDL
MODEL      114
REMARK 921   NORMALIZED FREE ENERGY PREDICTED BY IDOCK:   -5.12 KCAL/MOL
REMARK 922        TOTAL FREE ENERGY PREDICTED BY IDOCK:   -9.06 KCAL/MOL
REMARK 923 INTER-LIGAND FREE ENERGY PREDICTED BY IDOCK:   -6.97 KCAL/MOL
REMARK 924 INTRA-LIGAND FREE ENERGY PREDICTED BY IDOCK:   -2.09 KCAL/MOL
REMARK 927      BINDING AFFINITY PREDICTED BY RF-SCORE:    0.00 PKD
ROOT
HETATM    1  C   UNL     1      -9.040   3.676  71.172  1.00  0.00    -0.177 C  
HETATM    2  C   UNL     1      -8.951   5.210  71.136  1.00  0.00    -0.162 C  
HETATM    3  C   UNL     1      -7.790   5.667  72.024  1.00  0.00    -0.106 C  
HETATM    4  C   UNL     1      -8.788   5.760  69.723  1.00  0.00    -0.126 A  
HETATM    5  N   UNL     1      -8.187   4.926  68.842  1.00  0.00    -0.083 NA 
HETATM    6  C   UNL     1      -7.992   5.397  67.612  1.00  0.00    -0.100 A  
HETATM    7  N   UNL     1      -8.278   6.624  67.188  1.00  0.00    -0.113 NA 
HETATM    8  C   UNL     1      -9.179   7.068  69.378  1.00  0.00    -0.147 A  
HETATM    9  C   UNL     1      -8.833   7.485  68.083  1.00  0.00    -0.127 A  
ENDROOT
BRANCH   6  10
HETATM   10  N   UNL     1      -7.643   4.446  66.637  1.00  0.00    -0.088 N  
HETATM   11  C   UNL     1      -6.289   4.579  66.084  1.00  0.00    -0.036 C  
BRANCH  10  12
HETATM   12  S   UNL     1      -8.875   4.042  65.573  1.00  0.00    -0.129 S  
HETATM   13  C   UNL     1      -8.618   2.312  65.214  1.00  0.00    -0.112 C  
HETATM   14  O   UNL     1     -10.126   4.137  66.305  1.00  0.00    -0.206 OA 
HETATM   15  O   UNL     1      -8.700   4.768  64.337  1.00  0.00    -0.144 OA 
ENDBRANCH  10  12
ENDBRANCH   6  10
BRANCH   9  16
HETATM   16  C   UNL     1      -9.002   8.863  67.529  1.00  0.00    -0.142 A  
HETATM   17  F   UNL     1      -9.530  12.662  65.892  1.00  0.00    -0.246 F  
HETATM   18  C   UNL     1      -9.869   9.090  66.434  1.00  0.00    -0.356 A  
HETATM   19  C   UNL     1     -10.044  10.362  65.876  1.00  0.00    -0.326 A  
HETATM   20  C   UNL     1      -8.468  11.258  67.457  1.00  0.00    -0.131 A  
HETATM   21  C   UNL     1      -9.353  11.439  66.406  1.00  0.00    -0.204 A  
HETATM   22  C   UNL     1      -8.281   9.979  67.998  1.00  0.00    -0.116 A  
ENDBRANCH   9  16
BRANCH   8  23
HETATM   23  C   UNL     1      -9.912   7.888  70.362  1.00  0.00    -0.192 C  
HETATM   24  C   UNL     1     -11.255   8.006  70.399  1.00  0.00    -0.230 C  
BRANCH  24  25
HETATM   25  C   UNL     1     -12.059   8.668  71.500  1.00  0.00    -0.316 C  
HETATM   26  H   UNL     1     -12.146   8.596  73.466  1.00  0.00     0.000 HD 
HETATM   27  O   UNL     1     -11.642   8.181  72.776  1.00  0.00    -0.411 OA 
BRANCH  25  28
HETATM   28  C   UNL     1     -11.965  10.201  71.496  1.00  0.00    -0.404 C  
BRANCH  28  29
HETATM   29  C   UNL     1     -12.009  10.804  70.071  1.00  0.00    -0.347 C  
HETATM   30  O   UNL     1     -13.269  10.538  69.446  1.00  0.00    -0.323 OA 
HETATM   31  H   UNL     1     -13.296  10.908  68.571  1.00  0.00     0.000 HD 
BRANCH  29  32
HETATM   32  C   UNL     1     -11.858  12.325  70.073  1.00  0.00    -0.372 C  
HETATM   33  C   UNL     1     -11.708  12.882  68.686  1.00  0.00    -0.324 C  
HETATM   34  O   UNL     1     -12.234  12.410  67.690  1.00  0.00    -0.425 OA 
HETATM   35  O   UNL     1     -10.931  13.988  68.638  1.00  0.00    -0.245 OA 
ENDBRANCH  29  32
ENDBRANCH  28  29
ENDBRANCH  25  28
ENDBRANCH  24  25
ENDBRANCH   8  23
TORSDOF 8
ENDMDL
MODEL      115
REMARK 921   NORMALIZED FREE ENERGY PREDICTED BY IDOCK:   -5.06 KCAL/MOL
REMARK 922        TOTAL FREE ENERGY PREDICTED BY IDOCK:   -8.96 KCAL/MOL
REMARK 923 INTER-LIGAND FREE ENERGY PREDICTED BY IDOCK:   -7.31 KCAL/MOL
REMARK 924 INTRA-LIGAND FREE ENERGY PREDICTED BY IDOCK:   -1.65 KCAL/MOL
REMARK 927      BINDING AFFINITY PREDICTED BY RF-SCORE:    0.00 PKD
ROOT
HETATM    1  C   UNL     1     -11.534   7.352  70.771  1.00  0.00    -0.313 C  
HETATM    2  C   UNL     1     -10.669   8.493  70.211  1.00  0.00    -0.242 C  
HETATM    3  C   UNL     1      -9.905   9.155  71.361  1.00  0.00    -0.354 C  
HETATM    4  C   UNL     1      -9.700   8.024  69.130  1.00  0.00    -0.163 A  
HETATM    5  N   UNL     1      -9.317   6.729  69.217  1.00  0.00    -0.144 NA 
HETATM    6  C   UNL     1      -8.437   6.304  68.313  1.00  0.00    -0.114 A  
HETATM    7  N   UNL     1      -7.860   7.046  67.373  1.00  0.00    -0.110 NA 
HETATM    8  C   UNL     1      -9.192   8.897  68.148  1.00  0.00    -0.145 A  
HETATM    9  C   UNL     1      -8.200   8.362  67.314  1.00  0.00    -0.112 A  
ENDROOT
BRANCH   6  10
HETATM   10  N   UNL     1      -8.268   4.911  68.224  1.00  0.00    -0.085 N  
HETATM   11  C   UNL     1      -6.875   4.446  68.200  1.00  0.00    -0.055 C  
BRANCH  10  12
HETATM   12  S   UNL     1      -9.360   4.130  67.218  1.00  0.00    -0.188 S  
HETATM   13  C   UNL     1      -8.673   4.301  65.579  1.00  0.00    -0.121 C  
HETATM   14  O   UNL     1      -9.315   2.716  67.547  1.00  0.00    -0.186 OA 
HETATM   15  O   UNL     1     -10.618   4.840  67.232  1.00  0.00    -0.053 OA 
ENDBRANCH  10  12
ENDBRANCH   6  10
BRANCH   9  16
HETATM   16  C   UNL     1      -7.404   9.118  66.298  1.00  0.00    -0.092 A  
HETATM   17  F   UNL     1      -5.251  11.181  63.383  1.00  0.00    -0.179 F  
HETATM   18  C   UNL     1      -7.860   9.214  64.963  1.00  0.00    -0.112 A  
HETATM   19  C   UNL     1      -7.138   9.900  63.979  1.00  0.00    -0.127 A  
HETATM   20  C   UNL     1      -5.436  10.410  65.601  1.00  0.00    -0.093 A  
HETATM   21  C   UNL     1      -5.938  10.507  64.313  1.00  0.00    -0.048 A  
HETATM   22  C   UNL     1      -6.154   9.705  66.577  1.00  0.00    -0.060 A  
ENDBRANCH   9  16
BRANCH   8  23
HETATM   23  C   UNL     1      -9.724  10.271  68.056  1.00  0.00    -0.167 C  
HETATM   24  C   UNL     1     -10.610  10.679  67.125  1.00  0.00    -0.312 C  
BRANCH  24  25
HETATM   25  C   UNL     1     -11.333  12.011  67.108  1.00  0.00    -0.333 C  
HETATM   26  H   UNL     1     -11.811  13.409  68.410  1.00  0.00     0.000 HD 
HETATM   27  O   UNL     1     -11.358  12.575  68.421  1.00  0.00    -0.247 OA 
BRANCH  25  28
HETATM   28  C   UNL     1     -10.720  13.032  66.139  1.00  0.00    -0.288 C  
BRANCH  28  29
HETATM   29  C   UNL     1     -11.600  14.292  65.955  1.00  0.00    -0.358 C  
HETATM   30  O   UNL     1     -12.832  14.160  66.673  1.00  0.00    -0.454 OA 
HETATM   31  H   UNL     1     -13.372  14.933  66.560  1.00  0.00     0.000 HD 
BRANCH  29  32
HETATM   32  C   UNL     1     -10.935  15.556  66.499  1.00  0.00    -0.243 C  
HETATM   33  C   UNL     1     -10.635  16.551  65.413  1.00  0.00    -0.276 C  
HETATM   34  O   UNL     1     -11.314  16.707  64.411  1.00  0.00    -1.023 OA 
HETATM   35  O   UNL     1      -9.526  17.286  65.657  1.00  0.00    -0.515 OA 
ENDBRANCH  29  32
ENDBRANCH  28  29
ENDBRANCH  25  28
ENDBRANCH  24  25
ENDBRANCH   8  23
TORSDOF 8
ENDMDL
MODEL      116
REMARK 921   NORMALIZED FREE ENERGY PREDICTED BY IDOCK:   -5.04 KCAL/MOL
REMARK 922        TOTAL FREE ENERGY PREDICTED BY IDOCK:   -8.95 KCAL/MOL
REMARK 923 INTER-LIGAND FREE ENERGY PREDICTED BY IDOCK:   -7.76 KCAL/MOL
REMARK 924 INTRA-LIGAND FREE ENERGY PREDICTED BY IDOCK:   -1.19 KCAL/MOL
REMARK 927      BINDING AFFINITY PREDICTED BY RF-SCORE:    0.00 PKD
ROOT
HETATM    1  C   UNL     1     -10.763  18.360  67.582  1.00  0.00    -0.390 C  
HETATM    2  C   UNL     1     -10.455  16.905  67.198  1.00  0.00    -0.296 C  
HETATM    3  C   UNL     1     -10.496  16.768  65.673  1.00  0.00    -0.284 C  
HETATM    4  C   UNL     1      -9.113  16.421  67.738  1.00  0.00    -0.199 A  
HETATM    5  N   UNL     1      -8.184  17.386  67.932  1.00  0.00    -0.220 NA 
HETATM    6  C   UNL     1      -6.989  16.988  68.362  1.00  0.00    -0.180 A  
HETATM    7  N   UNL     1      -6.607  15.730  68.561  1.00  0.00    -0.112 NA 
HETATM    8  C   UNL     1      -8.841  15.057  67.959  1.00  0.00    -0.165 A  
HETATM    9  C   UNL     1      -7.519  14.750  68.316  1.00  0.00    -0.115 A  
ENDROOT
BRANCH   6  10
HETATM   10  N   UNL     1      -6.135  17.999  68.836  1.00  0.00    -0.204 N  
HETATM   11  C   UNL     1      -5.561  17.765  70.167  1.00  0.00    -0.242 C  
BRANCH  10  12
HETATM   12  S   UNL     1      -6.620  19.562  68.468  1.00  0.00    -0.282 S  
HETATM   13  C   UNL     1      -5.424  20.612  69.277  1.00  0.00    -0.351 C  
HETATM   14  O   UNL     1      -6.440  19.744  67.039  1.00  0.00    -0.191 OA 
HETATM   15  O   UNL     1      -7.903  19.823  69.078  1.00  0.00    -0.292 OA 
ENDBRANCH  10  12
ENDBRANCH   6  10
BRANCH   9  16
HETATM   16  C   UNL     1      -6.944  13.378  68.462  1.00  0.00    -0.102 A  
HETATM   17  F   UNL     1      -5.379   9.524  68.763  1.00  0.00    -0.037 F  
HETATM   18  C   UNL     1      -6.858  12.518  67.342  1.00  0.00    -0.145 A  
HETATM   19  C   UNL     1      -6.340  11.221  67.439  1.00  0.00    -0.076 A  
HETATM   20  C   UNL     1      -5.990  11.551  69.796  1.00  0.00    -0.116 A  
HETATM   21  C   UNL     1      -5.894  10.756  68.666  1.00  0.00    -0.039 A  
HETATM   22  C   UNL     1      -6.528  12.841  69.697  1.00  0.00    -0.046 A  
ENDBRANCH   9  16
BRANCH   8  23
HETATM   23  C   UNL     1      -9.929  14.069  67.816  1.00  0.00    -0.236 C  
HETATM   24  C   UNL     1     -10.126  13.314  66.718  1.00  0.00    -0.258 C  
BRANCH  24  25
HETATM   25  C   UNL     1     -11.096  12.155  66.597  1.00  0.00    -0.306 C  
HETATM   26  H   UNL     1     -11.952  11.135  65.146  1.00  0.00     0.000 HD 
HETATM   27  O   UNL     1     -11.344  11.861  65.222  1.00  0.00    -0.322 OA 
BRANCH  25  28
HETATM   28  C   UNL     1     -10.619  10.877  67.303  1.00  0.00    -0.296 C  
BRANCH  28  29
HETATM   29  C   UNL     1     -11.092  10.788  68.774  1.00  0.00    -0.259 C  
HETATM   30  O   UNL     1     -12.515  10.640  68.841  1.00  0.00    -0.791 OA 
HETATM   31  H   UNL     1     -12.805  10.586  69.744  1.00  0.00     0.000 HD 
BRANCH  29  32
HETATM   32  C   UNL     1     -10.513   9.576  69.503  1.00  0.00    -0.234 C  
HETATM   33  C   UNL     1     -10.757   9.636  70.985  1.00  0.00    -0.323 C  
HETATM   34  O   UNL     1     -11.742  10.137  71.504  1.00  0.00    -0.343 OA 
HETATM   35  O   UNL     1      -9.773   9.058  71.710  1.00  0.00    -0.304 OA 
ENDBRANCH  29  32
ENDBRANCH  28  29
ENDBRANCH  25  28
ENDBRANCH  24  25
ENDBRANCH   8  23
TORSDOF 8
ENDMDL
MODEL      117
REMARK 921   NORMALIZED FREE ENERGY PREDICTED BY IDOCK:   -5.04 KCAL/MOL
REMARK 922        TOTAL FREE ENERGY PREDICTED BY IDOCK:   -8.94 KCAL/MOL
REMARK 923 INTER-LIGAND FREE ENERGY PREDICTED BY IDOCK:   -7.46 KCAL/MOL
REMARK 924 INTRA-LIGAND FREE ENERGY PREDICTED BY IDOCK:   -1.48 KCAL/MOL
REMARK 927      BINDING AFFINITY PREDICTED BY RF-SCORE:    0.00 PKD
ROOT
HETATM    1  C   UNL     1     -11.722   8.355  72.514  1.00  0.00    -0.429 C  
HETATM    2  C   UNL     1     -10.960   8.464  71.184  1.00  0.00    -0.292 C  
HETATM    3  C   UNL     1      -9.715   9.333  71.389  1.00  0.00    -0.269 C  
HETATM    4  C   UNL     1     -10.570   7.105  70.611  1.00  0.00    -0.225 A  
HETATM    5  N   UNL     1     -10.405   6.118  71.523  1.00  0.00    -0.204 NA 
HETATM    6  C   UNL     1     -10.023   4.932  71.055  1.00  0.00    -0.212 A  
HETATM    7  N   UNL     1      -9.732   4.645  69.790  1.00  0.00    -0.193 NA 
HETATM    8  C   UNL     1     -10.338   6.910  69.236  1.00  0.00    -0.212 A  
HETATM    9  C   UNL     1      -9.844   5.646  68.877  1.00  0.00    -0.147 A  
ENDROOT
BRANCH   6  10
HETATM   10  N   UNL     1     -10.136   3.851  71.948  1.00  0.00    -0.166 N  
HETATM   11  C   UNL     1     -10.886   4.129  73.180  1.00  0.00    -0.197 C  
BRANCH  10  12
HETATM   12  S   UNL     1      -8.764   2.897  72.079  1.00  0.00    -0.075 S  
HETATM   13  C   UNL     1      -8.908   2.107  73.673  1.00  0.00    -0.066 C  
HETATM   14  O   UNL     1      -8.871   1.848  71.080  1.00  0.00    -0.058 OA 
HETATM   15  O   UNL     1      -7.593   3.742  72.122  1.00  0.00    -0.059 OA 
ENDBRANCH  10  12
ENDBRANCH   6  10
BRANCH   9  16
HETATM   16  C   UNL     1      -9.382   5.239  67.514  1.00  0.00    -0.125 A  
HETATM   17  F   UNL     1      -7.994   4.154  63.735  1.00  0.00    -0.081 F  
HETATM   18  C   UNL     1      -8.021   5.370  67.153  1.00  0.00    -0.101 A  
HETATM   19  C   UNL     1      -7.551   5.014  65.884  1.00  0.00    -0.090 A  
HETATM   20  C   UNL     1      -9.787   4.400  65.242  1.00  0.00    -0.209 A  
HETATM   21  C   UNL     1      -8.439   4.515  64.945  1.00  0.00    -0.130 A  
HETATM   22  C   UNL     1     -10.255   4.778  66.508  1.00  0.00    -0.294 A  
ENDBRANCH   9  16
BRANCH   8  23
HETATM   23  C   UNL     1     -10.627   8.005  68.290  1.00  0.00    -0.155 C  
HETATM   24  C   UNL     1      -9.724   8.927  67.900  1.00  0.00    -0.190 C  
BRANCH  24  25
HETATM   25  C   UNL     1      -9.912   9.942  66.790  1.00  0.00    -0.214 C  
HETATM   26  H   UNL     1     -10.121   9.916  64.831  1.00  0.00     0.000 HD 
HETATM   27  O   UNL     1     -10.004   9.280  65.527  1.00  0.00    -0.228 OA 
BRANCH  25  28
HETATM   28  C   UNL     1     -11.147  10.836  66.975  1.00  0.00    -0.245 C  
BRANCH  28  29
HETATM   29  C   UNL     1     -10.887  12.311  66.585  1.00  0.00    -0.258 C  
HETATM   30  O   UNL     1      -9.571  12.715  66.977  1.00  0.00    -0.207 OA 
HETATM   31  H   UNL     1      -9.412  13.621  66.738  1.00  0.00     0.000 HD 
BRANCH  29  32
HETATM   32  C   UNL     1     -10.960  12.540  65.075  1.00  0.00    -0.329 C  
HETATM   33  C   UNL     1     -12.374  12.703  64.594  1.00  0.00    -0.476 C  
HETATM   34  O   UNL     1     -13.271  13.215  65.245  1.00  0.00    -0.643 OA 
HETATM   35  O   UNL     1     -12.567  12.234  63.340  1.00  0.00    -0.682 OA 
ENDBRANCH  29  32
ENDBRANCH  28  29
ENDBRANCH  25  28
ENDBRANCH  24  25
ENDBRANCH   8  23
TORSDOF 8
ENDMDL
MODEL      118
REMARK 921   NORMALIZED FREE ENERGY PREDICTED BY IDOCK:   -5.03 KCAL/MOL
REMARK 922        TOTAL FREE ENERGY PREDICTED BY IDOCK:   -8.93 KCAL/MOL
REMARK 923 INTER-LIGAND FREE ENERGY PREDICTED BY IDOCK:   -7.58 KCAL/MOL
REMARK 924 INTRA-LIGAND FREE ENERGY PREDICTED BY IDOCK:   -1.35 KCAL/MOL
REMARK 927      BINDING AFFINITY PREDICTED BY RF-SCORE:    0.00 PKD
ROOT
HETATM    1  C   UNL     1      -6.138   7.518  66.665  1.00  0.00    -0.044 C  
HETATM    2  C   UNL     1      -7.520   8.134  66.935  1.00  0.00    -0.091 C  
HETATM    3  C   UNL     1      -8.387   7.991  65.681  1.00  0.00    -0.146 C  
HETATM    4  C   UNL     1      -8.221   7.511  68.139  1.00  0.00    -0.125 A  
HETATM    5  N   UNL     1      -7.872   6.233  68.414  1.00  0.00    -0.103 NA 
HETATM    6  C   UNL     1      -8.500   5.649  69.433  1.00  0.00    -0.106 A  
HETATM    7  N   UNL     1      -9.473   6.183  70.163  1.00  0.00    -0.158 NA 
HETATM    8  C   UNL     1      -9.207   8.200  68.871  1.00  0.00    -0.147 A  
HETATM    9  C   UNL     1      -9.866   7.449  69.857  1.00  0.00    -0.178 A  
ENDROOT
BRANCH   6  10
HETATM   10  N   UNL     1      -7.938   4.446  69.896  1.00  0.00    -0.056 N  
HETATM   11  C   UNL     1      -6.499   4.286  69.646  1.00  0.00    -0.033 C  
BRANCH  10  12
HETATM   12  S   UNL     1      -8.909   3.093  69.704  1.00  0.00    -0.099 S  
HETATM   13  C   UNL     1      -7.768   1.742  69.460  1.00  0.00    -0.042 C  
HETATM   14  O   UNL     1      -9.575   2.856  70.973  1.00  0.00    -0.150 OA 
HETATM   15  O   UNL     1      -9.683   3.225  68.491  1.00  0.00    -0.112 OA 
ENDBRANCH  10  12
ENDBRANCH   6  10
BRANCH   9  16
HETATM   16  C   UNL     1     -11.041   7.900  70.664  1.00  0.00    -0.263 A  
HETATM   17  F   UNL     1     -14.376   9.065  72.880  1.00  0.00    -0.446 F  
HETATM   18  C   UNL     1     -12.142   7.035  70.866  1.00  0.00    -0.403 A  
HETATM   19  C   UNL     1     -13.266   7.423  71.604  1.00  0.00    -0.416 A  
HETATM   20  C   UNL     1     -12.272   9.585  71.957  1.00  0.00    -0.370 A  
HETATM   21  C   UNL     1     -13.313   8.692  72.157  1.00  0.00    -0.396 A  
HETATM   22  C   UNL     1     -11.158   9.198  71.201  1.00  0.00    -0.393 A  
ENDBRANCH   9  16
BRANCH   8  23
HETATM   23  C   UNL     1      -9.469   9.621  68.574  1.00  0.00    -0.145 C  
HETATM   24  C   UNL     1     -10.576  10.073  67.952  1.00  0.00    -0.298 C  
BRANCH  24  25
HETATM   25  C   UNL     1     -10.982  11.525  67.803  1.00  0.00    -0.236 C  
HETATM   26  H   UNL     1     -11.169  13.099  68.973  1.00  0.00     0.000 HD 
HETATM   27  O   UNL     1     -10.914  12.189  69.066  1.00  0.00    -0.230 OA 
BRANCH  25  28
HETATM   28  C   UNL     1     -10.133  12.302  66.786  1.00  0.00    -0.224 C  
BRANCH  28  29
HETATM   29  C   UNL     1     -10.926  13.419  66.066  1.00  0.00    -0.271 C  
HETATM   30  O   UNL     1     -10.358  14.703  66.342  1.00  0.00    -0.276 OA 
HETATM   31  H   UNL     1     -10.845  15.389  65.900  1.00  0.00     0.000 HD 
BRANCH  29  32
HETATM   32  C   UNL     1     -10.899  13.269  64.545  1.00  0.00    -0.409 C  
HETATM   33  C   UNL     1     -11.919  14.143  63.871  1.00  0.00    -0.243 C  
HETATM   34  O   UNL     1     -12.274  15.236  64.283  1.00  0.00    -0.539 OA 
HETATM   35  O   UNL     1     -12.411  13.605  62.732  1.00  0.00    -0.437 OA 
ENDBRANCH  29  32
ENDBRANCH  28  29
ENDBRANCH  25  28
ENDBRANCH  24  25
ENDBRANCH   8  23
TORSDOF 8
ENDMDL
MODEL      119
REMARK 921   NORMALIZED FREE ENERGY PREDICTED BY IDOCK:   -5.00 KCAL/MOL
REMARK 922        TOTAL FREE ENERGY PREDICTED BY IDOCK:   -8.88 KCAL/MOL
REMARK 923 INTER-LIGAND FREE ENERGY PREDICTED BY IDOCK:   -7.15 KCAL/MOL
REMARK 924 INTRA-LIGAND FREE ENERGY PREDICTED BY IDOCK:   -1.72 KCAL/MOL
REMARK 927      BINDING AFFINITY PREDICTED BY RF-SCORE:    0.00 PKD
ROOT
HETATM    1  C   UNL     1     -10.958  16.081  70.804  1.00  0.00    -0.232 C  
HETATM    2  C   UNL     1     -11.422  14.881  69.963  1.00  0.00    -0.317 C  
HETATM    3  C   UNL     1     -12.710  15.255  69.222  1.00  0.00     0.267 C  
HETATM    4  C   UNL     1     -10.362  14.405  68.975  1.00  0.00    -0.198 A  
HETATM    5  N   UNL     1      -9.488  15.352  68.562  1.00  0.00    -0.196 NA 
HETATM    6  C   UNL     1      -8.578  14.975  67.666  1.00  0.00    -0.171 A  
HETATM    7  N   UNL     1      -8.486  13.776  67.100  1.00  0.00    -0.198 NA 
HETATM    8  C   UNL     1     -10.335  13.086  68.482  1.00  0.00    -0.247 A  
HETATM    9  C   UNL     1      -9.395  12.834  67.471  1.00  0.00    -0.189 A  
ENDROOT
BRANCH   6  10
HETATM   10  N   UNL     1      -7.507  15.864  67.464  1.00  0.00    -0.151 N  
HETATM   11  C   UNL     1      -6.709  16.172  68.658  1.00  0.00    -0.128 C  
BRANCH  10  12
HETATM   12  S   UNL     1      -7.826  17.122  66.403  1.00  0.00    -0.327 S  
HETATM   13  C   UNL     1      -8.315  18.486  67.446  1.00  0.00    -0.256 C  
HETATM   14  O   UNL     1      -6.565  17.497  65.786  1.00  0.00    -0.186 OA 
HETATM   15  O   UNL     1      -8.964  16.781  65.581  1.00  0.00    -0.475 OA 
ENDBRANCH  10  12
ENDBRANCH   6  10
BRANCH   9  16
HETATM   16  C   UNL     1      -9.266  11.568  66.687  1.00  0.00    -0.194 A  
HETATM   17  F   UNL     1      -8.811   8.011  64.557  1.00  0.00    -0.022 F  
HETATM   18  C   UNL     1      -8.337  10.577  67.080  1.00  0.00    -0.128 A  
HETATM   19  C   UNL     1      -8.175   9.384  66.365  1.00  0.00    -0.111 A  
HETATM   20  C   UNL     1      -9.844  10.115  64.794  1.00  0.00    -0.382 A  
HETATM   21  C   UNL     1      -8.945   9.158  65.235  1.00  0.00    -0.198 A  
HETATM   22  C   UNL     1      -9.987  11.315  65.503  1.00  0.00    -0.293 A  
ENDBRANCH   9  16
BRANCH   8  23
HETATM   23  C   UNL     1     -11.259  12.083  69.046  1.00  0.00    -0.313 C  
HETATM   24  C   UNL     1     -10.929  11.213  70.022  1.00  0.00    -0.079 C  
BRANCH  24  25
HETATM   25  C   UNL     1     -11.888  10.307  70.768  1.00  0.00    -0.365 C  
HETATM   26  H   UNL     1     -13.824   9.948  70.773  1.00  0.00     0.000 HD 
HETATM   27  O   UNL     1     -13.223  10.515  70.306  1.00  0.00    -0.175 OA 
BRANCH  25  28
HETATM   28  C   UNL     1     -11.545   8.815  70.648  1.00  0.00    -0.236 C  
BRANCH  28  29
HETATM   29  C   UNL     1     -11.386   8.121  72.022  1.00  0.00    -0.316 C  
HETATM   30  O   UNL     1     -12.604   7.477  72.410  1.00  0.00    -0.510 OA 
HETATM   31  H   UNL     1     -12.506   7.051  73.253  1.00  0.00     0.000 HD 
BRANCH  29  32
HETATM   32  C   UNL     1     -10.322   7.022  72.003  1.00  0.00    -0.220 C  
HETATM   33  C   UNL     1      -8.929   7.581  72.056  1.00  0.00    -0.125 C  
HETATM   34  O   UNL     1      -8.615   8.603  72.647  1.00  0.00    -0.376 OA 
HETATM   35  O   UNL     1      -8.027   6.827  71.388  1.00  0.00    -0.107 OA 
ENDBRANCH  29  32
ENDBRANCH  28  29
ENDBRANCH  25  28
ENDBRANCH  24  25
ENDBRANCH   8  23
TORSDOF 8
ENDMDL
MODEL      120
REMARK 921   NORMALIZED FREE ENERGY PREDICTED BY IDOCK:   -4.98 KCAL/MOL
REMARK 922        TOTAL FREE ENERGY PREDICTED BY IDOCK:   -8.85 KCAL/MOL
REMARK 923 INTER-LIGAND FREE ENERGY PREDICTED BY IDOCK:   -7.89 KCAL/MOL
REMARK 924 INTRA-LIGAND FREE ENERGY PREDICTED BY IDOCK:   -0.97 KCAL/MOL
REMARK 927      BINDING AFFINITY PREDICTED BY RF-SCORE:    0.00 PKD
ROOT
HETATM    1  C   UNL     1      -8.458  10.285  63.603  1.00  0.00    -0.183 C  
HETATM    2  C   UNL     1      -8.803   9.466  64.856  1.00  0.00    -0.240 C  
HETATM    3  C   UNL     1      -7.575   8.653  65.279  1.00  0.00    -0.088 C  
HETATM    4  C   UNL     1      -9.289  10.332  66.014  1.00  0.00    -0.180 A  
HETATM    5  N   UNL     1      -8.828  11.604  66.019  1.00  0.00    -0.155 NA 
HETATM    6  C   UNL     1      -9.201  12.371  67.042  1.00  0.00    -0.208 A  
HETATM    7  N   UNL     1      -9.934  11.986  68.082  1.00  0.00    -0.197 NA 
HETATM    8  C   UNL     1     -10.111   9.822  67.038  1.00  0.00    -0.277 A  
HETATM    9  C   UNL     1     -10.357  10.694  68.110  1.00  0.00    -0.176 A  
ENDROOT
BRANCH   6  10
HETATM   10  N   UNL     1      -8.968  13.749  66.897  1.00  0.00    -0.239 N  
HETATM   11  C   UNL     1      -8.276  14.393  68.021  1.00  0.00    -0.149 C  
BRANCH  10  12
HETATM   12  S   UNL     1     -10.212  14.603  66.166  1.00  0.00    -0.316 S  
HETATM   13  C   UNL     1     -10.673  13.615  64.752  1.00  0.00    -0.410 C  
HETATM   14  O   UNL     1     -11.342  14.584  67.077  1.00  0.00    -0.325 OA 
HETATM   15  O   UNL     1      -9.704  15.859  65.664  1.00  0.00    -0.328 OA 
ENDBRANCH  10  12
ENDBRANCH   6  10
BRANCH   9  16
HETATM   16  C   UNL     1     -11.070  10.347  69.378  1.00  0.00    -0.304 A  
HETATM   17  F   UNL     1     -12.977   9.305  72.937  1.00  0.00    -0.425 F  
HETATM   18  C   UNL     1     -10.432   9.557  70.362  1.00  0.00    -0.336 A  
HETATM   19  C   UNL     1     -11.070   9.199  71.556  1.00  0.00    -0.436 A  
HETATM   20  C   UNL     1     -13.043  10.374  70.839  1.00  0.00    -0.412 A  
HETATM   21  C   UNL     1     -12.366   9.627  71.790  1.00  0.00    -0.392 A  
HETATM   22  C   UNL     1     -12.406  10.713  69.638  1.00  0.00    -0.209 A  
ENDBRANCH   9  16
BRANCH   8  23
HETATM   23  C   UNL     1     -10.653   8.455  66.919  1.00  0.00    -0.285 C  
HETATM   24  C   UNL     1     -10.176   7.390  67.593  1.00  0.00    -0.261 C  
BRANCH  24  25
HETATM   25  C   UNL     1     -10.816   6.018  67.658  1.00  0.00    -0.295 C  
HETATM   26  H   UNL     1     -11.074   4.487  66.445  1.00  0.00     0.000 HD 
HETATM   27  O   UNL     1     -10.672   5.346  66.405  1.00  0.00    -0.297 OA 
BRANCH  25  28
HETATM   28  C   UNL     1     -10.248   5.124  68.770  1.00  0.00    -0.202 C  
BRANCH  28  29
HETATM   29  C   UNL     1      -8.750   4.788  68.567  1.00  0.00    -0.098 C  
HETATM   30  O   UNL     1      -8.500   4.380  67.218  1.00  0.00    -0.104 OA 
HETATM   31  H   UNL     1      -7.581   4.173  67.094  1.00  0.00     0.000 HD 
BRANCH  29  32
HETATM   32  C   UNL     1      -7.841   5.992  68.814  1.00  0.00    -0.100 C  
HETATM   33  C   UNL     1      -7.599   6.230  70.277  1.00  0.00    -0.096 C  
HETATM   34  O   UNL     1      -7.540   5.349  71.120  1.00  0.00    -0.091 OA 
HETATM   35  O   UNL     1      -7.432   7.537  70.584  1.00  0.00    -0.074 OA 
ENDBRANCH  29  32
ENDBRANCH  28  29
ENDBRANCH  25  28
ENDBRANCH  24  25
ENDBRANCH   8  23
TORSDOF 8
ENDMDL
MODEL      121
REMARK 921   NORMALIZED FREE ENERGY PREDICTED BY IDOCK:   -4.94 KCAL/MOL
REMARK 922        TOTAL FREE ENERGY PREDICTED BY IDOCK:   -8.80 KCAL/MOL
REMARK 923 INTER-LIGAND FREE ENERGY PREDICTED BY IDOCK:   -8.36 KCAL/MOL
REMARK 924 INTRA-LIGAND FREE ENERGY PREDICTED BY IDOCK:   -0.43 KCAL/MOL
REMARK 927      BINDING AFFINITY PREDICTED BY RF-SCORE:    0.00 PKD
ROOT
HETATM    1  C   UNL     1      -9.677  14.595  67.077  1.00  0.00    -0.247 C  
HETATM    2  C   UNL     1      -9.377  13.231  67.719  1.00  0.00    -0.209 C  
HETATM    3  C   UNL     1      -7.999  13.282  68.387  1.00  0.00    -0.132 C  
HETATM    4  C   UNL     1     -10.440  12.805  68.727  1.00  0.00    -0.156 A  
HETATM    5  N   UNL     1     -11.107  13.817  69.329  1.00  0.00    -0.238 NA 
HETATM    6  C   UNL     1     -12.010  13.476  70.245  1.00  0.00    -0.316 A  
HETATM    7  N   UNL     1     -12.274  12.242  70.663  1.00  0.00    -0.357 NA 
HETATM    8  C   UNL     1     -10.665  11.453  69.052  1.00  0.00    -0.245 A  
HETATM    9  C   UNL     1     -11.569  11.223  70.101  1.00  0.00    -0.305 A  
ENDROOT
BRANCH   6  10
HETATM   10  N   UNL     1     -12.894  14.492  70.649  1.00  0.00    -0.353 N  
HETATM   11  C   UNL     1     -12.593  15.832  70.127  1.00  0.00    -0.119 C  
BRANCH  10  12
HETATM   12  S   UNL     1     -13.417  14.383  72.238  1.00  0.00    -0.479 S  
HETATM   13  C   UNL     1     -11.993  14.825  73.219  1.00  0.00    -0.134 C  
HETATM   14  O   UNL     1     -14.407  15.427  72.439  1.00  0.00    -0.543 OA 
HETATM   15  O   UNL     1     -13.739  13.008  72.544  1.00  0.00    -0.594 OA 
ENDBRANCH  10  12
ENDBRANCH   6  10
BRANCH   9  16
HETATM   16  C   UNL     1     -11.867   9.900  70.729  1.00  0.00    -0.415 A  
HETATM   17  F   UNL     1     -12.599   6.168  72.441  1.00  0.00    -0.304 F  
HETATM   18  C   UNL     1     -10.859   8.912  70.825  1.00  0.00    -0.294 A  
HETATM   19  C   UNL     1     -11.101   7.656  71.393  1.00  0.00    -0.265 A  
HETATM   20  C   UNL     1     -13.391   8.285  71.776  1.00  0.00    -0.375 A  
HETATM   21  C   UNL     1     -12.364   7.360  71.879  1.00  0.00    -0.310 A  
HETATM   22  C   UNL     1     -13.148   9.533  71.189  1.00  0.00    -0.336 A  
ENDBRANCH   9  16
BRANCH   8  23
HETATM   23  C   UNL     1      -9.968  10.399  68.290  1.00  0.00    -0.168 C  
HETATM   24  C   UNL     1     -10.517   9.718  67.264  1.00  0.00    -0.324 C  
BRANCH  24  25
HETATM   25  C   UNL     1      -9.785   8.777  66.329  1.00  0.00    -0.272 C  
HETATM   26  H   UNL     1      -8.132   8.803  65.258  1.00  0.00     0.000 HD 
HETATM   27  O   UNL     1      -8.591   9.392  65.844  1.00  0.00    -0.131 OA 
BRANCH  25  28
HETATM   28  C   UNL     1      -9.425   7.428  66.970  1.00  0.00    -0.199 C  
BRANCH  28  29
HETATM   29  C   UNL     1      -7.922   7.308  67.317  1.00  0.00    -0.111 C  
HETATM   30  O   UNL     1      -7.442   8.515  67.919  1.00  0.00    -0.094 OA 
HETATM   31  H   UNL     1      -6.519   8.442  68.132  1.00  0.00     0.000 HD 
BRANCH  29  32
HETATM   32  C   UNL     1      -7.641   6.198  68.330  1.00  0.00    -0.092 C  
HETATM   33  C   UNL     1      -7.829   4.830  67.738  1.00  0.00    -0.086 C  
HETATM   34  O   UNL     1      -7.604   4.543  66.573  1.00  0.00    -0.088 OA 
HETATM   35  O   UNL     1      -8.265   3.916  68.635  1.00  0.00    -0.073 OA 
ENDBRANCH  29  32
ENDBRANCH  28  29
ENDBRANCH  25  28
ENDBRANCH  24  25
ENDBRANCH   8  23
TORSDOF 8
ENDMDL
MODEL      122
REMARK 921   NORMALIZED FREE ENERGY PREDICTED BY IDOCK:   -4.93 KCAL/MOL
REMARK 922        TOTAL FREE ENERGY PREDICTED BY IDOCK:   -8.78 KCAL/MOL
REMARK 923 INTER-LIGAND FREE ENERGY PREDICTED BY IDOCK:   -6.76 KCAL/MOL
REMARK 924 INTRA-LIGAND FREE ENERGY PREDICTED BY IDOCK:   -2.02 KCAL/MOL
REMARK 927      BINDING AFFINITY PREDICTED BY RF-SCORE:    0.00 PKD
ROOT
HETATM    1  C   UNL     1      -9.277  13.577  67.487  1.00  0.00    -0.219 C  
HETATM    2  C   UNL     1     -10.092  12.286  67.661  1.00  0.00    -0.204 C  
HETATM    3  C   UNL     1     -11.279  12.307  66.693  1.00  0.00    -0.367 C  
HETATM    4  C   UNL     1      -9.258  11.026  67.451  1.00  0.00    -0.151 A  
HETATM    5  N   UNL     1      -8.192  11.167  66.629  1.00  0.00    -0.153 NA 
HETATM    6  C   UNL     1      -7.471  10.073  66.393  1.00  0.00    -0.104 A  
HETATM    7  N   UNL     1      -7.734   8.850  66.842  1.00  0.00    -0.097 NA 
HETATM    8  C   UNL     1      -9.611   9.789  68.025  1.00  0.00    -0.160 A  
HETATM    9  C   UNL     1      -8.835   8.691  67.625  1.00  0.00    -0.136 A  
ENDROOT
BRANCH   6  10
HETATM   10  N   UNL     1      -6.219  10.279  65.788  1.00  0.00    -0.100 N  
HETATM   11  C   UNL     1      -5.422  11.378  66.348  1.00  0.00    -0.129 C  
BRANCH  10  12
HETATM   12  S   UNL     1      -6.198  10.081  64.124  1.00  0.00    -0.134 S  
HETATM   13  C   UNL     1      -5.634   8.406  63.871  1.00  0.00    -0.061 C  
HETATM   14  O   UNL     1      -7.575  10.133  63.665  1.00  0.00    -0.149 OA 
HETATM   15  O   UNL     1      -5.206  10.959  63.548  1.00  0.00    -0.168 OA 
ENDBRANCH  10  12
ENDBRANCH   6  10
BRANCH   9  16
HETATM   16  C   UNL     1      -9.094   7.260  67.972  1.00  0.00    -0.133 A  
HETATM   17  F   UNL     1      -9.891   3.262  68.854  1.00  0.00    -0.214 F  
HETATM   18  C   UNL     1      -9.818   6.430  67.085  1.00  0.00    -0.182 A  
HETATM   19  C   UNL     1     -10.094   5.089  67.379  1.00  0.00    -0.213 A  
HETATM   20  C   UNL     1      -8.964   5.333  69.488  1.00  0.00    -0.128 A  
HETATM   21  C   UNL     1      -9.648   4.548  68.573  1.00  0.00    -0.149 A  
HETATM   22  C   UNL     1      -8.708   6.679  69.197  1.00  0.00    -0.130 A  
ENDBRANCH   9  16
BRANCH   8  23
HETATM   23  C   UNL     1     -10.730   9.729  68.985  1.00  0.00    -0.238 C  
HETATM   24  C   UNL     1     -10.578   9.670  70.323  1.00  0.00    -0.333 C  
BRANCH  24  25
HETATM   25  C   UNL     1     -11.683   9.808  71.351  1.00  0.00    -0.398 C  
HETATM   26  H   UNL     1     -13.447  10.676  71.466  1.00  0.00     0.000 HD 
HETATM   27  O   UNL     1     -12.755  10.589  70.822  1.00  0.00    -0.344 OA 
BRANCH  25  28
HETATM   28  C   UNL     1     -12.241   8.463  71.840  1.00  0.00    -0.395 C  
BRANCH  28  29
HETATM   29  C   UNL     1     -11.156   7.550  72.460  1.00  0.00    -0.321 C  
HETATM   30  O   UNL     1     -11.015   7.809  73.861  1.00  0.00    -0.345 OA 
HETATM   31  H   UNL     1     -10.349   7.249  74.242  1.00  0.00     0.000 HD 
BRANCH  29  32
HETATM   32  C   UNL     1     -11.503   6.065  72.344  1.00  0.00    -0.357 C  
HETATM   33  C   UNL     1     -10.473   5.189  72.999  1.00  0.00    -0.210 C  
HETATM   34  O   UNL     1      -9.829   5.500  73.988  1.00  0.00    -0.161 OA 
HETATM   35  O   UNL     1     -10.329   3.990  72.390  1.00  0.00    -0.178 OA 
ENDBRANCH  29  32
ENDBRANCH  28  29
ENDBRANCH  25  28
ENDBRANCH  24  25
ENDBRANCH   8  23
TORSDOF 8
ENDMDL
MODEL      123
REMARK 921   NORMALIZED FREE ENERGY PREDICTED BY IDOCK:   -4.91 KCAL/MOL
REMARK 922        TOTAL FREE ENERGY PREDICTED BY IDOCK:   -8.75 KCAL/MOL
REMARK 923 INTER-LIGAND FREE ENERGY PREDICTED BY IDOCK:   -7.36 KCAL/MOL
REMARK 924 INTRA-LIGAND FREE ENERGY PREDICTED BY IDOCK:   -1.39 KCAL/MOL
REMARK 927      BINDING AFFINITY PREDICTED BY RF-SCORE:    0.00 PKD
ROOT
HETATM    1  C   UNL     1      -5.955   8.843  66.314  1.00  0.00    -0.059 C  
HETATM    2  C   UNL     1      -6.945   9.942  66.732  1.00  0.00    -0.089 C  
HETATM    3  C   UNL     1      -7.460  10.658  65.480  1.00  0.00    -0.063 C  
HETATM    4  C   UNL     1      -8.112   9.406  67.555  1.00  0.00    -0.110 A  
HETATM    5  N   UNL     1      -8.439   8.113  67.322  1.00  0.00    -0.124 NA 
HETATM    6  C   UNL     1      -9.482   7.631  67.994  1.00  0.00    -0.143 A  
HETATM    7  N   UNL     1     -10.264   8.315  68.824  1.00  0.00    -0.207 NA 
HETATM    8  C   UNL     1      -8.837  10.220  68.447  1.00  0.00    -0.129 A  
HETATM    9  C   UNL     1      -9.973   9.629  69.021  1.00  0.00    -0.185 A  
ENDROOT
BRANCH   6  10
HETATM   10  N   UNL     1      -9.636   6.234  67.974  1.00  0.00    -0.115 N  
HETATM   11  C   UNL     1     -10.759   5.735  67.169  1.00  0.00    -0.275 C  
BRANCH  10  12
HETATM   12  S   UNL     1      -9.335   5.469  69.435  1.00  0.00    -0.123 S  
HETATM   13  C   UNL     1      -8.687   3.867  68.988  1.00  0.00    -0.093 C  
HETATM   14  O   UNL     1      -8.257   6.192  70.086  1.00  0.00    -0.116 OA 
HETATM   15  O   UNL     1     -10.584   5.249  70.128  1.00  0.00    -0.290 OA 
ENDBRANCH  10  12
ENDBRANCH   6  10
BRANCH   9  16
HETATM   16  C   UNL     1     -10.984  10.321  69.879  1.00  0.00    -0.358 A  
HETATM   17  F   UNL     1     -13.820  12.151  72.328  1.00  0.00    -0.472 F  
HETATM   18  C   UNL     1     -11.472   9.696  71.050  1.00  0.00    -0.444 A  
HETATM   19  C   UNL     1     -12.429  10.303  71.872  1.00  0.00    -0.336 A  
HETATM   20  C   UNL     1     -12.495  12.190  70.381  1.00  0.00    -0.224 A  
HETATM   21  C   UNL     1     -12.919  11.555  71.537  1.00  0.00    -0.380 A  
HETATM   22  C   UNL     1     -11.552  11.568  69.551  1.00  0.00    -0.400 A  
ENDBRANCH   9  16
BRANCH   8  23
HETATM   23  C   UNL     1      -8.367  11.591  68.721  1.00  0.00    -0.069 C  
HETATM   24  C   UNL     1      -8.801  12.686  68.064  1.00  0.00    -0.195 C  
BRANCH  24  25
HETATM   25  C   UNL     1      -8.502  14.124  68.438  1.00  0.00    -0.170 C  
HETATM   26  H   UNL     1      -7.050  15.111  69.330  1.00  0.00     0.000 HD 
HETATM   27  O   UNL     1      -7.237  14.210  69.095  1.00  0.00    -0.118 OA 
BRANCH  25  28
HETATM   28  C   UNL     1      -8.508  15.085  67.240  1.00  0.00    -0.220 C  
BRANCH  28  29
HETATM   29  C   UNL     1      -8.926  16.525  67.625  1.00  0.00    -0.197 C  
HETATM   30  O   UNL     1      -7.998  17.092  68.555  1.00  0.00    -0.228 OA 
HETATM   31  H   UNL     1      -8.255  17.975  68.792  1.00  0.00     0.000 HD 
BRANCH  29  32
HETATM   32  C   UNL     1      -8.943  17.471  66.424  1.00  0.00    -0.264 C  
HETATM   33  C   UNL     1      -9.753  18.709  66.689  1.00  0.00    -0.341 C  
HETATM   34  O   UNL     1      -9.859  19.246  67.779  1.00  0.00    -0.310 OA 
HETATM   35  O   UNL     1     -10.358  19.195  65.581  1.00  0.00    -0.511 OA 
ENDBRANCH  29  32
ENDBRANCH  28  29
ENDBRANCH  25  28
ENDBRANCH  24  25
ENDBRANCH   8  23
TORSDOF 8
ENDMDL
MODEL      124
REMARK 921   NORMALIZED FREE ENERGY PREDICTED BY IDOCK:   -4.86 KCAL/MOL
REMARK 922        TOTAL FREE ENERGY PREDICTED BY IDOCK:   -8.68 KCAL/MOL
REMARK 923 INTER-LIGAND FREE ENERGY PREDICTED BY IDOCK:   -7.33 KCAL/MOL
REMARK 924 INTRA-LIGAND FREE ENERGY PREDICTED BY IDOCK:   -1.35 KCAL/MOL
REMARK 927      BINDING AFFINITY PREDICTED BY RF-SCORE:    0.00 PKD
ROOT
HETATM    1  C   UNL     1     -13.689   9.725  71.449  1.00  0.00    -0.241 C  
HETATM    2  C   UNL     1     -12.718  10.395  70.465  1.00  0.00    -0.355 C  
HETATM    3  C   UNL     1     -12.220  11.712  71.067  1.00  0.00    -0.336 C  
HETATM    4  C   UNL     1     -11.538   9.500  70.097  1.00  0.00    -0.111 A  
HETATM    5  N   UNL     1     -11.189   8.587  71.033  1.00  0.00    -0.260 NA 
HETATM    6  C   UNL     1     -10.135   7.822  70.758  1.00  0.00    -0.192 A  
HETATM    7  N   UNL     1      -9.363   7.911  69.680  1.00  0.00    -0.153 NA 
HETATM    8  C   UNL     1     -10.824   9.658  68.893  1.00  0.00    -0.201 A  
HETATM    9  C   UNL     1      -9.675   8.863  68.760  1.00  0.00    -0.164 A  
ENDROOT
BRANCH   6  10
HETATM   10  N   UNL     1      -9.957   6.697  71.583  1.00  0.00    -0.174 N  
HETATM   11  C   UNL     1     -11.125   5.814  71.704  1.00  0.00    -0.226 C  
BRANCH  10  12
HETATM   12  S   UNL     1      -9.052   6.973  72.967  1.00  0.00    -0.137 S  
HETATM   13  C   UNL     1      -8.121   8.455  72.615  1.00  0.00    -0.110 C  
HETATM   14  O   UNL     1      -9.981   7.304  74.032  1.00  0.00    -0.300 OA 
HETATM   15  O   UNL     1      -8.100   5.900  73.140  1.00  0.00    -0.115 OA 
ENDBRANCH  10  12
ENDBRANCH   6  10
BRANCH   9  16
HETATM   16  C   UNL     1      -8.673   8.946  67.653  1.00  0.00    -0.124 A  
HETATM   17  F   UNL     1      -5.933   9.092  64.513  1.00  0.00    -0.062 F  
HETATM   18  C   UNL     1      -8.892   8.254  66.439  1.00  0.00    -0.180 A  
HETATM   19  C   UNL     1      -7.973   8.294  65.384  1.00  0.00    -0.127 A  
HETATM   20  C   UNL     1      -6.536   9.699  66.707  1.00  0.00    -0.067 A  
HETATM   21  C   UNL     1      -6.809   9.032  65.524  1.00  0.00    -0.073 A  
HETATM   22  C   UNL     1      -7.451   9.638  67.767  1.00  0.00    -0.087 A  
ENDBRANCH   9  16
BRANCH   8  23
HETATM   23  C   UNL     1     -11.317  10.609  67.879  1.00  0.00    -0.342 C  
HETATM   24  C   UNL     1     -10.818  11.849  67.697  1.00  0.00    -0.271 C  
BRANCH  24  25
HETATM   25  C   UNL     1     -11.150  12.782  66.550  1.00  0.00    -0.286 C  
HETATM   26  H   UNL     1     -12.693  13.136  65.378  1.00  0.00     0.000 HD 
HETATM   27  O   UNL     1     -12.485  12.551  66.097  1.00  0.00    -0.522 OA 
BRANCH  25  28
HETATM   28  C   UNL     1     -10.993  14.269  66.900  1.00  0.00    -0.304 C  
BRANCH  28  29
HETATM   29  C   UNL     1      -9.579  14.619  67.423  1.00  0.00    -0.215 C  
HETATM   30  O   UNL     1      -8.620  14.576  66.361  1.00  0.00    -0.445 OA 
HETATM   31  H   UNL     1      -7.751  14.790  66.682  1.00  0.00     0.000 HD 
BRANCH  29  32
HETATM   32  C   UNL     1      -9.500  16.033  67.999  1.00  0.00    -0.207 C  
HETATM   33  C   UNL     1      -9.589  17.085  66.930  1.00  0.00    -0.257 C  
HETATM   34  O   UNL     1     -10.238  16.975  65.902  1.00  0.00    -0.439 OA 
HETATM   35  O   UNL     1      -8.881  18.201  67.222  1.00  0.00    -0.246 OA 
ENDBRANCH  29  32
ENDBRANCH  28  29
ENDBRANCH  25  28
ENDBRANCH  24  25
ENDBRANCH   8  23
TORSDOF 8
ENDMDL
MODEL      125
REMARK 921   NORMALIZED FREE ENERGY PREDICTED BY IDOCK:   -4.85 KCAL/MOL
REMARK 922        TOTAL FREE ENERGY PREDICTED BY IDOCK:   -8.66 KCAL/MOL
REMARK 923 INTER-LIGAND FREE ENERGY PREDICTED BY IDOCK:   -7.21 KCAL/MOL
REMARK 924 INTRA-LIGAND FREE ENERGY PREDICTED BY IDOCK:   -1.45 KCAL/MOL
REMARK 927      BINDING AFFINITY PREDICTED BY RF-SCORE:    0.00 PKD
ROOT
HETATM    1  C   UNL     1     -11.264  14.612  67.163  1.00  0.00    -0.349 C  
HETATM    2  C   UNL     1     -11.450  13.130  67.522  1.00  0.00    -0.371 C  
HETATM    3  C   UNL     1     -12.148  12.415  66.361  1.00  0.00    -0.215 C  
HETATM    4  C   UNL     1     -10.136  12.433  67.861  1.00  0.00    -0.208 A  
HETATM    5  N   UNL     1      -9.034  12.959  67.277  1.00  0.00    -0.199 NA 
HETATM    6  C   UNL     1      -7.879  12.344  67.520  1.00  0.00    -0.169 A  
HETATM    7  N   UNL     1      -7.717  11.234  68.233  1.00  0.00    -0.114 NA 
HETATM    8  C   UNL     1     -10.085  11.285  68.676  1.00  0.00    -0.216 A  
HETATM    9  C   UNL     1      -8.828  10.669  68.779  1.00  0.00    -0.161 A  
ENDROOT
BRANCH   6  10
HETATM   10  N   UNL     1      -6.717  13.050  67.160  1.00  0.00     0.010 N  
HETATM   11  C   UNL     1      -5.503  12.235  67.021  1.00  0.00    -0.019 C  
BRANCH  10  12
HETATM   12  S   UNL     1      -6.557  14.558  67.875  1.00  0.00    -0.175 S  
HETATM   13  C   UNL     1      -7.699  15.606  66.990  1.00  0.00    -0.222 C  
HETATM   14  O   UNL     1      -7.058  14.446  69.234  1.00  0.00    -0.127 OA 
HETATM   15  O   UNL     1      -5.228  15.067  67.630  1.00  0.00    -0.292 OA 
ENDBRANCH  10  12
ENDBRANCH   6  10
BRANCH   9  16
HETATM   16  C   UNL     1      -8.540   9.368  69.457  1.00  0.00    -0.158 A  
HETATM   17  F   UNL     1      -7.665   5.794  71.419  1.00  0.00    -0.095 F  
HETATM   18  C   UNL     1      -7.837   9.343  70.684  1.00  0.00    -0.178 A  
HETATM   19  C   UNL     1      -7.535   8.146  71.343  1.00  0.00    -0.079 A  
HETATM   20  C   UNL     1      -8.595   6.916  69.568  1.00  0.00    -0.134 A  
HETATM   21  C   UNL     1      -7.933   6.942  70.785  1.00  0.00    -0.106 A  
HETATM   22  C   UNL     1      -8.876   8.117  68.903  1.00  0.00    -0.141 A  
ENDBRANCH   9  16
BRANCH   8  23
HETATM   23  C   UNL     1     -11.311  10.823  69.355  1.00  0.00    -0.351 C  
HETATM   24  C   UNL     1     -11.364  10.444  70.647  1.00  0.00    -0.411 C  
BRANCH  24  25
HETATM   25  C   UNL     1     -12.623  10.155  71.438  1.00  0.00    -0.422 C  
HETATM   26  H   UNL     1     -14.312  11.081  71.853  1.00  0.00     0.000 HD 
HETATM   27  O   UNL     1     -13.522  11.262  71.357  1.00  0.00    -0.110 OA 
BRANCH  25  28
HETATM   28  C   UNL     1     -13.357   8.883  70.986  1.00  0.00     0.003 C  
BRANCH  28  29
HETATM   29  C   UNL     1     -12.672   7.585  71.477  1.00  0.00    -0.359 C  
HETATM   30  O   UNL     1     -12.239   6.789  70.368  1.00  0.00    -0.581 OA 
HETATM   31  H   UNL     1     -11.819   5.992  70.669  1.00  0.00     0.000 HD 
BRANCH  29  32
HETATM   32  C   UNL     1     -11.417   7.862  72.305  1.00  0.00    -0.403 C  
HETATM   33  C   UNL     1     -10.913   6.629  73.000  1.00  0.00    -0.247 C  
HETATM   34  O   UNL     1     -11.005   5.497  72.554  1.00  0.00    -0.236 OA 
HETATM   35  O   UNL     1     -10.319   6.893  74.187  1.00  0.00    -0.373 OA 
ENDBRANCH  29  32
ENDBRANCH  28  29
ENDBRANCH  25  28
ENDBRANCH  24  25
ENDBRANCH   8  23
TORSDOF 8
ENDMDL
MODEL      126
REMARK 921   NORMALIZED FREE ENERGY PREDICTED BY IDOCK:   -4.85 KCAL/MOL
REMARK 922        TOTAL FREE ENERGY PREDICTED BY IDOCK:   -8.65 KCAL/MOL
REMARK 923 INTER-LIGAND FREE ENERGY PREDICTED BY IDOCK:   -7.66 KCAL/MOL
REMARK 924 INTRA-LIGAND FREE ENERGY PREDICTED BY IDOCK:   -1.00 KCAL/MOL
REMARK 927      BINDING AFFINITY PREDICTED BY RF-SCORE:    0.00 PKD
ROOT
HETATM    1  C   UNL     1     -11.095   7.210  71.782  1.00  0.00    -0.267 C  
HETATM    2  C   UNL     1     -10.449   8.321  70.940  1.00  0.00    -0.230 C  
HETATM    3  C   UNL     1      -9.132   8.748  71.595  1.00  0.00    -0.314 C  
HETATM    4  C   UNL     1     -10.211   7.904  69.492  1.00  0.00    -0.208 A  
HETATM    5  N   UNL     1     -10.036   6.576  69.293  1.00  0.00    -0.151 NA 
HETATM    6  C   UNL     1      -9.782   6.188  68.045  1.00  0.00    -0.120 A  
HETATM    7  N   UNL     1      -9.628   6.985  66.993  1.00  0.00    -0.149 NA 
HETATM    8  C   UNL     1     -10.118   8.843  68.446  1.00  0.00    -0.215 A  
HETATM    9  C   UNL     1      -9.750   8.324  67.195  1.00  0.00    -0.195 A  
ENDROOT
BRANCH   6  10
HETATM   10  N   UNL     1      -9.891   4.808  67.795  1.00  0.00    -0.157 N  
HETATM   11  C   UNL     1      -9.643   3.937  68.951  1.00  0.00    -0.130 C  
BRANCH  10  12
HETATM   12  S   UNL     1      -9.290   4.311  66.311  1.00  0.00    -0.177 S  
HETATM   13  C   UNL     1      -8.918   2.578  66.527  1.00  0.00    -0.121 C  
HETATM   14  O   UNL     1     -10.381   4.390  65.355  1.00  0.00    -0.252 OA 
HETATM   15  O   UNL     1      -8.042   4.988  66.046  1.00  0.00    -0.106 OA 
ENDBRANCH  10  12
ENDBRANCH   6  10
BRANCH   9  16
HETATM   16  C   UNL     1      -9.444   9.123  65.969  1.00  0.00    -0.321 A  
HETATM   17  F   UNL     1      -8.700  11.379  62.542  1.00  0.00    -0.311 F  
HETATM   18  C   UNL     1     -10.410  10.006  65.432  1.00  0.00    -0.111 A  
HETATM   19  C   UNL     1     -10.168  10.760  64.278  1.00  0.00    -0.422 A  
HETATM   20  C   UNL     1      -7.982   9.770  64.105  1.00  0.00    -0.143 A  
HETATM   21  C   UNL     1      -8.947  10.647  63.635  1.00  0.00    -0.202 A  
HETATM   22  C   UNL     1      -8.238   9.002  65.249  1.00  0.00    -0.139 A  
ENDBRANCH   9  16
BRANCH   8  23
HETATM   23  C   UNL     1     -10.413  10.263  68.720  1.00  0.00    -0.222 C  
HETATM   24  C   UNL     1     -11.600  10.852  68.469  1.00  0.00    -0.360 C  
BRANCH  24  25
HETATM   25  C   UNL     1     -12.014  12.241  68.912  1.00  0.00    -0.248 C  
HETATM   26  H   UNL     1     -12.115  13.246  70.602  1.00  0.00     0.000 HD 
HETATM   27  O   UNL     1     -11.855  12.376  70.325  1.00  0.00    -0.322 OA 
BRANCH  25  28
HETATM   28  C   UNL     1     -11.237  13.367  68.213  1.00  0.00    -0.310 C  
BRANCH  28  29
HETATM   29  C   UNL     1     -11.113  14.642  69.082  1.00  0.00    -0.268 C  
HETATM   30  O   UNL     1      -9.830  14.702  69.714  1.00  0.00    -0.422 OA 
HETATM   31  H   UNL     1      -9.754  15.485  70.248  1.00  0.00     0.000 HD 
BRANCH  29  32
HETATM   32  C   UNL     1     -11.233  15.925  68.259  1.00  0.00    -0.354 C  
HETATM   33  C   UNL     1      -9.932  16.310  67.615  1.00  0.00    -0.247 C  
HETATM   34  O   UNL     1      -9.092  15.515  67.224  1.00  0.00    -0.193 OA 
HETATM   35  O   UNL     1      -9.774  17.647  67.490  1.00  0.00    -0.269 OA 
ENDBRANCH  29  32
ENDBRANCH  28  29
ENDBRANCH  25  28
ENDBRANCH  24  25
ENDBRANCH   8  23
TORSDOF 8
ENDMDL
MODEL      127
REMARK 921   NORMALIZED FREE ENERGY PREDICTED BY IDOCK:   -4.85 KCAL/MOL
REMARK 922        TOTAL FREE ENERGY PREDICTED BY IDOCK:   -8.65 KCAL/MOL
REMARK 923 INTER-LIGAND FREE ENERGY PREDICTED BY IDOCK:   -7.48 KCAL/MOL
REMARK 924 INTRA-LIGAND FREE ENERGY PREDICTED BY IDOCK:   -1.17 KCAL/MOL
REMARK 927      BINDING AFFINITY PREDICTED BY RF-SCORE:    0.00 PKD
ROOT
HETATM    1  C   UNL     1     -10.307   6.493  66.617  1.00  0.00    -0.217 C  
HETATM    2  C   UNL     1     -10.378   7.733  67.523  1.00  0.00    -0.333 C  
HETATM    3  C   UNL     1      -9.979   7.338  68.948  1.00  0.00    -0.166 C  
HETATM    4  C   UNL     1      -9.505   8.880  67.026  1.00  0.00    -0.166 A  
HETATM    5  N   UNL     1      -8.426   8.512  66.295  1.00  0.00    -0.118 NA 
HETATM    6  C   UNL     1      -7.621   9.490  65.884  1.00  0.00    -0.100 A  
HETATM    7  N   UNL     1      -7.747  10.782  66.174  1.00  0.00    -0.151 NA 
HETATM    8  C   UNL     1      -9.770  10.223  67.358  1.00  0.00    -0.189 A  
HETATM    9  C   UNL     1      -8.799  11.152  66.953  1.00  0.00    -0.157 A  
ENDROOT
BRANCH   6  10
HETATM   10  N   UNL     1      -6.683   9.143  64.896  1.00  0.00    -0.073 N  
HETATM   11  C   UNL     1      -5.423   9.897  64.932  1.00  0.00    -0.073 C  
BRANCH  10  12
HETATM   12  S   UNL     1      -7.337   8.802  63.391  1.00  0.00    -0.103 S  
HETATM   13  C   UNL     1      -8.582  10.057  63.140  1.00  0.00    -0.197 C  
HETATM   14  O   UNL     1      -6.297   9.040  62.405  1.00  0.00    -0.095 OA 
HETATM   15  O   UNL     1      -8.016   7.528  63.439  1.00  0.00    -0.132 OA 
ENDBRANCH  10  12
ENDBRANCH   6  10
BRANCH   9  16
HETATM   16  C   UNL     1      -8.772  12.604  67.307  1.00  0.00    -0.198 A  
HETATM   17  F   UNL     1      -8.644  16.629  68.393  1.00  0.00    -0.189 F  
HETATM   18  C   UNL     1      -8.004  13.057  68.406  1.00  0.00    -0.135 A  
HETATM   19  C   UNL     1      -7.963  14.405  68.779  1.00  0.00    -0.133 A  
HETATM   20  C   UNL     1      -9.485  14.932  66.992  1.00  0.00    -0.239 A  
HETATM   21  C   UNL     1      -8.693  15.334  68.055  1.00  0.00    -0.160 A  
HETATM   22  C   UNL     1      -9.538  13.578  66.636  1.00  0.00    -0.282 A  
ENDBRANCH   9  16
BRANCH   8  23
HETATM   23  C   UNL     1     -11.013  10.559  68.078  1.00  0.00    -0.345 C  
HETATM   24  C   UNL     1     -11.081  10.794  69.404  1.00  0.00    -0.324 C  
BRANCH  24  25
HETATM   25  C   UNL     1     -12.284  11.333  70.151  1.00  0.00    -0.330 C  
HETATM   26  H   UNL     1     -13.346  10.828  71.731  1.00  0.00     0.000 HD 
HETATM   27  O   UNL     1     -12.592  10.490  71.263  1.00  0.00    -0.352 OA 
BRANCH  25  28
HETATM   28  C   UNL     1     -12.103  12.773  70.653  1.00  0.00    -0.316 C  
BRANCH  28  29
HETATM   29  C   UNL     1     -13.380  13.346  71.313  1.00  0.00    -0.109 C  
HETATM   30  O   UNL     1     -13.696  12.631  72.512  1.00  0.00    -0.608 OA 
HETATM   31  H   UNL     1     -14.481  12.983  72.917  1.00  0.00     0.000 HD 
BRANCH  29  32
HETATM   32  C   UNL     1     -13.218  14.808  71.730  1.00  0.00    -0.435 C  
HETATM   33  C   UNL     1     -12.367  15.583  70.765  1.00  0.00    -0.414 C  
HETATM   34  O   UNL     1     -12.319  15.374  69.563  1.00  0.00    -0.277 OA 
HETATM   35  O   UNL     1     -11.651  16.566  71.357  1.00  0.00    -0.367 OA 
ENDBRANCH  29  32
ENDBRANCH  28  29
ENDBRANCH  25  28
ENDBRANCH  24  25
ENDBRANCH   8  23
TORSDOF 8
ENDMDL
MODEL      128
REMARK 921   NORMALIZED FREE ENERGY PREDICTED BY IDOCK:   -4.83 KCAL/MOL
REMARK 922        TOTAL FREE ENERGY PREDICTED BY IDOCK:   -8.63 KCAL/MOL
REMARK 923 INTER-LIGAND FREE ENERGY PREDICTED BY IDOCK:   -7.85 KCAL/MOL
REMARK 924 INTRA-LIGAND FREE ENERGY PREDICTED BY IDOCK:   -0.78 KCAL/MOL
REMARK 927      BINDING AFFINITY PREDICTED BY RF-SCORE:    0.00 PKD
ROOT
HETATM    1  C   UNL     1      -9.529  10.360  63.099  1.00  0.00    -0.362 C  
HETATM    2  C   UNL     1      -9.335   9.752  64.498  1.00  0.00    -0.298 C  
HETATM    3  C   UNL     1      -7.845   9.765  64.849  1.00  0.00    -0.133 C  
HETATM    4  C   UNL     1     -10.141  10.475  65.574  1.00  0.00    -0.283 A  
HETATM    5  N   UNL     1     -10.405  11.778  65.322  1.00  0.00    -0.262 NA 
HETATM    6  C   UNL     1     -11.068  12.445  66.264  1.00  0.00    -0.303 A  
HETATM    7  N   UNL     1     -11.442  11.967  67.447  1.00  0.00    -0.365 NA 
HETATM    8  C   UNL     1     -10.526   9.843  66.772  1.00  0.00    -0.261 A  
HETATM    9  C   UNL     1     -11.132  10.673  67.728  1.00  0.00    -0.321 A  
ENDROOT
BRANCH   6  10
HETATM   10  N   UNL     1     -11.591  13.694  65.883  1.00  0.00    -0.318 N  
HETATM   11  C   UNL     1     -11.892  13.841  64.453  1.00  0.00    -0.427 C  
BRANCH  10  12
HETATM   12  S   UNL     1     -10.913  15.011  66.668  1.00  0.00    -0.319 S  
HETATM   13  C   UNL     1      -9.278  14.472  67.137  1.00  0.00    -0.223 C  
HETATM   14  O   UNL     1     -10.742  16.062  65.680  1.00  0.00    -0.349 OA 
HETATM   15  O   UNL     1     -11.645  15.273  67.886  1.00  0.00    -0.339 OA 
ENDBRANCH  10  12
ENDBRANCH   6  10
BRANCH   9  16
HETATM   16  C   UNL     1     -11.497  10.283  69.124  1.00  0.00    -0.210 A  
HETATM   17  F   UNL     1     -12.425   9.123  73.021  1.00  0.00    -0.242 F  
HETATM   18  C   UNL     1     -10.599   9.525  69.911  1.00  0.00    -0.269 A  
HETATM   19  C   UNL     1     -10.908   9.127  71.217  1.00  0.00    -0.402 A  
HETATM   20  C   UNL     1     -13.055  10.196  71.020  1.00  0.00    -0.458 A  
HETATM   21  C   UNL     1     -12.130   9.482  71.766  1.00  0.00    -0.384 A  
HETATM   22  C   UNL     1     -12.747  10.574  69.706  1.00  0.00     0.071 A  
ENDBRANCH   9  16
BRANCH   8  23
HETATM   23  C   UNL     1     -10.286   8.397  66.938  1.00  0.00    -0.378 C  
HETATM   24  C   UNL     1      -9.229   7.874  67.592  1.00  0.00    -0.147 C  
BRANCH  24  25
HETATM   25  C   UNL     1      -9.043   6.416  67.959  1.00  0.00    -0.113 C  
HETATM   26  H   UNL     1      -8.570   4.743  67.033  1.00  0.00     0.000 HD 
HETATM   27  O   UNL     1      -8.687   5.657  66.803  1.00  0.00    -0.114 OA 
BRANCH  25  28
HETATM   28  C   UNL     1      -7.988   6.186  69.051  1.00  0.00    -0.108 C  
BRANCH  28  29
HETATM   29  C   UNL     1      -6.636   6.872  68.737  1.00  0.00    -0.047 C  
HETATM   30  O   UNL     1      -6.339   6.792  67.339  1.00  0.00    -0.040 OA 
HETATM   31  H   UNL     1      -5.509   7.213  67.147  1.00  0.00     0.000 HD 
BRANCH  29  32
HETATM   32  C   UNL     1      -6.644   8.363  69.076  1.00  0.00    -0.048 C  
HETATM   33  C   UNL     1      -6.643   8.608  70.559  1.00  0.00    -0.039 C  
HETATM   34  O   UNL     1      -6.095   7.888  71.378  1.00  0.00    -0.035 OA 
HETATM   35  O   UNL     1      -7.307   9.731  70.913  1.00  0.00    -0.321 OA 
ENDBRANCH  29  32
ENDBRANCH  28  29
ENDBRANCH  25  28
ENDBRANCH  24  25
ENDBRANCH   8  23
TORSDOF 8
ENDMDL
MODEL      129
REMARK 921   NORMALIZED FREE ENERGY PREDICTED BY IDOCK:   -4.82 KCAL/MOL
REMARK 922        TOTAL FREE ENERGY PREDICTED BY IDOCK:   -8.62 KCAL/MOL
REMARK 923 INTER-LIGAND FREE ENERGY PREDICTED BY IDOCK:   -6.98 KCAL/MOL
REMARK 924 INTRA-LIGAND FREE ENERGY PREDICTED BY IDOCK:   -1.64 KCAL/MOL
REMARK 927      BINDING AFFINITY PREDICTED BY RF-SCORE:    0.00 PKD
ROOT
HETATM    1  C   UNL     1      -7.632  10.125  64.113  1.00  0.00    -0.125 C  
HETATM    2  C   UNL     1      -8.772  10.299  65.129  1.00  0.00    -0.189 C  
HETATM    3  C   UNL     1     -10.104  10.390  64.379  1.00  0.00    -0.342 C  
HETATM    4  C   UNL     1      -8.820   9.178  66.163  1.00  0.00    -0.158 A  
HETATM    5  N   UNL     1      -8.321   7.989  65.751  1.00  0.00    -0.131 NA 
HETATM    6  C   UNL     1      -8.390   6.981  66.618  1.00  0.00    -0.118 A  
HETATM    7  N   UNL     1      -8.954   7.019  67.821  1.00  0.00    -0.122 NA 
HETATM    8  C   UNL     1      -9.402   9.354  67.433  1.00  0.00    -0.151 A  
HETATM    9  C   UNL     1      -9.506   8.197  68.219  1.00  0.00    -0.141 A  
ENDROOT
BRANCH   6  10
HETATM   10  N   UNL     1      -7.620   5.846  66.306  1.00  0.00    -0.092 N  
HETATM   11  C   UNL     1      -6.353   6.116  65.614  1.00  0.00    -0.038 C  
BRANCH  10  12
HETATM   12  S   UNL     1      -8.501   4.509  65.810  1.00  0.00    -0.117 S  
HETATM   13  C   UNL     1      -8.618   3.475  67.261  1.00  0.00    -0.109 C  
HETATM   14  O   UNL     1      -9.847   4.966  65.511  1.00  0.00    -0.155 OA 
HETATM   15  O   UNL     1      -7.746   3.776  64.820  1.00  0.00    -0.079 OA 
ENDBRANCH  10  12
ENDBRANCH   6  10
BRANCH   9  16
HETATM   16  C   UNL     1     -10.210   8.088  69.534  1.00  0.00    -0.209 A  
HETATM   17  F   UNL     1     -12.087   7.846  73.250  1.00  0.00    -0.175 F  
HETATM   18  C   UNL     1      -9.793   8.875  70.633  1.00  0.00    -0.261 A  
HETATM   19  C   UNL     1     -10.416   8.793  71.884  1.00  0.00    -0.423 A  
HETATM   20  C   UNL     1     -11.894   7.102  71.023  1.00  0.00    -0.373 A  
HETATM   21  C   UNL     1     -11.474   7.917  72.062  1.00  0.00    -0.300 A  
HETATM   22  C   UNL     1     -11.254   7.174  69.779  1.00  0.00    -0.206 A  
ENDBRANCH   9  16
BRANCH   8  23
HETATM   23  C   UNL     1      -9.841  10.701  67.848  1.00  0.00    -0.181 C  
HETATM   24  C   UNL     1     -11.131  11.068  67.983  1.00  0.00    -0.343 C  
BRANCH  24  25
HETATM   25  C   UNL     1     -11.627  12.364  68.593  1.00  0.00    -0.319 C  
HETATM   26  H   UNL     1     -12.359  12.958  70.322  1.00  0.00     0.000 HD 
HETATM   27  O   UNL     1     -12.047  12.146  69.940  1.00  0.00    -0.298 OA 
BRANCH  25  28
HETATM   28  C   UNL     1     -10.587  13.493  68.572  1.00  0.00    -0.257 C  
BRANCH  28  29
HETATM   29  C   UNL     1     -10.764  14.454  67.371  1.00  0.00    -0.280 C  
HETATM   30  O   UNL     1     -11.184  15.748  67.815  1.00  0.00    -0.336 OA 
HETATM   31  H   UNL     1     -11.293  16.338  67.077  1.00  0.00     0.000 HD 
BRANCH  29  32
HETATM   32  C   UNL     1      -9.461  14.679  66.604  1.00  0.00    -0.297 C  
HETATM   33  C   UNL     1      -8.610  15.746  67.232  1.00  0.00    -0.188 C  
HETATM   34  O   UNL     1      -8.557  15.972  68.431  1.00  0.00    -0.173 OA 
HETATM   35  O   UNL     1      -7.879  16.443  66.333  1.00  0.00    -0.289 OA 
ENDBRANCH  29  32
ENDBRANCH  28  29
ENDBRANCH  25  28
ENDBRANCH  24  25
ENDBRANCH   8  23
TORSDOF 8
ENDMDL
MODEL      130
REMARK 921   NORMALIZED FREE ENERGY PREDICTED BY IDOCK:   -4.80 KCAL/MOL
REMARK 922        TOTAL FREE ENERGY PREDICTED BY IDOCK:   -8.59 KCAL/MOL
REMARK 923 INTER-LIGAND FREE ENERGY PREDICTED BY IDOCK:   -7.47 KCAL/MOL
REMARK 924 INTRA-LIGAND FREE ENERGY PREDICTED BY IDOCK:   -1.12 KCAL/MOL
REMARK 927      BINDING AFFINITY PREDICTED BY RF-SCORE:    0.00 PKD
ROOT
HETATM    1  C   UNL     1     -10.802   9.579  70.115  1.00  0.00    -0.300 C  
HETATM    2  C   UNL     1     -10.465  10.507  68.937  1.00  0.00    -0.226 C  
HETATM    3  C   UNL     1     -11.271  10.074  67.709  1.00  0.00    -0.137 C  
HETATM    4  C   UNL     1     -10.724  11.978  69.250  1.00  0.00    -0.013 A  
HETATM    5  N   UNL     1     -11.683  12.213  70.176  1.00  0.00    -0.272 NA 
HETATM    6  C   UNL     1     -11.960  13.489  70.438  1.00  0.00    -0.295 A  
HETATM    7  N   UNL     1     -11.426  14.546  69.834  1.00  0.00    -0.267 NA 
HETATM    8  C   UNL     1     -10.054  13.017  68.576  1.00  0.00    -0.195 A  
HETATM    9  C   UNL     1     -10.500  14.316  68.865  1.00  0.00    -0.238 A  
ENDROOT
BRANCH   6  10
HETATM   10  N   UNL     1     -12.731  13.728  71.589  1.00  0.00    -0.339 N  
HETATM   11  C   UNL     1     -13.656  12.650  71.963  1.00  0.00    -0.332 C  
BRANCH  10  12
HETATM   12  S   UNL     1     -13.275  15.305  71.758  1.00  0.00    -0.463 S  
HETATM   13  C   UNL     1     -11.791  16.284  71.926  1.00  0.00    -0.462 C  
HETATM   14  O   UNL     1     -13.890  15.688  70.499  1.00  0.00    -0.231 OA 
HETATM   15  O   UNL     1     -14.013  15.429  72.994  1.00  0.00    -0.399 OA 
ENDBRANCH  10  12
ENDBRANCH   6  10
BRANCH   9  16
HETATM   16  C   UNL     1     -10.058  15.569  68.180  1.00  0.00    -0.218 A  
HETATM   17  F   UNL     1      -8.895  19.040  66.183  1.00  0.00    -0.310 F  
HETATM   18  C   UNL     1     -10.756  16.047  67.047  1.00  0.00    -0.277 A  
HETATM   19  C   UNL     1     -10.366  17.208  66.368  1.00  0.00    -0.307 A  
HETATM   20  C   UNL     1      -8.529  17.469  67.899  1.00  0.00    -0.230 A  
HETATM   21  C   UNL     1      -9.263  17.919  66.814  1.00  0.00    -0.271 A  
HETATM   22  C   UNL     1      -8.913  16.296  68.562  1.00  0.00    -0.219 A  
ENDBRANCH   9  16
BRANCH   8  23
HETATM   23  C   UNL     1      -8.955  12.688  67.648  1.00  0.00    -0.186 C  
HETATM   24  C   UNL     1      -7.658  12.611  68.006  1.00  0.00    -0.132 C  
BRANCH  24  25
HETATM   25  C   UNL     1      -6.526  12.086  67.145  1.00  0.00    -0.142 C  
HETATM   26  H   UNL     1      -4.669  12.597  66.734  1.00  0.00     0.000 HD 
HETATM   27  O   UNL     1      -5.378  12.926  67.274  1.00  0.00    -0.318 OA 
BRANCH  25  28
HETATM   28  C   UNL     1      -6.125  10.640  67.470  1.00  0.00    -0.052 C  
BRANCH  28  29
HETATM   29  C   UNL     1      -7.191   9.606  67.033  1.00  0.00    -0.087 C  
HETATM   30  O   UNL     1      -6.808   8.968  65.810  1.00  0.00    -0.074 OA 
HETATM   31  H   UNL     1      -7.463   8.334  65.542  1.00  0.00     0.000 HD 
BRANCH  29  32
HETATM   32  C   UNL     1      -7.367   8.480  68.053  1.00  0.00    -0.092 C  
HETATM   33  C   UNL     1      -8.485   7.548  67.680  1.00  0.00    -0.117 C  
HETATM   34  O   UNL     1      -8.801   7.270  66.534  1.00  0.00    -0.129 OA 
HETATM   35  O   UNL     1      -9.116   7.019  68.752  1.00  0.00    -0.135 OA 
ENDBRANCH  29  32
ENDBRANCH  28  29
ENDBRANCH  25  28
ENDBRANCH  24  25
ENDBRANCH   8  23
TORSDOF 8
ENDMDL
MODEL      131
REMARK 921   NORMALIZED FREE ENERGY PREDICTED BY IDOCK:   -4.77 KCAL/MOL
REMARK 922        TOTAL FREE ENERGY PREDICTED BY IDOCK:   -8.54 KCAL/MOL
REMARK 923 INTER-LIGAND FREE ENERGY PREDICTED BY IDOCK:   -7.51 KCAL/MOL
REMARK 924 INTRA-LIGAND FREE ENERGY PREDICTED BY IDOCK:   -1.04 KCAL/MOL
REMARK 927      BINDING AFFINITY PREDICTED BY RF-SCORE:    0.00 PKD
ROOT
HETATM    1  C   UNL     1     -11.964  12.270  64.051  1.00  0.00    -0.551 C  
HETATM    2  C   UNL     1     -10.857  11.388  64.650  1.00  0.00    -0.359 C  
HETATM    3  C   UNL     1      -9.919  10.929  63.529  1.00  0.00    -0.419 C  
HETATM    4  C   UNL     1     -10.066  12.094  65.747  1.00  0.00    -0.247 A  
HETATM    5  N   UNL     1     -10.019  13.444  65.650  1.00  0.00    -0.268 NA 
HETATM    6  C   UNL     1      -9.300  14.083  66.569  1.00  0.00    -0.255 A  
HETATM    7  N   UNL     1      -8.580  13.518  67.534  1.00  0.00    -0.181 NA 
HETATM    8  C   UNL     1      -9.384  11.385  66.754  1.00  0.00    -0.192 A  
HETATM    9  C   UNL     1      -8.581  12.160  67.605  1.00  0.00    -0.166 A  
ENDROOT
BRANCH   6  10
HETATM   10  N   UNL     1      -9.488  15.475  66.641  1.00  0.00    -0.242 N  
HETATM   11  C   UNL     1      -8.365  16.288  66.157  1.00  0.00    -0.225 C  
BRANCH  10  12
HETATM   12  S   UNL     1     -10.293  16.008  68.012  1.00  0.00    -0.275 S  
HETATM   13  C   UNL     1     -11.786  15.031  68.074  1.00  0.00    -0.298 C  
HETATM   14  O   UNL     1      -9.491  15.624  69.160  1.00  0.00    -0.219 OA 
HETATM   15  O   UNL     1     -10.689  17.386  67.831  1.00  0.00    -0.383 OA 
ENDBRANCH  10  12
ENDBRANCH   6  10
BRANCH   9  16
HETATM   16  C   UNL     1      -7.649  11.637  68.651  1.00  0.00    -0.133 A  
HETATM   17  F   UNL     1      -5.138  10.118  71.614  1.00  0.00    -0.063 F  
HETATM   18  C   UNL     1      -8.043  10.565  69.485  1.00  0.00    -0.105 A  
HETATM   19  C   UNL     1      -7.207  10.055  70.485  1.00  0.00    -0.048 A  
HETATM   20  C   UNL     1      -5.537  11.685  69.901  1.00  0.00    -0.102 A  
HETATM   21  C   UNL     1      -5.952  10.612  70.672  1.00  0.00    -0.097 A  
HETATM   22  C   UNL     1      -6.386  12.204  68.915  1.00  0.00    -0.083 A  
ENDBRANCH   9  16
BRANCH   8  23
HETATM   23  C   UNL     1      -9.556   9.923  66.854  1.00  0.00    -0.225 C  
HETATM   24  C   UNL     1     -10.539   9.323  67.556  1.00  0.00    -0.329 C  
BRANCH  24  25
HETATM   25  C   UNL     1     -10.876   7.846  67.528  1.00  0.00    -0.082 C  
HETATM   26  H   UNL     1     -10.689   6.346  66.265  1.00  0.00     0.000 HD 
HETATM   27  O   UNL     1     -10.477   7.271  66.282  1.00  0.00     0.083 OA 
BRANCH  25  28
HETATM   28  C   UNL     1     -10.237   7.046  68.673  1.00  0.00    -0.182 C  
BRANCH  28  29
HETATM   29  C   UNL     1     -11.138   6.966  69.929  1.00  0.00    -0.288 C  
HETATM   30  O   UNL     1     -10.847   5.789  70.689  1.00  0.00    -0.275 OA 
HETATM   31  H   UNL     1     -11.400   5.740  71.460  1.00  0.00     0.000 HD 
BRANCH  29  32
HETATM   32  C   UNL     1     -10.920   8.142  70.882  1.00  0.00    -0.266 C  
HETATM   33  C   UNL     1     -12.210   8.652  71.458  1.00  0.00    -0.318 C  
HETATM   34  O   UNL     1     -13.183   7.955  71.701  1.00  0.00    -0.331 OA 
HETATM   35  O   UNL     1     -12.195   9.982  71.703  1.00  0.00    -0.385 OA 
ENDBRANCH  29  32
ENDBRANCH  28  29
ENDBRANCH  25  28
ENDBRANCH  24  25
ENDBRANCH   8  23
TORSDOF 8
ENDMDL
MODEL      132
REMARK 921   NORMALIZED FREE ENERGY PREDICTED BY IDOCK:   -4.75 KCAL/MOL
REMARK 922        TOTAL FREE ENERGY PREDICTED BY IDOCK:   -8.52 KCAL/MOL
REMARK 923 INTER-LIGAND FREE ENERGY PREDICTED BY IDOCK:   -6.83 KCAL/MOL
REMARK 924 INTRA-LIGAND FREE ENERGY PREDICTED BY IDOCK:   -1.69 KCAL/MOL
REMARK 927      BINDING AFFINITY PREDICTED BY RF-SCORE:    0.00 PKD
ROOT
HETATM    1  C   UNL     1      -9.614   5.171  65.902  1.00  0.00    -0.163 C  
HETATM    2  C   UNL     1      -9.639   6.306  66.937  1.00  0.00    -0.173 C  
HETATM    3  C   UNL     1      -8.703   5.950  68.096  1.00  0.00    -0.111 C  
HETATM    4  C   UNL     1      -9.256   7.658  66.343  1.00  0.00    -0.175 A  
HETATM    5  N   UNL     1      -8.438   7.606  65.265  1.00  0.00    -0.116 NA 
HETATM    6  C   UNL     1      -8.052   8.772  64.752  1.00  0.00    -0.151 A  
HETATM    7  N   UNL     1      -8.347   9.976  65.233  1.00  0.00    -0.146 NA 
HETATM    8  C   UNL     1      -9.674   8.875  66.915  1.00  0.00    -0.263 A  
HETATM    9  C   UNL     1      -9.124  10.034  66.348  1.00  0.00    -0.149 A  
ENDROOT
BRANCH   6  10
HETATM   10  N   UNL     1      -7.455   8.719  63.480  1.00  0.00    -0.104 N  
HETATM   11  C   UNL     1      -8.292   8.153  62.415  1.00  0.00    -0.142 C  
BRANCH  10  12
HETATM   12  S   UNL     1      -5.828   8.314  63.481  1.00  0.00    -0.072 S  
HETATM   13  C   UNL     1      -5.791   6.574  63.083  1.00  0.00    -0.030 C  
HETATM   14  O   UNL     1      -5.208   9.012  62.369  1.00  0.00    -0.076 OA 
HETATM   15  O   UNL     1      -5.297   8.459  64.817  1.00  0.00    -0.036 OA 
ENDBRANCH  10  12
ENDBRANCH   6  10
BRANCH   9  16
HETATM   16  C   UNL     1      -9.292  11.428  66.862  1.00  0.00    -0.191 A  
HETATM   17  F   UNL     1      -9.675  15.297  68.371  1.00  0.00    -0.199 F  
HETATM   18  C   UNL     1      -8.330  11.988  67.735  1.00  0.00    -0.156 A  
HETATM   19  C   UNL     1      -8.457  13.283  68.249  1.00  0.00    -0.160 A  
HETATM   20  C   UNL     1     -10.541  13.532  67.073  1.00  0.00    -0.269 A  
HETATM   21  C   UNL     1      -9.556  14.050  67.899  1.00  0.00    -0.221 A  
HETATM   22  C   UNL     1     -10.418  12.227  66.577  1.00  0.00    -0.254 A  
ENDBRANCH   9  16
BRANCH   8  23
HETATM   23  C   UNL     1     -10.640   8.856  68.031  1.00  0.00    -0.226 C  
HETATM   24  C   UNL     1     -10.293   8.791  69.332  1.00  0.00    -0.217 C  
BRANCH  24  25
HETATM   25  C   UNL     1     -11.227   8.969  70.512  1.00  0.00    -0.260 C  
HETATM   26  H   UNL     1     -11.330   8.346  72.378  1.00  0.00     0.000 HD 
HETATM   27  O   UNL     1     -10.744   8.235  71.639  1.00  0.00    -0.230 OA 
BRANCH  25  28
HETATM   28  C   UNL     1     -11.430  10.435  70.922  1.00  0.00    -0.385 C  
BRANCH  28  29
HETATM   29  C   UNL     1     -12.909  10.884  70.841  1.00  0.00    -0.326 C  
HETATM   30  O   UNL     1     -13.779   9.751  70.744  1.00  0.00    -0.546 OA 
HETATM   31  H   UNL     1     -14.687  10.027  70.694  1.00  0.00     0.000 HD 
BRANCH  29  32
HETATM   32  C   UNL     1     -13.359  11.648  72.087  1.00  0.00    -0.310 C  
HETATM   33  C   UNL     1     -13.236  13.135  71.915  1.00  0.00    -0.431 C  
HETATM   34  O   UNL     1     -13.390  13.724  70.857  1.00  0.00    -0.173 OA 
HETATM   35  O   UNL     1     -12.948  13.782  73.068  1.00  0.00    -0.362 OA 
ENDBRANCH  29  32
ENDBRANCH  28  29
ENDBRANCH  25  28
ENDBRANCH  24  25
ENDBRANCH   8  23
TORSDOF 8
ENDMDL
MODEL      133
REMARK 921   NORMALIZED FREE ENERGY PREDICTED BY IDOCK:   -4.75 KCAL/MOL
REMARK 922        TOTAL FREE ENERGY PREDICTED BY IDOCK:   -8.51 KCAL/MOL
REMARK 923 INTER-LIGAND FREE ENERGY PREDICTED BY IDOCK:   -7.81 KCAL/MOL
REMARK 924 INTRA-LIGAND FREE ENERGY PREDICTED BY IDOCK:   -0.70 KCAL/MOL
REMARK 927      BINDING AFFINITY PREDICTED BY RF-SCORE:    0.00 PKD
ROOT
HETATM    1  C   UNL     1      -5.965   7.073  66.382  1.00  0.00    -0.035 C  
HETATM    2  C   UNL     1      -7.280   7.867  66.407  1.00  0.00    -0.082 C  
HETATM    3  C   UNL     1      -8.252   7.262  65.389  1.00  0.00    -0.137 C  
HETATM    4  C   UNL     1      -7.920   7.909  67.792  1.00  0.00    -0.124 A  
HETATM    5  N   UNL     1      -7.630   6.859  68.595  1.00  0.00    -0.103 NA 
HETATM    6  C   UNL     1      -8.210   6.847  69.794  1.00  0.00    -0.131 A  
HETATM    7  N   UNL     1      -9.087   7.736  70.249  1.00  0.00    -0.152 NA 
HETATM    8  C   UNL     1      -8.800   8.938  68.180  1.00  0.00    -0.134 A  
HETATM    9  C   UNL     1      -9.424   8.765  69.425  1.00  0.00    -0.161 A  
ENDROOT
BRANCH   6  10
HETATM   10  N   UNL     1      -7.688   5.929  70.722  1.00  0.00    -0.095 N  
HETATM   11  C   UNL     1      -6.255   6.069  71.009  1.00  0.00    -0.039 C  
BRANCH  10  12
HETATM   12  S   UNL     1      -8.302   4.374  70.597  1.00  0.00    -0.075 S  
HETATM   13  C   UNL     1      -9.870   4.567  69.765  1.00  0.00    -0.225 C  
HETATM   14  O   UNL     1      -7.435   3.638  69.694  1.00  0.00    -0.051 OA 
HETATM   15  O   UNL     1      -8.579   3.859  71.918  1.00  0.00    -0.095 OA 
ENDBRANCH  10  12
ENDBRANCH   6  10
BRANCH   9  16
HETATM   16  C   UNL     1     -10.501   9.632  69.995  1.00  0.00    -0.301 A  
HETATM   17  F   UNL     1     -13.547  11.957  71.640  1.00  0.00    -0.366 F  
HETATM   18  C   UNL     1     -11.332   9.148  71.032  1.00  0.00    -0.377 A  
HETATM   19  C   UNL     1     -12.360   9.922  71.584  1.00  0.00    -0.496 A  
HETATM   20  C   UNL     1     -11.811  11.707  70.067  1.00  0.00    -0.435 A  
HETATM   21  C   UNL     1     -12.578  11.203  71.105  1.00  0.00    -0.409 A  
HETATM   22  C   UNL     1     -10.796  10.920  69.506  1.00  0.00    -0.286 A  
ENDBRANCH   9  16
BRANCH   8  23
HETATM   23  C   UNL     1      -8.997  10.097  67.289  1.00  0.00    -0.144 C  
HETATM   24  C   UNL     1      -9.761  10.078  66.178  1.00  0.00    -0.286 C  
BRANCH  24  25
HETATM   25  C   UNL     1     -10.152  11.283  65.347  1.00  0.00    -0.264 C  
HETATM   26  H   UNL     1     -11.110  11.623  63.660  1.00  0.00     0.000 HD 
HETATM   27  O   UNL     1     -10.865  10.868  64.181  1.00  0.00    -0.305 OA 
BRANCH  25  28
HETATM   28  C   UNL     1     -11.002  12.309  66.112  1.00  0.00    -0.328 C  
BRANCH  28  29
HETATM   29  C   UNL     1     -10.224  13.603  66.452  1.00  0.00    -0.292 C  
HETATM   30  O   UNL     1      -9.085  13.749  65.597  1.00  0.00    -0.300 OA 
HETATM   31  H   UNL     1      -8.607  14.544  65.806  1.00  0.00     0.000 HD 
BRANCH  29  32
HETATM   32  C   UNL     1     -11.065  14.864  66.245  1.00  0.00    -0.340 C  
HETATM   33  C   UNL     1     -11.313  15.148  64.791  1.00  0.00    -0.395 C  
HETATM   34  O   UNL     1     -11.435  14.291  63.930  1.00  0.00    -0.087 OA 
HETATM   35  O   UNL     1     -11.406  16.468  64.515  1.00  0.00    -0.763 OA 
ENDBRANCH  29  32
ENDBRANCH  28  29
ENDBRANCH  25  28
ENDBRANCH  24  25
ENDBRANCH   8  23
TORSDOF 8
ENDMDL
MODEL      134
REMARK 921   NORMALIZED FREE ENERGY PREDICTED BY IDOCK:   -4.75 KCAL/MOL
REMARK 922        TOTAL FREE ENERGY PREDICTED BY IDOCK:   -8.51 KCAL/MOL
REMARK 923 INTER-LIGAND FREE ENERGY PREDICTED BY IDOCK:   -6.68 KCAL/MOL
REMARK 924 INTRA-LIGAND FREE ENERGY PREDICTED BY IDOCK:   -1.83 KCAL/MOL
REMARK 927      BINDING AFFINITY PREDICTED BY RF-SCORE:    0.00 PKD
ROOT
HETATM    1  C   UNL     1     -10.967   6.950  66.987  1.00  0.00    -0.404 C  
HETATM    2  C   UNL     1     -10.451   7.893  68.085  1.00  0.00    -0.227 C  
HETATM    3  C   UNL     1      -9.713   7.073  69.147  1.00  0.00    -0.156 C  
HETATM    4  C   UNL     1      -9.546   8.995  67.542  1.00  0.00    -0.144 A  
HETATM    5  N   UNL     1      -8.880   8.689  66.404  1.00  0.00    -0.131 NA 
HETATM    6  C   UNL     1      -8.049   9.616  65.931  1.00  0.00    -0.112 A  
HETATM    7  N   UNL     1      -7.772  10.784  66.502  1.00  0.00    -0.139 NA 
HETATM    8  C   UNL     1      -9.370  10.220  68.214  1.00  0.00    -0.140 A  
HETATM    9  C   UNL     1      -8.397  11.075  67.674  1.00  0.00    -0.117 A  
ENDROOT
BRANCH   6  10
HETATM   10  N   UNL     1      -7.591   9.419  64.616  1.00  0.00    -0.105 N  
HETATM   11  C   UNL     1      -8.637   9.355  63.588  1.00  0.00    -0.208 C  
BRANCH  10  12
HETATM   12  S   UNL     1      -6.298   8.361  64.470  1.00  0.00    -0.066 S  
HETATM   13  C   UNL     1      -5.373   8.559  65.984  1.00  0.00    -0.031 C  
HETATM   14  O   UNL     1      -6.840   7.014  64.483  1.00  0.00    -0.047 OA 
HETATM   15  O   UNL     1      -5.445   8.791  63.387  1.00  0.00    -0.066 OA 
ENDBRANCH  10  12
ENDBRANCH   6  10
BRANCH   9  16
HETATM   16  C   UNL     1      -7.921  12.357  68.279  1.00  0.00    -0.160 A  
HETATM   17  F   UNL     1      -6.657  15.990  69.889  1.00  0.00    -0.190 F  
HETATM   18  C   UNL     1      -8.543  13.581  67.938  1.00  0.00    -0.182 A  
HETATM   19  C   UNL     1      -8.118  14.804  68.470  1.00  0.00    -0.146 A  
HETATM   20  C   UNL     1      -6.396  13.657  69.698  1.00  0.00    -0.110 A  
HETATM   21  C   UNL     1      -7.057  14.827  69.361  1.00  0.00    -0.170 A  
HETATM   22  C   UNL     1      -6.813  12.438  69.146  1.00  0.00    -0.069 A  
ENDBRANCH   9  16
BRANCH   8  23
HETATM   23  C   UNL     1     -10.199  10.522  69.397  1.00  0.00    -0.245 C  
HETATM   24  C   UNL     1     -11.350  11.223  69.357  1.00  0.00    -0.360 C  
BRANCH  24  25
HETATM   25  C   UNL     1     -12.331  11.387  70.500  1.00  0.00    -0.349 C  
HETATM   26  H   UNL     1     -12.669  10.539  72.246  1.00  0.00     0.000 HD 
HETATM   27  O   UNL     1     -12.054  10.436  71.529  1.00  0.00    -0.353 OA 
BRANCH  25  28
HETATM   28  C   UNL     1     -12.333  12.796  71.112  1.00  0.00    -0.247 C  
BRANCH  28  29
HETATM   29  C   UNL     1     -12.818  13.883  70.121  1.00  0.00     0.003 C  
HETATM   30  O   UNL     1     -13.688  14.813  70.774  1.00  0.00    -0.582 OA 
HETATM   31  H   UNL     1     -13.985  15.480  70.165  1.00  0.00     0.000 HD 
BRANCH  29  32
HETATM   32  C   UNL     1     -11.666  14.715  69.556  1.00  0.00    -0.366 C  
HETATM   33  C   UNL     1     -11.290  15.852  70.463  1.00  0.00    -0.390 C  
HETATM   34  O   UNL     1     -11.361  15.818  71.681  1.00  0.00    -0.384 OA 
HETATM   35  O   UNL     1     -10.840  16.939  69.795  1.00  0.00    -0.281 OA 
ENDBRANCH  29  32
ENDBRANCH  28  29
ENDBRANCH  25  28
ENDBRANCH  24  25
ENDBRANCH   8  23
TORSDOF 8
ENDMDL
MODEL      135
REMARK 921   NORMALIZED FREE ENERGY PREDICTED BY IDOCK:   -4.74 KCAL/MOL
REMARK 922        TOTAL FREE ENERGY PREDICTED BY IDOCK:   -8.50 KCAL/MOL
REMARK 923 INTER-LIGAND FREE ENERGY PREDICTED BY IDOCK:   -7.74 KCAL/MOL
REMARK 924 INTRA-LIGAND FREE ENERGY PREDICTED BY IDOCK:   -0.76 KCAL/MOL
REMARK 927      BINDING AFFINITY PREDICTED BY RF-SCORE:    0.00 PKD
ROOT
HETATM    1  C   UNL     1     -10.758  17.658  66.354  1.00  0.00    -0.093 C  
HETATM    2  C   UNL     1     -10.596  16.131  66.301  1.00  0.00    -0.276 C  
HETATM    3  C   UNL     1     -10.893  15.643  64.879  1.00  0.00    -0.438 C  
HETATM    4  C   UNL     1      -9.212  15.666  66.743  1.00  0.00    -0.251 A  
HETATM    5  N   UNL     1      -8.214  16.561  66.555  1.00  0.00    -0.270 NA 
HETATM    6  C   UNL     1      -6.987  16.167  66.891  1.00  0.00    -0.152 A  
HETATM    7  N   UNL     1      -6.647  14.962  67.337  1.00  0.00    -0.300 NA 
HETATM    8  C   UNL     1      -8.982  14.374  67.252  1.00  0.00    -0.221 A  
HETATM    9  C   UNL     1      -7.637  14.040  67.477  1.00  0.00    -0.180 A  
ENDROOT
BRANCH   6  10
HETATM   10  N   UNL     1      -6.014  17.179  66.972  1.00  0.00    -0.157 N  
HETATM   11  C   UNL     1      -5.682  17.626  68.331  1.00  0.00    -0.158 C  
BRANCH  10  12
HETATM   12  S   UNL     1      -6.114  18.350  65.776  1.00  0.00    -0.248 S  
HETATM   13  C   UNL     1      -5.492  19.838  66.542  1.00  0.00    -0.164 C  
HETATM   14  O   UNL     1      -5.167  17.986  64.736  1.00  0.00    -0.039 OA 
HETATM   15  O   UNL     1      -7.501  18.584  65.447  1.00  0.00    -0.484 OA 
ENDBRANCH  10  12
ENDBRANCH   6  10
BRANCH   9  16
HETATM   16  C   UNL     1      -7.121  12.694  67.872  1.00  0.00    -0.113 A  
HETATM   17  F   UNL     1      -5.680   8.908  68.863  1.00  0.00    -0.038 F  
HETATM   18  C   UNL     1      -6.632  11.801  66.890  1.00  0.00    -0.114 A  
HETATM   19  C   UNL     1      -6.153  10.527  67.216  1.00  0.00    -0.054 A  
HETATM   20  C   UNL     1      -6.654  10.945  69.532  1.00  0.00    -0.109 A  
HETATM   21  C   UNL     1      -6.154  10.117  68.540  1.00  0.00    -0.044 A  
HETATM   22  C   UNL     1      -7.151  12.212  69.196  1.00  0.00    -0.015 A  
ENDBRANCH   9  16
BRANCH   8  23
HETATM   23  C   UNL     1     -10.129  13.485  67.517  1.00  0.00    -0.234 C  
HETATM   24  C   UNL     1     -10.663  13.281  68.738  1.00  0.00    -0.253 C  
BRANCH  24  25
HETATM   25  C   UNL     1     -11.953  12.542  69.033  1.00  0.00    -0.233 C  
HETATM   26  H   UNL     1     -13.018  11.109  68.201  1.00  0.00     0.000 HD 
HETATM   27  O   UNL     1     -12.209  11.572  68.016  1.00  0.00    -0.582 OA 
BRANCH  25  28
HETATM   28  C   UNL     1     -11.965  11.845  70.401  1.00  0.00    -0.400 C  
BRANCH  28  29
HETATM   29  C   UNL     1     -12.407  10.364  70.319  1.00  0.00    -0.250 C  
HETATM   30  O   UNL     1     -11.394   9.565  69.700  1.00  0.00    -0.403 OA 
HETATM   31  H   UNL     1     -11.665   8.656  69.649  1.00  0.00     0.000 HD 
BRANCH  29  32
HETATM   32  C   UNL     1     -12.641   9.745  71.698  1.00  0.00    -0.509 C  
HETATM   33  C   UNL     1     -11.484   8.896  72.142  1.00  0.00    -0.317 C  
HETATM   34  O   UNL     1     -10.317   9.114  71.858  1.00  0.00    -0.335 OA 
HETATM   35  O   UNL     1     -11.856   7.851  72.915  1.00  0.00    -0.307 OA 
ENDBRANCH  29  32
ENDBRANCH  28  29
ENDBRANCH  25  28
ENDBRANCH  24  25
ENDBRANCH   8  23
TORSDOF 8
ENDMDL
MODEL      136
REMARK 921   NORMALIZED FREE ENERGY PREDICTED BY IDOCK:   -4.70 KCAL/MOL
REMARK 922        TOTAL FREE ENERGY PREDICTED BY IDOCK:   -8.44 KCAL/MOL
REMARK 923 INTER-LIGAND FREE ENERGY PREDICTED BY IDOCK:   -7.54 KCAL/MOL
REMARK 924 INTRA-LIGAND FREE ENERGY PREDICTED BY IDOCK:   -0.89 KCAL/MOL
REMARK 927      BINDING AFFINITY PREDICTED BY RF-SCORE:    0.00 PKD
ROOT
HETATM    1  C   UNL     1      -5.665   8.263  67.199  1.00  0.00    -0.038 C  
HETATM    2  C   UNL     1      -7.136   8.673  67.371  1.00  0.00    -0.080 C  
HETATM    3  C   UNL     1      -7.894   8.383  66.072  1.00  0.00    -0.098 C  
HETATM    4  C   UNL     1      -7.812   7.975  68.547  1.00  0.00    -0.115 A  
HETATM    5  N   UNL     1      -7.298   6.766  68.876  1.00  0.00    -0.091 NA 
HETATM    6  C   UNL     1      -7.896   6.114  69.870  1.00  0.00    -0.109 A  
HETATM    7  N   UNL     1      -8.981   6.512  70.527  1.00  0.00    -0.151 NA 
HETATM    8  C   UNL     1      -8.931   8.523  69.202  1.00  0.00    -0.146 A  
HETATM    9  C   UNL     1      -9.534   7.701  70.166  1.00  0.00    -0.161 A  
ENDROOT
BRANCH   6  10
HETATM   10  N   UNL     1      -7.194   5.015  70.397  1.00  0.00    -0.053 N  
HETATM   11  C   UNL     1      -7.759   3.697  70.080  1.00  0.00    -0.047 C  
BRANCH  10  12
HETATM   12  S   UNL     1      -6.583   5.242  71.941  1.00  0.00    -0.045 S  
HETATM   13  C   UNL     1      -6.208   6.985  72.032  1.00  0.00    -0.041 C  
HETATM   14  O   UNL     1      -7.669   4.997  72.875  1.00  0.00    -0.094 OA 
HETATM   15  O   UNL     1      -5.336   4.527  72.074  1.00  0.00    -0.003 OA 
ENDBRANCH  10  12
ENDBRANCH   6  10
BRANCH   9  16
HETATM   16  C   UNL     1     -10.810   7.987  70.891  1.00  0.00    -0.248 A  
HETATM   17  F   UNL     1     -14.321   8.882  72.956  1.00  0.00    -0.389 F  
HETATM   18  C   UNL     1     -11.020   9.249  71.494  1.00  0.00    -0.446 A  
HETATM   19  C   UNL     1     -12.194   9.552  72.194  1.00  0.00    -0.282 A  
HETATM   20  C   UNL     1     -13.011   7.332  71.759  1.00  0.00    -0.368 A  
HETATM   21  C   UNL     1     -13.187   8.593  72.305  1.00  0.00    -0.372 A  
HETATM   22  C   UNL     1     -11.826   7.028  71.077  1.00  0.00    -0.395 A  
ENDBRANCH   9  16
BRANCH   8  23
HETATM   23  C   UNL     1      -9.379   9.885  68.853  1.00  0.00    -0.170 C  
HETATM   24  C   UNL     1     -10.578  10.172  68.306  1.00  0.00    -0.262 C  
BRANCH  24  25
HETATM   25  C   UNL     1     -11.160  11.558  68.116  1.00  0.00    -0.246 C  
HETATM   26  H   UNL     1     -11.848  13.004  69.262  1.00  0.00     0.000 HD 
HETATM   27  O   UNL     1     -11.483  12.135  69.382  1.00  0.00    -0.275 OA 
BRANCH  25  28
HETATM   28  C   UNL     1     -10.233  12.516  67.353  1.00  0.00    -0.217 C  
BRANCH  28  29
HETATM   29  C   UNL     1     -10.649  12.708  65.875  1.00  0.00    -0.273 C  
HETATM   30  O   UNL     1     -11.023  11.458  65.286  1.00  0.00    -0.262 OA 
HETATM   31  H   UNL     1     -11.278  11.576  64.378  1.00  0.00     0.000 HD 
BRANCH  29  32
HETATM   32  C   UNL     1     -11.867  13.620  65.723  1.00  0.00    -0.397 C  
HETATM   33  C   UNL     1     -12.154  13.947  64.285  1.00  0.00    -0.440 C  
HETATM   34  O   UNL     1     -11.947  13.191  63.349  1.00  0.00    -0.538 OA 
HETATM   35  O   UNL     1     -12.691  15.177  64.116  1.00  0.00    -0.694 OA 
ENDBRANCH  29  32
ENDBRANCH  28  29
ENDBRANCH  25  28
ENDBRANCH  24  25
ENDBRANCH   8  23
TORSDOF 8
ENDMDL
MODEL      137
REMARK 921   NORMALIZED FREE ENERGY PREDICTED BY IDOCK:   -4.68 KCAL/MOL
REMARK 922        TOTAL FREE ENERGY PREDICTED BY IDOCK:   -8.41 KCAL/MOL
REMARK 923 INTER-LIGAND FREE ENERGY PREDICTED BY IDOCK:   -7.21 KCAL/MOL
REMARK 924 INTRA-LIGAND FREE ENERGY PREDICTED BY IDOCK:   -1.20 KCAL/MOL
REMARK 927      BINDING AFFINITY PREDICTED BY RF-SCORE:    0.00 PKD
ROOT
HETATM    1  C   UNL     1      -8.943   5.237  68.493  1.00  0.00    -0.118 C  
HETATM    2  C   UNL     1      -9.413   6.425  67.639  1.00  0.00    -0.120 C  
HETATM    3  C   UNL     1     -10.386   5.922  66.569  1.00  0.00    -0.237 C  
HETATM    4  C   UNL     1     -10.061   7.530  68.469  1.00  0.00    -0.184 A  
HETATM    5  N   UNL     1     -10.641   7.123  69.622  1.00  0.00    -0.229 NA 
HETATM    6  C   UNL     1     -11.253   8.059  70.345  1.00  0.00    -0.229 A  
HETATM    7  N   UNL     1     -11.395   9.338  70.012  1.00  0.00    -0.172 NA 
HETATM    8  C   UNL     1     -10.106   8.868  68.032  1.00  0.00    -0.239 A  
HETATM    9  C   UNL     1     -10.861   9.742  68.828  1.00  0.00    -0.188 A  
ENDROOT
BRANCH   6  10
HETATM   10  N   UNL     1     -11.592   7.698  71.661  1.00  0.00    -0.259 N  
HETATM   11  C   UNL     1     -12.596   8.551  72.309  1.00  0.00    -0.381 C  
BRANCH  10  12
HETATM   12  S   UNL     1     -10.309   7.166  72.600  1.00  0.00    -0.235 S  
HETATM   13  C   UNL     1      -9.045   8.410  72.393  1.00  0.00    -0.256 C  
HETATM   14  O   UNL     1     -10.735   7.227  73.988  1.00  0.00    -0.288 OA 
HETATM   15  O   UNL     1      -9.792   5.933  72.053  1.00  0.00    -0.157 OA 
ENDBRANCH  10  12
ENDBRANCH   6  10
BRANCH   9  16
HETATM   16  C   UNL     1     -11.184  11.166  68.506  1.00  0.00    -0.318 A  
HETATM   17  F   UNL     1     -12.101  15.158  67.721  1.00  0.00    -0.332 F  
HETATM   18  C   UNL     1     -11.288  12.125  69.540  1.00  0.00    -0.277 A  
HETATM   19  C   UNL     1     -11.602  13.465  69.283  1.00  0.00    -0.365 A  
HETATM   20  C   UNL     1     -11.761  12.963  66.935  1.00  0.00    -0.445 A  
HETATM   21  C   UNL     1     -11.819  13.874  67.977  1.00  0.00    -0.375 A  
HETATM   22  C   UNL     1     -11.466  11.619  67.202  1.00  0.00    -0.344 A  
ENDBRANCH   9  16
BRANCH   8  23
HETATM   23  C   UNL     1      -9.372   9.255  66.812  1.00  0.00    -0.202 C  
HETATM   24  C   UNL     1      -9.936   9.369  65.592  1.00  0.00    -0.210 C  
BRANCH  24  25
HETATM   25  C   UNL     1      -9.278   9.952  64.358  1.00  0.00    -0.264 C  
HETATM   26  H   UNL     1      -9.341  11.643  63.351  1.00  0.00     0.000 HD 
HETATM   27  O   UNL     1      -9.753  11.278  64.125  1.00  0.00    -0.238 OA 
BRANCH  25  28
HETATM   28  C   UNL     1      -7.744   9.978  64.433  1.00  0.00    -0.145 C  
BRANCH  28  29
HETATM   29  C   UNL     1      -7.079   8.886  63.561  1.00  0.00    -0.089 C  
HETATM   30  O   UNL     1      -5.663   8.863  63.768  1.00  0.00    -0.069 OA 
HETATM   31  H   UNL     1      -5.254   8.193  63.232  1.00  0.00     0.000 HD 
BRANCH  29  32
HETATM   32  C   UNL     1      -7.573   7.480  63.904  1.00  0.00    -0.114 C  
HETATM   33  C   UNL     1      -6.818   6.880  65.057  1.00  0.00    -0.051 C  
HETATM   34  O   UNL     1      -6.363   7.518  65.993  1.00  0.00    -0.041 OA 
HETATM   35  O   UNL     1      -6.697   5.536  64.971  1.00  0.00    -0.042 OA 
ENDBRANCH  29  32
ENDBRANCH  28  29
ENDBRANCH  25  28
ENDBRANCH  24  25
ENDBRANCH   8  23
TORSDOF 8
ENDMDL
MODEL      138
REMARK 921   NORMALIZED FREE ENERGY PREDICTED BY IDOCK:   -4.67 KCAL/MOL
REMARK 922        TOTAL FREE ENERGY PREDICTED BY IDOCK:   -8.39 KCAL/MOL
REMARK 923 INTER-LIGAND FREE ENERGY PREDICTED BY IDOCK:   -6.90 KCAL/MOL
REMARK 924 INTRA-LIGAND FREE ENERGY PREDICTED BY IDOCK:   -1.49 KCAL/MOL
REMARK 927      BINDING AFFINITY PREDICTED BY RF-SCORE:    0.00 PKD
ROOT
HETATM    1  C   UNL     1     -11.538  12.917  69.309  1.00  0.00    -0.368 C  
HETATM    2  C   UNL     1     -11.367  11.918  68.154  1.00  0.00    -0.350 C  
HETATM    3  C   UNL     1     -12.257  12.346  66.983  1.00  0.00     0.158 C  
HETATM    4  C   UNL     1      -9.918  11.783  67.697  1.00  0.00    -0.194 A  
HETATM    5  N   UNL     1      -9.142  12.873  67.903  1.00  0.00    -0.192 NA 
HETATM    6  C   UNL     1      -7.884  12.800  67.475  1.00  0.00    -0.171 A  
HETATM    7  N   UNL     1      -7.339  11.782  66.814  1.00  0.00    -0.099 NA 
HETATM    8  C   UNL     1      -9.440  10.627  67.050  1.00  0.00    -0.187 A  
HETATM    9  C   UNL     1      -8.129  10.705  66.556  1.00  0.00    -0.140 A  
ENDROOT
BRANCH   6  10
HETATM   10  N   UNL     1      -7.013  13.799  67.944  1.00  0.00    -0.136 N  
HETATM   11  C   UNL     1      -6.552  13.633  69.328  1.00  0.00    -0.110 C  
BRANCH  10  12
HETATM   12  S   UNL     1      -7.383  15.353  67.434  1.00  0.00    -0.211 S  
HETATM   13  C   UNL     1      -7.862  16.218  68.921  1.00  0.00    -0.224 C  
HETATM   14  O   UNL     1      -6.148  15.962  66.974  1.00  0.00    -0.328 OA 
HETATM   15  O   UNL     1      -8.540  15.313  66.570  1.00  0.00    -0.276 OA 
ENDBRANCH  10  12
ENDBRANCH   6  10
BRANCH   9  16
HETATM   16  C   UNL     1      -7.445   9.678  65.712  1.00  0.00    -0.100 A  
HETATM   17  F   UNL     1      -5.472   6.788  63.444  1.00  0.00    -0.027 F  
HETATM   18  C   UNL     1      -6.569   8.737  66.301  1.00  0.00    -0.066 A  
HETATM   19  C   UNL     1      -5.899   7.769  65.544  1.00  0.00    -0.038 A  
HETATM   20  C   UNL     1      -6.916   8.646  63.548  1.00  0.00    -0.089 A  
HETATM   21  C   UNL     1      -6.093   7.723  64.173  1.00  0.00    -0.053 A  
HETATM   22  C   UNL     1      -7.569   9.625  64.309  1.00  0.00    -0.128 A  
ENDBRANCH   9  16
BRANCH   8  23
HETATM   23  C   UNL     1     -10.315   9.443  66.943  1.00  0.00    -0.308 C  
HETATM   24  C   UNL     1     -10.061   8.258  67.534  1.00  0.00    -0.287 C  
BRANCH  24  25
HETATM   25  C   UNL     1     -11.016   7.085  67.619  1.00  0.00    -0.189 C  
HETATM   26  H   UNL     1     -11.376   5.439  66.599  1.00  0.00     0.000 HD 
HETATM   27  O   UNL     1     -10.777   6.175  66.545  1.00  0.00    -0.228 OA 
BRANCH  25  28
HETATM   28  C   UNL     1     -10.933   6.319  68.949  1.00  0.00    -0.435 C  
BRANCH  28  29
HETATM   29  C   UNL     1     -11.368   7.174  70.164  1.00  0.00    -0.241 C  
HETATM   30  O   UNL     1     -12.765   7.007  70.428  1.00  0.00    -0.595 OA 
HETATM   31  H   UNL     1     -13.031   7.532  71.174  1.00  0.00     0.000 HD 
BRANCH  29  32
HETATM   32  C   UNL     1     -10.649   6.769  71.451  1.00  0.00    -0.247 C  
HETATM   33  C   UNL     1     -10.958   7.700  72.590  1.00  0.00    -0.351 C  
HETATM   34  O   UNL     1     -12.024   8.274  72.744  1.00  0.00    -0.377 OA 
HETATM   35  O   UNL     1      -9.930   7.838  73.458  1.00  0.00    -0.317 OA 
ENDBRANCH  29  32
ENDBRANCH  28  29
ENDBRANCH  25  28
ENDBRANCH  24  25
ENDBRANCH   8  23
TORSDOF 8
ENDMDL
MODEL      139
REMARK 921   NORMALIZED FREE ENERGY PREDICTED BY IDOCK:   -4.65 KCAL/MOL
REMARK 922        TOTAL FREE ENERGY PREDICTED BY IDOCK:   -8.37 KCAL/MOL
REMARK 923 INTER-LIGAND FREE ENERGY PREDICTED BY IDOCK:   -6.81 KCAL/MOL
REMARK 924 INTRA-LIGAND FREE ENERGY PREDICTED BY IDOCK:   -1.55 KCAL/MOL
REMARK 927      BINDING AFFINITY PREDICTED BY RF-SCORE:    0.00 PKD
ROOT
HETATM    1  C   UNL     1     -10.769   5.299  66.196  1.00  0.00    -0.211 C  
HETATM    2  C   UNL     1     -10.626   6.482  67.167  1.00  0.00    -0.398 C  
HETATM    3  C   UNL     1     -10.641   5.956  68.605  1.00  0.00    -0.323 C  
HETATM    4  C   UNL     1      -9.366   7.305  66.916  1.00  0.00    -0.156 A  
HETATM    5  N   UNL     1      -8.335   6.630  66.356  1.00  0.00    -0.116 NA 
HETATM    6  C   UNL     1      -7.208   7.312  66.166  1.00  0.00    -0.074 A  
HETATM    7  N   UNL     1      -6.984   8.572  66.526  1.00  0.00    -0.074 NA 
HETATM    8  C   UNL     1      -9.265   8.656  67.298  1.00  0.00    -0.167 A  
HETATM    9  C   UNL     1      -7.999   9.240  67.138  1.00  0.00    -0.106 A  
ENDROOT
BRANCH   6  10
HETATM   10  N   UNL     1      -6.253   6.705  65.331  1.00  0.00    -0.037 N  
HETATM   11  C   UNL     1      -5.133   7.564  64.926  1.00  0.00    -0.029 C  
BRANCH  10  12
HETATM   12  S   UNL     1      -6.884   5.665  64.177  1.00  0.00    -0.051 S  
HETATM   13  C   UNL     1      -5.504   5.271  63.115  1.00  0.00    -0.013 C  
HETATM   14  O   UNL     1      -7.253   4.436  64.859  1.00  0.00    -0.067 OA 
HETATM   15  O   UNL     1      -7.856   6.370  63.375  1.00  0.00    -0.104 OA 
ENDBRANCH  10  12
ENDBRANCH   6  10
BRANCH   9  16
HETATM   16  C   UNL     1      -7.596  10.604  67.600  1.00  0.00    -0.092 A  
HETATM   17  F   UNL     1      -6.499  14.449  68.785  1.00  0.00    -0.079 F  
HETATM   18  C   UNL     1      -7.924  11.744  66.830  1.00  0.00    -0.149 A  
HETATM   19  C   UNL     1      -7.553  13.036  67.220  1.00  0.00    -0.097 A  
HETATM   20  C   UNL     1      -6.468  12.124  69.164  1.00  0.00    -0.099 A  
HETATM   21  C   UNL     1      -6.841  13.214  68.395  1.00  0.00    -0.098 A  
HETATM   22  C   UNL     1      -6.825  10.831  68.758  1.00  0.00    -0.067 A  
ENDBRANCH   9  16
BRANCH   8  23
HETATM   23  C   UNL     1     -10.458   9.353  67.816  1.00  0.00    -0.310 C  
HETATM   24  C   UNL     1     -10.444  10.202  68.864  1.00  0.00    -0.230 C  
BRANCH  24  25
HETATM   25  C   UNL     1     -11.591  11.088  69.306  1.00  0.00    -0.314 C  
HETATM   26  H   UNL     1     -12.587  11.438  70.969  1.00  0.00     0.000 HD 
HETATM   27  O   UNL     1     -11.868  10.882  70.692  1.00  0.00    -0.327 OA 
BRANCH  25  28
HETATM   28  C   UNL     1     -11.342  12.584  69.064  1.00  0.00    -0.342 C  
BRANCH  28  29
HETATM   29  C   UNL     1     -12.203  13.161  67.914  1.00  0.00    -0.057 C  
HETATM   30  O   UNL     1     -12.360  14.576  68.058  1.00  0.00    -0.606 OA 
HETATM   31  H   UNL     1     -12.889  14.930  67.352  1.00  0.00     0.000 HD 
BRANCH  29  32
HETATM   32  C   UNL     1     -11.563  12.950  66.542  1.00  0.00    -0.425 C  
HETATM   33  C   UNL     1     -12.535  13.190  65.421  1.00  0.00    -0.481 C  
HETATM   34  O   UNL     1     -13.443  14.005  65.455  1.00  0.00    -0.679 OA 
HETATM   35  O   UNL     1     -12.299  12.415  64.338  1.00  0.00    -0.437 OA 
ENDBRANCH  29  32
ENDBRANCH  28  29
ENDBRANCH  25  28
ENDBRANCH  24  25
ENDBRANCH   8  23
TORSDOF 8
ENDMDL
MODEL      140
REMARK 921   NORMALIZED FREE ENERGY PREDICTED BY IDOCK:   -4.62 KCAL/MOL
REMARK 922        TOTAL FREE ENERGY PREDICTED BY IDOCK:   -8.33 KCAL/MOL
REMARK 923 INTER-LIGAND FREE ENERGY PREDICTED BY IDOCK:   -7.74 KCAL/MOL
REMARK 924 INTRA-LIGAND FREE ENERGY PREDICTED BY IDOCK:   -0.58 KCAL/MOL
REMARK 927      BINDING AFFINITY PREDICTED BY RF-SCORE:    0.00 PKD
ROOT
HETATM    1  C   UNL     1     -13.171   6.824  71.434  1.00  0.00    -0.177 C  
HETATM    2  C   UNL     1     -12.171   7.988  71.337  1.00  0.00    -0.335 C  
HETATM    3  C   UNL     1     -11.584   8.263  72.724  1.00  0.00    -0.326 C  
HETATM    4  C   UNL     1     -11.055   7.727  70.330  1.00  0.00    -0.234 A  
HETATM    5  N   UNL     1     -10.753   6.424  70.125  1.00  0.00    -0.247 NA 
HETATM    6  C   UNL     1      -9.753   6.168  69.284  1.00  0.00    -0.137 A  
HETATM    7  N   UNL     1      -8.990   7.071  68.676  1.00  0.00    -0.131 NA 
HETATM    8  C   UNL     1     -10.349   8.774  69.706  1.00  0.00    -0.214 A  
HETATM    9  C   UNL     1      -9.254   8.383  68.919  1.00  0.00    -0.147 A  
ENDROOT
BRANCH   6  10
HETATM   10  N   UNL     1      -9.635   4.835  68.853  1.00  0.00    -0.150 N  
HETATM   11  C   UNL     1      -8.833   3.961  69.720  1.00  0.00    -0.087 C  
BRANCH  10  12
HETATM   12  S   UNL     1      -9.469   4.641  67.196  1.00  0.00    -0.166 S  
HETATM   13  C   UNL     1     -10.847   5.532  66.492  1.00  0.00    -0.163 C  
HETATM   14  O   UNL     1      -8.265   5.347  66.797  1.00  0.00    -0.108 OA 
HETATM   15  O   UNL     1      -9.641   3.247  66.856  1.00  0.00    -0.161 OA 
ENDBRANCH  10  12
ENDBRANCH   6  10
BRANCH   9  16
HETATM   16  C   UNL     1      -8.263   9.300  68.276  1.00  0.00    -0.115 A  
HETATM   17  F   UNL     1      -5.511  11.797  66.383  1.00  0.00    -0.141 F  
HETATM   18  C   UNL     1      -8.080   9.281  66.874  1.00  0.00    -0.108 A  
HETATM   19  C   UNL     1      -7.153  10.112  66.234  1.00  0.00    -0.110 A  
HETATM   20  C   UNL     1      -6.508  11.014  68.369  1.00  0.00    -0.057 A  
HETATM   21  C   UNL     1      -6.386  10.985  66.989  1.00  0.00    -0.088 A  
HETATM   22  C   UNL     1      -7.423  10.165  69.006  1.00  0.00    -0.091 A  
ENDBRANCH   9  16
BRANCH   8  23
HETATM   23  C   UNL     1     -10.794  10.167  69.904  1.00  0.00    -0.347 C  
HETATM   24  C   UNL     1     -11.238  10.968  68.915  1.00  0.00    -0.326 C  
BRANCH  24  25
HETATM   25  C   UNL     1     -11.888  12.325  69.095  1.00  0.00    -0.301 C  
HETATM   26  H   UNL     1     -12.513  13.439  70.594  1.00  0.00     0.000 HD 
HETATM   27  O   UNL     1     -12.105  12.589  70.482  1.00  0.00    -0.365 OA 
BRANCH  25  28
HETATM   28  C   UNL     1     -11.079  13.481  68.488  1.00  0.00    -0.300 C  
BRANCH  28  29
HETATM   29  C   UNL     1     -11.891  14.313  67.465  1.00  0.00    -0.395 C  
HETATM   30  O   UNL     1     -11.088  15.362  66.915  1.00  0.00    -0.316 OA 
HETATM   31  H   UNL     1     -11.586  15.874  66.287  1.00  0.00     0.000 HD 
BRANCH  29  32
HETATM   32  C   UNL     1     -12.361  13.479  66.273  1.00  0.00    -0.440 C  
HETATM   33  C   UNL     1     -11.678  13.879  64.996  1.00  0.00    -0.359 C  
HETATM   34  O   UNL     1     -10.531  14.293  64.926  1.00  0.00    -0.407 OA 
HETATM   35  O   UNL     1     -12.459  13.724  63.903  1.00  0.00    -0.695 OA 
ENDBRANCH  29  32
ENDBRANCH  28  29
ENDBRANCH  25  28
ENDBRANCH  24  25
ENDBRANCH   8  23
TORSDOF 8
ENDMDL
MODEL      141
REMARK 921   NORMALIZED FREE ENERGY PREDICTED BY IDOCK:   -4.61 KCAL/MOL
REMARK 922        TOTAL FREE ENERGY PREDICTED BY IDOCK:   -8.31 KCAL/MOL
REMARK 923 INTER-LIGAND FREE ENERGY PREDICTED BY IDOCK:   -6.81 KCAL/MOL
REMARK 924 INTRA-LIGAND FREE ENERGY PREDICTED BY IDOCK:   -1.50 KCAL/MOL
REMARK 927      BINDING AFFINITY PREDICTED BY RF-SCORE:    0.00 PKD
ROOT
HETATM    1  C   UNL     1      -8.743   8.443  73.120  1.00  0.00    -0.214 C  
HETATM    2  C   UNL     1      -8.217   8.146  71.707  1.00  0.00    -0.165 C  
HETATM    3  C   UNL     1      -6.700   7.944  71.768  1.00  0.00    -0.053 C  
HETATM    4  C   UNL     1      -8.889   6.935  71.067  1.00  0.00    -0.140 A  
HETATM    5  N   UNL     1      -9.355   6.006  71.934  1.00  0.00    -0.151 NA 
HETATM    6  C   UNL     1      -9.907   4.918  71.402  1.00  0.00    -0.186 A  
HETATM    7  N   UNL     1      -9.990   4.634  70.106  1.00  0.00    -0.235 NA 
HETATM    8  C   UNL     1      -8.962   6.769  69.670  1.00  0.00    -0.143 A  
HETATM    9  C   UNL     1      -9.475   5.539  69.231  1.00  0.00    -0.129 A  
ENDROOT
BRANCH   6  10
HETATM   10  N   UNL     1     -10.642   4.106  72.284  1.00  0.00    -0.070 N  
HETATM   11  C   UNL     1     -11.314   4.815  73.381  1.00  0.00    -0.312 C  
BRANCH  10  12
HETATM   12  S   UNL     1      -9.933   2.629  72.640  1.00  0.00    -0.157 S  
HETATM   13  C   UNL     1      -8.180   2.961  72.676  1.00  0.00    -0.070 C  
HETATM   14  O   UNL     1     -10.322   2.278  73.995  1.00  0.00    -0.107 OA 
HETATM   15  O   UNL     1     -10.173   1.707  71.554  1.00  0.00    -0.120 OA 
ENDBRANCH  10  12
ENDBRANCH   6  10
BRANCH   9  16
HETATM   16  C   UNL     1      -9.521   5.062  67.814  1.00  0.00    -0.159 A  
HETATM   17  F   UNL     1      -9.759   3.760  63.860  1.00  0.00    -0.130 F  
HETATM   18  C   UNL     1     -10.638   5.355  66.998  1.00  0.00    -0.298 A  
HETATM   19  C   UNL     1     -10.727   4.915  65.673  1.00  0.00    -0.139 A  
HETATM   20  C   UNL     1      -8.593   3.829  65.905  1.00  0.00    -0.113 A  
HETATM   21  C   UNL     1      -9.692   4.168  65.133  1.00  0.00    -0.197 A  
HETATM   22  C   UNL     1      -8.520   4.255  67.238  1.00  0.00    -0.100 A  
ENDBRANCH   9  16
BRANCH   8  23
HETATM   23  C   UNL     1      -8.518   7.865  68.787  1.00  0.00    -0.128 C  
HETATM   24  C   UNL     1      -9.328   8.837  68.320  1.00  0.00    -0.143 C  
BRANCH  24  25
HETATM   25  C   UNL     1      -8.886  10.084  67.581  1.00  0.00    -0.121 C  
HETATM   26  H   UNL     1      -8.481  10.592  65.721  1.00  0.00     0.000 HD 
HETATM   27  O   UNL     1      -8.758   9.810  66.185  1.00  0.00    -0.132 OA 
BRANCH  25  28
HETATM   28  C   UNL     1      -9.831  11.280  67.770  1.00  0.00    -0.186 C  
BRANCH  28  29
HETATM   29  C   UNL     1     -11.227  11.050  67.141  1.00  0.00    -0.217 C  
HETATM   30  O   UNL     1     -12.263  11.334  68.087  1.00  0.00    -0.626 OA 
HETATM   31  H   UNL     1     -13.120  11.193  67.701  1.00  0.00     0.000 HD 
BRANCH  29  32
HETATM   32  C   UNL     1     -11.490  11.968  65.947  1.00  0.00    -0.392 C  
HETATM   33  C   UNL     1     -12.158  13.251  66.355  1.00  0.00    -0.394 C  
HETATM   34  O   UNL     1     -11.974  13.818  67.420  1.00  0.00    -0.379 OA 
HETATM   35  O   UNL     1     -12.989  13.742  65.408  1.00  0.00    -0.706 OA 
ENDBRANCH  29  32
ENDBRANCH  28  29
ENDBRANCH  25  28
ENDBRANCH  24  25
ENDBRANCH   8  23
TORSDOF 8
ENDMDL
MODEL      142
REMARK 921   NORMALIZED FREE ENERGY PREDICTED BY IDOCK:   -4.60 KCAL/MOL
REMARK 922        TOTAL FREE ENERGY PREDICTED BY IDOCK:   -8.29 KCAL/MOL
REMARK 923 INTER-LIGAND FREE ENERGY PREDICTED BY IDOCK:   -6.11 KCAL/MOL
REMARK 924 INTRA-LIGAND FREE ENERGY PREDICTED BY IDOCK:   -2.18 KCAL/MOL
REMARK 927      BINDING AFFINITY PREDICTED BY RF-SCORE:    0.00 PKD
ROOT
HETATM    1  C   UNL     1      -7.047   9.939  62.993  1.00  0.00    -0.124 C  
HETATM    2  C   UNL     1      -8.083  10.259  64.082  1.00  0.00    -0.138 C  
HETATM    3  C   UNL     1      -9.471  10.356  63.443  1.00  0.00    -0.356 C  
HETATM    4  C   UNL     1      -8.088   9.235  65.213  1.00  0.00    -0.121 A  
HETATM    5  N   UNL     1      -7.681   7.991  64.869  1.00  0.00    -0.110 NA 
HETATM    6  C   UNL     1      -7.717   7.065  65.825  1.00  0.00    -0.103 A  
HETATM    7  N   UNL     1      -8.169   7.235  67.063  1.00  0.00    -0.116 NA 
HETATM    8  C   UNL     1      -8.546   9.549  66.507  1.00  0.00    -0.142 A  
HETATM    9  C   UNL     1      -8.631   8.470  67.400  1.00  0.00    -0.127 A  
ENDROOT
BRANCH   6  10
HETATM   10  N   UNL     1      -7.029   5.869  65.552  1.00  0.00    -0.062 N  
HETATM   11  C   UNL     1      -5.802   6.016  64.759  1.00  0.00    -0.025 C  
BRANCH  10  12
HETATM   12  S   UNL     1      -8.010   4.551  65.219  1.00  0.00    -0.099 S  
HETATM   13  C   UNL     1      -8.030   3.604  66.733  1.00  0.00    -0.091 C  
HETATM   14  O   UNL     1      -9.358   5.054  65.021  1.00  0.00    -0.122 OA 
HETATM   15  O   UNL     1      -7.385   3.730  64.208  1.00  0.00    -0.064 OA 
ENDBRANCH  10  12
ENDBRANCH   6  10
BRANCH   9  16
HETATM   16  C   UNL     1      -9.218   8.511  68.774  1.00  0.00    -0.142 A  
HETATM   17  F   UNL     1     -10.962   8.626  72.561  1.00  0.00    -0.408 F  
HETATM   18  C   UNL     1     -10.600   8.280  68.966  1.00  0.00    -0.167 A  
HETATM   19  C   UNL     1     -11.192   8.324  70.234  1.00  0.00    -0.176 A  
HETATM   20  C   UNL     1      -9.056   8.867  71.198  1.00  0.00    -0.315 A  
HETATM   21  C   UNL     1     -10.408   8.601  71.342  1.00  0.00    -0.261 A  
HETATM   22  C   UNL     1      -8.473   8.841  69.924  1.00  0.00    -0.131 A  
ENDBRANCH   9  16
BRANCH   8  23
HETATM   23  C   UNL     1      -8.886  10.947  66.835  1.00  0.00    -0.145 C  
HETATM   24  C   UNL     1      -8.076  11.784  67.514  1.00  0.00    -0.152 C  
BRANCH  24  25
HETATM   25  C   UNL     1      -8.291  13.272  67.702  1.00  0.00    -0.181 C  
HETATM   26  H   UNL     1      -7.316  14.934  67.290  1.00  0.00     0.000 HD 
HETATM   27  O   UNL     1      -7.182  14.001  67.173  1.00  0.00    -0.065 OA 
BRANCH  25  28
HETATM   28  C   UNL     1      -9.583  13.794  67.056  1.00  0.00    -0.251 C  
BRANCH  28  29
HETATM   29  C   UNL     1     -10.691  14.105  68.092  1.00  0.00    -0.245 C  
HETATM   30  O   UNL     1     -11.669  14.991  67.538  1.00  0.00    -0.343 OA 
HETATM   31  H   UNL     1     -12.349  15.182  68.174  1.00  0.00     0.000 HD 
BRANCH  29  32
HETATM   32  C   UNL     1     -11.459  12.854  68.521  1.00  0.00    -0.345 C  
HETATM   33  C   UNL     1     -12.145  13.037  69.845  1.00  0.00    -0.277 C  
HETATM   34  O   UNL     1     -12.602  14.095  70.247  1.00  0.00    -0.346 OA 
HETATM   35  O   UNL     1     -12.226  11.894  70.564  1.00  0.00    -0.362 OA 
ENDBRANCH  29  32
ENDBRANCH  28  29
ENDBRANCH  25  28
ENDBRANCH  24  25
ENDBRANCH   8  23
TORSDOF 8
ENDMDL
MODEL      143
REMARK 921   NORMALIZED FREE ENERGY PREDICTED BY IDOCK:   -4.59 KCAL/MOL
REMARK 922        TOTAL FREE ENERGY PREDICTED BY IDOCK:   -8.27 KCAL/MOL
REMARK 923 INTER-LIGAND FREE ENERGY PREDICTED BY IDOCK:   -6.69 KCAL/MOL
REMARK 924 INTRA-LIGAND FREE ENERGY PREDICTED BY IDOCK:   -1.58 KCAL/MOL
REMARK 927      BINDING AFFINITY PREDICTED BY RF-SCORE:    0.00 PKD
ROOT
HETATM    1  C   UNL     1      -9.024  12.640  67.760  1.00  0.00    -0.189 C  
HETATM    2  C   UNL     1      -9.841  11.339  67.812  1.00  0.00    -0.186 C  
HETATM    3  C   UNL     1     -11.144  11.533  67.032  1.00  0.00    -0.365 C  
HETATM    4  C   UNL     1      -9.073  10.136  67.272  1.00  0.00    -0.138 A  
HETATM    5  N   UNL     1      -8.123  10.422  66.351  1.00  0.00    -0.124 NA 
HETATM    6  C   UNL     1      -7.467   9.387  65.830  1.00  0.00    -0.099 A  
HETATM    7  N   UNL     1      -7.699   8.103  66.086  1.00  0.00    -0.088 NA 
HETATM    8  C   UNL     1      -9.378   8.817  67.659  1.00  0.00    -0.157 A  
HETATM    9  C   UNL     1      -8.689   7.807  66.970  1.00  0.00    -0.129 A  
ENDROOT
BRANCH   6  10
HETATM   10  N   UNL     1      -6.301   9.697  65.107  1.00  0.00    -0.078 N  
HETATM   11  C   UNL     1      -5.379  10.629  65.769  1.00  0.00    -0.115 C  
BRANCH  10  12
HETATM   12  S   UNL     1      -6.521   9.871  63.454  1.00  0.00    -0.131 S  
HETATM   13  C   UNL     1      -6.105   8.277  62.767  1.00  0.00    -0.082 C  
HETATM   14  O   UNL     1      -7.942  10.069  63.226  1.00  0.00    -0.143 OA 
HETATM   15  O   UNL     1      -5.563  10.823  62.940  1.00  0.00    -0.160 OA 
ENDBRANCH  10  12
ENDBRANCH   6  10
BRANCH   9  16
HETATM   16  C   UNL     1      -8.935   6.337  67.090  1.00  0.00    -0.111 A  
HETATM   17  F   UNL     1      -9.540   2.232  67.507  1.00  0.00    -0.203 F  
HETATM   18  C   UNL     1      -8.398   5.611  68.178  1.00  0.00    -0.099 A  
HETATM   19  C   UNL     1      -8.592   4.232  68.319  1.00  0.00    -0.108 A  
HETATM   20  C   UNL     1      -9.850   4.212  66.268  1.00  0.00    -0.208 A  
HETATM   21  C   UNL     1      -9.333   3.548  67.369  1.00  0.00    -0.206 A  
HETATM   22  C   UNL     1      -9.634   5.589  66.122  1.00  0.00    -0.158 A  
ENDBRANCH   9  16
BRANCH   8  23
HETATM   23  C   UNL     1     -10.360   8.587  68.736  1.00  0.00    -0.233 C  
HETATM   24  C   UNL     1     -10.037   8.423  70.034  1.00  0.00    -0.192 C  
BRANCH  24  25
HETATM   25  C   UNL     1     -11.010   8.384  71.195  1.00  0.00    -0.244 C  
HETATM   26  H   UNL     1     -11.073   9.049  73.048  1.00  0.00     0.000 HD 
HETATM   27  O   UNL     1     -10.463   9.074  72.321  1.00  0.00    -0.269 OA 
BRANCH  25  28
HETATM   28  C   UNL     1     -12.386   8.981  70.866  1.00  0.00    -0.159 C  
BRANCH  28  29
HETATM   29  C   UNL     1     -12.357  10.522  70.724  1.00  0.00    -0.378 C  
HETATM   30  O   UNL     1     -12.895  10.925  69.460  1.00  0.00    -0.474 OA 
HETATM   31  H   UNL     1     -12.876  11.871  69.373  1.00  0.00     0.000 HD 
BRANCH  29  32
HETATM   32  C   UNL     1     -13.208  11.224  71.782  1.00  0.00    -0.480 C  
HETATM   33  C   UNL     1     -13.078  12.719  71.713  1.00  0.00    -0.356 C  
HETATM   34  O   UNL     1     -12.897  13.351  70.684  1.00  0.00    -0.205 OA 
HETATM   35  O   UNL     1     -13.199  13.320  72.919  1.00  0.00    -0.427 OA 
ENDBRANCH  29  32
ENDBRANCH  28  29
ENDBRANCH  25  28
ENDBRANCH  24  25
ENDBRANCH   8  23
TORSDOF 8
ENDMDL
MODEL      144
REMARK 921   NORMALIZED FREE ENERGY PREDICTED BY IDOCK:   -4.57 KCAL/MOL
REMARK 922        TOTAL FREE ENERGY PREDICTED BY IDOCK:   -8.24 KCAL/MOL
REMARK 923 INTER-LIGAND FREE ENERGY PREDICTED BY IDOCK:   -6.59 KCAL/MOL
REMARK 924 INTRA-LIGAND FREE ENERGY PREDICTED BY IDOCK:   -1.65 KCAL/MOL
REMARK 927      BINDING AFFINITY PREDICTED BY RF-SCORE:    0.00 PKD
ROOT
HETATM    1  C   UNL     1      -5.512  16.811  66.882  1.00  0.00    -0.140 C  
HETATM    2  C   UNL     1      -6.130  15.882  67.940  1.00  0.00    -0.151 C  
HETATM    3  C   UNL     1      -5.251  15.894  69.194  1.00  0.00    -0.105 C  
HETATM    4  C   UNL     1      -7.565  16.259  68.294  1.00  0.00    -0.153 A  
HETATM    5  N   UNL     1      -7.878  17.566  68.129  1.00  0.00    -0.235 NA 
HETATM    6  C   UNL     1      -9.111  17.932  68.472  1.00  0.00    -0.285 A  
HETATM    7  N   UNL     1     -10.039  17.149  69.012  1.00  0.00    -0.305 NA 
HETATM    8  C   UNL     1      -8.480  15.323  68.814  1.00  0.00    -0.181 A  
HETATM    9  C   UNL     1      -9.713  15.846  69.230  1.00  0.00    -0.263 A  
ENDROOT
BRANCH   6  10
HETATM   10  N   UNL     1      -9.521  19.203  68.032  1.00  0.00    -0.316 N  
HETATM   11  C   UNL     1     -10.510  19.875  68.885  1.00  0.00    -0.016 C  
BRANCH  10  12
HETATM   12  S   UNL     1      -9.706  19.351  66.372  1.00  0.00    -0.408 S  
HETATM   13  C   UNL     1      -8.154  20.021  65.799  1.00  0.00    -0.109 C  
HETATM   14  O   UNL     1      -9.810  18.008  65.829  1.00  0.00    -0.539 OA 
HETATM   15  O   UNL     1     -10.728  20.331  66.088  1.00  0.00    -0.267 OA 
ENDBRANCH  10  12
ENDBRANCH   6  10
BRANCH   9  16
HETATM   16  C   UNL     1     -10.790  15.094  69.945  1.00  0.00    -0.287 A  
HETATM   17  F   UNL     1     -13.846  12.980  71.838  1.00  0.00    -0.461 F  
HETATM   18  C   UNL     1     -11.735  14.336  69.216  1.00  0.00    -0.363 A  
HETATM   19  C   UNL     1     -12.767  13.630  69.845  1.00  0.00     0.041 A  
HETATM   20  C   UNL     1     -11.991  14.425  71.979  1.00  0.00    -0.104 A  
HETATM   21  C   UNL     1     -12.874  13.668  71.226  1.00  0.00    -0.344 A  
HETATM   22  C   UNL     1     -10.972  15.146  71.341  1.00  0.00    -0.119 A  
ENDBRANCH   9  16
BRANCH   8  23
HETATM   23  C   UNL     1      -8.100  13.899  68.878  1.00  0.00     0.033 C  
HETATM   24  C   UNL     1      -8.198  13.041  67.842  1.00  0.00    -0.166 C  
BRANCH  24  25
HETATM   25  C   UNL     1      -7.640  11.633  67.798  1.00  0.00    -0.121 C  
HETATM   26  H   UNL     1      -6.063  10.728  67.041  1.00  0.00     0.000 HD 
HETATM   27  O   UNL     1      -6.412  11.611  67.069  1.00  0.00    -0.124 OA 
BRANCH  25  28
HETATM   28  C   UNL     1      -7.407  11.018  69.186  1.00  0.00    -0.121 C  
BRANCH  28  29
HETATM   29  C   UNL     1      -7.519   9.475  69.189  1.00  0.00    -0.074 C  
HETATM   30  O   UNL     1      -6.446   8.887  68.444  1.00  0.00    -0.054 OA 
HETATM   31  H   UNL     1      -6.515   7.939  68.445  1.00  0.00     0.000 HD 
BRANCH  29  32
HETATM   32  C   UNL     1      -7.423   8.882  70.595  1.00  0.00    -0.091 C  
HETATM   33  C   UNL     1      -8.776   8.620  71.193  1.00  0.00    -0.197 C  
HETATM   34  O   UNL     1      -9.763   8.292  70.554  1.00  0.00    -0.169 OA 
HETATM   35  O   UNL     1      -8.801   8.768  72.537  1.00  0.00    -0.402 OA 
ENDBRANCH  29  32
ENDBRANCH  28  29
ENDBRANCH  25  28
ENDBRANCH  24  25
ENDBRANCH   8  23
TORSDOF 8
ENDMDL
MODEL      145
REMARK 921   NORMALIZED FREE ENERGY PREDICTED BY IDOCK:   -4.56 KCAL/MOL
REMARK 922        TOTAL FREE ENERGY PREDICTED BY IDOCK:   -8.23 KCAL/MOL
REMARK 923 INTER-LIGAND FREE ENERGY PREDICTED BY IDOCK:   -7.15 KCAL/MOL
REMARK 924 INTRA-LIGAND FREE ENERGY PREDICTED BY IDOCK:   -1.08 KCAL/MOL
REMARK 927      BINDING AFFINITY PREDICTED BY RF-SCORE:    0.00 PKD
ROOT
HETATM    1  C   UNL     1     -10.562   7.867  68.971  1.00  0.00    -0.177 C  
HETATM    2  C   UNL     1     -10.521   9.401  68.892  1.00  0.00    -0.236 C  
HETATM    3  C   UNL     1     -11.580   9.982  69.833  1.00  0.00    -0.237 C  
HETATM    4  C   UNL     1      -9.146   9.974  69.222  1.00  0.00    -0.200 A  
HETATM    5  N   UNL     1      -8.387   9.217  70.049  1.00  0.00    -0.149 NA 
HETATM    6  C   UNL     1      -7.199   9.713  70.390  1.00  0.00    -0.142 A  
HETATM    7  N   UNL     1      -6.717  10.902  70.041  1.00  0.00    -0.153 NA 
HETATM    8  C   UNL     1      -8.724  11.231  68.749  1.00  0.00    -0.105 A  
HETATM    9  C   UNL     1      -7.498  11.690  69.254  1.00  0.00     0.075 A  
ENDROOT
BRANCH   6  10
HETATM   10  N   UNL     1      -6.307   8.813  70.998  1.00  0.00    -0.047 N  
HETATM   11  C   UNL     1      -5.626   7.887  70.084  1.00  0.00    -0.023 C  
BRANCH  10  12
HETATM   12  S   UNL     1      -6.815   8.205  72.475  1.00  0.00    -0.090 S  
HETATM   13  C   UNL     1      -5.620   8.812  73.655  1.00  0.00    -0.108 C  
HETATM   14  O   UNL     1      -8.080   8.843  72.793  1.00  0.00    -0.380 OA 
HETATM   15  O   UNL     1      -6.711   6.764  72.463  1.00  0.00    -0.062 OA 
ENDBRANCH  10  12
ENDBRANCH   6  10
BRANCH   9  16
HETATM   16  C   UNL     1      -6.904  13.043  69.024  1.00  0.00    -0.081 A  
HETATM   17  F   UNL     1      -5.337  16.864  68.442  1.00  0.00    -0.114 F  
HETATM   18  C   UNL     1      -7.396  14.167  69.728  1.00  0.00     0.252 A  
HETATM   19  C   UNL     1      -6.879  15.453  69.532  1.00  0.00    -0.181 A  
HETATM   20  C   UNL     1      -5.360  14.575  67.885  1.00  0.00    -0.082 A  
HETATM   21  C   UNL     1      -5.851  15.641  68.622  1.00  0.00    -0.101 A  
HETATM   22  C   UNL     1      -5.897  13.294  68.072  1.00  0.00    -0.120 A  
ENDBRANCH   9  16
BRANCH   8  23
HETATM   23  C   UNL     1      -9.563  11.958  67.777  1.00  0.00    -0.190 C  
HETATM   24  C   UNL     1      -9.456  11.830  66.439  1.00  0.00    -0.234 C  
BRANCH  24  25
HETATM   25  C   UNL     1     -10.417  12.395  65.412  1.00  0.00    -0.277 C  
HETATM   26  H   UNL     1     -10.894  12.042  63.534  1.00  0.00     0.000 HD 
HETATM   27  O   UNL     1     -10.292  11.687  64.178  1.00  0.00    -0.281 OA 
BRANCH  25  28
HETATM   28  C   UNL     1     -11.886  12.362  65.859  1.00  0.00    -0.467 C  
BRANCH  28  29
HETATM   29  C   UNL     1     -12.583  13.739  65.742  1.00  0.00    -0.480 C  
HETATM   30  O   UNL     1     -12.229  14.582  66.844  1.00  0.00    -0.498 OA 
HETATM   31  H   UNL     1     -12.657  15.427  66.773  1.00  0.00     0.000 HD 
BRANCH  29  32
HETATM   32  C   UNL     1     -12.166  14.502  64.484  1.00  0.00    -0.483 C  
HETATM   33  C   UNL     1     -11.333  15.711  64.804  1.00  0.00    -0.343 C  
HETATM   34  O   UNL     1     -10.556  15.787  65.743  1.00  0.00    -0.324 OA 
HETATM   35  O   UNL     1     -11.511  16.727  63.930  1.00  0.00    -1.116 OA 
ENDBRANCH  29  32
ENDBRANCH  28  29
ENDBRANCH  25  28
ENDBRANCH  24  25
ENDBRANCH   8  23
TORSDOF 8
ENDMDL
MODEL      146
REMARK 921   NORMALIZED FREE ENERGY PREDICTED BY IDOCK:   -4.46 KCAL/MOL
REMARK 922        TOTAL FREE ENERGY PREDICTED BY IDOCK:   -8.09 KCAL/MOL
REMARK 923 INTER-LIGAND FREE ENERGY PREDICTED BY IDOCK:   -8.01 KCAL/MOL
REMARK 924 INTRA-LIGAND FREE ENERGY PREDICTED BY IDOCK:   -0.08 KCAL/MOL
REMARK 927      BINDING AFFINITY PREDICTED BY RF-SCORE:    0.00 PKD
ROOT
HETATM    1  C   UNL     1     -12.243  11.809  63.448  1.00  0.00    -0.461 C  
HETATM    2  C   UNL     1     -10.918  11.414  64.118  1.00  0.00    -0.411 C  
HETATM    3  C   UNL     1      -9.866  11.151  63.036  1.00  0.00    -0.368 C  
HETATM    4  C   UNL     1     -10.416  12.467  65.101  1.00  0.00    -0.293 A  
HETATM    5  N   UNL     1     -10.808  13.736  64.841  1.00  0.00    -0.367 NA 
HETATM    6  C   UNL     1     -10.349  14.682  65.658  1.00  0.00    -0.351 A  
HETATM    7  N   UNL     1      -9.499  14.504  66.664  1.00  0.00    -0.270 NA 
HETATM    8  C   UNL     1      -9.553  12.147  66.168  1.00  0.00    -0.250 A  
HETATM    9  C   UNL     1      -9.058  13.238  66.898  1.00  0.00    -0.232 A  
ENDROOT
BRANCH   6  10
HETATM   10  N   UNL     1     -10.981  15.935  65.567  1.00  0.00    -0.283 N  
HETATM   11  C   UNL     1     -11.775  16.153  64.351  1.00  0.00    -0.059 C  
BRANCH  10  12
HETATM   12  S   UNL     1     -10.076  17.225  66.140  1.00  0.00    -0.270 S  
HETATM   13  C   UNL     1     -10.392  17.260  67.897  1.00  0.00    -0.360 C  
HETATM   14  O   UNL     1      -8.676  16.879  65.972  1.00  0.00    -0.468 OA 
HETATM   15  O   UNL     1     -10.592  18.456  65.588  1.00  0.00    -0.622 OA 
ENDBRANCH  10  12
ENDBRANCH   6  10
BRANCH   9  16
HETATM   16  C   UNL     1      -8.022  13.178  67.974  1.00  0.00    -0.156 A  
HETATM   17  F   UNL     1      -5.130  13.124  70.978  1.00  0.00    -0.097 F  
HETATM   18  C   UNL     1      -7.677  14.342  68.698  1.00  0.00    -0.138 A  
HETATM   19  C   UNL     1      -6.703  14.331  69.703  1.00  0.00    -0.118 A  
HETATM   20  C   UNL     1      -6.330  11.989  69.298  1.00  0.00    -0.102 A  
HETATM   21  C   UNL     1      -6.050  13.147  70.005  1.00  0.00    -0.113 A  
HETATM   22  C   UNL     1      -7.293  12.011  68.280  1.00  0.00    -0.095 A  
ENDBRANCH   9  16
BRANCH   8  23
HETATM   23  C   UNL     1      -9.242  10.732  66.447  1.00  0.00    -0.191 C  
HETATM   24  C   UNL     1     -10.073   9.886  67.091  1.00  0.00    -0.270 C  
BRANCH  24  25
HETATM   25  C   UNL     1      -9.888   8.388  67.225  1.00  0.00    -0.203 C  
HETATM   26  H   UNL     1      -8.510   7.057  66.767  1.00  0.00     0.000 HD 
HETATM   27  O   UNL     1      -8.626   7.996  66.683  1.00  0.00    -0.126 OA 
BRANCH  25  28
HETATM   28  C   UNL     1      -9.987   7.883  68.672  1.00  0.00    -0.201 C  
BRANCH  28  29
HETATM   29  C   UNL     1      -9.669   6.374  68.806  1.00  0.00    -0.128 C  
HETATM   30  O   UNL     1      -9.794   5.948  70.167  1.00  0.00    -0.165 OA 
HETATM   31  H   UNL     1      -9.598   5.022  70.250  1.00  0.00     0.000 HD 
BRANCH  29  32
HETATM   32  C   UNL     1     -10.633   5.498  68.006  1.00  0.00    -0.213 C  
HETATM   33  C   UNL     1      -9.986   4.913  66.783  1.00  0.00    -0.224 C  
HETATM   34  O   UNL     1      -8.809   4.599  66.706  1.00  0.00    -0.111 OA 
HETATM   35  O   UNL     1     -10.847   4.747  65.753  1.00  0.00    -0.295 OA 
ENDBRANCH  29  32
ENDBRANCH  28  29
ENDBRANCH  25  28
ENDBRANCH  24  25
ENDBRANCH   8  23
TORSDOF 8
ENDMDL
MODEL      147
REMARK 921   NORMALIZED FREE ENERGY PREDICTED BY IDOCK:   -4.45 KCAL/MOL
REMARK 922        TOTAL FREE ENERGY PREDICTED BY IDOCK:   -8.07 KCAL/MOL
REMARK 923 INTER-LIGAND FREE ENERGY PREDICTED BY IDOCK:   -6.37 KCAL/MOL
REMARK 924 INTRA-LIGAND FREE ENERGY PREDICTED BY IDOCK:   -1.70 KCAL/MOL
REMARK 927      BINDING AFFINITY PREDICTED BY RF-SCORE:    0.00 PKD
ROOT
HETATM    1  C   UNL     1      -5.503  12.546  69.638  1.00  0.00    -0.085 C  
HETATM    2  C   UNL     1      -6.566  11.709  68.909  1.00  0.00    -0.079 C  
HETATM    3  C   UNL     1      -7.230  10.759  69.909  1.00  0.00    -0.059 C  
HETATM    4  C   UNL     1      -7.618  12.566  68.211  1.00  0.00    -0.129 A  
HETATM    5  N   UNL     1      -7.831  13.784  68.761  1.00  0.00    -0.102 NA 
HETATM    6  C   UNL     1      -8.775  14.536  68.200  1.00  0.00    -0.171 A  
HETATM    7  N   UNL     1      -9.563  14.179  67.190  1.00  0.00    -0.236 NA 
HETATM    8  C   UNL     1      -8.358  12.094  67.109  1.00  0.00    -0.183 A  
HETATM    9  C   UNL     1      -9.391  12.936  66.667  1.00  0.00    -0.240 A  
ENDROOT
BRANCH   6  10
HETATM   10  N   UNL     1      -8.792  15.890  68.579  1.00  0.00    -0.187 N  
HETATM   11  C   UNL     1     -10.084  16.391  69.066  1.00  0.00    -0.262 C  
BRANCH  10  12
HETATM   12  S   UNL     1      -7.888  16.908  67.601  1.00  0.00    -0.176 S  
HETATM   13  C   UNL     1      -9.064  17.596  66.448  1.00  0.00    -0.234 C  
HETATM   14  O   UNL     1      -7.424  18.005  68.432  1.00  0.00    -0.258 OA 
HETATM   15  O   UNL     1      -6.944  16.126  66.836  1.00  0.00    -0.208 OA 
ENDBRANCH  10  12
ENDBRANCH   6  10
BRANCH   9  16
HETATM   16  C   UNL     1     -10.405  12.605  65.620  1.00  0.00    -0.293 A  
HETATM   17  F   UNL     1     -13.317  11.679  62.781  1.00  0.00    -0.242 F  
HETATM   18  C   UNL     1     -11.786  12.659  65.922  1.00  0.00    -0.499 A  
HETATM   19  C   UNL     1     -12.767  12.343  64.975  1.00  0.00    -0.170 A  
HETATM   20  C   UNL     1     -11.043  11.865  63.367  1.00  0.00    -0.463 A  
HETATM   21  C   UNL     1     -12.385  11.964  63.699  1.00  0.00    -0.481 A  
HETATM   22  C   UNL     1     -10.065  12.163  64.326  1.00  0.00    -0.317 A  
ENDBRANCH   9  16
BRANCH   8  23
HETATM   23  C   UNL     1      -8.008  10.795  66.504  1.00  0.00    -0.144 C  
HETATM   24  C   UNL     1      -7.009  10.617  65.617  1.00  0.00    -0.078 C  
BRANCH  24  25
HETATM   25  C   UNL     1      -6.485   9.284  65.123  1.00  0.00    -0.070 C  
HETATM   26  H   UNL     1      -5.844   7.600  65.920  1.00  0.00     0.000 HD 
HETATM   27  O   UNL     1      -6.173   8.436  66.229  1.00  0.00    -0.048 OA 
BRANCH  25  28
HETATM   28  C   UNL     1      -7.457   8.548  64.189  1.00  0.00    -0.112 C  
BRANCH  28  29
HETATM   29  C   UNL     1      -7.937   7.194  64.765  1.00  0.00    -0.122 C  
HETATM   30  O   UNL     1      -9.165   7.354  65.481  1.00  0.00    -0.382 OA 
HETATM   31  H   UNL     1      -9.460   6.523  65.835  1.00  0.00     0.000 HD 
BRANCH  29  32
HETATM   32  C   UNL     1      -8.222   6.161  63.674  1.00  0.00    -0.003 C  
HETATM   33  C   UNL     1      -8.378   4.775  64.232  1.00  0.00    -0.127 C  
HETATM   34  O   UNL     1      -8.847   4.520  65.329  1.00  0.00    -0.129 OA 
HETATM   35  O   UNL     1      -7.955   3.810  63.384  1.00  0.00    -0.080 OA 
ENDBRANCH  29  32
ENDBRANCH  28  29
ENDBRANCH  25  28
ENDBRANCH  24  25
ENDBRANCH   8  23
TORSDOF 8
ENDMDL
MODEL      148
REMARK 921   NORMALIZED FREE ENERGY PREDICTED BY IDOCK:   -4.40 KCAL/MOL
REMARK 922        TOTAL FREE ENERGY PREDICTED BY IDOCK:   -8.00 KCAL/MOL
REMARK 923 INTER-LIGAND FREE ENERGY PREDICTED BY IDOCK:   -7.87 KCAL/MOL
REMARK 924 INTRA-LIGAND FREE ENERGY PREDICTED BY IDOCK:   -0.13 KCAL/MOL
REMARK 927      BINDING AFFINITY PREDICTED BY RF-SCORE:    0.00 PKD
ROOT
HETATM    1  C   UNL     1     -12.188  12.269  63.347  1.00  0.00    -0.630 C  
HETATM    2  C   UNL     1     -11.038  11.501  64.018  1.00  0.00    -0.441 C  
HETATM    3  C   UNL     1     -10.005  11.114  62.956  1.00  0.00    -0.347 C  
HETATM    4  C   UNL     1     -10.374  12.293  65.141  1.00  0.00    -0.286 A  
HETATM    5  N   UNL     1     -10.444  13.639  65.020  1.00  0.00    -0.370 NA 
HETATM    6  C   UNL     1      -9.834  14.355  65.962  1.00  0.00    -0.319 A  
HETATM    7  N   UNL     1      -9.119  13.873  66.973  1.00  0.00    -0.241 NA 
HETATM    8  C   UNL     1      -9.683  11.664  66.195  1.00  0.00    -0.253 A  
HETATM    9  C   UNL     1      -9.000  12.521  67.070  1.00  0.00    -0.211 A  
ENDROOT
BRANCH   6  10
HETATM   10  N   UNL     1     -10.152  15.725  65.997  1.00  0.00    -0.312 N  
HETATM   11  C   UNL     1     -10.985  16.207  64.888  1.00  0.00    -0.349 C  
BRANCH  10  12
HETATM   12  S   UNL     1      -8.911  16.723  66.521  1.00  0.00    -0.299 S  
HETATM   13  C   UNL     1      -9.222  16.963  68.262  1.00  0.00    -0.241 C  
HETATM   14  O   UNL     1      -7.675  15.968  66.416  1.00  0.00    -0.214 OA 
HETATM   15  O   UNL     1      -9.031  18.014  65.882  1.00  0.00    -0.506 OA 
ENDBRANCH  10  12
ENDBRANCH   6  10
BRANCH   9  16
HETATM   16  C   UNL     1      -8.081  12.101  68.172  1.00  0.00    -0.161 A  
HETATM   17  F   UNL     1      -5.590  10.841  71.271  1.00  0.00    -0.098 F  
HETATM   18  C   UNL     1      -8.255  10.849  68.807  1.00  0.00    -0.151 A  
HETATM   19  C   UNL     1      -7.426  10.424  69.852  1.00  0.00    -0.134 A  
HETATM   20  C   UNL     1      -6.213  12.497  69.715  1.00  0.00    -0.113 A  
HETATM   21  C   UNL     1      -6.400  11.248  70.285  1.00  0.00    -0.072 A  
HETATM   22  C   UNL     1      -7.059  12.925  68.683  1.00  0.00    -0.103 A  
ENDBRANCH   9  16
BRANCH   8  23
HETATM   23  C   UNL     1      -9.728  10.193  66.314  1.00  0.00    -0.274 C  
HETATM   24  C   UNL     1      -8.886   9.356  65.676  1.00  0.00    -0.208 C  
BRANCH  24  25
HETATM   25  C   UNL     1      -8.762   7.865  65.918  1.00  0.00    -0.154 C  
HETATM   26  H   UNL     1      -8.219   6.276  64.888  1.00  0.00     0.000 HD 
HETATM   27  O   UNL     1      -8.296   7.211  64.736  1.00  0.00    -0.091 OA 
BRANCH  25  28
HETATM   28  C   UNL     1      -7.833   7.505  67.086  1.00  0.00    -0.117 C  
BRANCH  28  29
HETATM   29  C   UNL     1      -8.534   6.657  68.175  1.00  0.00    -0.116 C  
HETATM   30  O   UNL     1      -8.007   6.960  69.471  1.00  0.00    -0.119 OA 
HETATM   31  H   UNL     1      -8.437   6.440  70.140  1.00  0.00     0.000 HD 
BRANCH  29  32
HETATM   32  C   UNL     1     -10.034   6.937  68.260  1.00  0.00    -0.162 C  
HETATM   33  C   UNL     1     -10.555   6.818  69.664  1.00  0.00    -0.233 C  
HETATM   34  O   UNL     1      -9.914   7.096  70.665  1.00  0.00    -0.190 OA 
HETATM   35  O   UNL     1     -11.833   6.380  69.722  1.00  0.00    -0.357 OA 
ENDBRANCH  29  32
ENDBRANCH  28  29
ENDBRANCH  25  28
ENDBRANCH  24  25
ENDBRANCH   8  23
TORSDOF 8
ENDMDL
MODEL      149
REMARK 921   NORMALIZED FREE ENERGY PREDICTED BY IDOCK:   -4.39 KCAL/MOL
REMARK 922        TOTAL FREE ENERGY PREDICTED BY IDOCK:   -7.98 KCAL/MOL
REMARK 923 INTER-LIGAND FREE ENERGY PREDICTED BY IDOCK:   -5.96 KCAL/MOL
REMARK 924 INTRA-LIGAND FREE ENERGY PREDICTED BY IDOCK:   -2.01 KCAL/MOL
REMARK 927      BINDING AFFINITY PREDICTED BY RF-SCORE:    0.00 PKD
ROOT
HETATM    1  C   UNL     1     -12.453   7.523  71.817  1.00  0.00    -0.360 C  
HETATM    2  C   UNL     1     -11.944   8.602  70.848  1.00  0.00    -0.220 C  
HETATM    3  C   UNL     1     -11.607   9.869  71.639  1.00  0.00    -0.268 C  
HETATM    4  C   UNL     1     -10.735   8.146  70.037  1.00  0.00    -0.243 A  
HETATM    5  N   UNL     1      -9.962   7.205  70.628  1.00  0.00    -0.190 NA 
HETATM    6  C   UNL     1      -8.876   6.820  69.961  1.00  0.00    -0.142 A  
HETATM    7  N   UNL     1      -8.452   7.314  68.802  1.00  0.00    -0.129 NA 
HETATM    8  C   UNL     1     -10.414   8.712  68.788  1.00  0.00    -0.209 A  
HETATM    9  C   UNL     1      -9.195   8.298  68.229  1.00  0.00    -0.134 A  
ENDROOT
BRANCH   6  10
HETATM   10  N   UNL     1      -8.246   5.653  70.430  1.00  0.00    -0.104 N  
HETATM   11  C   UNL     1      -6.904   5.846  70.993  1.00  0.00    -0.065 C  
BRANCH  10  12
HETATM   12  S   UNL     1      -8.501   4.288  69.491  1.00  0.00    -0.072 S  
HETATM   13  C   UNL     1      -8.570   2.938  70.658  1.00  0.00    -0.060 C  
HETATM   14  O   UNL     1      -9.826   4.406  68.907  1.00  0.00    -0.160 OA 
HETATM   15  O   UNL     1      -7.352   4.065  68.645  1.00  0.00    -0.054 OA 
ENDBRANCH  10  12
ENDBRANCH   6  10
BRANCH   9  16
HETATM   16  C   UNL     1      -8.561   8.854  66.994  1.00  0.00    -0.120 A  
HETATM   17  F   UNL     1      -6.730  10.475  63.616  1.00  0.00    -0.130 F  
HETATM   18  C   UNL     1      -7.416   9.678  67.089  1.00  0.00    -0.088 A  
HETATM   19  C   UNL     1      -6.801  10.230  65.959  1.00  0.00    -0.119 A  
HETATM   20  C   UNL     1      -8.464   9.193  64.564  1.00  0.00    -0.195 A  
HETATM   21  C   UNL     1      -7.323   9.967  64.703  1.00  0.00    -0.143 A  
HETATM   22  C   UNL     1      -9.087   8.660  65.701  1.00  0.00    -0.221 A  
ENDBRANCH   9  16
BRANCH   8  23
HETATM   23  C   UNL     1     -11.351   9.665  68.162  1.00  0.00     0.150 C  
HETATM   24  C   UNL     1     -11.209  11.005  68.203  1.00  0.00    -0.364 C  
BRANCH  24  25
HETATM   25  C   UNL     1     -12.025  12.010  67.415  1.00  0.00    -0.055 C  
HETATM   26  H   UNL     1     -12.603  13.881  67.625  1.00  0.00     0.000 HD 
HETATM   27  O   UNL     1     -12.091  13.251  68.118  1.00  0.00    -0.330 OA 
BRANCH  25  28
HETATM   28  C   UNL     1     -11.486  12.267  66.000  1.00  0.00    -0.434 C  
BRANCH  28  29
HETATM   29  C   UNL     1      -9.961  12.530  65.974  1.00  0.00    -0.257 C  
HETATM   30  O   UNL     1      -9.466  12.514  64.631  1.00  0.00    -0.458 OA 
HETATM   31  H   UNL     1      -8.529  12.675  64.616  1.00  0.00     0.000 HD 
BRANCH  29  32
HETATM   32  C   UNL     1      -9.593  13.902  66.538  1.00  0.00    -0.299 C  
HETATM   33  C   UNL     1      -8.761  13.799  67.785  1.00  0.00    -0.182 C  
HETATM   34  O   UNL     1      -7.955  12.909  68.007  1.00  0.00    -0.134 OA 
HETATM   35  O   UNL     1      -8.978  14.811  68.655  1.00  0.00    -0.176 OA 
ENDBRANCH  29  32
ENDBRANCH  28  29
ENDBRANCH  25  28
ENDBRANCH  24  25
ENDBRANCH   8  23
TORSDOF 8
ENDMDL
MODEL      150
REMARK 921   NORMALIZED FREE ENERGY PREDICTED BY IDOCK:   -4.38 KCAL/MOL
REMARK 922        TOTAL FREE ENERGY PREDICTED BY IDOCK:   -7.98 KCAL/MOL
REMARK 923 INTER-LIGAND FREE ENERGY PREDICTED BY IDOCK:   -7.44 KCAL/MOL
REMARK 924 INTRA-LIGAND FREE ENERGY PREDICTED BY IDOCK:   -0.54 KCAL/MOL
REMARK 927      BINDING AFFINITY PREDICTED BY RF-SCORE:    0.00 PKD
ROOT
HETATM    1  C   UNL     1      -5.134   8.549  67.551  1.00  0.00    -0.034 C  
HETATM    2  C   UNL     1      -6.339   9.502  67.593  1.00  0.00    -0.058 C  
HETATM    3  C   UNL     1      -6.852   9.728  66.167  1.00  0.00    -0.090 C  
HETATM    4  C   UNL     1      -7.465   8.994  68.487  1.00  0.00    -0.085 A  
HETATM    5  N   UNL     1      -7.533   7.649  68.626  1.00  0.00    -0.101 NA 
HETATM    6  C   UNL     1      -8.533   7.175  69.366  1.00  0.00    -0.134 A  
HETATM    7  N   UNL     1      -9.499   7.892  69.930  1.00  0.00    -0.160 NA 
HETATM    8  C   UNL     1      -8.405   9.862  69.076  1.00  0.00    -0.130 A  
HETATM    9  C   UNL     1      -9.468   9.240  69.750  1.00  0.00    -0.191 A  
ENDROOT
BRANCH   6  10
HETATM   10  N   UNL     1      -8.432   5.824  69.745  1.00  0.00    -0.121 N  
HETATM   11  C   UNL     1      -9.629   5.010  69.497  1.00  0.00    -0.167 C  
BRANCH  10  12
HETATM   12  S   UNL     1      -7.596   5.552  71.173  1.00  0.00    -0.104 S  
HETATM   13  C   UNL     1      -7.004   7.162  71.668  1.00  0.00    -0.067 C  
HETATM   14  O   UNL     1      -8.567   5.137  72.169  1.00  0.00    -0.123 OA 
HETATM   15  O   UNL     1      -6.437   4.734  70.902  1.00  0.00    -0.028 OA 
ENDBRANCH  10  12
ENDBRANCH   6  10
BRANCH   9  16
HETATM   16  C   UNL     1     -10.663   9.927  70.329  1.00  0.00    -0.367 A  
HETATM   17  F   UNL     1     -14.012  11.753  72.013  1.00  0.00    -0.194 F  
HETATM   18  C   UNL     1     -11.277   9.425  71.500  1.00  0.00    -0.457 A  
HETATM   19  C   UNL     1     -12.405  10.030  72.065  1.00  0.00    -0.222 A  
HETATM   20  C   UNL     1     -12.397  11.665  70.301  1.00  0.00    -0.339 A  
HETATM   21  C   UNL     1     -12.945  11.157  71.468  1.00  0.00    -0.437 A  
HETATM   22  C   UNL     1     -11.279  11.043  69.728  1.00  0.00    -0.339 A  
ENDBRANCH   9  16
BRANCH   8  23
HETATM   23  C   UNL     1      -8.216  11.321  68.960  1.00  0.00    -0.026 C  
HETATM   24  C   UNL     1      -8.973  12.124  68.186  1.00  0.00    -0.195 C  
BRANCH  24  25
HETATM   25  C   UNL     1      -8.948  13.639  68.184  1.00  0.00    -0.191 C  
HETATM   26  H   UNL     1      -7.613  15.061  68.457  1.00  0.00     0.000 HD 
HETATM   27  O   UNL     1      -7.628  14.111  68.457  1.00  0.00    -0.116 OA 
BRANCH  25  28
HETATM   28  C   UNL     1      -9.438  14.262  66.869  1.00  0.00    -0.272 C  
BRANCH  28  29
HETATM   29  C   UNL     1     -10.862  13.800  66.476  1.00  0.00    -0.287 C  
HETATM   30  O   UNL     1     -11.741  13.850  67.605  1.00  0.00    -0.327 OA 
HETATM   31  H   UNL     1     -12.616  13.565  67.364  1.00  0.00     0.000 HD 
BRANCH  29  32
HETATM   32  C   UNL     1     -11.498  14.696  65.413  1.00  0.00    -0.352 C  
HETATM   33  C   UNL     1     -12.534  13.969  64.605  1.00  0.00    -0.335 C  
HETATM   34  O   UNL     1     -13.252  13.082  65.037  1.00  0.00    -0.739 OA 
HETATM   35  O   UNL     1     -12.614  14.406  63.327  1.00  0.00    -0.655 OA 
ENDBRANCH  29  32
ENDBRANCH  28  29
ENDBRANCH  25  28
ENDBRANCH  24  25
ENDBRANCH   8  23
TORSDOF 8
ENDMDL
MODEL      151
REMARK 921   NORMALIZED FREE ENERGY PREDICTED BY IDOCK:   -4.35 KCAL/MOL
REMARK 922        TOTAL FREE ENERGY PREDICTED BY IDOCK:   -7.93 KCAL/MOL
REMARK 923 INTER-LIGAND FREE ENERGY PREDICTED BY IDOCK:   -7.06 KCAL/MOL
REMARK 924 INTRA-LIGAND FREE ENERGY PREDICTED BY IDOCK:   -0.87 KCAL/MOL
REMARK 927      BINDING AFFINITY PREDICTED BY RF-SCORE:    0.00 PKD
ROOT
HETATM    1  C   UNL     1      -6.835   6.642  71.671  1.00  0.00    -0.066 C  
HETATM    2  C   UNL     1      -7.014   7.671  70.543  1.00  0.00    -0.047 C  
HETATM    3  C   UNL     1      -6.463   7.087  69.239  1.00  0.00    -0.043 C  
HETATM    4  C   UNL     1      -8.466   8.102  70.360  1.00  0.00    -0.129 A  
HETATM    5  N   UNL     1      -9.393   7.189  70.734  1.00  0.00    -0.161 NA 
HETATM    6  C   UNL     1     -10.668   7.521  70.545  1.00  0.00    -0.235 A  
HETATM    7  N   UNL     1     -11.111   8.636  69.972  1.00  0.00    -0.206 NA 
HETATM    8  C   UNL     1      -8.814   9.339  69.784  1.00  0.00    -0.174 A  
HETATM    9  C   UNL     1     -10.183   9.535  69.545  1.00  0.00    -0.213 A  
ENDROOT
BRANCH   6  10
HETATM   10  N   UNL     1     -11.619   6.712  71.192  1.00  0.00    -0.315 N  
HETATM   11  C   UNL     1     -12.950   7.312  71.355  1.00  0.00    -0.373 C  
BRANCH  10  12
HETATM   12  S   UNL     1     -11.020   5.803  72.467  1.00  0.00    -0.278 S  
HETATM   13  C   UNL     1      -9.927   4.614  71.707  1.00  0.00    -0.192 C  
HETATM   14  O   UNL     1     -10.190   6.682  73.272  1.00  0.00    -0.197 OA 
HETATM   15  O   UNL     1     -12.100   5.063  73.078  1.00  0.00    -0.171 OA 
ENDBRANCH  10  12
ENDBRANCH   6  10
BRANCH   9  16
HETATM   16  C   UNL     1     -10.791  10.690  68.816  1.00  0.00    -0.269 A  
HETATM   17  F   UNL     1     -12.528  13.952  66.884  1.00  0.00    -0.442 F  
HETATM   18  C   UNL     1     -11.296  11.800  69.533  1.00  0.00    -0.317 A  
HETATM   19  C   UNL     1     -11.885  12.894  68.890  1.00  0.00    -0.352 A  
HETATM   20  C   UNL     1     -11.533  11.820  66.767  1.00  0.00    -0.352 A  
HETATM   21  C   UNL     1     -11.983  12.901  67.508  1.00  0.00    -0.296 A  
HETATM   22  C   UNL     1     -10.961  10.718  67.418  1.00  0.00    -0.361 A  
ENDBRANCH   9  16
BRANCH   8  23
HETATM   23  C   UNL     1      -7.755  10.323  69.487  1.00  0.00    -0.167 C  
HETATM   24  C   UNL     1      -7.366  10.665  68.242  1.00  0.00    -0.089 C  
BRANCH  24  25
HETATM   25  C   UNL     1      -6.433  11.804  67.883  1.00  0.00    -0.068 C  
HETATM   26  H   UNL     1      -5.721  12.622  66.239  1.00  0.00     0.000 HD 
HETATM   27  O   UNL     1      -6.306  11.909  66.465  1.00  0.00    -0.054 OA 
BRANCH  25  28
HETATM   28  C   UNL     1      -6.874  13.163  68.447  1.00  0.00    -0.098 C  
BRANCH  28  29
HETATM   29  C   UNL     1      -8.380  13.446  68.228  1.00  0.00    -0.160 C  
HETATM   30  O   UNL     1      -8.829  14.498  69.088  1.00  0.00    -0.350 OA 
HETATM   31  H   UNL     1      -9.753  14.672  68.954  1.00  0.00     0.000 HD 
BRANCH  29  32
HETATM   32  C   UNL     1      -8.688  13.911  66.805  1.00  0.00    -0.119 C  
HETATM   33  C   UNL     1      -8.696  15.409  66.687  1.00  0.00    -0.296 C  
HETATM   34  O   UNL     1      -7.987  16.158  67.340  1.00  0.00    -0.142 OA 
HETATM   35  O   UNL     1      -9.569  15.865  65.761  1.00  0.00    -0.327 OA 
ENDBRANCH  29  32
ENDBRANCH  28  29
ENDBRANCH  25  28
ENDBRANCH  24  25
ENDBRANCH   8  23
TORSDOF 8
ENDMDL
MODEL      152
REMARK 921   NORMALIZED FREE ENERGY PREDICTED BY IDOCK:   -4.35 KCAL/MOL
REMARK 922        TOTAL FREE ENERGY PREDICTED BY IDOCK:   -7.92 KCAL/MOL
REMARK 923 INTER-LIGAND FREE ENERGY PREDICTED BY IDOCK:   -6.17 KCAL/MOL
REMARK 924 INTRA-LIGAND FREE ENERGY PREDICTED BY IDOCK:   -1.75 KCAL/MOL
REMARK 927      BINDING AFFINITY PREDICTED BY RF-SCORE:    0.00 PKD
ROOT
HETATM    1  C   UNL     1     -12.364   6.718  70.993  1.00  0.00    -0.370 C  
HETATM    2  C   UNL     1     -11.571   8.034  71.010  1.00  0.00    -0.303 C  
HETATM    3  C   UNL     1     -11.176   8.365  72.452  1.00  0.00    -0.438 C  
HETATM    4  C   UNL     1     -10.335   7.991  70.117  1.00  0.00    -0.215 A  
HETATM    5  N   UNL     1      -9.798   6.763  69.929  1.00  0.00    -0.165 NA 
HETATM    6  C   UNL     1      -8.693   6.701  69.190  1.00  0.00    -0.130 A  
HETATM    7  N   UNL     1      -8.038   7.735  68.671  1.00  0.00    -0.125 NA 
HETATM    8  C   UNL     1      -9.758   9.158  69.578  1.00  0.00    -0.176 A  
HETATM    9  C   UNL     1      -8.542   8.978  68.901  1.00  0.00    -0.131 A  
ENDROOT
BRANCH   6  10
HETATM   10  N   UNL     1      -8.311   5.419  68.758  1.00  0.00    -0.097 N  
HETATM   11  C   UNL     1      -6.968   4.990  69.170  1.00  0.00    -0.055 C  
BRANCH  10  12
HETATM   12  S   UNL     1      -8.807   5.019  67.207  1.00  0.00    -0.102 S  
HETATM   13  C   UNL     1      -9.291   3.304  67.311  1.00  0.00    -0.192 C  
HETATM   14  O   UNL     1     -10.013   5.780  66.930  1.00  0.00    -0.142 OA 
HETATM   15  O   UNL     1      -7.679   5.092  66.308  1.00  0.00    -0.087 OA 
ENDBRANCH  10  12
ENDBRANCH   6  10
BRANCH   9  16
HETATM   16  C   UNL     1      -7.663  10.064  68.370  1.00  0.00    -0.084 A  
HETATM   17  F   UNL     1      -5.219  13.149  66.991  1.00  0.00     0.062 F  
HETATM   18  C   UNL     1      -7.114  11.030  69.246  1.00  0.00    -0.123 A  
HETATM   19  C   UNL     1      -6.299  12.071  68.787  1.00  0.00    -0.071 A  
HETATM   20  C   UNL     1      -6.557  11.264  66.536  1.00  0.00    -0.108 A  
HETATM   21  C   UNL     1      -6.014  12.167  67.435  1.00  0.00    -0.139 A  
HETATM   22  C   UNL     1      -7.389  10.236  66.998  1.00  0.00    -0.092 A  
ENDBRANCH   9  16
BRANCH   8  23
HETATM   23  C   UNL     1     -10.449  10.451  69.746  1.00  0.00    -0.284 C  
HETATM   24  C   UNL     1     -11.146  11.069  68.772  1.00  0.00    -0.293 C  
BRANCH  24  25
HETATM   25  C   UNL     1     -12.032  12.286  68.947  1.00  0.00    -0.248 C  
HETATM   26  H   UNL     1     -12.719  13.368  70.444  1.00  0.00     0.000 HD 
HETATM   27  O   UNL     1     -12.164  12.605  70.333  1.00  0.00    -0.349 OA 
BRANCH  25  28
HETATM   28  C   UNL     1     -11.529  13.528  68.196  1.00  0.00    -0.338 C  
BRANCH  28  29
HETATM   29  C   UNL     1     -10.034  13.828  68.462  1.00  0.00    -0.217 C  
HETATM   30  O   UNL     1      -9.227  13.406  67.357  1.00  0.00    -0.196 OA 
HETATM   31  H   UNL     1      -8.309  13.590  67.521  1.00  0.00     0.000 HD 
BRANCH  29  32
HETATM   32  C   UNL     1      -9.757  15.322  68.632  1.00  0.00    -0.212 C  
HETATM   33  C   UNL     1     -10.467  15.898  69.825  1.00  0.00    -0.311 C  
HETATM   34  O   UNL     1     -10.692  15.287  70.857  1.00  0.00    -0.266 OA 
HETATM   35  O   UNL     1     -10.831  17.190  69.655  1.00  0.00    -0.170 OA 
ENDBRANCH  29  32
ENDBRANCH  28  29
ENDBRANCH  25  28
ENDBRANCH  24  25
ENDBRANCH   8  23
TORSDOF 8
ENDMDL
MODEL      153
REMARK 921   NORMALIZED FREE ENERGY PREDICTED BY IDOCK:   -4.30 KCAL/MOL
REMARK 922        TOTAL FREE ENERGY PREDICTED BY IDOCK:   -7.86 KCAL/MOL
REMARK 923 INTER-LIGAND FREE ENERGY PREDICTED BY IDOCK:   -6.50 KCAL/MOL
REMARK 924 INTRA-LIGAND FREE ENERGY PREDICTED BY IDOCK:   -1.36 KCAL/MOL
REMARK 927      BINDING AFFINITY PREDICTED BY RF-SCORE:    0.00 PKD
ROOT
HETATM    1  C   UNL     1     -10.724  20.068  67.626  1.00  0.00    -0.328 C  
HETATM    2  C   UNL     1     -10.586  18.539  67.693  1.00  0.00    -0.450 C  
HETATM    3  C   UNL     1     -11.233  17.921  66.450  1.00  0.00     0.810 C  
HETATM    4  C   UNL     1      -9.137  18.080  67.820  1.00  0.00    -0.262 A  
HETATM    5  N   UNL     1      -8.215  18.922  67.297  1.00  0.00    -0.268 NA 
HETATM    6  C   UNL     1      -6.945  18.527  67.354  1.00  0.00    -0.204 A  
HETATM    7  N   UNL     1      -6.507  17.363  67.824  1.00  0.00    -0.147 NA 
HETATM    8  C   UNL     1      -8.790  16.839  68.388  1.00  0.00    -0.237 A  
HETATM    9  C   UNL     1      -7.434  16.490  68.303  1.00  0.00    -0.171 A  
ENDROOT
BRANCH   6  10
HETATM   10  N   UNL     1      -5.980  19.513  67.083  1.00  0.00    -0.178 N  
HETATM   11  C   UNL     1      -5.766  20.497  68.152  1.00  0.00    -0.266 C  
BRANCH  10  12
HETATM   12  S   UNL     1      -5.970  20.075  65.503  1.00  0.00    -0.201 S  
HETATM   13  C   UNL     1      -5.125  18.807  64.573  1.00  0.00    -0.185 C  
HETATM   14  O   UNL     1      -7.347  20.088  65.041  1.00  0.00    -0.304 OA 
HETATM   15  O   UNL     1      -5.166  21.272  65.424  1.00  0.00    -0.195 OA 
ENDBRANCH  10  12
ENDBRANCH   6  10
BRANCH   9  16
HETATM   16  C   UNL     1      -6.839  15.175  68.694  1.00  0.00    -0.105 A  
HETATM   17  F   UNL     1      -5.217  11.463  69.684  1.00  0.00    -0.053 F  
HETATM   18  C   UNL     1      -6.706  14.140  67.739  1.00  0.00    -0.190 A  
HETATM   19  C   UNL     1      -6.169  12.890  68.068  1.00  0.00    -0.110 A  
HETATM   20  C   UNL     1      -5.892  13.622  70.343  1.00  0.00    -0.161 A  
HETATM   21  C   UNL     1      -5.750  12.649  69.366  1.00  0.00    -0.087 A  
HETATM   22  C   UNL     1      -6.449  14.864  70.012  1.00  0.00    -0.167 A  
ENDBRANCH   9  16
BRANCH   8  23
HETATM   23  C   UNL     1      -9.837  16.016  69.023  1.00  0.00    -0.239 C  
HETATM   24  C   UNL     1     -10.490  15.011  68.404  1.00  0.00    -0.238 C  
BRANCH  24  25
HETATM   25  C   UNL     1     -11.421  14.015  69.066  1.00  0.00    -0.296 C  
HETATM   26  H   UNL     1     -13.323  13.934  69.571  1.00  0.00     0.000 HD 
HETATM   27  O   UNL     1     -12.739  14.557  69.156  1.00  0.00     0.042 OA 
BRANCH  25  28
HETATM   28  C   UNL     1     -11.488  12.661  68.345  1.00  0.00    -0.350 C  
BRANCH  28  29
HETATM   29  C   UNL     1     -11.336  11.458  69.307  1.00  0.00    -0.289 C  
HETATM   30  O   UNL     1     -12.451  10.567  69.185  1.00  0.00    -0.750 OA 
HETATM   31  H   UNL     1     -12.358   9.829  69.776  1.00  0.00     0.000 HD 
BRANCH  29  32
HETATM   32  C   UNL     1     -10.096  10.617  69.003  1.00  0.00    -0.226 C  
HETATM   33  C   UNL     1      -9.673   9.784  70.180  1.00  0.00    -0.248 C  
HETATM   34  O   UNL     1     -10.440   9.307  71.002  1.00  0.00    -0.263 OA 
HETATM   35  O   UNL     1      -8.336   9.593  70.244  1.00  0.00    -0.181 OA 
ENDBRANCH  29  32
ENDBRANCH  28  29
ENDBRANCH  25  28
ENDBRANCH  24  25
ENDBRANCH   8  23
TORSDOF 8
ENDMDL
MODEL      154
REMARK 921   NORMALIZED FREE ENERGY PREDICTED BY IDOCK:   -4.30 KCAL/MOL
REMARK 922        TOTAL FREE ENERGY PREDICTED BY IDOCK:   -7.85 KCAL/MOL
REMARK 923 INTER-LIGAND FREE ENERGY PREDICTED BY IDOCK:   -6.41 KCAL/MOL
REMARK 924 INTRA-LIGAND FREE ENERGY PREDICTED BY IDOCK:   -1.44 KCAL/MOL
REMARK 927      BINDING AFFINITY PREDICTED BY RF-SCORE:    0.00 PKD
ROOT
HETATM    1  C   UNL     1     -10.689   9.401  71.453  1.00  0.00    -0.407 C  
HETATM    2  C   UNL     1     -10.675   7.969  70.894  1.00  0.00    -0.240 C  
HETATM    3  C   UNL     1     -12.021   7.301  71.189  1.00  0.00    -0.363 C  
HETATM    4  C   UNL     1     -10.374   7.920  69.399  1.00  0.00    -0.220 A  
HETATM    5  N   UNL     1     -10.729   9.024  68.701  1.00  0.00    -0.150 NA 
HETATM    6  C   UNL     1     -10.518   8.992  67.387  1.00  0.00    -0.269 A  
HETATM    7  N   UNL     1     -10.048   7.960  66.694  1.00  0.00    -0.261 NA 
HETATM    8  C   UNL     1      -9.823   6.781  68.783  1.00  0.00    -0.143 A  
HETATM    9  C   UNL     1      -9.740   6.828  67.382  1.00  0.00    -0.133 A  
ENDROOT
BRANCH   6  10
HETATM   10  N   UNL     1     -10.611  10.225  66.718  1.00  0.00    -0.214 N  
HETATM   11  C   UNL     1      -9.557  10.486  65.728  1.00  0.00    -0.210 C  
BRANCH  10  12
HETATM   12  S   UNL     1     -11.108  11.511  67.672  1.00  0.00    -0.287 S  
HETATM   13  C   UNL     1     -11.637  12.762  66.513  1.00  0.00    -0.376 C  
HETATM   14  O   UNL     1     -12.292  11.080  68.394  1.00  0.00    -0.528 OA 
HETATM   15  O   UNL     1      -9.973  12.044  68.389  1.00  0.00    -0.206 OA 
ENDBRANCH  10  12
ENDBRANCH   6  10
BRANCH   9  16
HETATM   16  C   UNL     1      -9.333   5.702  66.488  1.00  0.00    -0.159 A  
HETATM   17  F   UNL     1      -8.093   2.606  63.983  1.00  0.00    -0.077 F  
HETATM   18  C   UNL     1      -7.973   5.518  66.146  1.00  0.00    -0.105 A  
HETATM   19  C   UNL     1      -7.552   4.485  65.300  1.00  0.00    -0.081 A  
HETATM   20  C   UNL     1      -9.837   3.771  65.058  1.00  0.00    -0.175 A  
HETATM   21  C   UNL     1      -8.489   3.609  64.777  1.00  0.00    -0.100 A  
HETATM   22  C   UNL     1     -10.254   4.819  65.889  1.00  0.00    -0.286 A  
ENDBRANCH   9  16
BRANCH   8  23
HETATM   23  C   UNL     1      -9.374   5.650  69.618  1.00  0.00    -0.171 C  
HETATM   24  C   UNL     1     -10.036   4.481  69.730  1.00  0.00    -0.268 C  
BRANCH  24  25
HETATM   25  C   UNL     1      -9.520   3.229  70.410  1.00  0.00    -0.165 C  
HETATM   26  H   UNL     1      -9.076   1.382  69.888  1.00  0.00     0.000 HD 
HETATM   27  O   UNL     1      -9.398   2.167  69.462  1.00  0.00    -0.117 OA 
BRANCH  25  28
HETATM   28  C   UNL     1      -8.171   3.422  71.117  1.00  0.00    -0.079 C  
BRANCH  28  29
HETATM   29  C   UNL     1      -8.282   3.352  72.659  1.00  0.00    -0.080 C  
HETATM   30  O   UNL     1      -7.454   2.307  73.180  1.00  0.00    -0.039 OA 
HETATM   31  H   UNL     1      -7.523   2.264  74.127  1.00  0.00     0.000 HD 
BRANCH  29  32
HETATM   32  C   UNL     1      -7.811   4.637  73.340  1.00  0.00    -0.095 C  
HETATM   33  C   UNL     1      -8.876   5.696  73.352  1.00  0.00    -0.123 C  
HETATM   34  O   UNL     1     -10.073   5.473  73.430  1.00  0.00    -0.169 OA 
HETATM   35  O   UNL     1      -8.378   6.952  73.282  1.00  0.00    -0.115 OA 
ENDBRANCH  29  32
ENDBRANCH  28  29
ENDBRANCH  25  28
ENDBRANCH  24  25
ENDBRANCH   8  23
TORSDOF 8
ENDMDL
MODEL      155
REMARK 921   NORMALIZED FREE ENERGY PREDICTED BY IDOCK:   -4.29 KCAL/MOL
REMARK 922        TOTAL FREE ENERGY PREDICTED BY IDOCK:   -7.83 KCAL/MOL
REMARK 923 INTER-LIGAND FREE ENERGY PREDICTED BY IDOCK:   -6.08 KCAL/MOL
REMARK 924 INTRA-LIGAND FREE ENERGY PREDICTED BY IDOCK:   -1.76 KCAL/MOL
REMARK 927      BINDING AFFINITY PREDICTED BY RF-SCORE:    0.00 PKD
ROOT
HETATM    1  C   UNL     1      -6.760  10.455  63.347  1.00  0.00    -0.043 C  
HETATM    2  C   UNL     1      -7.985  10.364  64.270  1.00  0.00    -0.080 C  
HETATM    3  C   UNL     1      -9.259  10.478  63.428  1.00  0.00    -0.299 C  
HETATM    4  C   UNL     1      -8.009   9.083  65.097  1.00  0.00    -0.119 A  
HETATM    5  N   UNL     1      -7.373   8.024  64.544  1.00  0.00    -0.084 NA 
HETATM    6  C   UNL     1      -7.415   6.880  65.223  1.00  0.00    -0.089 A  
HETATM    7  N   UNL     1      -8.070   6.668  66.360  1.00  0.00    -0.109 NA 
HETATM    8  C   UNL     1      -8.699   8.993  66.322  1.00  0.00    -0.155 A  
HETATM    9  C   UNL     1      -8.756   7.714  66.895  1.00  0.00    -0.129 A  
ENDROOT
BRANCH   6  10
HETATM   10  N   UNL     1      -6.522   5.879  64.801  1.00  0.00    -0.037 N  
HETATM   11  C   UNL     1      -5.131   6.313  64.615  1.00  0.00    -0.014 C  
BRANCH  10  12
HETATM   12  S   UNL     1      -7.150   4.799  63.683  1.00  0.00    -0.049 S  
HETATM   13  C   UNL     1      -7.750   3.430  64.658  1.00  0.00    -0.078 C  
HETATM   14  O   UNL     1      -8.312   5.428  63.081  1.00  0.00    -0.117 OA 
HETATM   15  O   UNL     1      -6.082   4.297  62.849  1.00  0.00    -0.017 OA 
ENDBRANCH  10  12
ENDBRANCH   6  10
BRANCH   9  16
HETATM   16  C   UNL     1      -9.545   7.327  68.105  1.00  0.00    -0.145 A  
HETATM   17  F   UNL     1     -11.840   6.248  71.415  1.00  0.00    -0.350 F  
HETATM   18  C   UNL     1     -10.879   6.876  67.973  1.00  0.00    -0.266 A  
HETATM   19  C   UNL     1     -11.656   6.519  69.081  1.00  0.00    -0.115 A  
HETATM   20  C   UNL     1      -9.819   7.075  70.532  1.00  0.00    -0.184 A  
HETATM   21  C   UNL     1     -11.110   6.606  70.352  1.00  0.00    -0.322 A  
HETATM   22  C   UNL     1      -9.053   7.450  69.420  1.00  0.00    -0.139 A  
ENDBRANCH   9  16
BRANCH   8  23
HETATM   23  C   UNL     1      -9.291  10.210  66.910  1.00  0.00    -0.185 C  
HETATM   24  C   UNL     1     -10.595  10.538  66.820  1.00  0.00    -0.284 C  
BRANCH  24  25
HETATM   25  C   UNL     1     -11.284  11.662  67.568  1.00  0.00    -0.293 C  
HETATM   26  H   UNL     1     -12.064  11.940  69.355  1.00  0.00     0.000 HD 
HETATM   27  O   UNL     1     -11.633  11.236  68.886  1.00  0.00    -0.262 OA 
BRANCH  25  28
HETATM   28  C   UNL     1     -10.443  12.944  67.665  1.00  0.00    -0.228 C  
BRANCH  28  29
HETATM   29  C   UNL     1     -10.619  13.679  69.016  1.00  0.00    -0.121 C  
HETATM   30  O   UNL     1      -9.404  14.331  69.401  1.00  0.00    -0.384 OA 
HETATM   31  H   UNL     1      -9.512  14.783  70.230  1.00  0.00     0.000 HD 
BRANCH  29  32
HETATM   32  C   UNL     1     -11.679  14.779  68.950  1.00  0.00    -0.340 C  
HETATM   33  C   UNL     1     -12.049  15.292  70.313  1.00  0.00    -0.350 C  
HETATM   34  O   UNL     1     -11.280  15.363  71.258  1.00  0.00    -0.354 OA 
HETATM   35  O   UNL     1     -13.339  15.691  70.399  1.00  0.00    -0.338 OA 
ENDBRANCH  29  32
ENDBRANCH  28  29
ENDBRANCH  25  28
ENDBRANCH  24  25
ENDBRANCH   8  23
TORSDOF 8
ENDMDL
MODEL      156
REMARK 921   NORMALIZED FREE ENERGY PREDICTED BY IDOCK:   -4.23 KCAL/MOL
REMARK 922        TOTAL FREE ENERGY PREDICTED BY IDOCK:   -7.75 KCAL/MOL
REMARK 923 INTER-LIGAND FREE ENERGY PREDICTED BY IDOCK:   -6.70 KCAL/MOL
REMARK 924 INTRA-LIGAND FREE ENERGY PREDICTED BY IDOCK:   -1.05 KCAL/MOL
REMARK 927      BINDING AFFINITY PREDICTED BY RF-SCORE:    0.00 PKD
ROOT
HETATM    1  C   UNL     1      -8.310   8.345  71.778  1.00  0.00    -0.212 C  
HETATM    2  C   UNL     1      -8.265   8.933  70.358  1.00  0.00    -0.146 C  
HETATM    3  C   UNL     1      -8.077   7.797  69.349  1.00  0.00    -0.126 C  
HETATM    4  C   UNL     1      -9.509   9.747  70.015  1.00  0.00    -0.238 A  
HETATM    5  N   UNL     1     -10.636   9.386  70.672  1.00  0.00    -0.265 NA 
HETATM    6  C   UNL     1     -11.747  10.051  70.360  1.00  0.00    -0.286 A  
HETATM    7  N   UNL     1     -11.862  10.990  69.427  1.00  0.00    -0.312 NA 
HETATM    8  C   UNL     1      -9.495  10.760  69.037  1.00  0.00    -0.179 A  
HETATM    9  C   UNL     1     -10.744  11.320  68.726  1.00  0.00    -0.203 A  
ENDROOT
BRANCH   6  10
HETATM   10  N   UNL     1     -12.834   9.881  71.236  1.00  0.00    -0.363 N  
HETATM   11  C   UNL     1     -13.211  11.071  72.010  1.00  0.00    -0.342 C  
BRANCH  10  12
HETATM   12  S   UNL     1     -12.881   8.401  72.024  1.00  0.00    -0.353 S  
HETATM   13  C   UNL     1     -14.406   8.427  72.951  1.00  0.00     0.270 C  
HETATM   14  O   UNL     1     -13.025   7.375  71.007  1.00  0.00    -0.269 OA 
HETATM   15  O   UNL     1     -11.799   8.331  72.979  1.00  0.00    -0.269 OA 
ENDBRANCH  10  12
ENDBRANCH   6  10
BRANCH   9  16
HETATM   16  C   UNL     1     -11.018  12.299  67.630  1.00  0.00    -0.287 A  
HETATM   17  F   UNL     1     -11.795  15.114  64.652  1.00  0.00    -0.391 F  
HETATM   18  C   UNL     1     -11.021  13.688  67.898  1.00  0.00    -0.277 A  
HETATM   19  C   UNL     1     -11.288  14.637  66.904  1.00  0.00    -0.361 A  
HETATM   20  C   UNL     1     -11.599  12.861  65.311  1.00  0.00    -0.376 A  
HETATM   21  C   UNL     1     -11.558  14.213  65.613  1.00  0.00    -0.339 A  
HETATM   22  C   UNL     1     -11.351  11.915  66.315  1.00  0.00    -0.394 A  
ENDBRANCH   9  16
BRANCH   8  23
HETATM   23  C   UNL     1      -8.213  11.163  68.430  1.00  0.00    -0.144 C  
HETATM   24  C   UNL     1      -7.745  10.684  67.260  1.00  0.00    -0.108 C  
BRANCH  24  25
HETATM   25  C   UNL     1      -6.542  11.207  66.502  1.00  0.00    -0.124 C  
HETATM   26  H   UNL     1      -4.658  11.628  66.896  1.00  0.00     0.000 HD 
HETATM   27  O   UNL     1      -5.412  11.300  67.371  1.00  0.00    -0.043 OA 
BRANCH  25  28
HETATM   28  C   UNL     1      -6.163  10.353  65.282  1.00  0.00    -0.122 C  
BRANCH  28  29
HETATM   29  C   UNL     1      -6.127   8.838  65.595  1.00  0.00    -0.052 C  
HETATM   30  O   UNL     1      -5.619   8.604  66.913  1.00  0.00    -0.036 OA 
HETATM   31  H   UNL     1      -5.596   7.674  67.105  1.00  0.00     0.000 HD 
BRANCH  29  32
HETATM   32  C   UNL     1      -7.516   8.200  65.565  1.00  0.00    -0.081 C  
HETATM   33  C   UNL     1      -7.454   6.702  65.667  1.00  0.00    -0.082 C  
HETATM   34  O   UNL     1      -6.610   6.086  66.297  1.00  0.00    -0.045 OA 
HETATM   35  O   UNL     1      -8.451   6.082  64.995  1.00  0.00    -0.144 OA 
ENDBRANCH  29  32
ENDBRANCH  28  29
ENDBRANCH  25  28
ENDBRANCH  24  25
ENDBRANCH   8  23
TORSDOF 8
ENDMDL
MODEL      157
REMARK 921   NORMALIZED FREE ENERGY PREDICTED BY IDOCK:   -4.22 KCAL/MOL
REMARK 922        TOTAL FREE ENERGY PREDICTED BY IDOCK:   -7.73 KCAL/MOL
REMARK 923 INTER-LIGAND FREE ENERGY PREDICTED BY IDOCK:   -6.18 KCAL/MOL
REMARK 924 INTRA-LIGAND FREE ENERGY PREDICTED BY IDOCK:   -1.55 KCAL/MOL
REMARK 927      BINDING AFFINITY PREDICTED BY RF-SCORE:    0.00 PKD
ROOT
HETATM    1  C   UNL     1      -8.373   8.673  72.202  1.00  0.00    -0.146 C  
HETATM    2  C   UNL     1      -8.058   8.361  70.730  1.00  0.00    -0.114 C  
HETATM    3  C   UNL     1      -6.542   8.410  70.520  1.00  0.00    -0.036 C  
HETATM    4  C   UNL     1      -8.613   7.014  70.278  1.00  0.00    -0.140 A  
HETATM    5  N   UNL     1      -8.755   6.089  71.255  1.00  0.00    -0.135 NA 
HETATM    6  C   UNL     1      -9.196   4.889  70.882  1.00  0.00    -0.146 A  
HETATM    7  N   UNL     1      -9.453   4.502  69.637  1.00  0.00    -0.156 NA 
HETATM    8  C   UNL     1      -8.898   6.736  68.927  1.00  0.00    -0.128 A  
HETATM    9  C   UNL     1      -9.262   5.411  68.643  1.00  0.00    -0.117 A  
ENDROOT
BRANCH   6  10
HETATM   10  N   UNL     1      -9.616   4.037  71.919  1.00  0.00    -0.142 N  
HETATM   11  C   UNL     1      -9.659   2.608  71.580  1.00  0.00    -0.148 C  
BRANCH  10  12
HETATM   12  S   UNL     1     -10.855   4.642  72.872  1.00  0.00    -0.205 S  
HETATM   13  C   UNL     1     -10.031   5.413  74.255  1.00  0.00    -0.226 C  
HETATM   14  O   UNL     1     -11.498   5.706  72.120  1.00  0.00    -0.258 OA 
HETATM   15  O   UNL     1     -11.638   3.547  73.395  1.00  0.00    -0.140 OA 
ENDBRANCH  10  12
ENDBRANCH   6  10
BRANCH   9  16
HETATM   16  C   UNL     1      -9.470   4.830  67.282  1.00  0.00    -0.163 A  
HETATM   17  F   UNL     1      -9.941   3.177  63.482  1.00  0.00    -0.117 F  
HETATM   18  C   UNL     1      -8.480   4.006  66.698  1.00  0.00    -0.104 A  
HETATM   19  C   UNL     1      -8.630   3.454  65.421  1.00  0.00    -0.111 A  
HETATM   20  C   UNL     1     -10.764   4.546  65.214  1.00  0.00    -0.145 A  
HETATM   21  C   UNL     1      -9.781   3.717  64.696  1.00  0.00    -0.179 A  
HETATM   22  C   UNL     1     -10.598   5.111  66.485  1.00  0.00    -0.320 A  
ENDBRANCH   9  16
BRANCH   8  23
HETATM   23  C   UNL     1      -8.810   7.821  67.930  1.00  0.00    -0.123 C  
HETATM   24  C   UNL     1      -9.830   8.642  67.612  1.00  0.00    -0.229 C  
BRANCH  24  25
HETATM   25  C   UNL     1      -9.736   9.886  66.751  1.00  0.00    -0.192 C  
HETATM   26  H   UNL     1      -9.801  10.320  64.831  1.00  0.00     0.000 HD 
HETATM   27  O   UNL     1      -9.860   9.541  65.370  1.00  0.00    -0.302 OA 
BRANCH  25  28
HETATM   28  C   UNL     1     -10.785  10.954  67.094  1.00  0.00    -0.320 C  
BRANCH  28  29
HETATM   29  C   UNL     1     -10.547  11.610  68.476  1.00  0.00    -0.215 C  
HETATM   30  O   UNL     1     -10.055  12.945  68.325  1.00  0.00    -0.233 OA 
HETATM   31  H   UNL     1      -9.908  13.348  69.174  1.00  0.00     0.000 HD 
BRANCH  29  32
HETATM   32  C   UNL     1     -11.832  11.730  69.296  1.00  0.00    -0.389 C  
HETATM   33  C   UNL     1     -12.035  10.553  70.207  1.00  0.00    -0.325 C  
HETATM   34  O   UNL     1     -11.133   9.925  70.737  1.00  0.00    -0.303 OA 
HETATM   35  O   UNL     1     -13.339  10.251  70.404  1.00  0.00    -0.178 OA 
ENDBRANCH  29  32
ENDBRANCH  28  29
ENDBRANCH  25  28
ENDBRANCH  24  25
ENDBRANCH   8  23
TORSDOF 8
ENDMDL
MODEL      158
REMARK 921   NORMALIZED FREE ENERGY PREDICTED BY IDOCK:   -4.22 KCAL/MOL
REMARK 922        TOTAL FREE ENERGY PREDICTED BY IDOCK:   -7.73 KCAL/MOL
REMARK 923 INTER-LIGAND FREE ENERGY PREDICTED BY IDOCK:   -6.83 KCAL/MOL
REMARK 924 INTRA-LIGAND FREE ENERGY PREDICTED BY IDOCK:   -0.90 KCAL/MOL
REMARK 927      BINDING AFFINITY PREDICTED BY RF-SCORE:    0.00 PKD
ROOT
HETATM    1  C   UNL     1      -9.755   9.654  66.588  1.00  0.00    -0.266 C  
HETATM    2  C   UNL     1      -8.517  10.561  66.680  1.00  0.00    -0.129 C  
HETATM    3  C   UNL     1      -7.600  10.283  65.485  1.00  0.00    -0.149 C  
HETATM    4  C   UNL     1      -8.873  12.044  66.742  1.00  0.00    -0.198 A  
HETATM    5  N   UNL     1     -10.043  12.383  66.154  1.00  0.00    -0.243 NA 
HETATM    6  C   UNL     1     -10.358  13.677  66.154  1.00  0.00    -0.297 A  
HETATM    7  N   UNL     1      -9.605  14.666  66.624  1.00  0.00    -0.264 NA 
HETATM    8  C   UNL     1      -8.011  12.998  67.316  1.00  0.00    -0.143 A  
HETATM    9  C   UNL     1      -8.403  14.337  67.169  1.00  0.00    -0.180 A  
ENDROOT
BRANCH   6  10
HETATM   10  N   UNL     1     -11.686  13.988  65.812  1.00  0.00    -0.350 N  
HETATM   11  C   UNL     1     -12.648  13.946  66.921  1.00  0.00     0.011 C  
BRANCH  10  12
HETATM   12  S   UNL     1     -12.192  13.392  64.329  1.00  0.00    -0.372 S  
HETATM   13  C   UNL     1     -10.750  12.592  63.643  1.00  0.00    -0.372 C  
HETATM   14  O   UNL     1     -13.166  12.348  64.593  1.00  0.00    -0.822 OA 
HETATM   15  O   UNL     1     -12.526  14.494  63.457  1.00  0.00    -0.727 OA 
ENDBRANCH  10  12
ENDBRANCH   6  10
BRANCH   9  16
HETATM   16  C   UNL     1      -7.598  15.536  67.556  1.00  0.00    -0.201 A  
HETATM   17  F   UNL     1      -5.444  18.922  68.691  1.00  0.00    -0.187 F  
HETATM   18  C   UNL     1      -8.092  16.447  68.519  1.00  0.00    -0.205 A  
HETATM   19  C   UNL     1      -7.377  17.588  68.898  1.00  0.00    -0.245 A  
HETATM   20  C   UNL     1      -5.635  16.996  67.348  1.00  0.00    -0.171 A  
HETATM   21  C   UNL     1      -6.144  17.843  68.320  1.00  0.00    -0.177 A  
HETATM   22  C   UNL     1      -6.366  15.866  66.957  1.00  0.00     0.073 A  
ENDBRANCH   9  16
BRANCH   8  23
HETATM   23  C   UNL     1      -6.796  12.545  68.021  1.00  0.00    -0.094 C  
HETATM   24  C   UNL     1      -6.681  12.475  69.363  1.00  0.00    -0.022 C  
BRANCH  24  25
HETATM   25  C   UNL     1      -5.539  11.835  70.125  1.00  0.00    -0.131 C  
HETATM   26  H   UNL     1      -4.858  11.834  71.974  1.00  0.00     0.000 HD 
HETATM   27  O   UNL     1      -5.574  12.235  71.496  1.00  0.00    -0.395 OA 
BRANCH  25  28
HETATM   28  C   UNL     1      -5.535  10.300  70.055  1.00  0.00    -0.045 C  
BRANCH  28  29
HETATM   29  C   UNL     1      -6.499   9.647  71.074  1.00  0.00    -0.050 C  
HETATM   30  O   UNL     1      -7.613   9.047  70.406  1.00  0.00    -0.074 OA 
HETATM   31  H   UNL     1      -8.206   8.646  71.032  1.00  0.00     0.000 HD 
BRANCH  29  32
HETATM   32  C   UNL     1      -5.836   8.524  71.871  1.00  0.00    -0.051 C  
HETATM   33  C   UNL     1      -6.575   8.220  73.144  1.00  0.00    -0.104 C  
HETATM   34  O   UNL     1      -7.784   8.316  73.283  1.00  0.00    -0.183 OA 
HETATM   35  O   UNL     1      -5.763   7.805  74.144  1.00  0.00    -0.066 OA 
ENDBRANCH  29  32
ENDBRANCH  28  29
ENDBRANCH  25  28
ENDBRANCH  24  25
ENDBRANCH   8  23
TORSDOF 8
ENDMDL
MODEL      159
REMARK 921   NORMALIZED FREE ENERGY PREDICTED BY IDOCK:   -4.19 KCAL/MOL
REMARK 922        TOTAL FREE ENERGY PREDICTED BY IDOCK:   -7.69 KCAL/MOL
REMARK 923 INTER-LIGAND FREE ENERGY PREDICTED BY IDOCK:   -6.97 KCAL/MOL
REMARK 924 INTRA-LIGAND FREE ENERGY PREDICTED BY IDOCK:   -0.72 KCAL/MOL
REMARK 927      BINDING AFFINITY PREDICTED BY RF-SCORE:    0.00 PKD
ROOT
HETATM    1  C   UNL     1     -10.731  20.071  67.632  1.00  0.00    -0.328 C  
HETATM    2  C   UNL     1     -10.577  18.549  67.782  1.00  0.00    -0.422 C  
HETATM    3  C   UNL     1     -11.221  17.857  66.577  1.00  0.00     0.765 C  
HETATM    4  C   UNL     1      -9.122  18.114  67.929  1.00  0.00    -0.265 A  
HETATM    5  N   UNL     1      -8.211  18.935  67.357  1.00  0.00    -0.268 NA 
HETATM    6  C   UNL     1      -6.936  18.557  67.431  1.00  0.00    -0.204 A  
HETATM    7  N   UNL     1      -6.485  17.425  67.962  1.00  0.00    -0.156 NA 
HETATM    8  C   UNL     1      -8.760  16.909  68.562  1.00  0.00    -0.251 A  
HETATM    9  C   UNL     1      -7.401  16.569  68.492  1.00  0.00    -0.186 A  
ENDROOT
BRANCH   6  10
HETATM   10  N   UNL     1      -5.983  19.536  67.103  1.00  0.00    -0.178 N  
HETATM   11  C   UNL     1      -5.773  20.577  68.118  1.00  0.00    -0.266 C  
BRANCH  10  12
HETATM   12  S   UNL     1      -5.987  20.015  65.496  1.00  0.00    -0.201 S  
HETATM   13  C   UNL     1      -5.135  18.709  64.628  1.00  0.00    -0.167 C  
HETATM   14  O   UNL     1      -7.367  19.990  65.042  1.00  0.00    -0.304 OA 
HETATM   15  O   UNL     1      -5.196  21.215  65.350  1.00  0.00    -0.196 OA 
ENDBRANCH  10  12
ENDBRANCH   6  10
BRANCH   9  16
HETATM   16  C   UNL     1      -6.791  15.284  68.952  1.00  0.00    -0.122 A  
HETATM   17  F   UNL     1      -5.142  11.646  70.149  1.00  0.00    -0.062 F  
HETATM   18  C   UNL     1      -6.835  14.137  68.125  1.00  0.00    -0.129 A  
HETATM   19  C   UNL     1      -6.289  12.912  68.525  1.00  0.00    -0.079 A  
HETATM   20  C   UNL     1      -5.647  13.897  70.624  1.00  0.00    -0.161 A  
HETATM   21  C   UNL     1      -5.684  12.809  69.767  1.00  0.00    -0.110 A  
HETATM   22  C   UNL     1      -6.213  15.116  70.226  1.00  0.00    -0.108 A  
ENDBRANCH   9  16
BRANCH   8  23
HETATM   23  C   UNL     1      -9.797  16.110  69.245  1.00  0.00    -0.250 C  
HETATM   24  C   UNL     1     -10.429  15.056  68.691  1.00  0.00    -0.238 C  
BRANCH  24  25
HETATM   25  C   UNL     1     -11.347  14.090  69.412  1.00  0.00    -0.268 C  
HETATM   26  H   UNL     1     -13.043  14.182  70.409  1.00  0.00     0.000 HD 
HETATM   27  O   UNL     1     -12.468  14.788  69.957  1.00  0.00    -0.324 OA 
BRANCH  25  28
HETATM   28  C   UNL     1     -11.856  12.945  68.524  1.00  0.00    -0.350 C  
BRANCH  28  29
HETATM   29  C   UNL     1     -12.449  13.441  67.183  1.00  0.00     0.032 C  
HETATM   30  O   UNL     1     -12.490  14.871  67.144  1.00  0.00    -0.330 OA 
HETATM   31  H   UNL     1     -12.855  15.175  66.321  1.00  0.00     0.000 HD 
BRANCH  29  32
HETATM   32  C   UNL     1     -11.609  13.016  65.978  1.00  0.00    -0.409 C  
HETATM   33  C   UNL     1     -12.283  13.337  64.675  1.00  0.00    -0.407 C  
HETATM   34  O   UNL     1     -13.011  14.300  64.491  1.00  0.00    -0.574 OA 
HETATM   35  O   UNL     1     -11.995  12.452  63.693  1.00  0.00    -0.450 OA 
ENDBRANCH  29  32
ENDBRANCH  28  29
ENDBRANCH  25  28
ENDBRANCH  24  25
ENDBRANCH   8  23
TORSDOF 8
ENDMDL
MODEL      160
REMARK 921   NORMALIZED FREE ENERGY PREDICTED BY IDOCK:   -4.17 KCAL/MOL
REMARK 922        TOTAL FREE ENERGY PREDICTED BY IDOCK:   -7.67 KCAL/MOL
REMARK 923 INTER-LIGAND FREE ENERGY PREDICTED BY IDOCK:   -9.14 KCAL/MOL
REMARK 924 INTRA-LIGAND FREE ENERGY PREDICTED BY IDOCK:    1.47 KCAL/MOL
REMARK 927      BINDING AFFINITY PREDICTED BY RF-SCORE:    0.00 PKD
ROOT
HETATM    1  C   UNL     1     -10.668  11.188  65.024  1.00  0.00    -0.301 C  
HETATM    2  C   UNL     1     -11.497  12.215  65.811  1.00  0.00    -0.414 C  
HETATM    3  C   UNL     1     -12.931  12.223  65.273  1.00  0.00     0.856 C  
HETATM    4  C   UNL     1     -11.495  11.951  67.314  1.00  0.00    -0.317 A  
HETATM    5  N   UNL     1     -11.312  10.659  67.674  1.00  0.00    -0.448 NA 
HETATM    6  C   UNL     1     -11.350  10.392  68.978  1.00  0.00    -0.219 A  
HETATM    7  N   UNL     1     -11.607  11.263  69.949  1.00  0.00    -0.315 NA 
HETATM    8  C   UNL     1     -11.730  12.972  68.255  1.00  0.00    -0.390 A  
HETATM    9  C   UNL     1     -11.845  12.553  69.589  1.00  0.00    -0.314 A  
ENDROOT
BRANCH   6  10
HETATM   10  N   UNL     1     -10.876   9.125  69.362  1.00  0.00    -0.194 N  
HETATM   11  C   UNL     1     -11.368   8.634  70.656  1.00  0.00    -0.247 C  
BRANCH  10  12
HETATM   12  S   UNL     1      -9.269   8.829  68.985  1.00  0.00    -0.141 S  
HETATM   13  C   UNL     1      -8.426  10.360  69.346  1.00  0.00    -0.134 C  
HETATM   14  O   UNL     1      -8.778   7.844  69.932  1.00  0.00    -0.138 OA 
HETATM   15  O   UNL     1      -9.145   8.596  67.564  1.00  0.00    -0.133 OA 
ENDBRANCH  10  12
ENDBRANCH   6  10
BRANCH   9  16
HETATM   16  C   UNL     1     -12.235  13.413  70.749  1.00  0.00    -0.409 A  
HETATM   17  F   UNL     1     -13.424  15.756  73.987  1.00  0.00    -0.381 F  
HETATM   18  C   UNL     1     -13.388  13.106  71.508  1.00  0.00    -0.305 A  
HETATM   19  C   UNL     1     -13.796  13.893  72.591  1.00  0.00    -0.515 A  
HETATM   20  C   UNL     1     -11.934  15.367  72.205  1.00  0.00    -0.514 A  
HETATM   21  C   UNL     1     -13.053  15.009  72.940  1.00  0.00    -0.478 A  
HETATM   22  C   UNL     1     -11.543  14.586  71.108  1.00  0.00    -0.201 A  
ENDBRANCH   9  16
BRANCH   8  23
HETATM   23  C   UNL     1     -11.827  14.371  67.796  1.00  0.00    -0.402 C  
HETATM   24  C   UNL     1     -10.798  15.242  67.797  1.00  0.00    -0.295 C  
BRANCH  24  25
HETATM   25  C   UNL     1     -10.795  16.615  67.157  1.00  0.00    -0.126 C  
HETATM   26  H   UNL     1     -10.647  18.486  67.756  1.00  0.00     0.000 HD 
HETATM   27  O   UNL     1     -10.649  17.625  68.157  1.00  0.00    -0.376 OA 
BRANCH  25  28
HETATM   28  C   UNL     1      -9.696  16.799  66.099  1.00  0.00    -0.315 C  
BRANCH  28  29
HETATM   29  C   UNL     1      -9.343  15.485  65.362  1.00  0.00     0.159 C  
HETATM   30  O   UNL     1      -8.858  14.502  66.282  1.00  0.00    -0.473 OA 
HETATM   31  H   UNL     1      -8.641  13.695  65.830  1.00  0.00     0.000 HD 
BRANCH  29  32
HETATM   32  C   UNL     1     -10.555  14.853  64.677  1.00  0.00    -0.208 C  
HETATM   33  C   UNL     1     -11.598  15.873  64.317  1.00  0.00    -0.178 C  
HETATM   34  O   UNL     1     -11.357  17.025  63.994  1.00  0.00    -0.983 OA 
HETATM   35  O   UNL     1     -12.859  15.385  64.369  1.00  0.00    -0.287 OA 
ENDBRANCH  29  32
ENDBRANCH  28  29
ENDBRANCH  25  28
ENDBRANCH  24  25
ENDBRANCH   8  23
TORSDOF 8
ENDMDL
MODEL      161
REMARK 921   NORMALIZED FREE ENERGY PREDICTED BY IDOCK:   -4.12 KCAL/MOL
REMARK 922        TOTAL FREE ENERGY PREDICTED BY IDOCK:   -7.59 KCAL/MOL
REMARK 923 INTER-LIGAND FREE ENERGY PREDICTED BY IDOCK:   -7.01 KCAL/MOL
REMARK 924 INTRA-LIGAND FREE ENERGY PREDICTED BY IDOCK:   -0.58 KCAL/MOL
REMARK 927      BINDING AFFINITY PREDICTED BY RF-SCORE:    0.00 PKD
ROOT
HETATM    1  C   UNL     1      -5.459   8.275  66.588  1.00  0.00    -0.032 C  
HETATM    2  C   UNL     1      -6.615   9.226  66.938  1.00  0.00    -0.068 C  
HETATM    3  C   UNL     1      -7.313   9.664  65.647  1.00  0.00    -0.101 C  
HETATM    4  C   UNL     1      -7.622   8.605  67.902  1.00  0.00    -0.098 A  
HETATM    5  N   UNL     1      -7.713   7.256  67.854  1.00  0.00    -0.110 NA 
HETATM    6  C   UNL     1      -8.615   6.690  68.653  1.00  0.00    -0.125 A  
HETATM    7  N   UNL     1      -9.469   7.329  69.446  1.00  0.00    -0.155 NA 
HETATM    8  C   UNL     1      -8.441   9.389  68.737  1.00  0.00    -0.122 A  
HETATM    9  C   UNL     1      -9.419   8.688  69.459  1.00  0.00    -0.162 A  
ENDROOT
BRANCH   6  10
HETATM   10  N   UNL     1      -8.507   5.298  68.817  1.00  0.00    -0.092 N  
HETATM   11  C   UNL     1      -7.191   4.816  69.257  1.00  0.00    -0.052 C  
BRANCH  10  12
HETATM   12  S   UNL     1      -9.317   4.387  67.666  1.00  0.00    -0.165 S  
HETATM   13  C   UNL     1      -8.153   4.209  66.324  1.00  0.00    -0.098 C  
HETATM   14  O   UNL     1      -9.518   3.062  68.226  1.00  0.00    -0.197 OA 
HETATM   15  O   UNL     1     -10.442   5.140  67.161  1.00  0.00    -0.212 OA 
ENDBRANCH  10  12
ENDBRANCH   6  10
BRANCH   9  16
HETATM   16  C   UNL     1     -10.499   9.298  70.295  1.00  0.00    -0.271 A  
HETATM   17  F   UNL     1     -13.531  10.893  72.672  1.00  0.00    -0.299 F  
HETATM   18  C   UNL     1     -11.082   8.562  71.353  1.00  0.00    -0.328 A  
HETATM   19  C   UNL     1     -12.105   9.091  72.150  1.00  0.00    -0.412 A  
HETATM   20  C   UNL     1     -12.048  11.118  70.856  1.00  0.00    -0.427 A  
HETATM   21  C   UNL     1     -12.567  10.373  71.903  1.00  0.00    -0.288 A  
HETATM   22  C   UNL     1     -11.038  10.576  70.049  1.00  0.00    -0.376 A  
ENDBRANCH   9  16
BRANCH   8  23
HETATM   23  C   UNL     1      -8.222  10.847  68.805  1.00  0.00    -0.151 C  
HETATM   24  C   UNL     1      -8.960  11.756  68.136  1.00  0.00    -0.181 C  
BRANCH  24  25
HETATM   25  C   UNL     1      -8.905  13.259  68.325  1.00  0.00    -0.168 C  
HETATM   26  H   UNL     1      -7.684  14.730  67.849  1.00  0.00     0.000 HD 
HETATM   27  O   UNL     1      -7.719  13.788  67.731  1.00  0.00    -0.136 OA 
BRANCH  25  28
HETATM   28  C   UNL     1     -10.123  13.997  67.750  1.00  0.00    -0.240 C  
BRANCH  28  29
HETATM   29  C   UNL     1     -10.196  13.926  66.206  1.00  0.00    -0.297 C  
HETATM   30  O   UNL     1     -11.149  12.942  65.788  1.00  0.00    -0.278 OA 
HETATM   31  H   UNL     1     -11.194  12.898  64.839  1.00  0.00     0.000 HD 
BRANCH  29  32
HETATM   32  C   UNL     1     -10.656  15.243  65.579  1.00  0.00    -0.390 C  
HETATM   33  C   UNL     1      -9.833  16.410  66.046  1.00  0.00    -0.335 C  
HETATM   34  O   UNL     1      -8.647  16.351  66.329  1.00  0.00    -0.296 OA 
HETATM   35  O   UNL     1     -10.536  17.564  66.113  1.00  0.00    -0.353 OA 
ENDBRANCH  29  32
ENDBRANCH  28  29
ENDBRANCH  25  28
ENDBRANCH  24  25
ENDBRANCH   8  23
TORSDOF 8
ENDMDL
MODEL      162
REMARK 921   NORMALIZED FREE ENERGY PREDICTED BY IDOCK:   -4.12 KCAL/MOL
REMARK 922        TOTAL FREE ENERGY PREDICTED BY IDOCK:   -7.59 KCAL/MOL
REMARK 923 INTER-LIGAND FREE ENERGY PREDICTED BY IDOCK:   -6.09 KCAL/MOL
REMARK 924 INTRA-LIGAND FREE ENERGY PREDICTED BY IDOCK:   -1.50 KCAL/MOL
REMARK 927      BINDING AFFINITY PREDICTED BY RF-SCORE:    0.00 PKD
ROOT
HETATM    1  C   UNL     1      -8.678   3.766  68.829  1.00  0.00    -0.138 C  
HETATM    2  C   UNL     1      -8.781   4.958  67.863  1.00  0.00    -0.106 C  
HETATM    3  C   UNL     1     -10.007   4.772  66.964  1.00  0.00    -0.235 C  
HETATM    4  C   UNL     1      -8.851   6.300  68.585  1.00  0.00    -0.119 A  
HETATM    5  N   UNL     1      -9.378   6.261  69.831  1.00  0.00    -0.150 NA 
HETATM    6  C   UNL     1      -9.492   7.425  70.468  1.00  0.00    -0.161 A  
HETATM    7  N   UNL     1      -9.190   8.621  69.973  1.00  0.00    -0.153 NA 
HETATM    8  C   UNL     1      -8.450   7.503  67.971  1.00  0.00    -0.123 A  
HETATM    9  C   UNL     1      -8.709   8.673  68.702  1.00  0.00    -0.138 A  
ENDROOT
BRANCH   6  10
HETATM   10  N   UNL     1      -9.760   7.350  71.846  1.00  0.00    -0.155 N  
HETATM   11  C   UNL     1      -8.686   6.772  72.666  1.00  0.00    -0.122 C  
BRANCH  10  12
HETATM   12  S   UNL     1     -11.337   6.936  72.237  1.00  0.00    -0.275 S  
HETATM   13  C   UNL     1     -11.209   5.331  73.009  1.00  0.00    -0.324 C  
HETATM   14  O   UNL     1     -11.785   7.861  73.262  1.00  0.00    -0.201 OA 
HETATM   15  O   UNL     1     -12.104   6.768  71.024  1.00  0.00    -0.366 OA 
ENDBRANCH  10  12
ENDBRANCH   6  10
BRANCH   9  16
HETATM   16  C   UNL     1      -8.516  10.073  68.214  1.00  0.00    -0.111 A  
HETATM   17  F   UNL     1      -7.869  13.953  66.828  1.00  0.00    -0.074 F  
HETATM   18  C   UNL     1      -7.368  10.415  67.463  1.00  0.00    -0.092 A  
HETATM   19  C   UNL     1      -7.143  11.717  67.001  1.00  0.00    -0.145 A  
HETATM   20  C   UNL     1      -9.191  12.428  68.044  1.00  0.00    -0.203 A  
HETATM   21  C   UNL     1      -8.068  12.709  67.283  1.00  0.00    -0.178 A  
HETATM   22  C   UNL     1      -9.400  11.127  68.521  1.00  0.00    -0.190 A  
ENDBRANCH   9  16
BRANCH   8  23
HETATM   23  C   UNL     1      -7.798   7.459  66.649  1.00  0.00    -0.109 C  
HETATM   24  C   UNL     1      -8.457   7.545  65.475  1.00  0.00    -0.129 C  
BRANCH  24  25
HETATM   25  C   UNL     1      -7.822   7.704  64.109  1.00  0.00    -0.133 C  
HETATM   26  H   UNL     1      -7.474   6.568  62.538  1.00  0.00     0.000 HD 
HETATM   27  O   UNL     1      -7.872   6.468  63.394  1.00  0.00    -0.108 OA 
BRANCH  25  28
HETATM   28  C   UNL     1      -8.472   8.801  63.252  1.00  0.00    -0.123 C  
BRANCH  28  29
HETATM   29  C   UNL     1      -8.185  10.227  63.780  1.00  0.00    -0.153 C  
HETATM   30  O   UNL     1      -6.914  10.694  63.317  1.00  0.00    -0.337 OA 
HETATM   31  H   UNL     1      -6.737  11.569  63.642  1.00  0.00     0.000 HD 
BRANCH  29  32
HETATM   32  C   UNL     1      -9.209  11.251  63.288  1.00  0.00    -0.235 C  
HETATM   33  C   UNL     1     -10.484  11.204  64.080  1.00  0.00    -0.383 C  
HETATM   34  O   UNL     1     -10.552  10.927  65.267  1.00  0.00    -0.261 OA 
HETATM   35  O   UNL     1     -11.577  11.518  63.348  1.00  0.00    -0.363 OA 
ENDBRANCH  29  32
ENDBRANCH  28  29
ENDBRANCH  25  28
ENDBRANCH  24  25
ENDBRANCH   8  23
TORSDOF 8
ENDMDL
MODEL      163
REMARK 921   NORMALIZED FREE ENERGY PREDICTED BY IDOCK:   -4.09 KCAL/MOL
REMARK 922        TOTAL FREE ENERGY PREDICTED BY IDOCK:   -7.54 KCAL/MOL
REMARK 923 INTER-LIGAND FREE ENERGY PREDICTED BY IDOCK:   -9.70 KCAL/MOL
REMARK 924 INTRA-LIGAND FREE ENERGY PREDICTED BY IDOCK:    2.16 KCAL/MOL
REMARK 927      BINDING AFFINITY PREDICTED BY RF-SCORE:    0.00 PKD
ROOT
HETATM    1  C   UNL     1     -11.209  15.148  66.549  1.00  0.00    -0.283 C  
HETATM    2  C   UNL     1     -10.837  13.722  66.987  1.00  0.00    -0.288 C  
HETATM    3  C   UNL     1      -9.314  13.566  66.949  1.00  0.00    -0.255 C  
HETATM    4  C   UNL     1     -11.372  13.370  68.372  1.00  0.00    -0.294 A  
HETATM    5  N   UNL     1     -11.549  14.419  69.208  1.00  0.00    -0.284 NA 
HETATM    6  C   UNL     1     -11.974  14.137  70.438  1.00  0.00    -0.330 A  
HETATM    7  N   UNL     1     -12.183  12.922  70.935  1.00  0.00    -0.294 NA 
HETATM    8  C   UNL     1     -11.606  12.039  68.769  1.00  0.00    -0.366 A  
HETATM    9  C   UNL     1     -11.955  11.860  70.116  1.00  0.00    -0.332 A  
ENDROOT
BRANCH   6  10
HETATM   10  N   UNL     1     -12.431  15.228  71.198  1.00  0.00    -0.340 N  
HETATM   11  C   UNL     1     -11.484  16.342  71.334  1.00  0.00    -0.202 C  
BRANCH  10  12
HETATM   12  S   UNL     1     -13.338  14.818  72.547  1.00  0.00    -0.475 S  
HETATM   13  C   UNL     1     -12.208  14.968  73.920  1.00  0.00    -0.505 C  
HETATM   14  O   UNL     1     -14.347  15.849  72.719  1.00  0.00    -0.454 OA 
HETATM   15  O   UNL     1     -13.726  13.429  72.461  1.00  0.00    -0.613 OA 
ENDBRANCH  10  12
ENDBRANCH   6  10
BRANCH   9  16
HETATM   16  C   UNL     1     -12.111  10.548  70.816  1.00  0.00    -0.470 A  
HETATM   17  F   UNL     1     -12.446   6.853  72.721  1.00  0.00     0.032 F  
HETATM   18  C   UNL     1     -11.038   9.627  70.853  1.00  0.00    -0.422 A  
HETATM   19  C   UNL     1     -11.147   8.383  71.485  1.00  0.00    -0.329 A  
HETATM   20  C   UNL     1     -13.428   8.889  72.057  1.00  0.00    -0.482 A  
HETATM   21  C   UNL     1     -12.339   8.033  72.097  1.00  0.00    -0.315 A  
HETATM   22  C   UNL     1     -13.319  10.125  71.406  1.00  0.00    -0.413 A  
ENDBRANCH   9  16
BRANCH   8  23
HETATM   23  C   UNL     1     -11.481  10.955  67.776  1.00  0.00    -0.323 C  
HETATM   24  C   UNL     1     -10.311  10.396  67.407  1.00  0.00    -0.275 C  
BRANCH  24  25
HETATM   25  C   UNL     1     -10.148   9.157  66.550  1.00  0.00    -0.287 C  
HETATM   26  H   UNL     1      -9.972   8.742  64.633  1.00  0.00     0.000 HD 
HETATM   27  O   UNL     1     -10.074   9.518  65.170  1.00  0.00    -0.098 OA 
BRANCH  25  28
HETATM   28  C   UNL     1      -8.915   8.316  66.912  1.00  0.00    -0.169 C  
BRANCH  28  29
HETATM   29  C   UNL     1      -8.213   7.711  65.671  1.00  0.00    -0.136 C  
HETATM   30  O   UNL     1      -8.961   7.985  64.482  1.00  0.00    -0.284 OA 
HETATM   31  H   UNL     1      -8.530   7.613  63.720  1.00  0.00     0.000 HD 
BRANCH  29  32
HETATM   32  C   UNL     1      -6.824   8.304  65.437  1.00  0.00    -0.062 C  
HETATM   33  C   UNL     1      -6.889   9.710  64.911  1.00  0.00    -0.109 C  
HETATM   34  O   UNL     1      -7.760  10.516  65.198  1.00  0.00    -0.137 OA 
HETATM   35  O   UNL     1      -5.864  10.017  64.084  1.00  0.00    -0.108 OA 
ENDBRANCH  29  32
ENDBRANCH  28  29
ENDBRANCH  25  28
ENDBRANCH  24  25
ENDBRANCH   8  23
TORSDOF 8
ENDMDL
MODEL      164
REMARK 921   NORMALIZED FREE ENERGY PREDICTED BY IDOCK:   -4.01 KCAL/MOL
REMARK 922        TOTAL FREE ENERGY PREDICTED BY IDOCK:   -7.43 KCAL/MOL
REMARK 923 INTER-LIGAND FREE ENERGY PREDICTED BY IDOCK:   -7.15 KCAL/MOL
REMARK 924 INTRA-LIGAND FREE ENERGY PREDICTED BY IDOCK:   -0.28 KCAL/MOL
REMARK 927      BINDING AFFINITY PREDICTED BY RF-SCORE:    0.00 PKD
ROOT
HETATM    1  C   UNL     1     -12.209  11.795  63.498  1.00  0.00    -0.489 C  
HETATM    2  C   UNL     1     -10.884  11.428  64.184  1.00  0.00    -0.431 C  
HETATM    3  C   UNL     1      -9.827  11.140  63.114  1.00  0.00    -0.403 C  
HETATM    4  C   UNL     1     -10.392  12.510  65.139  1.00  0.00    -0.289 A  
HETATM    5  N   UNL     1     -10.790  13.769  64.842  1.00  0.00    -0.367 NA 
HETATM    6  C   UNL     1     -10.339  14.741  65.634  1.00  0.00    -0.349 A  
HETATM    7  N   UNL     1      -9.492  14.595  66.648  1.00  0.00    -0.265 NA 
HETATM    8  C   UNL     1      -9.532  12.225  66.218  1.00  0.00    -0.234 A  
HETATM    9  C   UNL     1      -9.046  13.339  66.918  1.00  0.00    -0.232 A  
ENDROOT
BRANCH   6  10
HETATM   10  N   UNL     1     -10.978  15.987  65.505  1.00  0.00    -0.258 N  
HETATM   11  C   UNL     1     -11.752  16.173  64.271  1.00  0.00     0.003 C  
BRANCH  10  12
HETATM   12  S   UNL     1     -10.091  17.295  66.065  1.00  0.00    -0.215 S  
HETATM   13  C   UNL     1     -10.371  17.315  67.828  1.00  0.00    -0.356 C  
HETATM   14  O   UNL     1      -8.687  16.982  65.867  1.00  0.00    -0.524 OA 
HETATM   15  O   UNL     1     -10.646  18.516  65.529  1.00  0.00    -0.621 OA 
ENDBRANCH  10  12
ENDBRANCH   6  10
BRANCH   9  16
HETATM   16  C   UNL     1      -8.013  13.315  68.000  1.00  0.00    -0.152 A  
HETATM   17  F   UNL     1      -5.133  13.362  71.015  1.00  0.00    -0.099 F  
HETATM   18  C   UNL     1      -7.677  14.502  68.692  1.00  0.00    -0.137 A  
HETATM   19  C   UNL     1      -6.706  14.524  69.700  1.00  0.00    -0.155 A  
HETATM   20  C   UNL     1      -6.322  12.173  69.365  1.00  0.00    -0.116 A  
HETATM   21  C   UNL     1      -6.049  13.353  70.039  1.00  0.00    -0.125 A  
HETATM   22  C   UNL     1      -7.280  12.161  68.343  1.00  0.00    -0.097 A  
ENDBRANCH   9  16
BRANCH   8  23
HETATM   23  C   UNL     1      -9.215  10.820  66.538  1.00  0.00    -0.187 C  
HETATM   24  C   UNL     1      -9.724  10.149  67.591  1.00  0.00    -0.187 C  
BRANCH  24  25
HETATM   25  C   UNL     1      -9.589   8.662  67.848  1.00  0.00    -0.149 C  
HETATM   26  H   UNL     1     -10.699   7.221  68.603  1.00  0.00     0.000 HD 
HETATM   27  O   UNL     1     -10.784   8.153  68.442  1.00  0.00    -0.137 OA 
BRANCH  25  28
HETATM   28  C   UNL     1      -9.271   7.845  66.587  1.00  0.00    -0.221 C  
BRANCH  28  29
HETATM   29  C   UNL     1      -8.167   6.785  66.818  1.00  0.00    -0.114 C  
HETATM   30  O   UNL     1      -7.874   6.085  65.604  1.00  0.00    -0.094 OA 
HETATM   31  H   UNL     1      -7.196   5.434  65.745  1.00  0.00     0.000 HD 
BRANCH  29  32
HETATM   32  C   UNL     1      -6.845   7.406  67.270  1.00  0.00    -0.078 C  
HETATM   33  C   UNL     1      -6.130   6.547  68.274  1.00  0.00    -0.028 C  
HETATM   34  O   UNL     1      -6.169   5.327  68.294  1.00  0.00    -0.031 OA 
HETATM   35  O   UNL     1      -5.409   7.262  69.168  1.00  0.00    -0.014 OA 
ENDBRANCH  29  32
ENDBRANCH  28  29
ENDBRANCH  25  28
ENDBRANCH  24  25
ENDBRANCH   8  23
TORSDOF 8
ENDMDL
MODEL      165
REMARK 921   NORMALIZED FREE ENERGY PREDICTED BY IDOCK:   -4.01 KCAL/MOL
REMARK 922        TOTAL FREE ENERGY PREDICTED BY IDOCK:   -7.43 KCAL/MOL
REMARK 923 INTER-LIGAND FREE ENERGY PREDICTED BY IDOCK:   -8.17 KCAL/MOL
REMARK 924 INTRA-LIGAND FREE ENERGY PREDICTED BY IDOCK:    0.74 KCAL/MOL
REMARK 927      BINDING AFFINITY PREDICTED BY RF-SCORE:    0.00 PKD
ROOT
HETATM    1  C   UNL     1      -9.399  14.250  66.771  1.00  0.00    -0.290 C  
HETATM    2  C   UNL     1      -9.337  12.844  67.388  1.00  0.00    -0.194 C  
HETATM    3  C   UNL     1      -7.947  12.621  67.993  1.00  0.00    -0.155 C  
HETATM    4  C   UNL     1     -10.417  12.611  68.440  1.00  0.00    -0.238 A  
HETATM    5  N   UNL     1     -10.852  13.722  69.079  1.00  0.00    -0.242 NA 
HETATM    6  C   UNL     1     -11.763  13.544  70.033  1.00  0.00    -0.241 A  
HETATM    7  N   UNL     1     -12.240  12.376  70.453  1.00  0.00    -0.332 NA 
HETATM    8  C   UNL     1     -10.882  11.322  68.765  1.00  0.00    -0.252 A  
HETATM    9  C   UNL     1     -11.767  11.251  69.852  1.00  0.00    -0.352 A  
ENDROOT
BRANCH   6  10
HETATM   10  N   UNL     1     -12.419  14.704  70.484  1.00  0.00    -0.329 N  
HETATM   11  C   UNL     1     -11.689  15.961  70.275  1.00  0.00    -0.340 C  
BRANCH  10  12
HETATM   12  S   UNL     1     -13.254  14.526  71.927  1.00  0.00    -0.391 S  
HETATM   13  C   UNL     1     -12.120  15.094  73.183  1.00  0.00    -0.387 C  
HETATM   14  O   UNL     1     -14.360  15.467  71.903  1.00  0.00    -0.509 OA 
HETATM   15  O   UNL     1     -13.498  13.124  72.171  1.00  0.00    -0.499 OA 
ENDBRANCH  10  12
ENDBRANCH   6  10
BRANCH   9  16
HETATM   16  C   UNL     1     -12.285   9.999  70.483  1.00  0.00    -0.308 A  
HETATM   17  F   UNL     1     -13.820   6.564  72.283  1.00  0.00    -0.268 F  
HETATM   18  C   UNL     1     -13.605   9.948  70.988  1.00  0.00    -0.168 A  
HETATM   19  C   UNL     1     -14.123   8.800  71.599  1.00  0.00    -0.437 A  
HETATM   20  C   UNL     1     -12.015   7.688  71.267  1.00  0.00    -0.330 A  
HETATM   21  C   UNL     1     -13.326   7.673  71.717  1.00  0.00    -0.315 A  
HETATM   22  C   UNL     1     -11.496   8.847  70.674  1.00  0.00    -0.280 A  
ENDBRANCH   9  16
BRANCH   8  23
HETATM   23  C   UNL     1     -10.433  10.167  67.964  1.00  0.00    -0.249 C  
HETATM   24  C   UNL     1      -9.261   9.526  68.150  1.00  0.00    -0.134 C  
BRANCH  24  25
HETATM   25  C   UNL     1      -8.846   8.225  67.494  1.00  0.00    -0.135 C  
HETATM   26  H   UNL     1      -8.642   7.533  65.661  1.00  0.00     0.000 HD 
HETATM   27  O   UNL     1      -8.902   8.348  66.072  1.00  0.00    -0.149 OA 
BRANCH  25  28
HETATM   28  C   UNL     1      -7.441   7.753  67.897  1.00  0.00    -0.104 C  
BRANCH  28  29
HETATM   29  C   UNL     1      -7.115   8.031  69.385  1.00  0.00    -0.063 C  
HETATM   30  O   UNL     1      -7.122   9.437  69.651  1.00  0.00    -0.056 OA 
HETATM   31  H   UNL     1      -6.922   9.608  70.565  1.00  0.00     0.000 HD 
BRANCH  29  32
HETATM   32  C   UNL     1      -8.147   7.421  70.334  1.00  0.00    -0.108 C  
HETATM   33  C   UNL     1      -7.767   7.601  71.776  1.00  0.00    -0.086 C  
HETATM   34  O   UNL     1      -7.155   8.562  72.216  1.00  0.00    -0.118 OA 
HETATM   35  O   UNL     1      -8.185   6.587  72.567  1.00  0.00    -0.105 OA 
ENDBRANCH  29  32
ENDBRANCH  28  29
ENDBRANCH  25  28
ENDBRANCH  24  25
ENDBRANCH   8  23
TORSDOF 8
ENDMDL
MODEL      166
REMARK 921   NORMALIZED FREE ENERGY PREDICTED BY IDOCK:   -3.99 KCAL/MOL
REMARK 922        TOTAL FREE ENERGY PREDICTED BY IDOCK:   -7.40 KCAL/MOL
REMARK 923 INTER-LIGAND FREE ENERGY PREDICTED BY IDOCK:   -6.19 KCAL/MOL
REMARK 924 INTRA-LIGAND FREE ENERGY PREDICTED BY IDOCK:   -1.21 KCAL/MOL
REMARK 927      BINDING AFFINITY PREDICTED BY RF-SCORE:    0.00 PKD
ROOT
HETATM    1  C   UNL     1     -10.489   4.586  66.047  1.00  0.00    -0.236 C  
HETATM    2  C   UNL     1     -10.266   5.610  67.172  1.00  0.00    -0.255 C  
HETATM    3  C   UNL     1      -9.833   4.873  68.443  1.00  0.00    -0.200 C  
HETATM    4  C   UNL     1      -9.242   6.680  66.804  1.00  0.00    -0.149 A  
HETATM    5  N   UNL     1      -8.308   6.302  65.901  1.00  0.00    -0.135 NA 
HETATM    6  C   UNL     1      -7.376   7.201  65.593  1.00  0.00    -0.079 A  
HETATM    7  N   UNL     1      -7.245   8.409  66.133  1.00  0.00    -0.076 NA 
HETATM    8  C   UNL     1      -9.236   7.951  67.411  1.00  0.00    -0.160 A  
HETATM    9  C   UNL     1      -8.149   8.776  67.081  1.00  0.00    -0.100 A  
ENDROOT
BRANCH   6  10
HETATM   10  N   UNL     1      -6.596   6.918  64.458  1.00  0.00    -0.042 N  
HETATM   11  C   UNL     1      -6.870   7.753  63.281  1.00  0.00    -0.071 C  
BRANCH  10  12
HETATM   12  S   UNL     1      -6.296   5.289  64.197  1.00  0.00    -0.023 S  
HETATM   13  C   UNL     1      -5.207   5.247  62.783  1.00  0.00    -0.013 C  
HETATM   14  O   UNL     1      -5.530   4.804  65.331  1.00  0.00    -0.013 OA 
HETATM   15  O   UNL     1      -7.523   4.630  63.813  1.00  0.00    -0.057 OA 
ENDBRANCH  10  12
ENDBRANCH   6  10
BRANCH   9  16
HETATM   16  C   UNL     1      -7.835  10.102  67.696  1.00  0.00    -0.098 A  
HETATM   17  F   UNL     1      -6.892  13.746  69.490  1.00  0.00    -0.112 F  
HETATM   18  C   UNL     1      -6.807  10.214  68.661  1.00  0.00    -0.057 A  
HETATM   19  C   UNL     1      -6.491  11.434  69.271  1.00  0.00    -0.096 A  
HETATM   20  C   UNL     1      -8.238  12.503  68.010  1.00  0.00    -0.166 A  
HETATM   21  C   UNL     1      -7.201  12.572  68.926  1.00  0.00    -0.050 A  
HETATM   22  C   UNL     1      -8.563  11.275  67.418  1.00  0.00    -0.136 A  
ENDBRANCH   9  16
BRANCH   8  23
HETATM   23  C   UNL     1     -10.338   8.327  68.316  1.00  0.00    -0.242 C  
HETATM   24  C   UNL     1     -10.319   8.140  69.652  1.00  0.00    -0.221 C  
BRANCH  24  25
HETATM   25  C   UNL     1     -11.330   8.684  70.640  1.00  0.00    -0.247 C  
HETATM   26  H   UNL     1     -11.990   8.214  72.436  1.00  0.00     0.000 HD 
HETATM   27  O   UNL     1     -11.357   7.873  71.816  1.00  0.00    -0.248 OA 
BRANCH  25  28
HETATM   28  C   UNL     1     -11.070  10.143  71.047  1.00  0.00    -0.243 C  
BRANCH  28  29
HETATM   29  C   UNL     1     -12.053  11.137  70.384  1.00  0.00    -0.385 C  
HETATM   30  O   UNL     1     -12.741  10.519  69.292  1.00  0.00    -0.703 OA 
HETATM   31  H   UNL     1     -13.345  11.130  68.884  1.00  0.00     0.000 HD 
BRANCH  29  32
HETATM   32  C   UNL     1     -13.142  11.614  71.346  1.00  0.00    -0.342 C  
HETATM   33  C   UNL     1     -13.134  13.107  71.517  1.00  0.00    -0.315 C  
HETATM   34  O   UNL     1     -12.823  13.901  70.644  1.00  0.00    -0.299 OA 
HETATM   35  O   UNL     1     -13.525  13.503  72.750  1.00  0.00    -0.621 OA 
ENDBRANCH  29  32
ENDBRANCH  28  29
ENDBRANCH  25  28
ENDBRANCH  24  25
ENDBRANCH   8  23
TORSDOF 8
ENDMDL
MODEL      167
REMARK 921   NORMALIZED FREE ENERGY PREDICTED BY IDOCK:   -3.97 KCAL/MOL
REMARK 922        TOTAL FREE ENERGY PREDICTED BY IDOCK:   -7.36 KCAL/MOL
REMARK 923 INTER-LIGAND FREE ENERGY PREDICTED BY IDOCK:   -6.26 KCAL/MOL
REMARK 924 INTRA-LIGAND FREE ENERGY PREDICTED BY IDOCK:   -1.10 KCAL/MOL
REMARK 927      BINDING AFFINITY PREDICTED BY RF-SCORE:    0.00 PKD
ROOT
HETATM    1  C   UNL     1     -12.300  12.962  64.520  1.00  0.00    -0.483 C  
HETATM    2  C   UNL     1     -11.201  11.914  64.754  1.00  0.00    -0.356 C  
HETATM    3  C   UNL     1     -10.302  11.843  63.516  1.00  0.00    -0.495 C  
HETATM    4  C   UNL     1     -10.367  12.199  65.999  1.00  0.00    -0.237 A  
HETATM    5  N   UNL     1     -10.288  13.501  66.358  1.00  0.00    -0.283 NA 
HETATM    6  C   UNL     1      -9.531  13.785  67.416  1.00  0.00    -0.224 A  
HETATM    7  N   UNL     1      -8.803  12.918  68.113  1.00  0.00    -0.191 NA 
HETATM    8  C   UNL     1      -9.677  11.182  66.689  1.00  0.00    -0.224 A  
HETATM    9  C   UNL     1      -8.835  11.614  67.725  1.00  0.00    -0.159 A  
ENDROOT
BRANCH   6  10
HETATM   10  N   UNL     1      -9.683  15.074  67.956  1.00  0.00    -0.211 N  
HETATM   11  C   UNL     1      -8.503  15.611  68.646  1.00  0.00    -0.179 C  
BRANCH  10  12
HETATM   12  S   UNL     1     -11.182  15.380  68.640  1.00  0.00    -0.327 S  
HETATM   13  C   UNL     1     -10.819  16.149  70.210  1.00  0.00    -0.297 C  
HETATM   14  O   UNL     1     -11.834  16.387  67.821  1.00  0.00     0.190 OA 
HETATM   15  O   UNL     1     -11.848  14.129  68.920  1.00  0.00    -0.311 OA 
ENDBRANCH  10  12
ENDBRANCH   6  10
BRANCH   9  16
HETATM   16  C   UNL     1      -7.892  10.756  68.505  1.00  0.00    -0.122 A  
HETATM   17  F   UNL     1      -5.194   8.353  70.589  1.00  0.00    -0.023 F  
HETATM   18  C   UNL     1      -6.619  10.434  67.979  1.00  0.00    -0.061 A  
HETATM   19  C   UNL     1      -5.712   9.623  68.671  1.00  0.00    -0.039 A  
HETATM   20  C   UNL     1      -7.312   9.376  70.451  1.00  0.00    -0.124 A  
HETATM   21  C   UNL     1      -6.063   9.114  69.911  1.00  0.00    -0.038 A  
HETATM   22  C   UNL     1      -8.223  10.172  69.744  1.00  0.00    -0.161 A  
ENDBRANCH   9  16
BRANCH   8  23
HETATM   23  C   UNL     1      -9.884   9.774  66.298  1.00  0.00    -0.315 C  
HETATM   24  C   UNL     1     -10.154   8.779  67.167  1.00  0.00    -0.320 C  
BRANCH  24  25
HETATM   25  C   UNL     1     -10.568   7.368  66.802  1.00  0.00    -0.211 C  
HETATM   26  H   UNL     1     -10.041   6.006  65.480  1.00  0.00     0.000 HD 
HETATM   27  O   UNL     1      -9.782   6.890  65.709  1.00  0.00     0.242 OA 
BRANCH  25  28
HETATM   28  C   UNL     1     -10.458   6.373  67.967  1.00  0.00    -0.271 C  
BRANCH  28  29
HETATM   29  C   UNL     1     -10.393   4.900  67.497  1.00  0.00    -0.043 C  
HETATM   30  O   UNL     1     -11.001   4.750  66.211  1.00  0.00    -0.528 OA 
HETATM   31  H   UNL     1     -10.961   3.845  65.922  1.00  0.00     0.000 HD 
BRANCH  29  32
HETATM   32  C   UNL     1      -8.957   4.398  67.340  1.00  0.00    -0.129 C  
HETATM   33  C   UNL     1      -8.795   2.982  67.815  1.00  0.00    -0.133 C  
HETATM   34  O   UNL     1      -9.660   2.124  67.738  1.00  0.00    -0.148 OA 
HETATM   35  O   UNL     1      -7.572   2.731  68.334  1.00  0.00    -0.051 OA 
ENDBRANCH  29  32
ENDBRANCH  28  29
ENDBRANCH  25  28
ENDBRANCH  24  25
ENDBRANCH   8  23
TORSDOF 8
ENDMDL
MODEL      168
REMARK 921   NORMALIZED FREE ENERGY PREDICTED BY IDOCK:   -3.96 KCAL/MOL
REMARK 922        TOTAL FREE ENERGY PREDICTED BY IDOCK:   -7.36 KCAL/MOL
REMARK 923 INTER-LIGAND FREE ENERGY PREDICTED BY IDOCK:   -5.71 KCAL/MOL
REMARK 924 INTRA-LIGAND FREE ENERGY PREDICTED BY IDOCK:   -1.66 KCAL/MOL
REMARK 927      BINDING AFFINITY PREDICTED BY RF-SCORE:    0.00 PKD
ROOT
HETATM    1  C   UNL     1     -10.523   5.007  65.854  1.00  0.00    -0.233 C  
HETATM    2  C   UNL     1     -10.458   6.388  66.525  1.00  0.00    -0.150 C  
HETATM    3  C   UNL     1     -11.499   6.452  67.647  1.00  0.00     0.210 C  
HETATM    4  C   UNL     1      -9.071   6.717  67.069  1.00  0.00    -0.131 A  
HETATM    5  N   UNL     1      -8.316   5.648  67.415  1.00  0.00    -0.101 NA 
HETATM    6  C   UNL     1      -7.117   5.907  67.933  1.00  0.00    -0.071 A  
HETATM    7  N   UNL     1      -6.620   7.112  68.195  1.00  0.00    -0.047 NA 
HETATM    8  C   UNL     1      -8.634   8.043  67.255  1.00  0.00    -0.124 A  
HETATM    9  C   UNL     1      -7.396   8.189  67.899  1.00  0.00    -0.096 A  
ENDROOT
BRANCH   6  10
HETATM   10  N   UNL     1      -6.233   4.817  68.016  1.00  0.00    -0.034 N  
HETATM   11  C   UNL     1      -6.128   3.997  66.802  1.00  0.00    -0.028 C  
BRANCH  10  12
HETATM   12  S   UNL     1      -6.236   4.017  69.490  1.00  0.00    -0.028 S  
HETATM   13  C   UNL     1      -5.514   2.421  69.144  1.00  0.00    -0.013 C  
HETATM   14  O   UNL     1      -5.309   4.716  70.363  1.00  0.00    -0.003 OA 
HETATM   15  O   UNL     1      -7.599   3.789  69.910  1.00  0.00    -0.048 OA 
ENDBRANCH  10  12
ENDBRANCH   6  10
BRANCH   9  16
HETATM   16  C   UNL     1      -6.783   9.479  68.342  1.00  0.00    -0.058 A  
HETATM   17  F   UNL     1      -5.135  13.071  69.675  1.00  0.00    -0.075 F  
HETATM   18  C   UNL     1      -6.924   9.913  69.681  1.00  0.00    -0.086 A  
HETATM   19  C   UNL     1      -6.379  11.121  70.132  1.00  0.00    -0.137 A  
HETATM   20  C   UNL     1      -5.543  11.555  67.918  1.00  0.00    -0.045 A  
HETATM   21  C   UNL     1      -5.677  11.924  69.247  1.00  0.00    -0.067 A  
HETATM   22  C   UNL     1      -6.108  10.355  67.468  1.00  0.00    -0.053 A  
ENDBRANCH   9  16
BRANCH   8  23
HETATM   23  C   UNL     1      -9.471   9.156  66.769  1.00  0.00    -0.230 C  
HETATM   24  C   UNL     1     -10.312   9.867  67.547  1.00  0.00    -0.289 C  
BRANCH  24  25
HETATM   25  C   UNL     1     -11.037  11.136  67.145  1.00  0.00    -0.287 C  
HETATM   26  H   UNL     1     -12.348  12.365  67.951  1.00  0.00     0.000 HD 
HETATM   27  O   UNL     1     -11.893  11.571  68.202  1.00  0.00    -0.510 OA 
BRANCH  25  28
HETATM   28  C   UNL     1     -10.097  12.287  66.760  1.00  0.00    -0.224 C  
BRANCH  28  29
HETATM   29  C   UNL     1     -10.824  13.439  66.025  1.00  0.00    -0.274 C  
HETATM   30  O   UNL     1      -9.998  13.983  64.990  1.00  0.00    -0.567 OA 
HETATM   31  H   UNL     1     -10.444  14.691  64.539  1.00  0.00     0.000 HD 
BRANCH  29  32
HETATM   32  C   UNL     1     -12.107  12.976  65.333  1.00  0.00    -0.490 C  
HETATM   33  C   UNL     1     -11.861  12.538  63.917  1.00  0.00    -0.463 C  
HETATM   34  O   UNL     1     -10.834  12.006  63.526  1.00  0.00    -0.395 OA 
HETATM   35  O   UNL     1     -12.909  12.778  63.097  1.00  0.00    -0.558 OA 
ENDBRANCH  29  32
ENDBRANCH  28  29
ENDBRANCH  25  28
ENDBRANCH  24  25
ENDBRANCH   8  23
TORSDOF 8
ENDMDL
MODEL      169
REMARK 921   NORMALIZED FREE ENERGY PREDICTED BY IDOCK:   -3.93 KCAL/MOL
REMARK 922        TOTAL FREE ENERGY PREDICTED BY IDOCK:   -7.31 KCAL/MOL
REMARK 923 INTER-LIGAND FREE ENERGY PREDICTED BY IDOCK:   -6.98 KCAL/MOL
REMARK 924 INTRA-LIGAND FREE ENERGY PREDICTED BY IDOCK:   -0.33 KCAL/MOL
REMARK 927      BINDING AFFINITY PREDICTED BY RF-SCORE:    0.00 PKD
ROOT
HETATM    1  C   UNL     1      -9.044   7.675  71.550  1.00  0.00    -0.150 C  
HETATM    2  C   UNL     1      -8.951   8.178  70.101  1.00  0.00    -0.146 C  
HETATM    3  C   UNL     1      -9.143   6.996  69.145  1.00  0.00    -0.136 C  
HETATM    4  C   UNL     1      -9.959   9.280  69.791  1.00  0.00    -0.199 A  
HETATM    5  N   UNL     1     -11.089   9.257  70.535  1.00  0.00    -0.252 NA 
HETATM    6  C   UNL     1     -12.006  10.181  70.256  1.00  0.00    -0.233 A  
HETATM    7  N   UNL     1     -11.939  11.083  69.282  1.00  0.00    -0.340 NA 
HETATM    8  C   UNL     1      -9.752  10.217  68.760  1.00  0.00    -0.178 A  
HETATM    9  C   UNL     1     -10.829  11.077  68.495  1.00  0.00    -0.213 A  
ENDROOT
BRANCH   6  10
HETATM   10  N   UNL     1     -13.031  10.339  71.206  1.00  0.00    -0.392 N  
HETATM   11  C   UNL     1     -12.967  11.571  72.003  1.00  0.00    -0.268 C  
BRANCH  10  12
HETATM   12  S   UNL     1     -13.484   8.931  71.996  1.00  0.00    -0.463 S  
HETATM   13  C   UNL     1     -11.983   8.331  72.754  1.00  0.00    -0.177 C  
HETATM   14  O   UNL     1     -14.377   9.311  73.076  1.00  0.00    -0.382 OA 
HETATM   15  O   UNL     1     -13.897   7.946  71.024  1.00  0.00    -0.118 OA 
ENDBRANCH  10  12
ENDBRANCH   6  10
BRANCH   9  16
HETATM   16  C   UNL     1     -10.917  12.053  67.367  1.00  0.00    -0.311 A  
HETATM   17  F   UNL     1     -11.131  14.861  64.290  1.00  0.00    -0.282 F  
HETATM   18  C   UNL     1     -10.408  13.365  67.516  1.00  0.00    -0.226 A  
HETATM   19  C   UNL     1     -10.484  14.313  66.490  1.00  0.00    -0.287 A  
HETATM   20  C   UNL     1     -11.614  12.704  65.104  1.00  0.00    -0.386 A  
HETATM   21  C   UNL     1     -11.073  13.966  65.284  1.00  0.00    -0.318 A  
HETATM   22  C   UNL     1     -11.554  11.765  66.143  1.00  0.00    -0.215 A  
ENDBRANCH   9  16
BRANCH   8  23
HETATM   23  C   UNL     1      -8.457  10.242  68.053  1.00  0.00    -0.118 C  
HETATM   24  C   UNL     1      -8.205   9.572  66.910  1.00  0.00    -0.113 C  
BRANCH  24  25
HETATM   25  C   UNL     1      -6.969   9.721  66.046  1.00  0.00    -0.099 C  
HETATM   26  H   UNL     1      -5.066  10.156  66.311  1.00  0.00     0.000 HD 
HETATM   27  O   UNL     1      -5.841  10.062  66.853  1.00  0.00    -0.050 OA 
BRANCH  25  28
HETATM   28  C   UNL     1      -6.634   8.465  65.228  1.00  0.00    -0.056 C  
BRANCH  28  29
HETATM   29  C   UNL     1      -6.678   8.711  63.700  1.00  0.00    -0.088 C  
HETATM   30  O   UNL     1      -6.162   7.582  62.989  1.00  0.00    -0.053 OA 
HETATM   31  H   UNL     1      -6.188   7.733  62.051  1.00  0.00     0.000 HD 
BRANCH  29  32
HETATM   32  C   UNL     1      -8.101   8.916  63.180  1.00  0.00    -0.173 C  
HETATM   33  C   UNL     1      -8.386  10.355  62.857  1.00  0.00    -0.176 C  
HETATM   34  O   UNL     1      -7.557  11.146  62.437  1.00  0.00    -0.067 OA 
HETATM   35  O   UNL     1      -9.677  10.702  63.064  1.00  0.00    -0.314 OA 
ENDBRANCH  29  32
ENDBRANCH  28  29
ENDBRANCH  25  28
ENDBRANCH  24  25
ENDBRANCH   8  23
TORSDOF 8
ENDMDL
MODEL      170
REMARK 921   NORMALIZED FREE ENERGY PREDICTED BY IDOCK:   -3.88 KCAL/MOL
REMARK 922        TOTAL FREE ENERGY PREDICTED BY IDOCK:   -7.24 KCAL/MOL
REMARK 923 INTER-LIGAND FREE ENERGY PREDICTED BY IDOCK:   -5.53 KCAL/MOL
REMARK 924 INTRA-LIGAND FREE ENERGY PREDICTED BY IDOCK:   -1.71 KCAL/MOL
REMARK 927      BINDING AFFINITY PREDICTED BY RF-SCORE:    0.00 PKD
ROOT
HETATM    1  C   UNL     1      -9.394   2.579  68.526  1.00  0.00    -0.254 C  
HETATM    2  C   UNL     1      -9.162   3.837  67.674  1.00  0.00    -0.212 C  
HETATM    3  C   UNL     1     -10.009   3.744  66.401  1.00  0.00     0.044 C  
HETATM    4  C   UNL     1      -9.474   5.127  68.426  1.00  0.00    -0.129 A  
HETATM    5  N   UNL     1     -10.395   5.015  69.412  1.00  0.00    -0.201 NA 
HETATM    6  C   UNL     1     -10.719   6.134  70.056  1.00  0.00    -0.305 A  
HETATM    7  N   UNL     1     -10.267   7.354  69.783  1.00  0.00    -0.204 NA 
HETATM    8  C   UNL     1      -8.890   6.359  68.075  1.00  0.00    -0.113 A  
HETATM    9  C   UNL     1      -9.382   7.482  68.758  1.00  0.00    -0.147 A  
ENDROOT
BRANCH   6  10
HETATM   10  N   UNL     1     -11.440   5.970  71.252  1.00  0.00    -0.241 N  
HETATM   11  C   UNL     1     -12.610   6.845  71.407  1.00  0.00    -0.353 C  
BRANCH  10  12
HETATM   12  S   UNL     1     -10.500   5.691  72.611  1.00  0.00    -0.222 S  
HETATM   13  C   UNL     1     -10.531   7.233  73.512  1.00  0.00    -0.374 C  
HETATM   14  O   UNL     1     -11.199   4.714  73.427  1.00  0.00    -0.309 OA 
HETATM   15  O   UNL     1      -9.132   5.457  72.210  1.00  0.00    -0.141 OA 
ENDBRANCH  10  12
ENDBRANCH   6  10
BRANCH   9  16
HETATM   16  C   UNL     1      -9.036   8.907  68.470  1.00  0.00    -0.134 A  
HETATM   17  F   UNL     1      -7.994  12.881  67.754  1.00  0.00    -0.117 F  
HETATM   18  C   UNL     1      -7.906   9.504  69.078  1.00  0.00    -0.077 A  
HETATM   19  C   UNL     1      -7.556  10.839  68.846  1.00  0.00    -0.121 A  
HETATM   20  C   UNL     1      -9.467  11.077  67.405  1.00  0.00    -0.173 A  
HETATM   21  C   UNL     1      -8.333  11.609  67.996  1.00  0.00    -0.148 A  
HETATM   22  C   UNL     1      -9.824   9.745  67.657  1.00  0.00    -0.202 A  
ENDBRANCH   9  16
BRANCH   8  23
HETATM   23  C   UNL     1      -7.825   6.391  67.053  1.00  0.00    -0.104 C  
HETATM   24  C   UNL     1      -8.047   6.556  65.734  1.00  0.00    -0.128 C  
BRANCH  24  25
HETATM   25  C   UNL     1      -6.987   6.793  64.677  1.00  0.00    -0.055 C  
HETATM   26  H   UNL     1      -5.668   5.716  63.687  1.00  0.00     0.000 HD 
HETATM   27  O   UNL     1      -6.333   5.567  64.350  1.00  0.00    -0.025 OA 
BRANCH  25  28
HETATM   28  C   UNL     1      -7.534   7.426  63.388  1.00  0.00    -0.101 C  
BRANCH  28  29
HETATM   29  C   UNL     1      -7.734   8.956  63.505  1.00  0.00    -0.128 C  
HETATM   30  O   UNL     1      -9.118   9.298  63.379  1.00  0.00    -0.422 OA 
HETATM   31  H   UNL     1      -9.241  10.238  63.450  1.00  0.00     0.000 HD 
BRANCH  29  32
HETATM   32  C   UNL     1      -7.291   9.503  64.862  1.00  0.00    -0.111 C  
HETATM   33  C   UNL     1      -5.927  10.129  64.803  1.00  0.00    -0.123 C  
HETATM   34  O   UNL     1      -5.475  10.714  63.831  1.00  0.00    -0.155 OA 
HETATM   35  O   UNL     1      -5.231   9.998  65.956  1.00  0.00    -0.040 OA 
ENDBRANCH  29  32
ENDBRANCH  28  29
ENDBRANCH  25  28
ENDBRANCH  24  25
ENDBRANCH   8  23
TORSDOF 8
ENDMDL
MODEL      171
REMARK 921   NORMALIZED FREE ENERGY PREDICTED BY IDOCK:   -3.85 KCAL/MOL
REMARK 922        TOTAL FREE ENERGY PREDICTED BY IDOCK:   -7.19 KCAL/MOL
REMARK 923 INTER-LIGAND FREE ENERGY PREDICTED BY IDOCK:   -5.82 KCAL/MOL
REMARK 924 INTRA-LIGAND FREE ENERGY PREDICTED BY IDOCK:   -1.37 KCAL/MOL
REMARK 927      BINDING AFFINITY PREDICTED BY RF-SCORE:    0.00 PKD
ROOT
HETATM    1  C   UNL     1      -7.756   3.186  69.582  1.00  0.00    -0.044 C  
HETATM    2  C   UNL     1      -8.420   3.997  68.458  1.00  0.00    -0.106 C  
HETATM    3  C   UNL     1      -9.594   3.196  67.887  1.00  0.00    -0.130 C  
HETATM    4  C   UNL     1      -8.891   5.373  68.920  1.00  0.00    -0.100 A  
HETATM    5  N   UNL     1      -9.200   5.468  70.235  1.00  0.00    -0.146 NA 
HETATM    6  C   UNL     1      -9.655   6.645  70.657  1.00  0.00    -0.169 A  
HETATM    7  N   UNL     1      -9.889   7.712  69.900  1.00  0.00    -0.182 NA 
HETATM    8  C   UNL     1      -9.052   6.449  68.027  1.00  0.00    -0.113 A  
HETATM    9  C   UNL     1      -9.632   7.607  68.568  1.00  0.00    -0.148 A  
ENDROOT
BRANCH   6  10
HETATM   10  N   UNL     1      -9.695   6.827  72.051  1.00  0.00    -0.154 N  
HETATM   11  C   UNL     1     -10.977   7.301  72.588  1.00  0.00    -0.299 C  
BRANCH  10  12
HETATM   12  S   UNL     1      -8.295   7.464  72.720  1.00  0.00    -0.118 S  
HETATM   13  C   UNL     1      -8.426   7.119  74.466  1.00  0.00    -0.192 C  
HETATM   14  O   UNL     1      -7.181   6.679  72.219  1.00  0.00    -0.082 OA 
HETATM   15  O   UNL     1      -8.300   8.900  72.565  1.00  0.00    -0.388 OA 
ENDBRANCH  10  12
ENDBRANCH   6  10
BRANCH   9  16
HETATM   16  C   UNL     1     -10.040   8.825  67.804  1.00  0.00    -0.261 A  
HETATM   17  F   UNL     1     -11.254  12.249  65.755  1.00  0.00    -0.321 F  
HETATM   18  C   UNL     1     -10.828   9.824  68.421  1.00  0.00    -0.244 A  
HETATM   19  C   UNL     1     -11.244  10.972  67.737  1.00  0.00    -0.374 A  
HETATM   20  C   UNL     1     -10.134  10.176  65.756  1.00  0.00    -0.324 A  
HETATM   21  C   UNL     1     -10.877  11.145  66.412  1.00  0.00    -0.225 A  
HETATM   22  C   UNL     1      -9.738   9.020  66.441  1.00  0.00    -0.337 A  
ENDBRANCH   9  16
BRANCH   8  23
HETATM   23  C   UNL     1      -8.608   6.301  66.627  1.00  0.00    -0.119 C  
HETATM   24  C   UNL     1      -7.337   6.478  66.214  1.00  0.00    -0.073 C  
BRANCH  24  25
HETATM   25  C   UNL     1      -6.795   6.146  64.838  1.00  0.00    -0.047 C  
HETATM   26  H   UNL     1      -6.362   4.523  63.810  1.00  0.00     0.000 HD 
HETATM   27  O   UNL     1      -6.701   4.731  64.672  1.00  0.00    -0.042 OA 
BRANCH  25  28
HETATM   28  C   UNL     1      -7.634   6.727  63.689  1.00  0.00    -0.097 C  
BRANCH  28  29
HETATM   29  C   UNL     1      -7.339   8.223  63.424  1.00  0.00    -0.105 C  
HETATM   30  O   UNL     1      -6.166   8.375  62.618  1.00  0.00    -0.086 OA 
HETATM   31  H   UNL     1      -5.985   9.293  62.456  1.00  0.00     0.000 HD 
BRANCH  29  32
HETATM   32  C   UNL     1      -8.465   8.916  62.656  1.00  0.00    -0.200 C  
HETATM   33  C   UNL     1      -8.220  10.389  62.496  1.00  0.00    -0.173 C  
HETATM   34  O   UNL     1      -7.116  10.898  62.379  1.00  0.00    -0.104 OA 
HETATM   35  O   UNL     1      -9.358  11.119  62.479  1.00  0.00    -0.313 OA 
ENDBRANCH  29  32
ENDBRANCH  28  29
ENDBRANCH  25  28
ENDBRANCH  24  25
ENDBRANCH   8  23
TORSDOF 8
ENDMDL
MODEL      172
REMARK 921   NORMALIZED FREE ENERGY PREDICTED BY IDOCK:   -3.84 KCAL/MOL
REMARK 922        TOTAL FREE ENERGY PREDICTED BY IDOCK:   -7.17 KCAL/MOL
REMARK 923 INTER-LIGAND FREE ENERGY PREDICTED BY IDOCK:   -5.70 KCAL/MOL
REMARK 924 INTRA-LIGAND FREE ENERGY PREDICTED BY IDOCK:   -1.47 KCAL/MOL
REMARK 927      BINDING AFFINITY PREDICTED BY RF-SCORE:    0.00 PKD
ROOT
HETATM    1  C   UNL     1      -5.499  16.804  66.883  1.00  0.00    -0.140 C  
HETATM    2  C   UNL     1      -6.116  15.940  67.994  1.00  0.00    -0.145 C  
HETATM    3  C   UNL     1      -5.240  16.031  69.247  1.00  0.00    -0.110 C  
HETATM    4  C   UNL     1      -7.553  16.333  68.322  1.00  0.00    -0.153 A  
HETATM    5  N   UNL     1      -7.869  17.626  68.077  1.00  0.00    -0.228 NA 
HETATM    6  C   UNL     1      -9.104  18.009  68.395  1.00  0.00    -0.286 A  
HETATM    7  N   UNL     1     -10.031  17.258  68.980  1.00  0.00    -0.294 NA 
HETATM    8  C   UNL     1      -8.466  15.428  68.897  1.00  0.00    -0.205 A  
HETATM    9  C   UNL     1      -9.702  15.972  69.278  1.00  0.00    -0.257 A  
ENDROOT
BRANCH   6  10
HETATM   10  N   UNL     1      -9.517  19.250  67.878  1.00  0.00    -0.314 N  
HETATM   11  C   UNL     1     -10.513  19.968  68.684  1.00  0.00    -0.120 C  
BRANCH  10  12
HETATM   12  S   UNL     1      -9.694  19.297  66.211  1.00  0.00    -0.355 S  
HETATM   13  C   UNL     1     -11.381  19.817  65.946  1.00  0.00     0.580 C  
HETATM   14  O   UNL     1      -8.843  20.364  65.716  1.00  0.00    -0.037 OA 
HETATM   15  O   UNL     1      -9.568  17.960  65.677  1.00  0.00    -0.457 OA 
ENDBRANCH  10  12
ENDBRANCH   6  10
BRANCH   9  16
HETATM   16  C   UNL     1     -10.778  15.262  70.036  1.00  0.00    -0.297 A  
HETATM   17  F   UNL     1     -13.719  13.298  72.246  1.00  0.00    -0.527 F  
HETATM   18  C   UNL     1     -10.805  15.309  71.449  1.00  0.00    -0.035 A  
HETATM   19  C   UNL     1     -11.786  14.647  72.196  1.00  0.00    -0.199 A  
HETATM   20  C   UNL     1     -12.759  13.817  70.158  1.00  0.00    -0.151 A  
HETATM   21  C   UNL     1     -12.766  13.919  71.540  1.00  0.00    -0.357 A  
HETATM   22  C   UNL     1     -11.763  14.466  69.417  1.00  0.00    -0.362 A  
ENDBRANCH   9  16
BRANCH   8  23
HETATM   23  C   UNL     1      -8.082  14.011  69.049  1.00  0.00     0.087 C  
HETATM   24  C   UNL     1      -8.192  13.088  68.073  1.00  0.00    -0.161 C  
BRANCH  24  25
HETATM   25  C   UNL     1      -7.632  11.680  68.113  1.00  0.00    -0.115 C  
HETATM   26  H   UNL     1      -6.073  10.726  67.379  1.00  0.00     0.000 HD 
HETATM   27  O   UNL     1      -6.424  11.608  67.354  1.00  0.00    -0.079 OA 
BRANCH  25  28
HETATM   28  C   UNL     1      -7.360  11.166  69.534  1.00  0.00    -0.023 C  
BRANCH  28  29
HETATM   29  C   UNL     1      -7.907   9.738  69.774  1.00  0.00    -0.156 C  
HETATM   30  O   UNL     1      -8.669   9.683  70.984  1.00  0.00    -0.345 OA 
HETATM   31  H   UNL     1      -9.004   8.806  71.132  1.00  0.00     0.000 HD 
BRANCH  29  32
HETATM   32  C   UNL     1      -8.855   9.280  68.664  1.00  0.00    -0.132 C  
HETATM   33  C   UNL     1      -8.156   8.440  67.633  1.00  0.00    -0.118 C  
HETATM   34  O   UNL     1      -7.225   7.686  67.870  1.00  0.00    -0.088 OA 
HETATM   35  O   UNL     1      -8.673   8.584  66.391  1.00  0.00    -0.120 OA 
ENDBRANCH  29  32
ENDBRANCH  28  29
ENDBRANCH  25  28
ENDBRANCH  24  25
ENDBRANCH   8  23
TORSDOF 8
ENDMDL
MODEL      173
REMARK 921   NORMALIZED FREE ENERGY PREDICTED BY IDOCK:   -3.83 KCAL/MOL
REMARK 922        TOTAL FREE ENERGY PREDICTED BY IDOCK:   -7.17 KCAL/MOL
REMARK 923 INTER-LIGAND FREE ENERGY PREDICTED BY IDOCK:   -5.83 KCAL/MOL
REMARK 924 INTRA-LIGAND FREE ENERGY PREDICTED BY IDOCK:   -1.34 KCAL/MOL
REMARK 927      BINDING AFFINITY PREDICTED BY RF-SCORE:    0.00 PKD
ROOT
HETATM    1  C   UNL     1      -5.263  12.094  69.133  1.00  0.00    -0.055 C  
HETATM    2  C   UNL     1      -6.556  11.442  68.616  1.00  0.00    -0.062 C  
HETATM    3  C   UNL     1      -7.350  10.890  69.803  1.00  0.00    -0.016 C  
HETATM    4  C   UNL     1      -7.417  12.402  67.801  1.00  0.00    -0.126 A  
HETATM    5  N   UNL     1      -7.278  13.712  68.111  1.00  0.00    -0.102 NA 
HETATM    6  C   UNL     1      -8.050  14.569  67.446  1.00  0.00    -0.200 A  
HETATM    7  N   UNL     1      -8.981  14.253  66.552  1.00  0.00    -0.186 NA 
HETATM    8  C   UNL     1      -8.339  11.948  66.837  1.00  0.00    -0.169 A  
HETATM    9  C   UNL     1      -9.164  12.934  66.274  1.00  0.00    -0.077 A  
ENDROOT
BRANCH   6  10
HETATM   10  N   UNL     1      -7.701  15.927  67.556  1.00  0.00    -0.145 N  
HETATM   11  C   UNL     1      -6.718  16.242  68.602  1.00  0.00    -0.138 C  
BRANCH  10  12
HETATM   12  S   UNL     1      -8.970  17.001  67.341  1.00  0.00    -0.213 S  
HETATM   13  C   UNL     1      -8.392  18.537  68.044  1.00  0.00    -0.276 C  
HETATM   14  O   UNL     1      -9.111  17.221  65.912  1.00  0.00    -0.516 OA 
HETATM   15  O   UNL     1     -10.103  16.570  68.125  1.00  0.00    -0.241 OA 
ENDBRANCH  10  12
ENDBRANCH   6  10
BRANCH   9  16
HETATM   16  C   UNL     1     -10.311  12.694  65.346  1.00  0.00    -0.311 A  
HETATM   17  F   UNL     1     -13.583  12.031  62.846  1.00  0.00     0.051 F  
HETATM   18  C   UNL     1     -11.640  12.902  65.784  1.00  0.00    -0.411 A  
HETATM   19  C   UNL     1     -12.741  12.675  64.952  1.00  0.00    -0.450 A  
HETATM   20  C   UNL     1     -11.253  11.982  63.193  1.00  0.00    -0.261 A  
HETATM   21  C   UNL     1     -12.535  12.232  63.655  1.00  0.00    -0.541 A  
HETATM   22  C   UNL     1     -10.155  12.192  64.038  1.00  0.00    -0.357 A  
ENDBRANCH   9  16
BRANCH   8  23
HETATM   23  C   UNL     1      -8.370  10.516  66.484  1.00  0.00    -0.141 C  
HETATM   24  C   UNL     1      -7.727   9.982  65.426  1.00  0.00    -0.137 C  
BRANCH  24  25
HETATM   25  C   UNL     1      -7.566   8.503  65.137  1.00  0.00    -0.094 C  
HETATM   26  H   UNL     1      -6.100   7.279  64.654  1.00  0.00     0.000 HD 
HETATM   27  O   UNL     1      -6.202   8.206  64.835  1.00  0.00    -0.048 OA 
BRANCH  25  28
HETATM   28  C   UNL     1      -8.030   7.596  66.286  1.00  0.00    -0.105 C  
BRANCH  28  29
HETATM   29  C   UNL     1      -7.462   6.160  66.189  1.00  0.00    -0.085 C  
HETATM   30  O   UNL     1      -6.222   6.056  66.897  1.00  0.00    -0.025 OA 
HETATM   31  H   UNL     1      -5.873   5.174  66.836  1.00  0.00     0.000 HD 
BRANCH  29  32
HETATM   32  C   UNL     1      -8.389   5.119  66.817  1.00  0.00    -0.107 C  
HETATM   33  C   UNL     1      -8.329   5.139  68.318  1.00  0.00    -0.096 C  
HETATM   34  O   UNL     1      -8.136   6.139  68.989  1.00  0.00    -0.109 OA 
HETATM   35  O   UNL     1      -8.528   3.922  68.874  1.00  0.00    -0.075 OA 
ENDBRANCH  29  32
ENDBRANCH  28  29
ENDBRANCH  25  28
ENDBRANCH  24  25
ENDBRANCH   8  23
TORSDOF 8
ENDMDL
MODEL      174
REMARK 921   NORMALIZED FREE ENERGY PREDICTED BY IDOCK:   -3.82 KCAL/MOL
REMARK 922        TOTAL FREE ENERGY PREDICTED BY IDOCK:   -7.16 KCAL/MOL
REMARK 923 INTER-LIGAND FREE ENERGY PREDICTED BY IDOCK:   -5.84 KCAL/MOL
REMARK 924 INTRA-LIGAND FREE ENERGY PREDICTED BY IDOCK:   -1.31 KCAL/MOL
REMARK 927      BINDING AFFINITY PREDICTED BY RF-SCORE:    0.00 PKD
ROOT
HETATM    1  C   UNL     1      -5.570  16.734  66.721  1.00  0.00    -0.106 C  
HETATM    2  C   UNL     1      -6.088  15.629  67.655  1.00  0.00    -0.174 C  
HETATM    3  C   UNL     1      -5.366  15.730  69.002  1.00  0.00    -0.103 C  
HETATM    4  C   UNL     1      -7.599  15.686  67.858  1.00  0.00    -0.131 A  
HETATM    5  N   UNL     1      -8.156  16.912  67.719  1.00  0.00    -0.179 NA 
HETATM    6  C   UNL     1      -9.467  17.000  67.934  1.00  0.00    -0.245 A  
HETATM    7  N   UNL     1     -10.265  16.012  68.326  1.00  0.00    -0.232 NA 
HETATM    8  C   UNL     1      -8.350  14.553  68.225  1.00  0.00    -0.152 A  
HETATM    9  C   UNL     1      -9.702  14.788  68.519  1.00  0.00    -0.218 A  
ENDROOT
BRANCH   6  10
HETATM   10  N   UNL     1     -10.083  18.191  67.510  1.00  0.00    -0.332 N  
HETATM   11  C   UNL     1     -10.477  18.227  66.095  1.00  0.00    -0.383 C  
BRANCH  10  12
HETATM   12  S   UNL     1      -9.437  19.592  68.166  1.00  0.00    -0.376 S  
HETATM   13  C   UNL     1      -8.070  20.009  67.097  1.00  0.00    -0.320 C  
HETATM   14  O   UNL     1     -10.429  20.641  68.007  1.00  0.00    -0.097 OA 
HETATM   15  O   UNL     1      -8.889  19.303  69.471  1.00  0.00     0.024 OA 
ENDBRANCH  10  12
ENDBRANCH   6  10
BRANCH   9  16
HETATM   16  C   UNL     1     -10.668  13.789  69.068  1.00  0.00    -0.209 A  
HETATM   17  F   UNL     1     -13.361  10.945  70.501  1.00  0.00    -0.257 F  
HETATM   18  C   UNL     1     -10.915  12.580  68.376  1.00  0.00    -0.277 A  
HETATM   19  C   UNL     1     -11.823  11.625  68.849  1.00  0.00    -0.392 A  
HETATM   20  C   UNL     1     -12.321  13.046  70.725  1.00  0.00    -0.394 A  
HETATM   21  C   UNL     1     -12.506  11.861  70.031  1.00  0.00    -0.021 A  
HETATM   22  C   UNL     1     -11.426  14.007  70.237  1.00  0.00    -0.155 A  
ENDBRANCH   9  16
BRANCH   8  23
HETATM   23  C   UNL     1      -7.694  13.232  68.266  1.00  0.00    -0.141 C  
HETATM   24  C   UNL     1      -7.502  12.447  67.186  1.00  0.00    -0.095 C  
BRANCH  24  25
HETATM   25  C   UNL     1      -6.664  11.185  67.141  1.00  0.00    -0.106 C  
HETATM   26  H   UNL     1      -4.752  10.726  67.026  1.00  0.00     0.000 HD 
HETATM   27  O   UNL     1      -5.277  11.516  67.054  1.00  0.00    -0.072 OA 
BRANCH  25  28
HETATM   28  C   UNL     1      -6.880  10.259  68.348  1.00  0.00    -0.061 C  
BRANCH  28  29
HETATM   29  C   UNL     1      -7.678   8.982  67.992  1.00  0.00    -0.097 C  
HETATM   30  O   UNL     1      -9.024   9.074  68.471  1.00  0.00    -0.133 OA 
HETATM   31  H   UNL     1      -9.514   8.289  68.253  1.00  0.00     0.000 HD 
BRANCH  29  32
HETATM   32  C   UNL     1      -7.788   8.761  66.483  1.00  0.00    -0.103 C  
HETATM   33  C   UNL     1      -7.990   7.313  66.135  1.00  0.00    -0.112 C  
HETATM   34  O   UNL     1      -8.602   6.515  66.826  1.00  0.00    -0.113 OA 
HETATM   35  O   UNL     1      -7.433   6.968  64.951  1.00  0.00    -0.081 OA 
ENDBRANCH  29  32
ENDBRANCH  28  29
ENDBRANCH  25  28
ENDBRANCH  24  25
ENDBRANCH   8  23
TORSDOF 8
ENDMDL
MODEL      175
REMARK 921   NORMALIZED FREE ENERGY PREDICTED BY IDOCK:   -3.80 KCAL/MOL
REMARK 922        TOTAL FREE ENERGY PREDICTED BY IDOCK:   -7.12 KCAL/MOL
REMARK 923 INTER-LIGAND FREE ENERGY PREDICTED BY IDOCK:   -5.69 KCAL/MOL
REMARK 924 INTRA-LIGAND FREE ENERGY PREDICTED BY IDOCK:   -1.42 KCAL/MOL
REMARK 927      BINDING AFFINITY PREDICTED BY RF-SCORE:    0.00 PKD
ROOT
HETATM    1  C   UNL     1      -7.230  13.004  67.155  1.00  0.00     0.047 C  
HETATM    2  C   UNL     1      -7.281  11.866  68.186  1.00  0.00    -0.085 C  
HETATM    3  C   UNL     1      -6.378  12.220  69.371  1.00  0.00    -0.118 C  
HETATM    4  C   UNL     1      -8.697  11.566  68.669  1.00  0.00    -0.103 A  
HETATM    5  N   UNL     1      -9.558  12.609  68.620  1.00  0.00    -0.091 NA 
HETATM    6  C   UNL     1     -10.789  12.388  69.076  1.00  0.00    -0.148 A  
HETATM    7  N   UNL     1     -11.231  11.261  69.625  1.00  0.00    -0.262 NA 
HETATM    8  C   UNL     1      -9.062  10.308  69.187  1.00  0.00    -0.199 A  
HETATM    9  C   UNL     1     -10.354  10.226  69.727  1.00  0.00    -0.246 A  
ENDROOT
BRANCH   6  10
HETATM   10  N   UNL     1     -11.749  13.366  68.758  1.00  0.00    -0.318 N  
HETATM   11  C   UNL     1     -11.916  13.641  67.325  1.00  0.00    -0.381 C  
BRANCH  10  12
HETATM   12  S   UNL     1     -11.798  14.673  69.806  1.00  0.00    -0.335 S  
HETATM   13  C   UNL     1     -11.192  16.051  68.846  1.00  0.00    -0.353 C  
HETATM   14  O   UNL     1     -13.196  14.944  70.094  1.00  0.00    -0.086 OA 
HETATM   15  O   UNL     1     -10.863  14.459  70.886  1.00  0.00     0.306 OA 
ENDBRANCH  10  12
ENDBRANCH   6  10
BRANCH   9  16
HETATM   16  C   UNL     1     -10.926   9.056  70.463  1.00  0.00    -0.295 A  
HETATM   17  F   UNL     1     -12.500   5.850  72.615  1.00  0.00    -0.242 F  
HETATM   18  C   UNL     1     -11.227   9.159  71.841  1.00  0.00    -0.400 A  
HETATM   19  C   UNL     1     -11.750   8.084  72.569  1.00  0.00    -0.446 A  
HETATM   20  C   UNL     1     -11.671   6.720  70.589  1.00  0.00    -0.440 A  
HETATM   21  C   UNL     1     -11.983   6.877  71.930  1.00  0.00    -0.327 A  
HETATM   22  C   UNL     1     -11.130   7.794  69.870  1.00  0.00    -0.142 A  
ENDBRANCH   9  16
BRANCH   8  23
HETATM   23  C   UNL     1      -8.099   9.191  69.122  1.00  0.00    -0.105 C  
HETATM   24  C   UNL     1      -8.174   8.177  68.238  1.00  0.00    -0.129 C  
BRANCH  24  25
HETATM   25  C   UNL     1      -7.111   7.123  68.001  1.00  0.00    -0.085 C  
HETATM   26  H   UNL     1      -5.730   6.203  69.062  1.00  0.00     0.000 HD 
HETATM   27  O   UNL     1      -6.396   6.863  69.210  1.00  0.00    -0.033 OA 
BRANCH  25  28
HETATM   28  C   UNL     1      -7.667   5.799  67.457  1.00  0.00    -0.097 C  
BRANCH  28  29
HETATM   29  C   UNL     1      -7.976   4.771  68.572  1.00  0.00    -0.084 C  
HETATM   30  O   UNL     1      -8.563   5.415  69.707  1.00  0.00    -0.098 OA 
HETATM   31  H   UNL     1      -8.753   4.784  70.392  1.00  0.00     0.000 HD 
BRANCH  29  32
HETATM   32  C   UNL     1      -8.983   3.710  68.128  1.00  0.00    -0.171 C  
HETATM   33  C   UNL     1      -8.355   2.663  67.251  1.00  0.00    -0.090 C  
HETATM   34  O   UNL     1      -7.201   2.279  67.351  1.00  0.00    -0.054 OA 
HETATM   35  O   UNL     1      -9.207   2.161  66.328  1.00  0.00    -0.084 OA 
ENDBRANCH  29  32
ENDBRANCH  28  29
ENDBRANCH  25  28
ENDBRANCH  24  25
ENDBRANCH   8  23
TORSDOF 8
ENDMDL
MODEL      176
REMARK 921   NORMALIZED FREE ENERGY PREDICTED BY IDOCK:   -3.79 KCAL/MOL
REMARK 922        TOTAL FREE ENERGY PREDICTED BY IDOCK:   -7.10 KCAL/MOL
REMARK 923 INTER-LIGAND FREE ENERGY PREDICTED BY IDOCK:   -5.43 KCAL/MOL
REMARK 924 INTRA-LIGAND FREE ENERGY PREDICTED BY IDOCK:   -1.67 KCAL/MOL
REMARK 927      BINDING AFFINITY PREDICTED BY RF-SCORE:    0.00 PKD
ROOT
HETATM    1  C   UNL     1      -8.823   8.408  72.174  1.00  0.00    -0.285 C  
HETATM    2  C   UNL     1      -8.504   8.732  70.706  1.00  0.00    -0.202 C  
HETATM    3  C   UNL     1      -7.437   9.830  70.653  1.00  0.00    -0.050 C  
HETATM    4  C   UNL     1      -8.047   7.509  69.916  1.00  0.00    -0.129 A  
HETATM    5  N   UNL     1      -7.449   6.539  70.646  1.00  0.00    -0.079 NA 
HETATM    6  C   UNL     1      -7.001   5.479  69.976  1.00  0.00    -0.061 A  
HETATM    7  N   UNL     1      -7.034   5.314  68.657  1.00  0.00    -0.055 NA 
HETATM    8  C   UNL     1      -8.183   7.427  68.517  1.00  0.00    -0.125 A  
HETATM    9  C   UNL     1      -7.586   6.310  67.913  1.00  0.00    -0.102 A  
ENDROOT
BRANCH   6  10
HETATM   10  N   UNL     1      -6.652   4.361  70.753  1.00  0.00    -0.033 N  
HETATM   11  C   UNL     1      -5.485   3.605  70.281  1.00  0.00    -0.012 C  
BRANCH  10  12
HETATM   12  S   UNL     1      -7.950   3.483  71.350  1.00  0.00    -0.061 S  
HETATM   13  C   UNL     1      -7.532   1.777  71.032  1.00  0.00    -0.033 C  
HETATM   14  O   UNL     1      -7.959   3.652  72.792  1.00  0.00    -0.074 OA 
HETATM   15  O   UNL     1      -9.131   3.786  70.576  1.00  0.00    -0.096 OA 
ENDBRANCH  10  12
ENDBRANCH   6  10
BRANCH   9  16
HETATM   16  C   UNL     1      -7.463   6.067  66.443  1.00  0.00    -0.086 A  
HETATM   17  F   UNL     1      -7.196   5.303  62.352  1.00  0.00    -0.039 F  
HETATM   18  C   UNL     1      -8.379   5.217  65.781  1.00  0.00    -0.120 A  
HETATM   19  C   UNL     1      -8.290   4.952  64.410  1.00  0.00    -0.133 A  
HETATM   20  C   UNL     1      -6.336   6.350  64.279  1.00  0.00    -0.030 A  
HETATM   21  C   UNL     1      -7.277   5.536  63.667  1.00  0.00    -0.050 A  
HETATM   22  C   UNL     1      -6.419   6.595  65.657  1.00  0.00    -0.050 A  
ENDBRANCH   9  16
BRANCH   8  23
HETATM   23  C   UNL     1      -8.929   8.479  67.799  1.00  0.00    -0.140 C  
HETATM   24  C   UNL     1      -8.361   9.578  67.262  1.00  0.00    -0.125 C  
BRANCH  24  25
HETATM   25  C   UNL     1      -9.044  10.577  66.351  1.00  0.00    -0.162 C  
HETATM   26  H   UNL     1     -10.526  10.569  65.053  1.00  0.00     0.000 HD 
HETATM   27  O   UNL     1     -10.097   9.943  65.624  1.00  0.00    -0.289 OA 
BRANCH  25  28
HETATM   28  C   UNL     1      -9.614  11.797  67.091  1.00  0.00    -0.189 C  
BRANCH  28  29
HETATM   29  C   UNL     1      -9.789  13.031  66.174  1.00  0.00    -0.273 C  
HETATM   30  O   UNL     1      -9.726  12.652  64.795  1.00  0.00    -0.490 OA 
HETATM   31  H   UNL     1      -9.833  13.410  64.232  1.00  0.00     0.000 HD 
BRANCH  29  32
HETATM   32  C   UNL     1     -11.147  13.709  66.357  1.00  0.00    -0.307 C  
HETATM   33  C   UNL     1     -12.174  13.192  65.392  1.00  0.00    -0.461 C  
HETATM   34  O   UNL     1     -12.215  12.046  64.973  1.00  0.00    -0.366 OA 
HETATM   35  O   UNL     1     -13.082  14.126  65.029  1.00  0.00    -0.728 OA 
ENDBRANCH  29  32
ENDBRANCH  28  29
ENDBRANCH  25  28
ENDBRANCH  24  25
ENDBRANCH   8  23
TORSDOF 8
ENDMDL
MODEL      177
REMARK 921   NORMALIZED FREE ENERGY PREDICTED BY IDOCK:   -3.73 KCAL/MOL
REMARK 922        TOTAL FREE ENERGY PREDICTED BY IDOCK:   -7.02 KCAL/MOL
REMARK 923 INTER-LIGAND FREE ENERGY PREDICTED BY IDOCK:   -6.29 KCAL/MOL
REMARK 924 INTRA-LIGAND FREE ENERGY PREDICTED BY IDOCK:   -0.74 KCAL/MOL
REMARK 927      BINDING AFFINITY PREDICTED BY RF-SCORE:    0.00 PKD
ROOT
HETATM    1  C   UNL     1      -8.445   7.112  71.694  1.00  0.00    -0.114 C  
HETATM    2  C   UNL     1      -8.353   7.360  70.180  1.00  0.00    -0.136 C  
HETATM    3  C   UNL     1      -8.586   6.040  69.440  1.00  0.00    -0.122 C  
HETATM    4  C   UNL     1      -9.335   8.422  69.693  1.00  0.00    -0.161 A  
HETATM    5  N   UNL     1     -10.459   8.555  70.436  1.00  0.00    -0.202 NA 
HETATM    6  C   UNL     1     -11.354   9.444  70.010  1.00  0.00    -0.141 A  
HETATM    7  N   UNL     1     -11.273  10.166  68.897  1.00  0.00    -0.205 NA 
HETATM    8  C   UNL     1      -9.114   9.165  68.518  1.00  0.00    -0.132 A  
HETATM    9  C   UNL     1     -10.171   9.997  68.117  1.00  0.00    -0.175 A  
ENDROOT
BRANCH   6  10
HETATM   10  N   UNL     1     -12.365   9.788  70.925  1.00  0.00    -0.302 N  
HETATM   11  C   UNL     1     -12.422  11.208  71.296  1.00  0.00    -0.360 C  
BRANCH  10  12
HETATM   12  S   UNL     1     -12.632   8.662  72.138  1.00  0.00    -0.402 S  
HETATM   13  C   UNL     1     -12.995   7.141  71.277  1.00  0.00    -0.324 C  
HETATM   14  O   UNL     1     -11.370   8.462  72.828  1.00  0.00    -0.346 OA 
HETATM   15  O   UNL     1     -13.816   9.027  72.881  1.00  0.00    -0.359 OA 
ENDBRANCH  10  12
ENDBRANCH   6  10
BRANCH   9  16
HETATM   16  C   UNL     1     -10.244  10.770  66.840  1.00  0.00    -0.274 A  
HETATM   17  F   UNL     1     -10.482  13.021  63.337  1.00  0.00    -0.260 F  
HETATM   18  C   UNL     1     -10.393  12.177  66.865  1.00  0.00    -0.235 A  
HETATM   19  C   UNL     1     -10.480  12.936  65.693  1.00  0.00    -0.292 A  
HETATM   20  C   UNL     1     -10.307  10.921  64.390  1.00  0.00    -0.430 A  
HETATM   21  C   UNL     1     -10.419  12.300  64.463  1.00  0.00    -0.309 A  
HETATM   22  C   UNL     1     -10.241  10.164  65.568  1.00  0.00    -0.288 A  
ENDBRANCH   9  16
BRANCH   8  23
HETATM   23  C   UNL     1      -7.826   9.034  67.810  1.00  0.00    -0.101 C  
HETATM   24  C   UNL     1      -7.653   8.328  66.675  1.00  0.00    -0.090 C  
BRANCH  24  25
HETATM   25  C   UNL     1      -6.410   8.326  65.808  1.00  0.00    -0.052 C  
HETATM   26  H   UNL     1      -4.632   9.173  65.835  1.00  0.00     0.000 HD 
HETATM   27  O   UNL     1      -5.411   9.174  66.377  1.00  0.00    -0.043 OA 
BRANCH  25  28
HETATM   28  C   UNL     1      -5.812   6.928  65.592  1.00  0.00    -0.035 C  
BRANCH  28  29
HETATM   29  C   UNL     1      -6.890   5.825  65.460  1.00  0.00    -0.059 C  
HETATM   30  O   UNL     1      -7.136   5.518  64.084  1.00  0.00    -0.047 OA 
HETATM   31  H   UNL     1      -7.799   4.841  64.003  1.00  0.00     0.000 HD 
BRANCH  29  32
HETATM   32  C   UNL     1      -6.465   4.509  66.111  1.00  0.00    -0.041 C  
HETATM   33  C   UNL     1      -7.636   3.611  66.392  1.00  0.00    -0.084 C  
HETATM   34  O   UNL     1      -8.644   3.553  65.705  1.00  0.00    -0.109 OA 
HETATM   35  O   UNL     1      -7.465   2.842  67.492  1.00  0.00    -0.057 OA 
ENDBRANCH  29  32
ENDBRANCH  28  29
ENDBRANCH  25  28
ENDBRANCH  24  25
ENDBRANCH   8  23
TORSDOF 8
ENDMDL
MODEL      178
REMARK 921   NORMALIZED FREE ENERGY PREDICTED BY IDOCK:   -3.70 KCAL/MOL
REMARK 922        TOTAL FREE ENERGY PREDICTED BY IDOCK:   -6.97 KCAL/MOL
REMARK 923 INTER-LIGAND FREE ENERGY PREDICTED BY IDOCK:   -5.84 KCAL/MOL
REMARK 924 INTRA-LIGAND FREE ENERGY PREDICTED BY IDOCK:   -1.13 KCAL/MOL
REMARK 927      BINDING AFFINITY PREDICTED BY RF-SCORE:    0.00 PKD
ROOT
HETATM    1  C   UNL     1      -7.437  15.434  67.305  1.00  0.00    -0.242 C  
HETATM    2  C   UNL     1      -7.165  14.016  67.831  1.00  0.00    -0.164 C  
HETATM    3  C   UNL     1      -6.228  14.100  69.039  1.00  0.00    -0.094 C  
HETATM    4  C   UNL     1      -8.441  13.266  68.200  1.00  0.00    -0.173 A  
HETATM    5  N   UNL     1      -9.484  14.045  68.569  1.00  0.00    -0.210 NA 
HETATM    6  C   UNL     1     -10.598  13.416  68.939  1.00  0.00    -0.155 A  
HETATM    7  N   UNL     1     -10.759  12.100  69.033  1.00  0.00    -0.169 NA 
HETATM    8  C   UNL     1      -8.506  11.859  68.214  1.00  0.00    -0.161 A  
HETATM    9  C   UNL     1      -9.698  11.312  68.715  1.00  0.00    -0.174 A  
ENDROOT
BRANCH   6  10
HETATM   10  N   UNL     1     -11.752  14.213  69.037  1.00  0.00    -0.302 N  
HETATM   11  C   UNL     1     -12.004  15.101  67.895  1.00  0.00    -0.057 C  
BRANCH  10  12
HETATM   12  S   UNL     1     -12.063  14.819  70.569  1.00  0.00    -0.341 S  
HETATM   13  C   UNL     1     -13.174  13.635  71.311  1.00  0.00    -0.235 C  
HETATM   14  O   UNL     1     -10.821  14.756  71.318  1.00  0.00     0.047 OA 
HETATM   15  O   UNL     1     -12.781  16.067  70.455  1.00  0.00    -0.341 OA 
ENDBRANCH  10  12
ENDBRANCH   6  10
BRANCH   9  16
HETATM   16  C   UNL     1      -9.959   9.862  68.969  1.00  0.00    -0.193 A  
HETATM   17  F   UNL     1     -10.725   5.807  69.571  1.00  0.00    -0.293 F  
HETATM   18  C   UNL     1     -10.243   8.989  67.893  1.00  0.00    -0.272 A  
HETATM   19  C   UNL     1     -10.507   7.628  68.090  1.00  0.00    -0.233 A  
HETATM   20  C   UNL     1     -10.251   7.935  70.463  1.00  0.00    -0.198 A  
HETATM   21  C   UNL     1     -10.492   7.111  69.375  1.00  0.00    -0.222 A  
HETATM   22  C   UNL     1     -10.007   9.300  70.261  1.00  0.00    -0.262 A  
ENDBRANCH   9  16
BRANCH   8  23
HETATM   23  C   UNL     1      -7.362  11.076  67.709  1.00  0.00    -0.093 C  
HETATM   24  C   UNL     1      -7.357  10.413  66.535  1.00  0.00    -0.119 C  
BRANCH  24  25
HETATM   25  C   UNL     1      -6.151   9.766  65.885  1.00  0.00    -0.070 C  
HETATM   26  H   UNL     1      -4.990   8.211  66.222  1.00  0.00     0.000 HD 
HETATM   27  O   UNL     1      -5.746   8.616  66.629  1.00  0.00    -0.045 OA 
BRANCH  25  28
HETATM   28  C   UNL     1      -6.384   9.357  64.423  1.00  0.00    -0.084 C  
BRANCH  28  29
HETATM   29  C   UNL     1      -7.602   8.417  64.248  1.00  0.00    -0.123 C  
HETATM   30  O   UNL     1      -7.596   7.388  65.243  1.00  0.00    -0.086 OA 
HETATM   31  H   UNL     1      -8.343   6.811  65.135  1.00  0.00     0.000 HD 
BRANCH  29  32
HETATM   32  C   UNL     1      -8.935   9.148  64.413  1.00  0.00    -0.104 C  
HETATM   33  C   UNL     1      -9.068  10.305  63.463  1.00  0.00    -0.264 C  
HETATM   34  O   UNL     1      -8.589  10.337  62.341  1.00  0.00    -0.157 OA 
HETATM   35  O   UNL     1      -9.796  11.326  63.969  1.00  0.00    -0.247 OA 
ENDBRANCH  29  32
ENDBRANCH  28  29
ENDBRANCH  25  28
ENDBRANCH  24  25
ENDBRANCH   8  23
TORSDOF 8
ENDMDL
MODEL      179
REMARK 921   NORMALIZED FREE ENERGY PREDICTED BY IDOCK:   -3.68 KCAL/MOL
REMARK 922        TOTAL FREE ENERGY PREDICTED BY IDOCK:   -6.95 KCAL/MOL
REMARK 923 INTER-LIGAND FREE ENERGY PREDICTED BY IDOCK:   -6.10 KCAL/MOL
REMARK 924 INTRA-LIGAND FREE ENERGY PREDICTED BY IDOCK:   -0.85 KCAL/MOL
REMARK 927      BINDING AFFINITY PREDICTED BY RF-SCORE:    0.00 PKD
ROOT
HETATM    1  C   UNL     1      -8.712   3.723  70.387  1.00  0.00    -0.129 C  
HETATM    2  C   UNL     1      -8.790   5.256  70.466  1.00  0.00    -0.150 C  
HETATM    3  C   UNL     1      -7.736   5.762  71.455  1.00  0.00    -0.107 C  
HETATM    4  C   UNL     1      -8.611   5.929  69.109  1.00  0.00    -0.115 A  
HETATM    5  N   UNL     1      -7.876   5.233  68.210  1.00  0.00    -0.087 NA 
HETATM    6  C   UNL     1      -7.666   5.816  67.032  1.00  0.00    -0.101 A  
HETATM    7  N   UNL     1      -8.062   7.035  66.679  1.00  0.00    -0.108 NA 
HETATM    8  C   UNL     1      -9.124   7.211  68.835  1.00  0.00    -0.131 A  
HETATM    9  C   UNL     1      -8.755   7.761  67.597  1.00  0.00    -0.126 A  
ENDROOT
BRANCH   6  10
HETATM   10  N   UNL     1      -7.163   4.986  66.014  1.00  0.00    -0.075 N  
HETATM   11  C   UNL     1      -6.360   5.664  64.989  1.00  0.00    -0.041 C  
BRANCH  10  12
HETATM   12  S   UNL     1      -8.212   3.782  65.502  1.00  0.00    -0.101 S  
HETATM   13  C   UNL     1      -8.158   2.551  66.793  1.00  0.00    -0.081 C  
HETATM   14  O   UNL     1      -9.552   4.343  65.513  1.00  0.00    -0.160 OA 
HETATM   15  O   UNL     1      -7.691   3.169  64.303  1.00  0.00    -0.075 OA 
ENDBRANCH  10  12
ENDBRANCH   6  10
BRANCH   9  16
HETATM   16  C   UNL     1      -9.044   9.153  67.134  1.00  0.00    -0.146 A  
HETATM   17  F   UNL     1      -9.781  13.075  65.922  1.00  0.00    -0.259 F  
HETATM   18  C   UNL     1      -8.273  10.238  67.611  1.00  0.00    -0.114 A  
HETATM   19  C   UNL     1      -8.520  11.557  67.213  1.00  0.00    -0.152 A  
HETATM   20  C   UNL     1     -10.353  10.791  65.855  1.00  0.00    -0.302 A  
HETATM   21  C   UNL     1      -9.550  11.819  66.323  1.00  0.00    -0.225 A  
HETATM   22  C   UNL     1     -10.113   9.475  66.273  1.00  0.00    -0.327 A  
ENDBRANCH   9  16
BRANCH   8  23
HETATM   23  C   UNL     1      -9.995   7.870  69.827  1.00  0.00    -0.186 C  
HETATM   24  C   UNL     1     -11.241   7.456  70.135  1.00  0.00    -0.239 C  
BRANCH  24  25
HETATM   25  C   UNL     1     -12.092   7.972  71.278  1.00  0.00    -0.291 C  
HETATM   26  H   UNL     1     -13.687   7.380  72.271  1.00  0.00     0.000 HD 
HETATM   27  O   UNL     1     -13.153   7.057  71.554  1.00  0.00    -0.380 OA 
BRANCH  25  28
HETATM   28  C   UNL     1     -11.301   8.222  72.571  1.00  0.00    -0.455 C  
BRANCH  28  29
HETATM   29  C   UNL     1     -10.512   6.978  73.046  1.00  0.00    -0.277 C  
HETATM   30  O   UNL     1      -9.947   7.200  74.342  1.00  0.00    -0.451 OA 
HETATM   31  H   UNL     1      -9.462   6.436  74.633  1.00  0.00     0.000 HD 
BRANCH  29  32
HETATM   32  C   UNL     1     -11.398   5.740  73.184  1.00  0.00    -0.190 C  
HETATM   33  C   UNL     1     -10.614   4.525  73.594  1.00  0.00    -0.247 C  
HETATM   34  O   UNL     1      -9.631   4.548  74.317  1.00  0.00    -0.116 OA 
HETATM   35  O   UNL     1     -11.116   3.374  73.091  1.00  0.00    -0.152 OA 
ENDBRANCH  29  32
ENDBRANCH  28  29
ENDBRANCH  25  28
ENDBRANCH  24  25
ENDBRANCH   8  23
TORSDOF 8
ENDMDL
MODEL      180
REMARK 921   NORMALIZED FREE ENERGY PREDICTED BY IDOCK:   -3.64 KCAL/MOL
REMARK 922        TOTAL FREE ENERGY PREDICTED BY IDOCK:   -6.88 KCAL/MOL
REMARK 923 INTER-LIGAND FREE ENERGY PREDICTED BY IDOCK:   -5.91 KCAL/MOL
REMARK 924 INTRA-LIGAND FREE ENERGY PREDICTED BY IDOCK:   -0.97 KCAL/MOL
REMARK 927      BINDING AFFINITY PREDICTED BY RF-SCORE:    0.00 PKD
ROOT
HETATM    1  C   UNL     1     -10.859  18.350  68.175  1.00  0.00    -0.081 C  
HETATM    2  C   UNL     1     -10.556  16.953  67.610  1.00  0.00    -0.325 C  
HETATM    3  C   UNL     1     -10.725  16.978  66.088  1.00  0.00    -0.099 C  
HETATM    4  C   UNL     1      -9.162  16.455  67.982  1.00  0.00    -0.204 A  
HETATM    5  N   UNL     1      -8.241  17.421  68.201  1.00  0.00    -0.230 NA 
HETATM    6  C   UNL     1      -7.005  17.015  68.484  1.00  0.00    -0.197 A  
HETATM    7  N   UNL     1      -6.582  15.755  68.513  1.00  0.00    -0.112 NA 
HETATM    8  C   UNL     1      -8.845  15.083  68.030  1.00  0.00    -0.165 A  
HETATM    9  C   UNL     1      -7.491  14.780  68.240  1.00  0.00    -0.115 A  
ENDROOT
BRANCH   6  10
HETATM   10  N   UNL     1      -6.135  17.995  68.992  1.00  0.00    -0.214 N  
HETATM   11  C   UNL     1      -5.438  17.636  70.234  1.00  0.00    -0.252 C  
BRANCH  10  12
HETATM   12  S   UNL     1      -6.684  19.573  68.843  1.00  0.00    -0.325 S  
HETATM   13  C   UNL     1      -5.243  20.587  69.130  1.00  0.00    -0.268 C  
HETATM   14  O   UNL     1      -7.065  19.768  67.455  1.00  0.00    -0.222 OA 
HETATM   15  O   UNL     1      -7.625  19.855  69.902  1.00  0.00     0.039 OA 
ENDBRANCH  10  12
ENDBRANCH   6  10
BRANCH   9  16
HETATM   16  C   UNL     1      -6.877  13.418  68.188  1.00  0.00    -0.117 A  
HETATM   17  F   UNL     1      -5.127   9.633  68.151  1.00  0.00    -0.036 F  
HETATM   18  C   UNL     1      -6.387  12.811  69.368  1.00  0.00    -0.110 A  
HETATM   19  C   UNL     1      -5.793  11.544  69.360  1.00  0.00    -0.065 A  
HETATM   20  C   UNL     1      -6.113  11.423  66.979  1.00  0.00    -0.120 A  
HETATM   21  C   UNL     1      -5.677  10.853  68.164  1.00  0.00    -0.046 A  
HETATM   22  C   UNL     1      -6.689  12.700  66.990  1.00  0.00     0.122 A  
ENDBRANCH   9  16
BRANCH   8  23
HETATM   23  C   UNL     1      -9.920  14.085  67.873  1.00  0.00    -0.237 C  
HETATM   24  C   UNL     1     -10.342  13.608  66.685  1.00  0.00    -0.275 C  
BRANCH  24  25
HETATM   25  C   UNL     1     -11.295  12.447  66.480  1.00  0.00    -0.340 C  
HETATM   26  H   UNL     1     -12.757  11.587  67.481  1.00  0.00     0.000 HD 
HETATM   27  O   UNL     1     -12.160  12.314  67.608  1.00  0.00    -0.502 OA 
BRANCH  25  28
HETATM   28  C   UNL     1     -12.148  12.567  65.209  1.00  0.00    -0.500 C  
BRANCH  28  29
HETATM   29  C   UNL     1     -12.035  11.328  64.288  1.00  0.00     0.505 C  
HETATM   30  O   UNL     1     -11.994  11.720  62.912  1.00  0.00    -0.782 OA 
HETATM   31  H   UNL     1     -11.925  10.959  62.347  1.00  0.00     0.000 HD 
BRANCH  29  32
HETATM   32  C   UNL     1     -10.753  10.530  64.533  1.00  0.00     0.193 C  
HETATM   33  C   UNL     1      -9.654  10.920  63.586  1.00  0.00    -0.302 C  
HETATM   34  O   UNL     1      -9.493  12.044  63.137  1.00  0.00    -0.325 OA 
HETATM   35  O   UNL     1      -8.829   9.894  63.278  1.00  0.00    -0.205 OA 
ENDBRANCH  29  32
ENDBRANCH  28  29
ENDBRANCH  25  28
ENDBRANCH  24  25
ENDBRANCH   8  23
TORSDOF 8
ENDMDL
MODEL      181
REMARK 921   NORMALIZED FREE ENERGY PREDICTED BY IDOCK:   -3.63 KCAL/MOL
REMARK 922        TOTAL FREE ENERGY PREDICTED BY IDOCK:   -6.87 KCAL/MOL
REMARK 923 INTER-LIGAND FREE ENERGY PREDICTED BY IDOCK:   -5.96 KCAL/MOL
REMARK 924 INTRA-LIGAND FREE ENERGY PREDICTED BY IDOCK:   -0.91 KCAL/MOL
REMARK 927      BINDING AFFINITY PREDICTED BY RF-SCORE:    0.00 PKD
ROOT
HETATM    1  C   UNL     1     -11.856   9.085  71.860  1.00  0.00    -0.447 C  
HETATM    2  C   UNL     1     -11.056   8.884  70.564  1.00  0.00    -0.288 C  
HETATM    3  C   UNL     1      -9.760   9.695  70.642  1.00  0.00    -0.239 C  
HETATM    4  C   UNL     1     -10.748   7.417  70.280  1.00  0.00    -0.237 A  
HETATM    5  N   UNL     1     -10.674   6.619  71.371  1.00  0.00    -0.225 NA 
HETATM    6  C   UNL     1     -10.363   5.342  71.157  1.00  0.00    -0.235 A  
HETATM    7  N   UNL     1     -10.063   4.795  69.983  1.00  0.00    -0.250 NA 
HETATM    8  C   UNL     1     -10.497   6.942  68.978  1.00  0.00    -0.223 A  
HETATM    9  C   UNL     1     -10.083   5.604  68.889  1.00  0.00    -0.192 A  
ENDROOT
BRANCH   6  10
HETATM   10  N   UNL     1     -10.572   4.467  72.238  1.00  0.00    -0.150 N  
HETATM   11  C   UNL     1     -11.515   4.942  73.259  1.00  0.00    -0.274 C  
BRANCH  10  12
HETATM   12  S   UNL     1      -9.201   3.661  72.768  1.00  0.00    -0.108 S  
HETATM   13  C   UNL     1      -9.274   3.761  74.549  1.00  0.00    -0.098 C  
HETATM   14  O   UNL     1      -9.362   2.260  72.420  1.00  0.00    -0.081 OA 
HETATM   15  O   UNL     1      -8.024   4.384  72.346  1.00  0.00    -0.089 OA 
ENDBRANCH  10  12
ENDBRANCH   6  10
BRANCH   9  16
HETATM   16  C   UNL     1      -9.619   4.908  67.650  1.00  0.00    -0.183 A  
HETATM   17  F   UNL     1      -8.225   2.940  64.248  1.00  0.00    -0.080 F  
HETATM   18  C   UNL     1      -8.493   4.053  67.691  1.00  0.00    -0.104 A  
HETATM   19  C   UNL     1      -8.017   3.395  66.551  1.00  0.00    -0.084 A  
HETATM   20  C   UNL     1      -9.748   4.436  65.244  1.00  0.00    -0.199 A  
HETATM   21  C   UNL     1      -8.662   3.581  65.339  1.00  0.00    -0.120 A  
HETATM   22  C   UNL     1     -10.207   5.107  66.385  1.00  0.00    -0.303 A  
ENDBRANCH   9  16
BRANCH   8  23
HETATM   23  C   UNL     1     -10.687   7.846  67.828  1.00  0.00    -0.189 C  
HETATM   24  C   UNL     1      -9.739   8.679  67.355  1.00  0.00    -0.227 C  
BRANCH  24  25
HETATM   25  C   UNL     1      -9.816   9.474  66.067  1.00  0.00    -0.283 C  
HETATM   26  H   UNL     1      -9.565  11.347  65.510  1.00  0.00     0.000 HD 
HETATM   27  O   UNL     1      -9.516  10.848  66.317  1.00  0.00    -0.183 OA 
BRANCH  25  28
HETATM   28  C   UNL     1      -8.882   8.953  64.964  1.00  0.00    -0.183 C  
BRANCH  28  29
HETATM   29  C   UNL     1      -7.432   9.476  65.107  1.00  0.00    -0.109 C  
HETATM   30  O   UNL     1      -7.413  10.905  65.189  1.00  0.00    -0.358 OA 
HETATM   31  H   UNL     1      -6.523  11.226  65.276  1.00  0.00     0.000 HD 
BRANCH  29  32
HETATM   32  C   UNL     1      -6.751   8.977  66.381  1.00  0.00    -0.075 C  
HETATM   33  C   UNL     1      -6.564   7.486  66.377  1.00  0.00    -0.053 C  
HETATM   34  O   UNL     1      -6.356   6.817  65.377  1.00  0.00    -0.040 OA 
HETATM   35  O   UNL     1      -6.633   6.938  67.612  1.00  0.00    -0.051 OA 
ENDBRANCH  29  32
ENDBRANCH  28  29
ENDBRANCH  25  28
ENDBRANCH  24  25
ENDBRANCH   8  23
TORSDOF 8
ENDMDL
MODEL      182
REMARK 921   NORMALIZED FREE ENERGY PREDICTED BY IDOCK:   -3.61 KCAL/MOL
REMARK 922        TOTAL FREE ENERGY PREDICTED BY IDOCK:   -6.84 KCAL/MOL
REMARK 923 INTER-LIGAND FREE ENERGY PREDICTED BY IDOCK:   -6.18 KCAL/MOL
REMARK 924 INTRA-LIGAND FREE ENERGY PREDICTED BY IDOCK:   -0.66 KCAL/MOL
REMARK 927      BINDING AFFINITY PREDICTED BY RF-SCORE:    0.00 PKD
ROOT
HETATM    1  C   UNL     1     -12.059   8.693  72.222  1.00  0.00    -0.443 C  
HETATM    2  C   UNL     1     -11.308   8.613  70.884  1.00  0.00    -0.314 C  
HETATM    3  C   UNL     1     -10.078   9.524  70.942  1.00  0.00    -0.330 C  
HETATM    4  C   UNL     1     -10.898   7.190  70.518  1.00  0.00    -0.246 A  
HETATM    5  N   UNL     1     -10.709   6.355  71.567  1.00  0.00    -0.231 NA 
HETATM    6  C   UNL     1     -10.307   5.118  71.280  1.00  0.00    -0.205 A  
HETATM    7  N   UNL     1     -10.021   4.648  70.070  1.00  0.00    -0.231 NA 
HETATM    8  C   UNL     1     -10.673   6.793  69.186  1.00  0.00    -0.287 A  
HETATM    9  C   UNL     1     -10.158   5.499  69.017  1.00  0.00    -0.205 A  
ENDROOT
BRANCH   6  10
HETATM   10  N   UNL     1     -10.394   4.184  72.327  1.00  0.00    -0.161 N  
HETATM   11  C   UNL     1     -11.353   4.515  73.389  1.00  0.00    -0.286 C  
BRANCH  10  12
HETATM   12  S   UNL     1      -8.932   3.506  72.790  1.00  0.00    -0.096 S  
HETATM   13  C   UNL     1      -7.819   4.891  72.955  1.00  0.00    -0.094 C  
HETATM   14  O   UNL     1      -9.115   2.954  74.121  1.00  0.00    -0.078 OA 
HETATM   15  O   UNL     1      -8.428   2.675  71.722  1.00  0.00    -0.062 OA 
ENDBRANCH  10  12
ENDBRANCH   6  10
BRANCH   9  16
HETATM   16  C   UNL     1      -9.699   4.898  67.727  1.00  0.00    -0.199 A  
HETATM   17  F   UNL     1      -8.312   3.216  64.172  1.00  0.00    -0.087 F  
HETATM   18  C   UNL     1      -8.413   4.319  67.628  1.00  0.00    -0.101 A  
HETATM   19  C   UNL     1      -7.940   3.759  66.435  1.00  0.00    -0.089 A  
HETATM   20  C   UNL     1     -10.004   4.353  65.352  1.00  0.00    -0.231 A  
HETATM   21  C   UNL     1      -8.750   3.766  65.311  1.00  0.00    -0.116 A  
HETATM   22  C   UNL     1     -10.464   4.930  66.544  1.00  0.00    -0.299 A  
ENDBRANCH   9  16
BRANCH   8  23
HETATM   23  C   UNL     1     -10.989   7.728  68.089  1.00  0.00     0.100 C  
HETATM   24  C   UNL     1     -10.350   8.897  67.881  1.00  0.00    -0.286 C  
BRANCH  24  25
HETATM   25  C   UNL     1     -10.500   9.788  66.665  1.00  0.00    -0.163 C  
HETATM   26  H   UNL     1     -11.585  11.347  66.144  1.00  0.00     0.000 HD 
HETATM   27  O   UNL     1     -11.491  10.789  66.906  1.00  0.00    -0.304 OA 
BRANCH  25  28
HETATM   28  C   UNL     1      -9.193  10.474  66.239  1.00  0.00    -0.192 C  
BRANCH  28  29
HETATM   29  C   UNL     1      -8.462  11.162  67.417  1.00  0.00    -0.134 C  
HETATM   30  O   UNL     1      -7.202  10.531  67.670  1.00  0.00    -0.084 OA 
HETATM   31  H   UNL     1      -6.753  10.953  68.393  1.00  0.00     0.000 HD 
BRANCH  29  32
HETATM   32  C   UNL     1      -8.143  12.630  67.132  1.00  0.00    -0.141 C  
HETATM   33  C   UNL     1      -9.184  13.556  67.694  1.00  0.00    -0.214 C  
HETATM   34  O   UNL     1      -9.816  13.347  68.717  1.00  0.00    -0.152 OA 
HETATM   35  O   UNL     1      -9.354  14.676  66.955  1.00  0.00    -0.220 OA 
ENDBRANCH  29  32
ENDBRANCH  28  29
ENDBRANCH  25  28
ENDBRANCH  24  25
ENDBRANCH   8  23
TORSDOF 8
ENDMDL
MODEL      183
REMARK 921   NORMALIZED FREE ENERGY PREDICTED BY IDOCK:   -3.57 KCAL/MOL
REMARK 922        TOTAL FREE ENERGY PREDICTED BY IDOCK:   -6.78 KCAL/MOL
REMARK 923 INTER-LIGAND FREE ENERGY PREDICTED BY IDOCK:   -6.03 KCAL/MOL
REMARK 924 INTRA-LIGAND FREE ENERGY PREDICTED BY IDOCK:   -0.75 KCAL/MOL
REMARK 927      BINDING AFFINITY PREDICTED BY RF-SCORE:    0.00 PKD
ROOT
HETATM    1  C   UNL     1      -7.172  12.954  67.093  1.00  0.00     0.017 C  
HETATM    2  C   UNL     1      -7.269  11.844  68.152  1.00  0.00    -0.085 C  
HETATM    3  C   UNL     1      -6.425  12.237  69.369  1.00  0.00    -0.105 C  
HETATM    4  C   UNL     1      -8.705  11.552  68.574  1.00  0.00    -0.138 A  
HETATM    5  N   UNL     1      -9.566  12.590  68.454  1.00  0.00    -0.206 NA 
HETATM    6  C   UNL     1     -10.817  12.377  68.857  1.00  0.00    -0.197 A  
HETATM    7  N   UNL     1     -11.282  11.264  69.416  1.00  0.00    -0.262 NA 
HETATM    8  C   UNL     1      -9.091  10.308  69.110  1.00  0.00    -0.199 A  
HETATM    9  C   UNL     1     -10.408  10.235  69.589  1.00  0.00    -0.248 A  
ENDROOT
BRANCH   6  10
HETATM   10  N   UNL     1     -11.763  13.341  68.466  1.00  0.00    -0.332 N  
HETATM   11  C   UNL     1     -12.000  13.440  67.020  1.00  0.00    -0.379 C  
BRANCH  10  12
HETATM   12  S   UNL     1     -11.718  14.770  69.340  1.00  0.00    -0.342 S  
HETATM   13  C   UNL     1     -13.096  14.659  70.470  1.00  0.00    -0.202 C  
HETATM   14  O   UNL     1     -10.510  14.744  70.147  1.00  0.00    -0.055 OA 
HETATM   15  O   UNL     1     -11.977  15.883  68.456  1.00  0.00    -0.306 OA 
ENDBRANCH  10  12
ENDBRANCH   6  10
BRANCH   9  16
HETATM   16  C   UNL     1     -11.011   9.085  70.330  1.00  0.00    -0.274 A  
HETATM   17  F   UNL     1     -12.701   5.819  72.296  1.00  0.00    -0.267 F  
HETATM   18  C   UNL     1     -11.173   7.833  69.693  1.00  0.00     0.041 A  
HETATM   19  C   UNL     1     -11.746   6.735  70.346  1.00  0.00    -0.418 A  
HETATM   20  C   UNL     1     -12.062   8.086  72.311  1.00  0.00    -0.392 A  
HETATM   21  C   UNL     1     -12.170   6.869  71.658  1.00  0.00    -0.361 A  
HETATM   22  C   UNL     1     -11.506   9.187  71.645  1.00  0.00    -0.451 A  
ENDBRANCH   9  16
BRANCH   8  23
HETATM   23  C   UNL     1      -8.123   9.194  69.124  1.00  0.00    -0.105 C  
HETATM   24  C   UNL     1      -8.038   8.253  68.163  1.00  0.00    -0.124 C  
BRANCH  24  25
HETATM   25  C   UNL     1      -6.942   7.214  68.030  1.00  0.00    -0.079 C  
HETATM   26  H   UNL     1      -6.524   5.451  68.801  1.00  0.00     0.000 HD 
HETATM   27  O   UNL     1      -7.211   6.101  68.884  1.00  0.00    -0.079 OA 
BRANCH  25  28
HETATM   28  C   UNL     1      -6.748   6.705  66.594  1.00  0.00    -0.056 C  
BRANCH  28  29
HETATM   29  C   UNL     1      -7.856   5.721  66.148  1.00  0.00    -0.101 C  
HETATM   30  O   UNL     1      -8.957   5.749  67.062  1.00  0.00    -0.115 OA 
HETATM   31  H   UNL     1      -9.637   5.144  66.789  1.00  0.00     0.000 HD 
BRANCH  29  32
HETATM   32  C   UNL     1      -8.441   6.078  64.781  1.00  0.00    -0.032 C  
HETATM   33  C   UNL     1      -7.505   5.737  63.657  1.00  0.00    -0.069 C  
HETATM   34  O   UNL     1      -6.730   4.794  63.664  1.00  0.00    -0.040 OA 
HETATM   35  O   UNL     1      -7.608   6.580  62.604  1.00  0.00    -0.068 OA 
ENDBRANCH  29  32
ENDBRANCH  28  29
ENDBRANCH  25  28
ENDBRANCH  24  25
ENDBRANCH   8  23
TORSDOF 8
ENDMDL
MODEL      184
REMARK 921   NORMALIZED FREE ENERGY PREDICTED BY IDOCK:   -3.45 KCAL/MOL
REMARK 922        TOTAL FREE ENERGY PREDICTED BY IDOCK:   -6.61 KCAL/MOL
REMARK 923 INTER-LIGAND FREE ENERGY PREDICTED BY IDOCK:   -5.22 KCAL/MOL
REMARK 924 INTRA-LIGAND FREE ENERGY PREDICTED BY IDOCK:   -1.39 KCAL/MOL
REMARK 927      BINDING AFFINITY PREDICTED BY RF-SCORE:    0.00 PKD
ROOT
HETATM    1  C   UNL     1     -10.349   4.791  66.254  1.00  0.00    -0.329 C  
HETATM    2  C   UNL     1     -10.371   6.246  66.747  1.00  0.00    -0.285 C  
HETATM    3  C   UNL     1     -11.317   6.357  67.946  1.00  0.00    -0.073 C  
HETATM    4  C   UNL     1      -8.985   6.767  67.116  1.00  0.00    -0.115 A  
HETATM    5  N   UNL     1      -8.099   5.824  67.514  1.00  0.00    -0.102 NA 
HETATM    6  C   UNL     1      -6.894   6.254  67.883  1.00  0.00    -0.067 A  
HETATM    7  N   UNL     1      -6.503   7.523  67.953  1.00  0.00    -0.052 NA 
HETATM    8  C   UNL     1      -8.671   8.140  67.102  1.00  0.00    -0.130 A  
HETATM    9  C   UNL     1      -7.406   8.479  67.606  1.00  0.00    -0.089 A  
ENDROOT
BRANCH   6  10
HETATM   10  N   UNL     1      -5.900   5.268  68.012  1.00  0.00    -0.017 N  
HETATM   11  C   UNL     1      -5.671   4.445  66.817  1.00  0.00    -0.022 C  
BRANCH  10  12
HETATM   12  S   UNL     1      -5.859   4.497  69.500  1.00  0.00    -0.018 S  
HETATM   13  C   UNL     1      -7.571   4.191  69.902  1.00  0.00    -0.052 C  
HETATM   14  O   UNL     1      -5.237   3.200  69.297  1.00  0.00    -0.010 OA 
HETATM   15  O   UNL     1      -5.339   5.404  70.497  1.00  0.00    -0.004 OA 
ENDBRANCH  10  12
ENDBRANCH   6  10
BRANCH   9  16
HETATM   16  C   UNL     1      -6.894   9.865  67.833  1.00  0.00    -0.076 A  
HETATM   17  F   UNL     1      -5.526  13.736  68.567  1.00  0.00    -0.075 F  
HETATM   18  C   UNL     1      -7.070  10.493  69.088  1.00  0.00    -0.089 A  
HETATM   19  C   UNL     1      -6.619  11.795  69.338  1.00  0.00    -0.113 A  
HETATM   20  C   UNL     1      -5.813  11.935  67.075  1.00  0.00    -0.153 A  
HETATM   21  C   UNL     1      -5.978  12.498  68.331  1.00  0.00    -0.057 A  
HETATM   22  C   UNL     1      -6.285  10.640  66.826  1.00  0.00    -0.076 A  
ENDBRANCH   9  16
BRANCH   8  23
HETATM   23  C   UNL     1      -9.654   9.102  66.568  1.00  0.00    -0.289 C  
HETATM   24  C   UNL     1     -10.359   9.965  67.327  1.00  0.00    -0.303 C  
BRANCH  24  25
HETATM   25  C   UNL     1     -11.224  11.098  66.815  1.00  0.00    -0.143 C  
HETATM   26  H   UNL     1     -12.552  12.349  67.557  1.00  0.00     0.000 HD 
HETATM   27  O   UNL     1     -12.010  11.639  67.878  1.00  0.00    -0.599 OA 
BRANCH  25  28
HETATM   28  C   UNL     1     -10.426  12.234  66.157  1.00  0.00    -0.270 C  
BRANCH  28  29
HETATM   29  C   UNL     1      -9.277  12.759  67.051  1.00  0.00    -0.221 C  
HETATM   30  O   UNL     1      -8.589  13.839  66.411  1.00  0.00    -0.423 OA 
HETATM   31  H   UNL     1      -7.883  14.161  66.959  1.00  0.00     0.000 HD 
BRANCH  29  32
HETATM   32  C   UNL     1      -9.778  13.315  68.384  1.00  0.00    -0.198 C  
HETATM   33  C   UNL     1     -10.266  14.731  68.260  1.00  0.00    -0.227 C  
HETATM   34  O   UNL     1     -10.803  15.193  67.265  1.00  0.00    -0.301 OA 
HETATM   35  O   UNL     1     -10.067  15.463  69.380  1.00  0.00    -0.236 OA 
ENDBRANCH  29  32
ENDBRANCH  28  29
ENDBRANCH  25  28
ENDBRANCH  24  25
ENDBRANCH   8  23
TORSDOF 8
ENDMDL
MODEL      185
REMARK 921   NORMALIZED FREE ENERGY PREDICTED BY IDOCK:   -3.37 KCAL/MOL
REMARK 922        TOTAL FREE ENERGY PREDICTED BY IDOCK:   -6.49 KCAL/MOL
REMARK 923 INTER-LIGAND FREE ENERGY PREDICTED BY IDOCK:   -6.58 KCAL/MOL
REMARK 924 INTRA-LIGAND FREE ENERGY PREDICTED BY IDOCK:    0.09 KCAL/MOL
REMARK 927      BINDING AFFINITY PREDICTED BY RF-SCORE:    0.00 PKD
ROOT
HETATM    1  C   UNL     1      -9.680  20.717  68.759  1.00  0.00     0.411 C  
HETATM    2  C   UNL     1     -10.311  19.377  68.348  1.00  0.00    -0.461 C  
HETATM    3  C   UNL     1     -11.396  19.633  67.298  1.00  0.00     0.233 C  
HETATM    4  C   UNL     1      -9.287  18.377  67.820  1.00  0.00    -0.274 A  
HETATM    5  N   UNL     1      -8.184  18.921  67.256  1.00  0.00    -0.268 NA 
HETATM    6  C   UNL     1      -7.293  18.073  66.747  1.00  0.00    -0.204 A  
HETATM    7  N   UNL     1      -7.415  16.750  66.690  1.00  0.00    -0.245 NA 
HETATM    8  C   UNL     1      -9.507  16.986  67.862  1.00  0.00    -0.245 A  
HETATM    9  C   UNL     1      -8.546  16.200  67.207  1.00  0.00    -0.178 A  
ENDROOT
BRANCH   6  10
HETATM   10  N   UNL     1      -6.035  18.615  66.432  1.00  0.00    -0.154 N  
HETATM   11  C   UNL     1      -5.164  18.894  67.581  1.00  0.00    -0.169 C  
BRANCH  10  12
HETATM   12  S   UNL     1      -6.040  19.729  65.179  1.00  0.00    -0.255 S  
HETATM   13  C   UNL     1      -5.351  18.851  63.785  1.00  0.00    -0.202 C  
HETATM   14  O   UNL     1      -7.428  20.008  64.855  1.00  0.00    -0.199 OA 
HETATM   15  O   UNL     1      -5.135  20.811  65.494  1.00  0.00    -0.173 OA 
ENDBRANCH  10  12
ENDBRANCH   6  10
BRANCH   9  16
HETATM   16  C   UNL     1      -8.625  14.724  66.983  1.00  0.00    -0.260 A  
HETATM   17  F   UNL     1      -8.925  10.624  66.279  1.00  0.00    -0.152 F  
HETATM   18  C   UNL     1      -9.345  14.207  65.881  1.00  0.00    -0.036 A  
HETATM   19  C   UNL     1      -9.455  12.832  65.644  1.00  0.00     0.037 A  
HETATM   20  C   UNL     1      -8.153  12.400  67.620  1.00  0.00    -0.168 A  
HETATM   21  C   UNL     1      -8.841  11.940  66.509  1.00  0.00    -0.178 A  
HETATM   22  C   UNL     1      -8.064  13.778  67.864  1.00  0.00    -0.166 A  
ENDBRANCH   9  16
BRANCH   8  23
HETATM   23  C   UNL     1     -10.687  16.461  68.575  1.00  0.00    -0.320 C  
HETATM   24  C   UNL     1     -11.461  15.455  68.119  1.00  0.00    -0.352 C  
BRANCH  24  25
HETATM   25  C   UNL     1     -12.554  14.751  68.898  1.00  0.00     0.292 C  
HETATM   26  H   UNL     1     -13.337  12.946  68.975  1.00  0.00     0.000 HD 
HETATM   27  O   UNL     1     -12.652  13.387  68.487  1.00  0.00     0.171 OA 
BRANCH  25  28
HETATM   28  C   UNL     1     -12.354  14.800  70.421  1.00  0.00    -0.402 C  
BRANCH  28  29
HETATM   29  C   UNL     1     -12.944  13.566  71.145  1.00  0.00    -0.262 C  
HETATM   30  O   UNL     1     -12.068  12.441  71.027  1.00  0.00    -0.398 OA 
HETATM   31  H   UNL     1     -12.430  11.683  71.472  1.00  0.00     0.000 HD 
BRANCH  29  32
HETATM   32  C   UNL     1     -13.125  13.798  72.646  1.00  0.00    -0.489 C  
HETATM   33  C   UNL     1     -12.806  15.212  73.043  1.00  0.00    -0.468 C  
HETATM   34  O   UNL     1     -12.996  16.189  72.336  1.00  0.00    -0.423 OA 
HETATM   35  O   UNL     1     -12.290  15.311  74.289  1.00  0.00    -0.622 OA 
ENDBRANCH  29  32
ENDBRANCH  28  29
ENDBRANCH  25  28
ENDBRANCH  24  25
ENDBRANCH   8  23
TORSDOF 8
ENDMDL
MODEL      186
REMARK 921   NORMALIZED FREE ENERGY PREDICTED BY IDOCK:   -3.34 KCAL/MOL
REMARK 922        TOTAL FREE ENERGY PREDICTED BY IDOCK:   -6.45 KCAL/MOL
REMARK 923 INTER-LIGAND FREE ENERGY PREDICTED BY IDOCK:   -6.02 KCAL/MOL
REMARK 924 INTRA-LIGAND FREE ENERGY PREDICTED BY IDOCK:   -0.43 KCAL/MOL
REMARK 927      BINDING AFFINITY PREDICTED BY RF-SCORE:    0.00 PKD
ROOT
HETATM    1  C   UNL     1      -9.553   8.894  71.530  1.00  0.00    -0.362 C  
HETATM    2  C   UNL     1      -9.811   9.037  70.021  1.00  0.00    -0.203 C  
HETATM    3  C   UNL     1     -10.694   7.878  69.550  1.00  0.00    -0.195 C  
HETATM    4  C   UNL     1     -10.448  10.374  69.654  1.00  0.00    -0.243 A  
HETATM    5  N   UNL     1     -11.193  10.947  70.628  1.00  0.00    -0.040 NA 
HETATM    6  C   UNL     1     -11.798  12.093  70.321  1.00  0.00    -0.254 A  
HETATM    7  N   UNL     1     -11.785  12.692  69.134  1.00  0.00    -0.309 NA 
HETATM    8  C   UNL     1     -10.320  10.938  68.370  1.00  0.00    -0.196 A  
HETATM    9  C   UNL     1     -11.082  12.093  68.135  1.00  0.00    -0.248 A  
ENDROOT
BRANCH   6  10
HETATM   10  N   UNL     1     -12.320  12.824  71.402  1.00  0.00    -0.104 N  
HETATM   11  C   UNL     1     -13.173  12.062  72.324  1.00  0.00    -0.130 C  
BRANCH  10  12
HETATM   12  S   UNL     1     -12.788  14.391  71.035  1.00  0.00    -0.365 S  
HETATM   13  C   UNL     1     -11.921  15.414  72.214  1.00  0.00    -0.438 C  
HETATM   14  O   UNL     1     -12.245  14.708  69.725  1.00  0.00    -0.313 OA 
HETATM   15  O   UNL     1     -14.201  14.544  71.292  1.00  0.00    -0.366 OA 
ENDBRANCH  10  12
ENDBRANCH   6  10
BRANCH   9  16
HETATM   16  C   UNL     1     -11.234  12.793  66.823  1.00  0.00    -0.338 A  
HETATM   17  F   UNL     1     -11.733  14.663  63.129  1.00  0.00     0.624 F  
HETATM   18  C   UNL     1     -12.261  12.414  65.927  1.00  0.00    -0.220 A  
HETATM   19  C   UNL     1     -12.429  13.033  64.684  1.00  0.00    -0.460 A  
HETATM   20  C   UNL     1     -10.527  14.434  65.139  1.00  0.00    -0.437 A  
HETATM   21  C   UNL     1     -11.568  14.052  64.309  1.00  0.00    -0.329 A  
HETATM   22  C   UNL     1     -10.352  13.796  66.375  1.00  0.00    -0.290 A  
ENDBRANCH   9  16
BRANCH   8  23
HETATM   23  C   UNL     1      -9.417  10.306  67.388  1.00  0.00    -0.174 C  
HETATM   24  C   UNL     1      -8.131  10.665  67.202  1.00  0.00    -0.121 C  
BRANCH  24  25
HETATM   25  C   UNL     1      -7.115   9.923  66.358  1.00  0.00    -0.096 C  
HETATM   26  H   UNL     1      -5.165   9.641  66.363  1.00  0.00     0.000 HD 
HETATM   27  O   UNL     1      -5.802  10.106  66.892  1.00  0.00    -0.049 OA 
BRANCH  25  28
HETATM   28  C   UNL     1      -7.397   8.419  66.233  1.00  0.00    -0.086 C  
BRANCH  28  29
HETATM   29  C   UNL     1      -6.369   7.547  66.993  1.00  0.00    -0.053 C  
HETATM   30  O   UNL     1      -6.350   7.883  68.385  1.00  0.00    -0.046 OA 
HETATM   31  H   UNL     1      -5.718   7.348  68.852  1.00  0.00     0.000 HD 
BRANCH  29  32
HETATM   32  C   UNL     1      -6.702   6.057  66.929  1.00  0.00    -0.058 C  
HETATM   33  C   UNL     1      -6.427   5.473  65.572  1.00  0.00    -0.040 C  
HETATM   34  O   UNL     1      -5.531   5.841  64.829  1.00  0.00    -0.015 OA 
HETATM   35  O   UNL     1      -7.271   4.468  65.244  1.00  0.00    -0.065 OA 
ENDBRANCH  29  32
ENDBRANCH  28  29
ENDBRANCH  25  28
ENDBRANCH  24  25
ENDBRANCH   8  23
TORSDOF 8
ENDMDL
MODEL      187
REMARK 921   NORMALIZED FREE ENERGY PREDICTED BY IDOCK:   -3.32 KCAL/MOL
REMARK 922        TOTAL FREE ENERGY PREDICTED BY IDOCK:   -6.41 KCAL/MOL
REMARK 923 INTER-LIGAND FREE ENERGY PREDICTED BY IDOCK:   -5.86 KCAL/MOL
REMARK 924 INTRA-LIGAND FREE ENERGY PREDICTED BY IDOCK:   -0.56 KCAL/MOL
REMARK 927      BINDING AFFINITY PREDICTED BY RF-SCORE:    0.00 PKD
ROOT
HETATM    1  C   UNL     1     -11.098   6.477  69.901  1.00  0.00    -0.430 C  
HETATM    2  C   UNL     1     -10.901   7.985  70.118  1.00  0.00    -0.242 C  
HETATM    3  C   UNL     1     -10.812   8.270  71.620  1.00  0.00    -0.320 C  
HETATM    4  C   UNL     1      -9.671   8.531  69.400  1.00  0.00    -0.177 A  
HETATM    5  N   UNL     1      -8.674   7.637  69.200  1.00  0.00    -0.139 NA 
HETATM    6  C   UNL     1      -7.570   8.096  68.614  1.00  0.00    -0.103 A  
HETATM    7  N   UNL     1      -7.335   9.357  68.263  1.00  0.00    -0.077 NA 
HETATM    8  C   UNL     1      -9.558   9.885  69.029  1.00  0.00    -0.188 A  
HETATM    9  C   UNL     1      -8.312  10.270  68.511  1.00  0.00    -0.116 A  
ENDROOT
BRANCH   6  10
HETATM   10  N   UNL     1      -6.668   7.122  68.149  1.00  0.00    -0.059 N  
HETATM   11  C   UNL     1      -5.264   7.335  68.521  1.00  0.00    -0.021 C  
BRANCH  10  12
HETATM   12  S   UNL     1      -6.979   6.556  66.601  1.00  0.00    -0.069 S  
HETATM   13  C   UNL     1      -8.760   6.494  66.487  1.00  0.00    -0.134 C  
HETATM   14  O   UNL     1      -6.534   7.577  65.670  1.00  0.00    -0.044 OA 
HETATM   15  O   UNL     1      -6.494   5.200  66.480  1.00  0.00    -0.039 OA 
ENDBRANCH  10  12
ENDBRANCH   6  10
BRANCH   9  16
HETATM   16  C   UNL     1      -7.892  11.667  68.182  1.00  0.00    -0.133 A  
HETATM   17  F   UNL     1      -6.781  15.556  67.167  1.00  0.00    -0.203 F  
HETATM   18  C   UNL     1      -8.517  12.370  67.126  1.00  0.00    -0.185 A  
HETATM   19  C   UNL     1      -8.144  13.673  66.777  1.00  0.00     0.271 A  
HETATM   20  C   UNL     1      -6.467  13.641  68.502  1.00  0.00    -0.090 A  
HETATM   21  C   UNL     1      -7.131  14.303  67.482  1.00  0.00    -0.167 A  
HETATM   22  C   UNL     1      -6.832  12.329  68.833  1.00  0.00    -0.096 A  
ENDBRANCH   9  16
BRANCH   8  23
HETATM   23  C   UNL     1     -10.719  10.780  69.193  1.00  0.00    -0.265 C  
HETATM   24  C   UNL     1     -11.325  11.027  70.372  1.00  0.00    -0.222 C  
BRANCH  24  25
HETATM   25  C   UNL     1     -12.383  12.081  70.624  1.00  0.00    -0.304 C  
HETATM   26  H   UNL     1     -13.895  12.341  71.860  1.00  0.00     0.000 HD 
HETATM   27  O   UNL     1     -13.231  11.681  71.702  1.00  0.00    -0.409 OA 
BRANCH  25  28
HETATM   28  C   UNL     1     -11.807  13.471  70.933  1.00  0.00    -0.015 C  
BRANCH  28  29
HETATM   29  C   UNL     1     -12.533  14.607  70.171  1.00  0.00    -0.317 C  
HETATM   30  O   UNL     1     -12.405  15.849  70.871  1.00  0.00    -0.439 OA 
HETATM   31  H   UNL     1     -12.851  16.546  70.404  1.00  0.00     0.000 HD 
BRANCH  29  32
HETATM   32  C   UNL     1     -11.944  14.849  68.782  1.00  0.00    -0.284 C  
HETATM   33  C   UNL     1     -10.753  15.765  68.822  1.00  0.00    -0.253 C  
HETATM   34  O   UNL     1      -9.957  15.823  69.745  1.00  0.00    -0.274 OA 
HETATM   35  O   UNL     1     -10.631  16.528  67.712  1.00  0.00    -0.315 OA 
ENDBRANCH  29  32
ENDBRANCH  28  29
ENDBRANCH  25  28
ENDBRANCH  24  25
ENDBRANCH   8  23
TORSDOF 8
ENDMDL
MODEL      188
REMARK 921   NORMALIZED FREE ENERGY PREDICTED BY IDOCK:   -3.22 KCAL/MOL
REMARK 922        TOTAL FREE ENERGY PREDICTED BY IDOCK:   -6.26 KCAL/MOL
REMARK 923 INTER-LIGAND FREE ENERGY PREDICTED BY IDOCK:   -6.27 KCAL/MOL
REMARK 924 INTRA-LIGAND FREE ENERGY PREDICTED BY IDOCK:    0.01 KCAL/MOL
REMARK 927      BINDING AFFINITY PREDICTED BY RF-SCORE:    0.00 PKD
ROOT
HETATM    1  C   UNL     1      -8.595  15.179  66.778  1.00  0.00    -0.297 C  
HETATM    2  C   UNL     1      -8.268  13.869  67.511  1.00  0.00    -0.196 C  
HETATM    3  C   UNL     1      -7.092  14.106  68.464  1.00  0.00    -0.103 C  
HETATM    4  C   UNL     1      -9.462  13.303  68.273  1.00  0.00    -0.209 A  
HETATM    5  N   UNL     1     -10.374  14.216  68.682  1.00  0.00    -0.241 NA 
HETATM    6  C   UNL     1     -11.405  13.755  69.388  1.00  0.00    -0.250 A  
HETATM    7  N   UNL     1     -11.589  12.497  69.775  1.00  0.00    -0.258 NA 
HETATM    8  C   UNL     1      -9.573  11.933  68.582  1.00  0.00    -0.101 A  
HETATM    9  C   UNL     1     -10.649  11.583  69.413  1.00  0.00    -0.010 A  
ENDROOT
BRANCH   6  10
HETATM   10  N   UNL     1     -12.482  14.643  69.556  1.00  0.00    -0.186 N  
HETATM   11  C   UNL     1     -12.439  15.851  68.722  1.00  0.00     0.649 C  
BRANCH  10  12
HETATM   12  S   UNL     1     -13.015  14.815  71.136  1.00  0.00    -0.384 S  
HETATM   13  C   UNL     1     -11.998  16.112  71.822  1.00  0.00    -0.489 C  
HETATM   14  O   UNL     1     -14.372  15.329  71.081  1.00  0.00    -0.441 OA 
HETATM   15  O   UNL     1     -12.725  13.607  71.875  1.00  0.00    -0.299 OA 
ENDBRANCH  10  12
ENDBRANCH   6  10
BRANCH   9  16
HETATM   16  C   UNL     1     -10.902  10.232  70.000  1.00  0.00    -0.364 A  
HETATM   17  F   UNL     1     -11.576   6.414  71.537  1.00  0.00    -0.308 F  
HETATM   18  C   UNL     1     -10.469   9.068  69.323  1.00  0.00    -0.238 A  
HETATM   19  C   UNL     1     -10.699   7.784  69.831  1.00  0.00    -0.245 A  
HETATM   20  C   UNL     1     -11.841   8.748  71.716  1.00  0.00    -0.414 A  
HETATM   21  C   UNL     1     -11.369   7.638  71.035  1.00  0.00    -0.272 A  
HETATM   22  C   UNL     1     -11.625  10.030  71.192  1.00  0.00    -0.460 A  
ENDBRANCH   9  16
BRANCH   8  23
HETATM   23  C   UNL     1      -8.592  10.983  68.024  1.00  0.00    -0.134 C  
HETATM   24  C   UNL     1      -8.532  10.633  66.723  1.00  0.00    -0.134 C  
BRANCH  24  25
HETATM   25  C   UNL     1      -7.429   9.824  66.070  1.00  0.00    -0.102 C  
HETATM   26  H   UNL     1      -5.461   9.757  66.127  1.00  0.00     0.000 HD 
HETATM   27  O   UNL     1      -6.152  10.264  66.536  1.00  0.00    -0.063 OA 
BRANCH  25  28
HETATM   28  C   UNL     1      -7.552   8.311  66.306  1.00  0.00    -0.096 C  
BRANCH  28  29
HETATM   29  C   UNL     1      -8.806   7.697  65.639  1.00  0.00    -0.050 C  
HETATM   30  O   UNL     1      -9.283   8.539  64.585  1.00  0.00    -0.336 OA 
HETATM   31  H   UNL     1     -10.053   8.162  64.175  1.00  0.00     0.000 HD 
BRANCH  29  32
HETATM   32  C   UNL     1      -8.520   6.341  64.991  1.00  0.00    -0.049 C  
HETATM   33  C   UNL     1      -7.519   6.446  63.876  1.00  0.00    -0.081 C  
HETATM   34  O   UNL     1      -6.596   7.244  63.847  1.00  0.00    -0.046 OA 
HETATM   35  O   UNL     1      -7.727   5.545  62.888  1.00  0.00    -0.067 OA 
ENDBRANCH  29  32
ENDBRANCH  28  29
ENDBRANCH  25  28
ENDBRANCH  24  25
ENDBRANCH   8  23
TORSDOF 8
ENDMDL
MODEL      189
REMARK 921   NORMALIZED FREE ENERGY PREDICTED BY IDOCK:   -3.17 KCAL/MOL
REMARK 922        TOTAL FREE ENERGY PREDICTED BY IDOCK:   -6.20 KCAL/MOL
REMARK 923 INTER-LIGAND FREE ENERGY PREDICTED BY IDOCK:   -4.96 KCAL/MOL
REMARK 924 INTRA-LIGAND FREE ENERGY PREDICTED BY IDOCK:   -1.23 KCAL/MOL
REMARK 927      BINDING AFFINITY PREDICTED BY RF-SCORE:    0.00 PKD
ROOT
HETATM    1  C   UNL     1      -9.784   3.816  68.346  1.00  0.00    -0.094 C  
HETATM    2  C   UNL     1      -9.759   5.006  67.374  1.00  0.00    -0.183 C  
HETATM    3  C   UNL     1     -10.754   4.748  66.239  1.00  0.00    -0.120 C  
HETATM    4  C   UNL     1     -10.066   6.335  68.057  1.00  0.00    -0.152 A  
HETATM    5  N   UNL     1     -10.840   6.252  69.164  1.00  0.00    -0.304 NA 
HETATM    6  C   UNL     1     -11.160   7.401  69.756  1.00  0.00    -0.152 A  
HETATM    7  N   UNL     1     -10.840   8.618  69.328  1.00  0.00    -0.131 NA 
HETATM    8  C   UNL     1      -9.625   7.566  67.533  1.00  0.00    -0.175 A  
HETATM    9  C   UNL     1     -10.108   8.711  68.186  1.00  0.00    -0.197 A  
ENDROOT
BRANCH   6  10
HETATM   10  N   UNL     1     -11.706   7.298  71.048  1.00  0.00    -0.297 N  
HETATM   11  C   UNL     1     -12.796   8.236  71.347  1.00  0.00    -0.247 C  
BRANCH  10  12
HETATM   12  S   UNL     1     -10.591   6.996  72.263  1.00  0.00    -0.221 S  
HETATM   13  C   UNL     1      -8.999   7.131  71.466  1.00  0.00    -0.134 C  
HETATM   14  O   UNL     1     -10.680   8.092  73.212  1.00  0.00    -0.272 OA 
HETATM   15  O   UNL     1     -10.730   5.631  72.714  1.00  0.00    -0.212 OA 
ENDBRANCH  10  12
ENDBRANCH   6  10
BRANCH   9  16
HETATM   16  C   UNL     1      -9.909  10.125  67.741  1.00  0.00    -0.190 A  
HETATM   17  F   UNL     1      -9.312  14.093  66.606  1.00  0.00    -0.250 F  
HETATM   18  C   UNL     1      -9.152  11.021  68.532  1.00  0.00    -0.173 A  
HETATM   19  C   UNL     1      -8.954  12.356  68.159  1.00  0.00    -0.196 A  
HETATM   20  C   UNL     1     -10.290  11.990  66.191  1.00  0.00    -0.257 A  
HETATM   21  C   UNL     1      -9.513  12.823  66.980  1.00  0.00    -0.233 A  
HETATM   22  C   UNL     1     -10.501  10.661  66.580  1.00  0.00    -0.296 A  
ENDBRANCH   9  16
BRANCH   8  23
HETATM   23  C   UNL     1      -8.708   7.575  66.377  1.00  0.00    -0.158 C  
HETATM   24  C   UNL     1      -9.052   7.987  65.140  1.00  0.00     0.291 C  
BRANCH  24  25
HETATM   25  C   UNL     1      -8.103   8.202  63.979  1.00  0.00    -0.122 C  
HETATM   26  H   UNL     1      -7.711   9.632  62.682  1.00  0.00     0.000 HD 
HETATM   27  O   UNL     1      -8.305   9.497  63.410  1.00  0.00    -0.153 OA 
BRANCH  25  28
HETATM   28  C   UNL     1      -6.622   8.049  64.356  1.00  0.00    -0.061 C  
BRANCH  28  29
HETATM   29  C   UNL     1      -5.950   6.831  63.678  1.00  0.00    -0.035 C  
HETATM   30  O   UNL     1      -5.368   5.963  64.657  1.00  0.00    -0.016 OA 
HETATM   31  H   UNL     1      -4.955   5.216  64.240  1.00  0.00     0.000 HD 
BRANCH  29  32
HETATM   32  C   UNL     1      -6.945   5.972  62.898  1.00  0.00    -0.045 C  
HETATM   33  C   UNL     1      -7.337   4.733  63.652  1.00  0.00    -0.054 C  
HETATM   34  O   UNL     1      -7.425   4.661  64.867  1.00  0.00    -0.070 OA 
HETATM   35  O   UNL     1      -7.605   3.681  62.844  1.00  0.00    -0.056 OA 
ENDBRANCH  29  32
ENDBRANCH  28  29
ENDBRANCH  25  28
ENDBRANCH  24  25
ENDBRANCH   8  23
TORSDOF 8
ENDMDL
MODEL      190
REMARK 921   NORMALIZED FREE ENERGY PREDICTED BY IDOCK:   -3.13 KCAL/MOL
REMARK 922        TOTAL FREE ENERGY PREDICTED BY IDOCK:   -6.14 KCAL/MOL
REMARK 923 INTER-LIGAND FREE ENERGY PREDICTED BY IDOCK:   -5.56 KCAL/MOL
REMARK 924 INTRA-LIGAND FREE ENERGY PREDICTED BY IDOCK:   -0.58 KCAL/MOL
REMARK 927      BINDING AFFINITY PREDICTED BY RF-SCORE:    0.00 PKD
ROOT
HETATM    1  C   UNL     1     -11.725  13.311  68.555  1.00  0.00    -0.388 C  
HETATM    2  C   UNL     1     -11.408  12.166  67.580  1.00  0.00    -0.392 C  
HETATM    3  C   UNL     1     -12.100  12.441  66.241  1.00  0.00    -0.256 C  
HETATM    4  C   UNL     1      -9.911  11.964  67.371  1.00  0.00    -0.183 A  
HETATM    5  N   UNL     1      -9.146  13.067  67.550  1.00  0.00    -0.181 NA 
HETATM    6  C   UNL     1      -7.840  12.930  67.332  1.00  0.00    -0.170 A  
HETATM    7  N   UNL     1      -7.229  11.831  66.900  1.00  0.00    -0.132 NA 
HETATM    8  C   UNL     1      -9.371  10.729  66.960  1.00  0.00    -0.174 A  
HETATM    9  C   UNL     1      -7.999  10.734  66.667  1.00  0.00    -0.139 A  
ENDROOT
BRANCH   6  10
HETATM   10  N   UNL     1      -7.025  13.977  67.794  1.00  0.00    -0.163 N  
HETATM   11  C   UNL     1      -6.183  13.655  68.954  1.00  0.00    -0.092 C  
BRANCH  10  12
HETATM   12  S   UNL     1      -7.736  15.495  67.755  1.00  0.00    -0.154 S  
HETATM   13  C   UNL     1      -8.795  15.540  69.191  1.00  0.00    -0.253 C  
HETATM   14  O   UNL     1      -6.683  16.471  67.979  1.00  0.00    -0.129 OA 
HETATM   15  O   UNL     1      -8.586  15.598  66.592  1.00  0.00    -0.247 OA 
ENDBRANCH  10  12
ENDBRANCH   6  10
BRANCH   9  16
HETATM   16  C   UNL     1      -7.223   9.600  66.076  1.00  0.00    -0.098 A  
HETATM   17  F   UNL     1      -5.141   6.426  64.350  1.00  0.00    -0.018 F  
HETATM   18  C   UNL     1      -7.570   9.083  64.806  1.00  0.00    -0.105 A  
HETATM   19  C   UNL     1      -6.879   8.014  64.225  1.00  0.00    -0.065 A  
HETATM   20  C   UNL     1      -5.466   7.888  66.168  1.00  0.00    -0.028 A  
HETATM   21  C   UNL     1      -5.820   7.437  64.907  1.00  0.00    -0.037 A  
HETATM   22  C   UNL     1      -6.174   8.946  66.753  1.00  0.00    -0.058 A  
ENDBRANCH   9  16
BRANCH   8  23
HETATM   23  C   UNL     1     -10.250   9.547  66.875  1.00  0.00    -0.317 C  
HETATM   24  C   UNL     1     -10.036   8.395  67.542  1.00  0.00    -0.279 C  
BRANCH  24  25
HETATM   25  C   UNL     1     -11.005   7.234  67.645  1.00  0.00    -0.110 C  
HETATM   26  H   UNL     1     -11.374   5.571  66.656  1.00  0.00     0.000 HD 
HETATM   27  O   UNL     1     -10.767   6.298  66.592  1.00  0.00    -0.264 OA 
BRANCH  25  28
HETATM   28  C   UNL     1     -10.942   6.497  68.991  1.00  0.00    -0.378 C  
BRANCH  28  29
HETATM   29  C   UNL     1      -9.773   5.485  69.070  1.00  0.00    -0.144 C  
HETATM   30  O   UNL     1      -8.567   6.135  69.486  1.00  0.00    -0.125 OA 
HETATM   31  H   UNL     1      -7.849   5.514  69.534  1.00  0.00     0.000 HD 
BRANCH  29  32
HETATM   32  C   UNL     1     -10.025   4.378  70.093  1.00  0.00    -0.249 C  
HETATM   33  C   UNL     1      -8.867   3.425  70.194  1.00  0.00    -0.085 C  
HETATM   34  O   UNL     1      -7.697   3.739  70.040  1.00  0.00    -0.048 OA 
HETATM   35  O   UNL     1      -9.243   2.160  70.492  1.00  0.00    -0.096 OA 
ENDBRANCH  29  32
ENDBRANCH  28  29
ENDBRANCH  25  28
ENDBRANCH  24  25
ENDBRANCH   8  23
TORSDOF 8
ENDMDL
MODEL      191
REMARK 921   NORMALIZED FREE ENERGY PREDICTED BY IDOCK:   -3.08 KCAL/MOL
REMARK 922        TOTAL FREE ENERGY PREDICTED BY IDOCK:   -6.06 KCAL/MOL
REMARK 923 INTER-LIGAND FREE ENERGY PREDICTED BY IDOCK:   -5.44 KCAL/MOL
REMARK 924 INTRA-LIGAND FREE ENERGY PREDICTED BY IDOCK:   -0.62 KCAL/MOL
REMARK 927      BINDING AFFINITY PREDICTED BY RF-SCORE:    0.00 PKD
ROOT
HETATM    1  C   UNL     1     -10.405   8.518  66.583  1.00  0.00    -0.303 C  
HETATM    2  C   UNL     1      -9.141   9.236  67.080  1.00  0.00    -0.149 C  
HETATM    3  C   UNL     1      -7.976   8.913  66.139  1.00  0.00    -0.106 C  
HETATM    4  C   UNL     1      -9.325  10.746  67.198  1.00  0.00    -0.155 A  
HETATM    5  N   UNL     1     -10.248  11.283  66.366  1.00  0.00    -0.223 NA 
HETATM    6  C   UNL     1     -10.400  12.605  66.416  1.00  0.00    -0.249 A  
HETATM    7  N   UNL     1      -9.691  13.447  67.161  1.00  0.00    -0.231 NA 
HETATM    8  C   UNL     1      -8.544  11.532  68.067  1.00  0.00    -0.150 A  
HETATM    9  C   UNL     1      -8.725  12.919  67.960  1.00  0.00    -0.191 A  
ENDROOT
BRANCH   6  10
HETATM   10  N   UNL     1     -11.542  13.119  65.777  1.00  0.00    -0.333 N  
HETATM   11  C   UNL     1     -12.738  12.269  65.845  1.00  0.00     1.205 C  
BRANCH  10  12
HETATM   12  S   UNL     1     -11.245  13.919  64.334  1.00  0.00    -0.275 S  
HETATM   13  C   UNL     1     -10.823  15.586  64.815  1.00  0.00    -0.363 C  
HETATM   14  O   UNL     1     -10.048  13.334  63.755  1.00  0.00    -0.162 OA 
HETATM   15  O   UNL     1     -12.465  13.990  63.564  1.00  0.00    -0.826 OA 
ENDBRANCH  10  12
ENDBRANCH   6  10
BRANCH   9  16
HETATM   16  C   UNL     1      -7.919  13.966  68.660  1.00  0.00    -0.109 A  
HETATM   17  F   UNL     1      -5.728  16.968  70.551  1.00  0.00    -0.215 F  
HETATM   18  C   UNL     1      -8.271  15.332  68.545  1.00  0.00    -0.146 A  
HETATM   19  C   UNL     1      -7.535  16.344  69.172  1.00  0.00    -0.228 A  
HETATM   20  C   UNL     1      -6.025  14.687  70.045  1.00  0.00    -0.141 A  
HETATM   21  C   UNL     1      -6.426  16.008  69.932  1.00  0.00    -0.111 A  
HETATM   22  C   UNL     1      -6.754  13.680  69.398  1.00  0.00    -0.063 A  
ENDBRANCH   9  16
BRANCH   8  23
HETATM   23  C   UNL     1      -7.624  10.869  69.012  1.00  0.00    -0.135 C  
HETATM   24  C   UNL     1      -8.009   9.968  69.938  1.00  0.00    -0.184 C  
BRANCH  24  25
HETATM   25  C   UNL     1      -7.087   9.119  70.789  1.00  0.00    -0.102 C  
HETATM   26  H   UNL     1      -5.460   9.389  71.866  1.00  0.00     0.000 HD 
HETATM   27  O   UNL     1      -6.038   9.921  71.333  1.00  0.00    -0.252 OA 
BRANCH  25  28
HETATM   28  C   UNL     1      -7.803   8.391  71.937  1.00  0.00    -0.165 C  
BRANCH  28  29
HETATM   29  C   UNL     1      -8.180   6.932  71.584  1.00  0.00    -0.109 C  
HETATM   30  O   UNL     1      -7.127   6.034  71.947  1.00  0.00    -0.081 OA 
HETATM   31  H   UNL     1      -7.358   5.138  71.730  1.00  0.00     0.000 HD 
BRANCH  29  32
HETATM   32  C   UNL     1      -9.419   6.448  72.338  1.00  0.00    -0.143 C  
HETATM   33  C   UNL     1     -10.603   6.273  71.429  1.00  0.00    -0.237 C  
HETATM   34  O   UNL     1     -10.533   5.926  70.261  1.00  0.00    -0.219 OA 
HETATM   35  O   UNL     1     -11.784   6.525  72.039  1.00  0.00    -0.295 OA 
ENDBRANCH  29  32
ENDBRANCH  28  29
ENDBRANCH  25  28
ENDBRANCH  24  25
ENDBRANCH   8  23
TORSDOF 8
ENDMDL
MODEL      192
REMARK 921   NORMALIZED FREE ENERGY PREDICTED BY IDOCK:   -2.98 KCAL/MOL
REMARK 922        TOTAL FREE ENERGY PREDICTED BY IDOCK:   -5.92 KCAL/MOL
REMARK 923 INTER-LIGAND FREE ENERGY PREDICTED BY IDOCK:   -5.63 KCAL/MOL
REMARK 924 INTRA-LIGAND FREE ENERGY PREDICTED BY IDOCK:   -0.29 KCAL/MOL
REMARK 927      BINDING AFFINITY PREDICTED BY RF-SCORE:    0.00 PKD
ROOT
HETATM    1  C   UNL     1     -10.012   4.103  71.204  1.00  0.00    -0.211 C  
HETATM    2  C   UNL     1      -9.610   5.582  71.320  1.00  0.00    -0.198 C  
HETATM    3  C   UNL     1      -8.857   5.797  72.636  1.00  0.00    -0.125 C  
HETATM    4  C   UNL     1      -8.766   6.060  70.142  1.00  0.00    -0.139 A  
HETATM    5  N   UNL     1      -8.035   5.101  69.527  1.00  0.00    -0.079 NA 
HETATM    6  C   UNL     1      -7.255   5.497  68.523  1.00  0.00    -0.074 A  
HETATM    7  N   UNL     1      -7.086   6.749  68.109  1.00  0.00    -0.083 NA 
HETATM    8  C   UNL     1      -8.707   7.415  69.763  1.00  0.00    -0.141 A  
HETATM    9  C   UNL     1      -7.777   7.724  68.758  1.00  0.00    -0.113 A  
ENDROOT
BRANCH   6  10
HETATM   10  N   UNL     1      -6.732   4.476  67.709  1.00  0.00    -0.050 N  
HETATM   11  C   UNL     1      -5.522   3.821  68.223  1.00  0.00    -0.013 C  
BRANCH  10  12
HETATM   12  S   UNL     1      -6.806   4.779  66.062  1.00  0.00    -0.059 S  
HETATM   13  C   UNL     1      -8.001   3.610  65.437  1.00  0.00    -0.093 C  
HETATM   14  O   UNL     1      -7.383   6.101  65.891  1.00  0.00    -0.076 OA 
HETATM   15  O   UNL     1      -5.534   4.457  65.457  1.00  0.00    -0.012 OA 
ENDBRANCH  10  12
ENDBRANCH   6  10
BRANCH   9  16
HETATM   16  C   UNL     1      -7.420   9.097  68.285  1.00  0.00    -0.083 A  
HETATM   17  F   UNL     1      -6.335  12.926  67.040  1.00  0.00    -0.155 F  
HETATM   18  C   UNL     1      -6.186   9.681  68.656  1.00  0.00    -0.043 A  
HETATM   19  C   UNL     1      -5.820  10.968  68.247  1.00  0.00    -0.046 A  
HETATM   20  C   UNL     1      -7.920  11.183  67.092  1.00  0.00    -0.139 A  
HETATM   21  C   UNL     1      -6.686  11.702  67.452  1.00  0.00    -0.108 A  
HETATM   22  C   UNL     1      -8.289   9.902  67.522  1.00  0.00    -0.114 A  
ENDBRANCH   9  16
BRANCH   8  23
HETATM   23  C   UNL     1      -9.602   8.389  70.417  1.00  0.00    -0.180 C  
HETATM   24  C   UNL     1     -10.716   8.893  69.850  1.00  0.00    -0.236 C  
BRANCH  24  25
HETATM   25  C   UNL     1     -11.766   9.734  70.547  1.00  0.00    -0.268 C  
HETATM   26  H   UNL     1     -12.465   9.946  72.377  1.00  0.00     0.000 HD 
HETATM   27  O   UNL     1     -11.807   9.419  71.940  1.00  0.00    -0.373 OA 
BRANCH  25  28
HETATM   28  C   UNL     1     -11.551  11.247  70.385  1.00  0.00    -0.319 C  
BRANCH  28  29
HETATM   29  C   UNL     1     -11.454  11.686  68.904  1.00  0.00    -0.287 C  
HETATM   30  O   UNL     1     -12.126  10.753  68.052  1.00  0.00    -0.778 OA 
HETATM   31  H   UNL     1     -12.066  11.022  67.143  1.00  0.00     0.000 HD 
BRANCH  29  32
HETATM   32  C   UNL     1     -12.121  13.038  68.649  1.00  0.00    -0.189 C  
HETATM   33  C   UNL     1     -11.189  14.015  67.992  1.00  0.00    -0.279 C  
HETATM   34  O   UNL     1     -10.309  13.709  67.202  1.00  0.00    -0.248 OA 
HETATM   35  O   UNL     1     -11.424  15.299  68.349  1.00  0.00    -0.316 OA 
ENDBRANCH  29  32
ENDBRANCH  28  29
ENDBRANCH  25  28
ENDBRANCH  24  25
ENDBRANCH   8  23
TORSDOF 8
ENDMDL
MODEL      193
REMARK 921   NORMALIZED FREE ENERGY PREDICTED BY IDOCK:   -2.96 KCAL/MOL
REMARK 922        TOTAL FREE ENERGY PREDICTED BY IDOCK:   -5.89 KCAL/MOL
REMARK 923 INTER-LIGAND FREE ENERGY PREDICTED BY IDOCK:   -4.85 KCAL/MOL
REMARK 924 INTRA-LIGAND FREE ENERGY PREDICTED BY IDOCK:   -1.04 KCAL/MOL
REMARK 927      BINDING AFFINITY PREDICTED BY RF-SCORE:    0.00 PKD
ROOT
HETATM    1  C   UNL     1      -9.661  10.068  63.490  1.00  0.00     0.007 C  
HETATM    2  C   UNL     1      -8.451   9.761  64.385  1.00  0.00    -0.185 C  
HETATM    3  C   UNL     1      -7.169  10.179  63.658  1.00  0.00    -0.112 C  
HETATM    4  C   UNL     1      -8.534  10.442  65.748  1.00  0.00    -0.166 A  
HETATM    5  N   UNL     1      -9.254  11.588  65.779  1.00  0.00    -0.219 NA 
HETATM    6  C   UNL     1      -9.308  12.227  66.946  1.00  0.00    -0.210 A  
HETATM    7  N   UNL     1      -8.675  11.876  68.061  1.00  0.00    -0.165 NA 
HETATM    8  C   UNL     1      -7.858   9.944  66.878  1.00  0.00    -0.102 A  
HETATM    9  C   UNL     1      -7.907  10.754  68.022  1.00  0.00    -0.106 A  
ENDROOT
BRANCH   6  10
HETATM   10  N   UNL     1     -10.278  13.239  67.050  1.00  0.00    -0.242 N  
HETATM   11  C   UNL     1     -11.672  12.777  67.060  1.00  0.00    -0.374 C  
BRANCH  10  12
HETATM   12  S   UNL     1      -9.935  14.637  66.190  1.00  0.00    -0.319 S  
HETATM   13  C   UNL     1     -10.627  15.958  67.172  1.00  0.00    -0.316 C  
HETATM   14  O   UNL     1      -8.493  14.812  66.207  1.00  0.00     0.047 OA 
HETATM   15  O   UNL     1     -10.649  14.617  64.935  1.00  0.00    -0.416 OA 
ENDBRANCH  10  12
ENDBRANCH   6  10
BRANCH   9  16
HETATM   16  C   UNL     1      -7.156  10.525  69.295  1.00  0.00    -0.097 A  
HETATM   17  F   UNL     1      -5.130   9.793  72.865  1.00  0.00    -0.089 F  
HETATM   18  C   UNL     1      -7.329   9.321  70.017  1.00  0.00    -0.083 A  
HETATM   19  C   UNL     1      -6.656   9.073  71.220  1.00  0.00    -0.086 A  
HETATM   20  C   UNL     1      -5.617  11.238  71.070  1.00  0.00    -0.022 A  
HETATM   21  C   UNL     1      -5.792  10.030  71.726  1.00  0.00     0.209 A  
HETATM   22  C   UNL     1      -6.309  11.489  69.877  1.00  0.00    -0.136 A  
ENDBRANCH   9  16
BRANCH   8  23
HETATM   23  C   UNL     1      -7.170   8.640  66.794  1.00  0.00    -0.078 C  
HETATM   24  C   UNL     1      -7.675   7.486  67.273  1.00  0.00    -0.116 C  
BRANCH  24  25
HETATM   25  C   UNL     1      -7.106   6.101  67.038  1.00  0.00    -0.073 C  
HETATM   26  H   UNL     1      -5.921   4.847  67.988  1.00  0.00     0.000 HD 
HETATM   27  O   UNL     1      -6.278   5.714  68.135  1.00  0.00    -0.030 OA 
BRANCH  25  28
HETATM   28  C   UNL     1      -8.179   5.023  66.820  1.00  0.00    -0.107 C  
BRANCH  28  29
HETATM   29  C   UNL     1      -9.434   5.561  66.091  1.00  0.00    -0.151 C  
HETATM   30  O   UNL     1      -9.067   6.254  64.893  1.00  0.00    -0.326 OA 
HETATM   31  H   UNL     1      -9.837   6.585  64.445  1.00  0.00     0.000 HD 
BRANCH  29  32
HETATM   32  C   UNL     1     -10.381   4.444  65.652  1.00  0.00    -0.252 C  
HETATM   33  C   UNL     1      -9.851   3.684  64.469  1.00  0.00    -0.185 C  
HETATM   34  O   UNL     1      -8.668   3.482  64.249  1.00  0.00    -0.093 OA 
HETATM   35  O   UNL     1     -10.827   3.218  63.656  1.00  0.00    -0.255 OA 
ENDBRANCH  29  32
ENDBRANCH  28  29
ENDBRANCH  25  28
ENDBRANCH  24  25
ENDBRANCH   8  23
TORSDOF 8
ENDMDL
MODEL      194
REMARK 921   NORMALIZED FREE ENERGY PREDICTED BY IDOCK:   -2.83 KCAL/MOL
REMARK 922        TOTAL FREE ENERGY PREDICTED BY IDOCK:   -5.69 KCAL/MOL
REMARK 923 INTER-LIGAND FREE ENERGY PREDICTED BY IDOCK:   -6.04 KCAL/MOL
REMARK 924 INTRA-LIGAND FREE ENERGY PREDICTED BY IDOCK:    0.34 KCAL/MOL
REMARK 927      BINDING AFFINITY PREDICTED BY RF-SCORE:    0.00 PKD
ROOT
HETATM    1  C   UNL     1      -5.316  13.854  71.406  1.00  0.00    -0.196 C  
HETATM    2  C   UNL     1      -6.164  14.631  70.386  1.00  0.00    -0.168 C  
HETATM    3  C   UNL     1      -5.249  15.533  69.554  1.00  0.00    -0.099 C  
HETATM    4  C   UNL     1      -6.979  13.717  69.476  1.00  0.00     0.090 A  
HETATM    5  N   UNL     1      -6.456  12.484  69.275  1.00  0.00    -0.104 NA 
HETATM    6  C   UNL     1      -7.123  11.680  68.450  1.00  0.00    -0.083 A  
HETATM    7  N   UNL     1      -8.218  11.995  67.764  1.00  0.00    -0.141 NA 
HETATM    8  C   UNL     1      -8.159  14.149  68.842  1.00  0.00    -0.034 A  
HETATM    9  C   UNL     1      -8.719  13.250  67.920  1.00  0.00    -0.192 A  
ENDROOT
BRANCH   6  10
HETATM   10  N   UNL     1      -6.748  10.326  68.471  1.00  0.00    -0.056 N  
HETATM   11  C   UNL     1      -6.760   9.648  67.168  1.00  0.00    -0.075 C  
BRANCH  10  12
HETATM   12  S   UNL     1      -7.301   9.460  69.796  1.00  0.00    -0.096 S  
HETATM   13  C   UNL     1      -6.212   9.926  71.132  1.00  0.00     0.017 C  
HETATM   14  O   UNL     1      -8.618   9.975  70.129  1.00  0.00    -0.168 OA 
HETATM   15  O   UNL     1      -7.112   8.048  69.561  1.00  0.00    -0.056 OA 
ENDBRANCH  10  12
ENDBRANCH   6  10
BRANCH   9  16
HETATM   16  C   UNL     1      -9.877  13.526  67.016  1.00  0.00    -0.251 A  
HETATM   17  F   UNL     1     -13.033  14.319  64.408  1.00  0.00    -0.204 F  
HETATM   18  C   UNL     1      -9.677  13.660  65.622  1.00  0.00    -0.119 A  
HETATM   19  C   UNL     1     -10.732  13.933  64.743  1.00  0.00    -0.437 A  
HETATM   20  C   UNL     1     -12.253  13.988  66.606  1.00  0.00    -0.463 A  
HETATM   21  C   UNL     1     -12.016  14.077  65.244  1.00  0.00    -0.379 A  
HETATM   22  C   UNL     1     -11.190  13.735  67.483  1.00  0.00    -0.316 A  
ENDBRANCH   9  16
BRANCH   8  23
HETATM   23  C   UNL     1      -8.721  15.471  69.180  1.00  0.00    -0.247 C  
HETATM   24  C   UNL     1      -8.018  16.621  69.157  1.00  0.00    -0.154 C  
BRANCH  24  25
HETATM   25  C   UNL     1      -8.590  18.017  69.300  1.00  0.00     0.294 C  
HETATM   26  H   UNL     1      -8.113  19.839  68.723  1.00  0.00     0.000 HD 
HETATM   27  O   UNL     1      -7.754  18.964  68.633  1.00  0.00    -0.320 OA 
BRANCH  25  28
HETATM   28  C   UNL     1     -10.023  18.153  68.764  1.00  0.00    -0.389 C  
BRANCH  28  29
HETATM   29  C   UNL     1     -10.152  19.223  67.653  1.00  0.00    -0.387 C  
HETATM   30  O   UNL     1      -9.937  20.535  68.185  1.00  0.00    -0.284 OA 
HETATM   31  H   UNL     1     -10.016  21.192  67.503  1.00  0.00     0.000 HD 
BRANCH  29  32
HETATM   32  C   UNL     1      -9.112  19.047  66.546  1.00  0.00    -0.348 C  
HETATM   33  C   UNL     1      -9.208  17.700  65.888  1.00  0.00     0.104 C  
HETATM   34  O   UNL     1     -10.247  17.078  65.733  1.00  0.00    -0.506 OA 
HETATM   35  O   UNL     1      -8.014  17.232  65.457  1.00  0.00    -0.274 OA 
ENDBRANCH  29  32
ENDBRANCH  28  29
ENDBRANCH  25  28
ENDBRANCH  24  25
ENDBRANCH   8  23
TORSDOF 8
ENDMDL
MODEL      195
REMARK 921   NORMALIZED FREE ENERGY PREDICTED BY IDOCK:   -2.76 KCAL/MOL
REMARK 922        TOTAL FREE ENERGY PREDICTED BY IDOCK:   -5.59 KCAL/MOL
REMARK 923 INTER-LIGAND FREE ENERGY PREDICTED BY IDOCK:   -4.06 KCAL/MOL
REMARK 924 INTRA-LIGAND FREE ENERGY PREDICTED BY IDOCK:   -1.54 KCAL/MOL
REMARK 927      BINDING AFFINITY PREDICTED BY RF-SCORE:    0.00 PKD
ROOT
HETATM    1  C   UNL     1      -7.099   2.069  69.156  1.00  0.00    -0.039 C  
HETATM    2  C   UNL     1      -8.224   2.892  68.509  1.00  0.00    -0.080 C  
HETATM    3  C   UNL     1      -9.574   2.257  68.854  1.00  0.00    -0.075 C  
HETATM    4  C   UNL     1      -8.203   4.358  68.931  1.00  0.00    -0.079 A  
HETATM    5  N   UNL     1      -7.662   4.602  70.147  1.00  0.00    -0.054 NA 
HETATM    6  C   UNL     1      -7.669   5.868  70.560  1.00  0.00    -0.100 A  
HETATM    7  N   UNL     1      -8.209   6.899  69.917  1.00  0.00    -0.125 NA 
HETATM    8  C   UNL     1      -8.765   5.375  68.135  1.00  0.00    -0.105 A  
HETATM    9  C   UNL     1      -8.803   6.651  68.719  1.00  0.00    -0.126 A  
ENDROOT
BRANCH   6  10
HETATM   10  N   UNL     1      -6.858   6.159  71.671  1.00  0.00    -0.066 N  
HETATM   11  C   UNL     1      -5.500   5.601  71.622  1.00  0.00    -0.020 C  
BRANCH  10  12
HETATM   12  S   UNL     1      -7.650   6.136  73.149  1.00  0.00    -0.097 S  
HETATM   13  C   UNL     1      -7.086   4.640  73.945  1.00  0.00    -0.076 C  
HETATM   14  O   UNL     1      -7.137   7.247  73.931  1.00  0.00    -0.085 OA 
HETATM   15  O   UNL     1      -9.071   5.996  72.931  1.00  0.00    -0.133 OA 
ENDBRANCH  10  12
ENDBRANCH   6  10
BRANCH   9  16
HETATM   16  C   UNL     1      -9.474   7.859  68.147  1.00  0.00    -0.154 A  
HETATM   17  F   UNL     1     -11.404  11.239  66.650  1.00  0.00    -0.346 F  
HETATM   18  C   UNL     1     -10.228   8.717  68.980  1.00  0.00    -0.218 A  
HETATM   19  C   UNL     1     -10.883   9.849  68.482  1.00  0.00    -0.257 A  
HETATM   20  C   UNL     1     -10.096   9.316  66.272  1.00  0.00    -0.322 A  
HETATM   21  C   UNL     1     -10.796  10.147  67.131  1.00  0.00    -0.189 A  
HETATM   22  C   UNL     1      -9.459   8.173  66.773  1.00  0.00    -0.256 A  
ENDBRANCH   9  16
BRANCH   8  23
HETATM   23  C   UNL     1      -9.253   5.050  66.781  1.00  0.00    -0.120 C  
HETATM   24  C   UNL     1      -8.452   4.854  65.714  1.00  0.00    -0.121 C  
BRANCH  24  25
HETATM   25  C   UNL     1      -8.886   4.326  64.362  1.00  0.00    -0.144 C  
HETATM   26  H   UNL     1     -10.565   3.753  63.507  1.00  0.00     0.000 HD 
HETATM   27  O   UNL     1     -10.293   4.084  64.355  1.00  0.00    -0.222 OA 
BRANCH  25  28
HETATM   28  C   UNL     1      -8.535   5.261  63.194  1.00  0.00    -0.097 C  
BRANCH  28  29
HETATM   29  C   UNL     1      -7.068   5.752  63.235  1.00  0.00    -0.046 C  
HETATM   30  O   UNL     1      -6.248   4.971  62.358  1.00  0.00    -0.020 OA 
HETATM   31  H   UNL     1      -5.347   5.272  62.383  1.00  0.00     0.000 HD 
BRANCH  29  32
HETATM   32  C   UNL     1      -6.920   7.199  62.764  1.00  0.00    -0.058 C  
HETATM   33  C   UNL     1      -6.909   8.169  63.911  1.00  0.00    -0.074 C  
HETATM   34  O   UNL     1      -6.449   7.929  65.016  1.00  0.00    -0.047 OA 
HETATM   35  O   UNL     1      -7.454   9.368  63.600  1.00  0.00    -0.106 OA 
ENDBRANCH  29  32
ENDBRANCH  28  29
ENDBRANCH  25  28
ENDBRANCH  24  25
ENDBRANCH   8  23
TORSDOF 8
ENDMDL
MODEL      196
REMARK 921   NORMALIZED FREE ENERGY PREDICTED BY IDOCK:   -2.75 KCAL/MOL
REMARK 922        TOTAL FREE ENERGY PREDICTED BY IDOCK:   -5.58 KCAL/MOL
REMARK 923 INTER-LIGAND FREE ENERGY PREDICTED BY IDOCK:   -5.73 KCAL/MOL
REMARK 924 INTRA-LIGAND FREE ENERGY PREDICTED BY IDOCK:    0.16 KCAL/MOL
REMARK 927      BINDING AFFINITY PREDICTED BY RF-SCORE:    0.00 PKD
ROOT
HETATM    1  C   UNL     1     -12.302  11.674  69.449  1.00  0.00    -0.131 C  
HETATM    2  C   UNL     1     -11.502  12.476  68.410  1.00  0.00    -0.355 C  
HETATM    3  C   UNL     1     -12.325  12.595  67.124  1.00  0.00     0.294 C  
HETATM    4  C   UNL     1     -11.099  13.859  68.912  1.00  0.00    -0.266 A  
HETATM    5  N   UNL     1     -11.917  14.397  69.847  1.00  0.00    -0.314 NA 
HETATM    6  C   UNL     1     -11.614  15.622  70.272  1.00  0.00    -0.356 A  
HETATM    7  N   UNL     1     -10.622  16.384  69.823  1.00  0.00    -0.309 NA 
HETATM    8  C   UNL     1      -9.989  14.552  68.392  1.00  0.00    -0.241 A  
HETATM    9  C   UNL     1      -9.829  15.871  68.844  1.00  0.00    -0.226 A  
ENDROOT
BRANCH   6  10
HETATM   10  N   UNL     1     -12.279  16.053  71.434  1.00  0.00    -0.435 N  
HETATM   11  C   UNL     1     -11.428  16.698  72.443  1.00  0.00     0.222 C  
BRANCH  10  12
HETATM   12  S   UNL     1     -13.481  15.022  71.984  1.00  0.00    -0.451 S  
HETATM   13  C   UNL     1     -12.633  13.848  73.028  1.00  0.00     0.136 C  
HETATM   14  O   UNL     1     -14.354  15.798  72.847  1.00  0.00    -0.348 OA 
HETATM   15  O   UNL     1     -14.030  14.286  70.868  1.00  0.00    -0.097 OA 
ENDBRANCH  10  12
ENDBRANCH   6  10
BRANCH   9  16
HETATM   16  C   UNL     1      -8.825  16.857  68.339  1.00  0.00    -0.244 A  
HETATM   17  F   UNL     1      -6.086  19.617  66.831  1.00  0.00    -0.177 F  
HETATM   18  C   UNL     1      -9.094  17.615  67.175  1.00  0.00    -0.247 A  
HETATM   19  C   UNL     1      -8.175  18.538  66.661  1.00  0.00    -0.288 A  
HETATM   20  C   UNL     1      -6.642  17.977  68.429  1.00  0.00    -0.210 A  
HETATM   21  C   UNL     1      -6.962  18.722  67.305  1.00  0.00    -0.204 A  
HETATM   22  C   UNL     1      -7.558  17.040  68.927  1.00  0.00    -0.233 A  
ENDBRANCH   9  16
BRANCH   8  23
HETATM   23  C   UNL     1      -9.088  13.868  67.444  1.00  0.00    -0.217 C  
HETATM   24  C   UNL     1      -8.365  12.771  67.743  1.00  0.00    -0.177 C  
BRANCH  24  25
HETATM   25  C   UNL     1      -7.587  11.922  66.758  1.00  0.00    -0.034 C  
HETATM   26  H   UNL     1      -5.870  10.958  66.725  1.00  0.00     0.000 HD 
HETATM   27  O   UNL     1      -6.357  11.490  67.342  1.00  0.00    -0.070 OA 
BRANCH  25  28
HETATM   28  C   UNL     1      -8.361  10.692  66.259  1.00  0.00    -0.155 C  
BRANCH  28  29
HETATM   29  C   UNL     1      -7.494   9.410  66.218  1.00  0.00    -0.096 C  
HETATM   30  O   UNL     1      -7.271   8.906  67.539  1.00  0.00    -0.079 OA 
HETATM   31  H   UNL     1      -6.738   8.119  67.513  1.00  0.00     0.000 HD 
BRANCH  29  32
HETATM   32  C   UNL     1      -8.164   8.274  65.445  1.00  0.00    -0.146 C  
HETATM   33  C   UNL     1      -7.792   6.923  65.988  1.00  0.00    -0.104 C  
HETATM   34  O   UNL     1      -7.559   6.690  67.163  1.00  0.00    -0.092 OA 
HETATM   35  O   UNL     1      -7.753   5.961  65.038  1.00  0.00    -0.084 OA 
ENDBRANCH  29  32
ENDBRANCH  28  29
ENDBRANCH  25  28
ENDBRANCH  24  25
ENDBRANCH   8  23
TORSDOF 8
ENDMDL
MODEL      197
REMARK 921   NORMALIZED FREE ENERGY PREDICTED BY IDOCK:   -2.61 KCAL/MOL
REMARK 922        TOTAL FREE ENERGY PREDICTED BY IDOCK:   -5.37 KCAL/MOL
REMARK 923 INTER-LIGAND FREE ENERGY PREDICTED BY IDOCK:   -4.65 KCAL/MOL
REMARK 924 INTRA-LIGAND FREE ENERGY PREDICTED BY IDOCK:   -0.71 KCAL/MOL
REMARK 927      BINDING AFFINITY PREDICTED BY RF-SCORE:    0.00 PKD
ROOT
HETATM    1  C   UNL     1      -7.856   8.839  72.730  1.00  0.00     0.154 C  
HETATM    2  C   UNL     1      -7.817   8.899  71.195  1.00  0.00    -0.172 C  
HETATM    3  C   UNL     1      -6.492   9.523  70.749  1.00  0.00    -0.097 C  
HETATM    4  C   UNL     1      -8.006   7.532  70.544  1.00  0.00    -0.098 A  
HETATM    5  N   UNL     1      -7.609   6.476  71.291  1.00  0.00    -0.092 NA 
HETATM    6  C   UNL     1      -7.721   5.273  70.731  1.00  0.00    -0.088 A  
HETATM    7  N   UNL     1      -8.130   5.021  69.491  1.00  0.00    -0.078 NA 
HETATM    8  C   UNL     1      -8.501   7.388  69.234  1.00  0.00    -0.136 A  
HETATM    9  C   UNL     1      -8.480   6.083  68.717  1.00  0.00    -0.113 A  
ENDROOT
BRANCH   6  10
HETATM   10  N   UNL     1      -7.588   4.174  71.598  1.00  0.00    -0.063 N  
HETATM   11  C   UNL     1      -8.559   4.119  72.698  1.00  0.00    -0.104 C  
BRANCH  10  12
HETATM   12  S   UNL     1      -6.007   3.733  71.941  1.00  0.00    -0.013 S  
HETATM   13  C   UNL     1      -5.558   4.715  73.362  1.00  0.00    -0.009 C  
HETATM   14  O   UNL     1      -6.031   2.348  72.378  1.00  0.00    -0.008 OA 
HETATM   15  O   UNL     1      -5.148   4.137  70.852  1.00  0.00     0.000 OA 
ENDBRANCH  10  12
ENDBRANCH   6  10
BRANCH   9  16
HETATM   16  C   UNL     1      -8.811   5.689  67.313  1.00  0.00    -0.106 A  
HETATM   17  F   UNL     1      -9.652   4.663  63.359  1.00  0.00    -0.123 F  
HETATM   18  C   UNL     1      -7.957   6.061  66.248  1.00  0.00    -0.106 A  
HETATM   19  C   UNL     1      -8.238   5.725  64.919  1.00  0.00    -0.137 A  
HETATM   20  C   UNL     1     -10.268   4.649  65.633  1.00  0.00    -0.255 A  
HETATM   21  C   UNL     1      -9.386   5.005  64.626  1.00  0.00     0.100 A  
HETATM   22  C   UNL     1      -9.992   5.006  66.960  1.00  0.00    -0.231 A  
ENDBRANCH   9  16
BRANCH   8  23
HETATM   23  C   UNL     1      -9.002   8.575  68.514  1.00  0.00    -0.139 C  
HETATM   24  C   UNL     1      -8.344   9.749  68.439  1.00  0.00    -0.110 C  
BRANCH  24  25
HETATM   25  C   UNL     1      -8.716  10.922  67.556  1.00  0.00    -0.130 C  
HETATM   26  H   UNL     1      -7.792  12.441  66.708  1.00  0.00     0.000 HD 
HETATM   27  O   UNL     1      -7.558  11.705  67.261  1.00  0.00    -0.130 OA 
BRANCH  25  28
HETATM   28  C   UNL     1      -9.388  10.512  66.237  1.00  0.00    -0.202 C  
BRANCH  28  29
HETATM   29  C   UNL     1     -10.527  11.472  65.816  1.00  0.00    -0.259 C  
HETATM   30  O   UNL     1     -10.199  12.825  66.150  1.00  0.00    -0.263 OA 
HETATM   31  H   UNL     1     -10.898  13.415  65.892  1.00  0.00     0.000 HD 
BRANCH  29  32
HETATM   32  C   UNL     1     -10.773  11.464  64.307  1.00  0.00    -0.420 C  
HETATM   33  C   UNL     1     -12.038  12.184  63.935  1.00  0.00    -0.488 C  
HETATM   34  O   UNL     1     -12.486  13.149  64.533  1.00  0.00    -0.530 OA 
HETATM   35  O   UNL     1     -12.645  11.664  62.844  1.00  0.00    -0.206 OA 
ENDBRANCH  29  32
ENDBRANCH  28  29
ENDBRANCH  25  28
ENDBRANCH  24  25
ENDBRANCH   8  23
TORSDOF 8
ENDMDL
MODEL      198
REMARK 921   NORMALIZED FREE ENERGY PREDICTED BY IDOCK:   -2.54 KCAL/MOL
REMARK 922        TOTAL FREE ENERGY PREDICTED BY IDOCK:   -5.27 KCAL/MOL
REMARK 923 INTER-LIGAND FREE ENERGY PREDICTED BY IDOCK:   -4.41 KCAL/MOL
REMARK 924 INTRA-LIGAND FREE ENERGY PREDICTED BY IDOCK:   -0.87 KCAL/MOL
REMARK 927      BINDING AFFINITY PREDICTED BY RF-SCORE:    0.00 PKD
ROOT
HETATM    1  C   UNL     1     -11.805   8.967  71.573  1.00  0.00    -0.415 C  
HETATM    2  C   UNL     1     -11.003   8.928  70.263  1.00  0.00    -0.266 C  
HETATM    3  C   UNL     1     -10.200  10.225  70.127  1.00  0.00    -0.150 C  
HETATM    4  C   UNL     1     -10.078   7.718  70.171  1.00  0.00    -0.197 A  
HETATM    5  N   UNL     1      -9.655   7.221  71.357  1.00  0.00    -0.161 NA 
HETATM    6  C   UNL     1      -8.812   6.192  71.306  1.00  0.00    -0.136 A  
HETATM    7  N   UNL     1      -8.305   5.649  70.204  1.00  0.00    -0.116 NA 
HETATM    8  C   UNL     1      -9.647   7.196  68.936  1.00  0.00    -0.142 A  
HETATM    9  C   UNL     1      -8.684   6.178  69.010  1.00  0.00    -0.124 A  
ENDROOT
BRANCH   6  10
HETATM   10  N   UNL     1      -8.608   5.502  72.514  1.00  0.00    -0.121 N  
HETATM   11  C   UNL     1      -7.306   4.835  72.646  1.00  0.00    -0.084 C  
BRANCH  10  12
HETATM   12  S   UNL     1      -9.954   4.690  73.098  1.00  0.00    -0.155 S  
HETATM   13  C   UNL     1      -9.571   2.960  72.884  1.00  0.00    -0.104 C  
HETATM   14  O   UNL     1     -10.016   4.932  74.529  1.00  0.00    -0.173 OA 
HETATM   15  O   UNL     1     -11.094   4.984  72.261  1.00  0.00    -0.160 OA 
ENDBRANCH  10  12
ENDBRANCH   6  10
BRANCH   9  16
HETATM   16  C   UNL     1      -7.964   5.565  67.852  1.00  0.00    -0.097 A  
HETATM   17  F   UNL     1      -5.914   3.959  64.595  1.00  0.00    -0.019 F  
HETATM   18  C   UNL     1      -6.983   6.304  67.150  1.00  0.00    -0.072 A  
HETATM   19  C   UNL     1      -6.297   5.772  66.052  1.00  0.00    -0.039 A  
HETATM   20  C   UNL     1      -7.556   3.734  66.268  1.00  0.00    -0.084 A  
HETATM   21  C   UNL     1      -6.579   4.482  65.632  1.00  0.00    -0.041 A  
HETATM   22  C   UNL     1      -8.254   4.279  67.354  1.00  0.00    -0.099 A  
ENDBRANCH   9  16
BRANCH   8  23
HETATM   23  C   UNL     1     -10.222   7.728  67.685  1.00  0.00    -0.282 C  
HETATM   24  C   UNL     1      -9.728   8.788  67.015  1.00  0.00    -0.258 C  
BRANCH  24  25
HETATM   25  C   UNL     1     -10.156   9.245  65.635  1.00  0.00     0.095 C  
HETATM   26  H   UNL     1     -11.030  10.823  64.844  1.00  0.00     0.000 HD 
HETATM   27  O   UNL     1     -10.762  10.537  65.709  1.00  0.00    -0.122 OA 
BRANCH  25  28
HETATM   28  C   UNL     1      -9.006   9.293  64.617  1.00  0.00    -0.202 C  
BRANCH  28  29
HETATM   29  C   UNL     1      -8.291  10.665  64.580  1.00  0.00    -0.043 C  
HETATM   30  O   UNL     1      -9.227  11.719  64.332  1.00  0.00    -0.423 OA 
HETATM   31  H   UNL     1      -8.788  12.561  64.309  1.00  0.00     0.000 HD 
BRANCH  29  32
HETATM   32  C   UNL     1      -7.616  11.010  65.907  1.00  0.00     0.007 C  
HETATM   33  C   UNL     1      -6.275  10.347  66.051  1.00  0.00    -0.110 C  
HETATM   34  O   UNL     1      -5.516  10.113  65.124  1.00  0.00    -0.064 OA 
HETATM   35  O   UNL     1      -5.969  10.039  67.332  1.00  0.00    -0.053 OA 
ENDBRANCH  29  32
ENDBRANCH  28  29
ENDBRANCH  25  28
ENDBRANCH  24  25
ENDBRANCH   8  23
TORSDOF 8
ENDMDL
MODEL      199
REMARK 921   NORMALIZED FREE ENERGY PREDICTED BY IDOCK:   -2.43 KCAL/MOL
REMARK 922        TOTAL FREE ENERGY PREDICTED BY IDOCK:   -5.11 KCAL/MOL
REMARK 923 INTER-LIGAND FREE ENERGY PREDICTED BY IDOCK:   -3.95 KCAL/MOL
REMARK 924 INTRA-LIGAND FREE ENERGY PREDICTED BY IDOCK:   -1.15 KCAL/MOL
REMARK 927      BINDING AFFINITY PREDICTED BY RF-SCORE:    0.00 PKD
ROOT
HETATM    1  C   UNL     1      -9.661  10.068  63.490  1.00  0.00     0.007 C  
HETATM    2  C   UNL     1      -8.451   9.761  64.385  1.00  0.00    -0.185 C  
HETATM    3  C   UNL     1      -7.169  10.179  63.658  1.00  0.00    -0.112 C  
HETATM    4  C   UNL     1      -8.534  10.442  65.748  1.00  0.00    -0.166 A  
HETATM    5  N   UNL     1      -9.254  11.588  65.779  1.00  0.00    -0.219 NA 
HETATM    6  C   UNL     1      -9.308  12.227  66.946  1.00  0.00    -0.210 A  
HETATM    7  N   UNL     1      -8.675  11.876  68.061  1.00  0.00    -0.165 NA 
HETATM    8  C   UNL     1      -7.858   9.944  66.878  1.00  0.00    -0.102 A  
HETATM    9  C   UNL     1      -7.907  10.754  68.022  1.00  0.00    -0.106 A  
ENDROOT
BRANCH   6  10
HETATM   10  N   UNL     1     -10.278  13.239  67.050  1.00  0.00    -0.242 N  
HETATM   11  C   UNL     1     -11.672  12.777  67.060  1.00  0.00    -0.374 C  
BRANCH  10  12
HETATM   12  S   UNL     1      -9.935  14.637  66.190  1.00  0.00    -0.319 S  
HETATM   13  C   UNL     1     -10.627  15.958  67.172  1.00  0.00    -0.316 C  
HETATM   14  O   UNL     1      -8.493  14.812  66.207  1.00  0.00     0.047 OA 
HETATM   15  O   UNL     1     -10.649  14.617  64.935  1.00  0.00    -0.416 OA 
ENDBRANCH  10  12
ENDBRANCH   6  10
BRANCH   9  16
HETATM   16  C   UNL     1      -7.156  10.525  69.295  1.00  0.00    -0.097 A  
HETATM   17  F   UNL     1      -5.130   9.793  72.865  1.00  0.00    -0.089 F  
HETATM   18  C   UNL     1      -7.329   9.321  70.017  1.00  0.00    -0.083 A  
HETATM   19  C   UNL     1      -6.656   9.073  71.220  1.00  0.00    -0.086 A  
HETATM   20  C   UNL     1      -5.617  11.238  71.070  1.00  0.00    -0.022 A  
HETATM   21  C   UNL     1      -5.792  10.030  71.726  1.00  0.00     0.209 A  
HETATM   22  C   UNL     1      -6.309  11.489  69.877  1.00  0.00    -0.136 A  
ENDBRANCH   9  16
BRANCH   8  23
HETATM   23  C   UNL     1      -7.170   8.640  66.794  1.00  0.00    -0.078 C  
HETATM   24  C   UNL     1      -7.675   7.486  67.273  1.00  0.00    -0.116 C  
BRANCH  24  25
HETATM   25  C   UNL     1      -7.106   6.101  67.038  1.00  0.00    -0.073 C  
HETATM   26  H   UNL     1      -5.589   5.311  66.061  1.00  0.00     0.000 HD 
HETATM   27  O   UNL     1      -5.945   6.179  66.209  1.00  0.00    -0.026 OA 
BRANCH  25  28
HETATM   28  C   UNL     1      -6.746   5.355  68.331  1.00  0.00    -0.054 C  
BRANCH  28  29
HETATM   29  C   UNL     1      -7.693   5.695  69.507  1.00  0.00    -0.091 C  
HETATM   30  O   UNL     1      -9.061   5.537  69.118  1.00  0.00    -0.107 OA 
HETATM   31  H   UNL     1      -9.643   5.746  69.840  1.00  0.00     0.000 HD 
BRANCH  29  32
HETATM   32  C   UNL     1      -7.491   4.770  70.708  1.00  0.00    -0.064 C  
HETATM   33  C   UNL     1      -8.058   3.399  70.469  1.00  0.00    -0.052 C  
HETATM   34  O   UNL     1      -8.093   2.845  69.382  1.00  0.00    -0.048 OA 
HETATM   35  O   UNL     1      -8.525   2.813  71.595  1.00  0.00    -0.062 OA 
ENDBRANCH  29  32
ENDBRANCH  28  29
ENDBRANCH  25  28
ENDBRANCH  24  25
ENDBRANCH   8  23
TORSDOF 8
ENDMDL
MODEL      200
REMARK 921   NORMALIZED FREE ENERGY PREDICTED BY IDOCK:   -2.33 KCAL/MOL
REMARK 922        TOTAL FREE ENERGY PREDICTED BY IDOCK:   -4.97 KCAL/MOL
REMARK 923 INTER-LIGAND FREE ENERGY PREDICTED BY IDOCK:   -4.59 KCAL/MOL
REMARK 924 INTRA-LIGAND FREE ENERGY PREDICTED BY IDOCK:   -0.37 KCAL/MOL
REMARK 927      BINDING AFFINITY PREDICTED BY RF-SCORE:    0.00 PKD
ROOT
HETATM    1  C   UNL     1      -7.251  16.025  70.948  1.00  0.00     2.443 C  
HETATM    2  C   UNL     1      -7.336  15.518  69.500  1.00  0.00    -0.203 C  
HETATM    3  C   UNL     1      -6.331  14.379  69.306  1.00  0.00    -0.115 C  
HETATM    4  C   UNL     1      -8.740  15.059  69.116  1.00  0.00    -0.188 A  
HETATM    5  N   UNL     1      -9.505  14.617  70.141  1.00  0.00     0.645 NA 
HETATM    6  C   UNL     1     -10.720  14.169  69.829  1.00  0.00     0.134 A  
HETATM    7  N   UNL     1     -11.224  14.062  68.603  1.00  0.00    -0.253 NA 
HETATM    8  C   UNL     1      -9.182  15.039  67.779  1.00  0.00    -0.181 A  
HETATM    9  C   UNL     1     -10.439  14.454  67.564  1.00  0.00    -0.252 A  
ENDROOT
BRANCH   6  10
HETATM   10  N   UNL     1     -11.606  13.990  70.905  1.00  0.00    -0.063 N  
HETATM   11  C   UNL     1     -12.400  12.755  70.868  1.00  0.00    -0.265 C  
BRANCH  10  12
HETATM   12  S   UNL     1     -12.374  15.386  71.427  1.00  0.00    -0.422 S  
HETATM   13  C   UNL     1     -12.776  15.074  73.138  1.00  0.00    -0.486 C  
HETATM   14  O   UNL     1     -11.388  16.452  71.415  1.00  0.00    -0.331 OA 
HETATM   15  O   UNL     1     -13.622  15.543  70.715  1.00  0.00    -0.487 OA 
ENDBRANCH  10  12
ENDBRANCH   6  10
BRANCH   9  16
HETATM   16  C   UNL     1     -11.065  14.180  66.234  1.00  0.00    -0.318 A  
HETATM   17  F   UNL     1     -12.831  13.529  62.512  1.00  0.00     0.189 F  
HETATM   18  C   UNL     1     -11.369  15.246  65.355  1.00  0.00    -0.253 A  
HETATM   19  C   UNL     1     -11.968  15.034  64.108  1.00  0.00    -0.221 A  
HETATM   20  C   UNL     1     -12.027  12.671  64.553  1.00  0.00    -0.464 A  
HETATM   21  C   UNL     1     -12.276  13.743  63.712  1.00  0.00    -0.311 A  
HETATM   22  C   UNL     1     -11.446  12.892  65.809  1.00  0.00    -0.376 A  
ENDBRANCH   9  16
BRANCH   8  23
HETATM   23  C   UNL     1      -8.329  15.622  66.725  1.00  0.00    -0.313 C  
HETATM   24  C   UNL     1      -7.955  16.917  66.684  1.00  0.00    -0.300 C  
BRANCH  24  25
HETATM   25  C   UNL     1      -6.928  17.516  65.744  1.00  0.00    -0.046 C  
HETATM   26  H   UNL     1      -6.702  19.191  64.733  1.00  0.00     0.000 HD 
HETATM   27  O   UNL     1      -7.345  18.816  65.322  1.00  0.00    -0.443 OA 
BRANCH  25  28
HETATM   28  C   UNL     1      -5.522  17.618  66.353  1.00  0.00    -0.230 C  
BRANCH  28  29
HETATM   29  C   UNL     1      -5.271  18.967  67.069  1.00  0.00    -0.142 C  
HETATM   30  O   UNL     1      -6.332  19.889  66.800  1.00  0.00    -0.182 OA 
HETATM   31  H   UNL     1      -6.178  20.718  67.239  1.00  0.00     0.000 HD 
BRANCH  29  32
HETATM   32  C   UNL     1      -5.219  18.823  68.590  1.00  0.00    -0.189 C  
HETATM   33  C   UNL     1      -6.436  19.399  69.256  1.00  0.00    -0.312 C  
HETATM   34  O   UNL     1      -7.555  19.401  68.768  1.00  0.00    -0.343 OA 
HETATM   35  O   UNL     1      -6.180  19.915  70.479  1.00  0.00    -0.311 OA 
ENDBRANCH  29  32
ENDBRANCH  28  29
ENDBRANCH  25  28
ENDBRANCH  24  25
ENDBRANCH   8  23
TORSDOF 8
ENDMDL
MODEL      201
REMARK 921   NORMALIZED FREE ENERGY PREDICTED BY IDOCK:   -2.30 KCAL/MOL
REMARK 922        TOTAL FREE ENERGY PREDICTED BY IDOCK:   -4.92 KCAL/MOL
REMARK 923 INTER-LIGAND FREE ENERGY PREDICTED BY IDOCK:   -4.50 KCAL/MOL
REMARK 924 INTRA-LIGAND FREE ENERGY PREDICTED BY IDOCK:   -0.42 KCAL/MOL
REMARK 927      BINDING AFFINITY PREDICTED BY RF-SCORE:    0.00 PKD
ROOT
HETATM    1  C   UNL     1      -8.485   7.181  71.299  1.00  0.00    -0.113 C  
HETATM    2  C   UNL     1      -8.243   8.187  70.163  1.00  0.00    -0.119 C  
HETATM    3  C   UNL     1      -7.871   7.424  68.888  1.00  0.00    -0.117 C  
HETATM    4  C   UNL     1      -9.445   9.092  69.908  1.00  0.00    -0.186 A  
HETATM    5  N   UNL     1     -10.647   8.565  70.237  1.00  0.00    -0.222 NA 
HETATM    6  C   UNL     1     -11.717   9.316  69.985  1.00  0.00     0.112 A  
HETATM    7  N   UNL     1     -11.718  10.505  69.390  1.00  0.00    -0.249 NA 
HETATM    8  C   UNL     1      -9.314  10.362  69.314  1.00  0.00    -0.202 A  
HETATM    9  C   UNL     1     -10.517  11.017  69.008  1.00  0.00    -0.216 A  
ENDROOT
BRANCH   6  10
HETATM   10  N   UNL     1     -12.918   8.899  70.586  1.00  0.00     0.301 N  
HETATM   11  C   UNL     1     -13.976   9.916  70.651  1.00  0.00     0.646 C  
BRANCH  10  12
HETATM   12  S   UNL     1     -12.731   7.895  71.916  1.00  0.00    -0.296 S  
HETATM   13  C   UNL     1     -14.395   7.515  72.439  1.00  0.00     0.045 C  
HETATM   14  O   UNL     1     -12.146   6.654  71.441  1.00  0.00    -0.339 OA 
HETATM   15  O   UNL     1     -12.102   8.631  72.989  1.00  0.00    -0.151 OA 
ENDBRANCH  10  12
ENDBRANCH   6  10
BRANCH   9  16
HETATM   16  C   UNL     1     -10.651  12.298  68.249  1.00  0.00    -0.243 A  
HETATM   17  F   UNL     1     -11.031  15.810  66.033  1.00  0.00    -0.319 F  
HETATM   18  C   UNL     1     -11.011  12.282  66.881  1.00  0.00    -0.312 A  
HETATM   19  C   UNL     1     -11.133  13.457  66.131  1.00  0.00    -0.299 A  
HETATM   20  C   UNL     1     -10.509  14.742  68.067  1.00  0.00    -0.246 A  
HETATM   21  C   UNL     1     -10.897  14.680  66.738  1.00  0.00    -0.312 A  
HETATM   22  C   UNL     1     -10.369  13.560  68.807  1.00  0.00    -0.169 A  
ENDBRANCH   9  16
BRANCH   8  23
HETATM   23  C   UNL     1      -7.966  10.911  69.068  1.00  0.00    -0.131 C  
HETATM   24  C   UNL     1      -7.097  10.409  68.169  1.00  0.00    -0.082 C  
BRANCH  24  25
HETATM   25  C   UNL     1      -5.792  11.050  67.740  1.00  0.00    -0.046 C  
HETATM   26  H   UNL     1      -4.356  10.673  66.445  1.00  0.00     0.000 HD 
HETATM   27  O   UNL     1      -5.174  10.271  66.714  1.00  0.00    -0.039 OA 
BRANCH  25  28
HETATM   28  C   UNL     1      -5.949  12.495  67.242  1.00  0.00    -0.111 C  
BRANCH  28  29
HETATM   29  C   UNL     1      -5.502  13.544  68.288  1.00  0.00    -0.101 C  
HETATM   30  O   UNL     1      -5.669  14.871  67.778  1.00  0.00    -0.219 OA 
HETATM   31  H   UNL     1      -5.394  15.516  68.420  1.00  0.00     0.000 HD 
BRANCH  29  32
HETATM   32  C   UNL     1      -6.330  13.483  69.571  1.00  0.00    -0.108 C  
HETATM   33  C   UNL     1      -5.738  14.321  70.669  1.00  0.00    -0.174 C  
HETATM   34  O   UNL     1      -5.126  15.362  70.491  1.00  0.00    -0.121 OA 
HETATM   35  O   UNL     1      -5.961  13.815  71.904  1.00  0.00    -0.367 OA 
ENDBRANCH  29  32
ENDBRANCH  28  29
ENDBRANCH  25  28
ENDBRANCH  24  25
ENDBRANCH   8  23
TORSDOF 8
ENDMDL
MODEL      202
REMARK 921   NORMALIZED FREE ENERGY PREDICTED BY IDOCK:   -2.24 KCAL/MOL
REMARK 922        TOTAL FREE ENERGY PREDICTED BY IDOCK:   -4.82 KCAL/MOL
REMARK 923 INTER-LIGAND FREE ENERGY PREDICTED BY IDOCK:   -6.01 KCAL/MOL
REMARK 924 INTRA-LIGAND FREE ENERGY PREDICTED BY IDOCK:    1.19 KCAL/MOL
REMARK 927      BINDING AFFINITY PREDICTED BY RF-SCORE:    0.00 PKD
ROOT
HETATM    1  C   UNL     1     -12.332  12.232  69.606  1.00  0.00    -0.050 C  
HETATM    2  C   UNL     1     -11.431  13.021  68.643  1.00  0.00    -0.344 C  
HETATM    3  C   UNL     1     -12.177  13.239  67.322  1.00  0.00    -0.258 C  
HETATM    4  C   UNL     1     -10.973  14.357  69.220  1.00  0.00    -0.255 A  
HETATM    5  N   UNL     1     -11.805  14.909  70.134  1.00  0.00    -0.288 NA 
HETATM    6  C   UNL     1     -11.453  16.096  70.623  1.00  0.00    -0.361 A  
HETATM    7  N   UNL     1     -10.394  16.811  70.255  1.00  0.00     0.295 NA 
HETATM    8  C   UNL     1      -9.797  14.998  68.785  1.00  0.00    -0.233 A  
HETATM    9  C   UNL     1      -9.582  16.287  69.298  1.00  0.00    -0.220 A  
ENDROOT
BRANCH   6  10
HETATM   10  N   UNL     1     -12.150  16.524  71.766  1.00  0.00    -0.168 N  
HETATM   11  C   UNL     1     -11.314  17.048  72.854  1.00  0.00     1.112 C  
BRANCH  10  12
HETATM   12  S   UNL     1     -13.461  15.570  72.191  1.00  0.00    -0.497 S  
HETATM   13  C   UNL     1     -12.798  14.363  73.327  1.00  0.00    -0.304 C  
HETATM   14  O   UNL     1     -14.375  16.405  72.952  1.00  0.00     0.015 OA 
HETATM   15  O   UNL     1     -13.930  14.852  71.029  1.00  0.00    -0.367 OA 
ENDBRANCH  10  12
ENDBRANCH   6  10
BRANCH   9  16
HETATM   16  C   UNL     1      -8.496  17.227  68.884  1.00  0.00    -0.175 A  
HETATM   17  F   UNL     1      -5.545  19.916  67.679  1.00  0.00    -0.180 F  
HETATM   18  C   UNL     1      -8.817  18.502  68.362  1.00  0.00    -0.346 A  
HETATM   19  C   UNL     1      -7.831  19.406  67.950  1.00  0.00    -0.325 A  
HETATM   20  C   UNL     1      -6.136  17.799  68.526  1.00  0.00    -0.181 A  
HETATM   21  C   UNL     1      -6.496  19.050  68.052  1.00  0.00    -0.224 A  
HETATM   22  C   UNL     1      -7.128  16.891  68.919  1.00  0.00    -0.220 A  
ENDBRANCH   9  16
BRANCH   8  23
HETATM   23  C   UNL     1      -8.891  14.296  67.856  1.00  0.00    -0.179 C  
HETATM   24  C   UNL     1      -8.417  13.050  68.058  1.00  0.00    -0.181 C  
BRANCH  24  25
HETATM   25  C   UNL     1      -7.652  12.215  67.050  1.00  0.00    -0.093 C  
HETATM   26  H   UNL     1      -6.242  10.840  67.089  1.00  0.00     0.000 HD 
HETATM   27  O   UNL     1      -6.722  11.363  67.720  1.00  0.00    -0.065 OA 
BRANCH  25  28
HETATM   28  C   UNL     1      -8.553  11.358  66.149  1.00  0.00    -0.128 C  
BRANCH  28  29
HETATM   29  C   UNL     1      -9.799  12.123  65.640  1.00  0.00    -0.237 C  
HETATM   30  O   UNL     1      -9.419  13.171  64.742  1.00  0.00    -0.351 OA 
HETATM   31  H   UNL     1     -10.183  13.641  64.430  1.00  0.00     0.000 HD 
BRANCH  29  32
HETATM   32  C   UNL     1     -10.756  11.227  64.854  1.00  0.00    -0.337 C  
HETATM   33  C   UNL     1     -11.439  11.968  63.739  1.00  0.00    -0.461 C  
HETATM   34  O   UNL     1     -10.933  12.879  63.102  1.00  0.00    -0.095 OA 
HETATM   35  O   UNL     1     -12.688  11.515  63.486  1.00  0.00    -0.311 OA 
ENDBRANCH  29  32
ENDBRANCH  28  29
ENDBRANCH  25  28
ENDBRANCH  24  25
ENDBRANCH   8  23
TORSDOF 8
ENDMDL
MODEL      203
REMARK 921   NORMALIZED FREE ENERGY PREDICTED BY IDOCK:   -2.22 KCAL/MOL
REMARK 922        TOTAL FREE ENERGY PREDICTED BY IDOCK:   -4.79 KCAL/MOL
REMARK 923 INTER-LIGAND FREE ENERGY PREDICTED BY IDOCK:   -3.37 KCAL/MOL
REMARK 924 INTRA-LIGAND FREE ENERGY PREDICTED BY IDOCK:   -1.42 KCAL/MOL
REMARK 927      BINDING AFFINITY PREDICTED BY RF-SCORE:    0.00 PKD
ROOT
HETATM    1  C   UNL     1     -12.059  15.022  71.267  1.00  0.00    -0.384 C  
HETATM    2  C   UNL     1     -12.184  13.770  70.384  1.00  0.00    -0.433 C  
HETATM    3  C   UNL     1     -13.598  13.709  69.798  1.00  0.00     2.445 C  
HETATM    4  C   UNL     1     -11.145  13.727  69.268  1.00  0.00    -0.208 A  
HETATM    5  N   UNL     1     -10.694  14.932  68.849  1.00  0.00    -0.236 NA 
HETATM    6  C   UNL     1      -9.819  14.927  67.846  1.00  0.00    -0.214 A  
HETATM    7  N   UNL     1      -9.393  13.855  67.184  1.00  0.00    -0.233 NA 
HETATM    8  C   UNL     1     -10.731  12.518  68.675  1.00  0.00    -0.263 A  
HETATM    9  C   UNL     1      -9.883  12.645  67.565  1.00  0.00    -0.203 A  
ENDROOT
BRANCH   6  10
HETATM   10  N   UNL     1      -9.141  16.136  67.612  1.00  0.00    -0.196 N  
HETATM   11  C   UNL     1      -8.578  16.292  66.265  1.00  0.00    -0.339 C  
BRANCH  10  12
HETATM   12  S   UNL     1      -8.223  16.691  68.901  1.00  0.00    -0.199 S  
HETATM   13  C   UNL     1      -9.378  17.579  69.934  1.00  0.00     1.324 C  
HETATM   14  O   UNL     1      -7.792  15.528  69.656  1.00  0.00    -0.213 OA 
HETATM   15  O   UNL     1      -7.253  17.648  68.423  1.00  0.00    -0.217 OA 
ENDBRANCH  10  12
ENDBRANCH   6  10
BRANCH   9  16
HETATM   16  C   UNL     1      -9.425  11.532  66.678  1.00  0.00    -0.208 A  
HETATM   17  F   UNL     1      -8.256   8.412  64.169  1.00  0.00    -0.146 F  
HETATM   18  C   UNL     1     -10.299  10.987  65.708  1.00  0.00    -0.316 A  
HETATM   19  C   UNL     1      -9.914   9.935  64.868  1.00  0.00    -0.190 A  
HETATM   20  C   UNL     1      -7.761   9.885  65.940  1.00  0.00    -0.110 A  
HETATM   21  C   UNL     1      -8.639   9.405  64.982  1.00  0.00    -0.172 A  
HETATM   22  C   UNL     1      -8.159  10.924  66.791  1.00  0.00    -0.142 A  
ENDBRANCH   9  16
BRANCH   8  23
HETATM   23  C   UNL     1     -11.192  11.237  69.245  1.00  0.00    -0.336 C  
HETATM   24  C   UNL     1     -10.571  10.588  70.250  1.00  0.00    -0.077 C  
BRANCH  24  25
HETATM   25  C   UNL     1     -11.108   9.385  70.998  1.00  0.00    -0.344 C  
HETATM   26  H   UNL     1     -12.647   8.976  72.158  1.00  0.00     0.000 HD 
HETATM   27  O   UNL     1     -12.310   9.730  71.689  1.00  0.00    -0.364 OA 
BRANCH  25  28
HETATM   28  C   UNL     1     -11.382   8.171  70.098  1.00  0.00    -0.071 C  
BRANCH  28  29
HETATM   29  C   UNL     1     -10.362   7.025  70.305  1.00  0.00    -0.203 C  
HETATM   30  O   UNL     1     -10.562   6.391  71.573  1.00  0.00    -0.221 OA 
HETATM   31  H   UNL     1      -9.935   5.688  71.700  1.00  0.00     0.000 HD 
BRANCH  29  32
HETATM   32  C   UNL     1     -10.503   5.919  69.259  1.00  0.00    -0.342 C  
HETATM   33  C   UNL     1     -10.052   6.365  67.898  1.00  0.00    -0.148 C  
HETATM   34  O   UNL     1      -9.152   7.164  67.695  1.00  0.00    -0.128 OA 
HETATM   35  O   UNL     1     -10.737   5.777  66.891  1.00  0.00    -0.285 OA 
ENDBRANCH  29  32
ENDBRANCH  28  29
ENDBRANCH  25  28
ENDBRANCH  24  25
ENDBRANCH   8  23
TORSDOF 8
ENDMDL
MODEL      204
REMARK 921   NORMALIZED FREE ENERGY PREDICTED BY IDOCK:   -2.21 KCAL/MOL
REMARK 922        TOTAL FREE ENERGY PREDICTED BY IDOCK:   -4.78 KCAL/MOL
REMARK 923 INTER-LIGAND FREE ENERGY PREDICTED BY IDOCK:   -4.98 KCAL/MOL
REMARK 924 INTRA-LIGAND FREE ENERGY PREDICTED BY IDOCK:    0.19 KCAL/MOL
REMARK 927      BINDING AFFINITY PREDICTED BY RF-SCORE:    0.00 PKD
ROOT
HETATM    1  C   UNL     1     -11.170   5.555  66.266  1.00  0.00     0.315 C  
HETATM    2  C   UNL     1     -11.002   6.636  67.346  1.00  0.00    -0.434 C  
HETATM    3  C   UNL     1     -11.148   5.992  68.728  1.00  0.00    -0.329 C  
HETATM    4  C   UNL     1      -9.671   7.375  67.243  1.00  0.00    -0.157 A  
HETATM    5  N   UNL     1      -8.659   6.670  66.684  1.00  0.00    -0.118 NA 
HETATM    6  C   UNL     1      -7.475   7.274  66.620  1.00  0.00    -0.088 A  
HETATM    7  N   UNL     1      -7.182   8.477  67.105  1.00  0.00    -0.079 NA 
HETATM    8  C   UNL     1      -9.495   8.676  67.751  1.00  0.00    -0.165 A  
HETATM    9  C   UNL     1      -8.181   9.169  67.716  1.00  0.00    -0.109 A  
ENDROOT
BRANCH   6  10
HETATM   10  N   UNL     1      -6.517   6.667  65.790  1.00  0.00    -0.045 N  
HETATM   11  C   UNL     1      -5.126   6.771  66.252  1.00  0.00    -0.017 C  
BRANCH  10  12
HETATM   12  S   UNL     1      -6.798   6.837  64.146  1.00  0.00    -0.052 S  
HETATM   13  C   UNL     1      -8.241   5.837  63.824  1.00  0.00    -0.074 C  
HETATM   14  O   UNL     1      -7.184   8.218  63.915  1.00  0.00    -0.087 OA 
HETATM   15  O   UNL     1      -5.700   6.256  63.408  1.00  0.00    -0.021 OA 
ENDBRANCH  10  12
ENDBRANCH   6  10
BRANCH   9  16
HETATM   16  C   UNL     1      -7.708  10.451  68.321  1.00  0.00    -0.096 A  
HETATM   17  F   UNL     1      -6.372  13.974  70.110  1.00  0.00    -0.134 F  
HETATM   18  C   UNL     1      -7.074  10.452  69.586  1.00  0.00    -0.135 A  
HETATM   19  C   UNL     1      -6.630  11.632  70.193  1.00  0.00     0.149 A  
HETATM   20  C   UNL     1      -7.458  12.894  68.320  1.00  0.00    -0.125 A  
HETATM   21  C   UNL     1      -6.812  12.843  69.544  1.00  0.00     0.105 A  
HETATM   22  C   UNL     1      -7.918  11.711  67.726  1.00  0.00    -0.131 A  
ENDBRANCH   9  16
BRANCH   8  23
HETATM   23  C   UNL     1     -10.663   9.419  68.261  1.00  0.00    -0.220 C  
HETATM   24  C   UNL     1     -10.596  10.640  68.828  1.00  0.00    -0.234 C  
BRANCH  24  25
HETATM   25  C   UNL     1     -11.776  11.522  69.183  1.00  0.00    -0.329 C  
HETATM   26  H   UNL     1     -13.091  11.655  70.644  1.00  0.00     0.000 HD 
HETATM   27  O   UNL     1     -12.351  11.103  70.421  1.00  0.00    -0.320 OA 
BRANCH  25  28
HETATM   28  C   UNL     1     -11.424  13.014  69.277  1.00  0.00    -0.348 C  
BRANCH  28  29
HETATM   29  C   UNL     1     -11.471  13.732  67.907  1.00  0.00    -0.314 C  
HETATM   30  O   UNL     1     -12.188  14.967  68.005  1.00  0.00    -0.536 OA 
HETATM   31  H   UNL     1     -12.217  15.408  67.164  1.00  0.00     0.000 HD 
BRANCH  29  32
HETATM   32  C   UNL     1     -10.079  14.098  67.389  1.00  0.00    -0.240 C  
HETATM   33  C   UNL     1      -9.533  15.329  68.054  1.00  0.00    -0.198 C  
HETATM   34  O   UNL     1      -9.762  15.651  69.209  1.00  0.00    -0.234 OA 
HETATM   35  O   UNL     1      -8.732  16.060  67.246  1.00  0.00    -0.175 OA 
ENDBRANCH  29  32
ENDBRANCH  28  29
ENDBRANCH  25  28
ENDBRANCH  24  25
ENDBRANCH   8  23
TORSDOF 8
ENDMDL
MODEL      205
REMARK 921   NORMALIZED FREE ENERGY PREDICTED BY IDOCK:   -2.20 KCAL/MOL
REMARK 922        TOTAL FREE ENERGY PREDICTED BY IDOCK:   -4.77 KCAL/MOL
REMARK 923 INTER-LIGAND FREE ENERGY PREDICTED BY IDOCK:   -3.96 KCAL/MOL
REMARK 924 INTRA-LIGAND FREE ENERGY PREDICTED BY IDOCK:   -0.81 KCAL/MOL
REMARK 927      BINDING AFFINITY PREDICTED BY RF-SCORE:    0.00 PKD
ROOT
HETATM    1  C   UNL     1      -9.640   2.181  68.480  1.00  0.00    -0.126 C  
HETATM    2  C   UNL     1      -9.120   3.568  68.070  1.00  0.00    -0.202 C  
HETATM    3  C   UNL     1     -10.023   4.140  66.974  1.00  0.00    -0.116 C  
HETATM    4  C   UNL     1      -9.031   4.538  69.245  1.00  0.00    -0.096 A  
HETATM    5  N   UNL     1      -9.895   4.300  70.258  1.00  0.00    -0.208 NA 
HETATM    6  C   UNL     1      -9.871   5.157  71.277  1.00  0.00    -0.177 A  
HETATM    7  N   UNL     1      -9.120   6.250  71.364  1.00  0.00    -0.143 NA 
HETATM    8  C   UNL     1      -8.153   5.639  69.243  1.00  0.00    -0.096 A  
HETATM    9  C   UNL     1      -8.287   6.524  70.324  1.00  0.00    -0.127 A  
ENDROOT
BRANCH   6  10
HETATM   10  N   UNL     1     -10.547   4.750  72.441  1.00  0.00    -0.202 N  
HETATM   11  C   UNL     1     -11.053   5.839  73.288  1.00  0.00    -0.208 C  
BRANCH  10  12
HETATM   12  S   UNL     1      -9.887   3.416  73.212  1.00  0.00    -0.120 S  
HETATM   13  C   UNL     1      -8.327   3.990  73.862  1.00  0.00    -0.091 C  
HETATM   14  O   UNL     1     -10.733   3.115  74.354  1.00  0.00    -0.183 OA 
HETATM   15  O   UNL     1      -9.594   2.393  72.235  1.00  0.00    -0.094 OA 
ENDBRANCH  10  12
ENDBRANCH   6  10
BRANCH   9  16
HETATM   16  C   UNL     1      -7.582   7.834  70.479  1.00  0.00    -0.079 A  
HETATM   17  F   UNL     1      -5.652  11.516  70.807  1.00  0.00    -0.114 F  
HETATM   18  C   UNL     1      -7.821   8.886  69.565  1.00  0.00    -0.094 A  
HETATM   19  C   UNL     1      -7.171  10.121  69.666  1.00  0.00    -0.127 A  
HETATM   20  C   UNL     1      -5.972   9.317  71.590  1.00  0.00    -0.062 A  
HETATM   21  C   UNL     1      -6.263  10.331  70.691  1.00  0.00    -0.093 A  
HETATM   22  C   UNL     1      -6.611   8.076  71.471  1.00  0.00    -0.045 A  
ENDBRANCH   9  16
BRANCH   8  23
HETATM   23  C   UNL     1      -7.173   5.783  68.149  1.00  0.00    -0.076 C  
HETATM   24  C   UNL     1      -7.456   6.321  66.945  1.00  0.00    -0.087 C  
BRANCH  24  25
HETATM   25  C   UNL     1      -6.449   6.671  65.869  1.00  0.00    -0.046 C  
HETATM   26  H   UNL     1      -4.986   5.764  64.911  1.00  0.00     0.000 HD 
HETATM   27  O   UNL     1      -5.618   5.544  65.585  1.00  0.00    -0.013 OA 
BRANCH  25  28
HETATM   28  C   UNL     1      -7.089   7.160  64.561  1.00  0.00    -0.058 C  
BRANCH  28  29
HETATM   29  C   UNL     1      -7.855   8.494  64.727  1.00  0.00    -0.125 C  
HETATM   30  O   UNL     1      -9.221   8.255  65.080  1.00  0.00    -0.397 OA 
HETATM   31  H   UNL     1      -9.692   9.074  65.181  1.00  0.00     0.000 HD 
BRANCH  29  32
HETATM   32  C   UNL     1      -7.282   9.364  65.846  1.00  0.00    -0.092 C  
HETATM   33  C   UNL     1      -5.990  10.021  65.448  1.00  0.00    -0.090 C  
HETATM   34  O   UNL     1      -5.718  10.382  64.314  1.00  0.00    -0.133 OA 
HETATM   35  O   UNL     1      -5.141  10.196  66.486  1.00  0.00    -0.038 OA 
ENDBRANCH  29  32
ENDBRANCH  28  29
ENDBRANCH  25  28
ENDBRANCH  24  25
ENDBRANCH   8  23
TORSDOF 8
ENDMDL
MODEL      206
REMARK 921   NORMALIZED FREE ENERGY PREDICTED BY IDOCK:   -2.17 KCAL/MOL
REMARK 922        TOTAL FREE ENERGY PREDICTED BY IDOCK:   -4.73 KCAL/MOL
REMARK 923 INTER-LIGAND FREE ENERGY PREDICTED BY IDOCK:   -3.97 KCAL/MOL
REMARK 924 INTRA-LIGAND FREE ENERGY PREDICTED BY IDOCK:   -0.76 KCAL/MOL
REMARK 927      BINDING AFFINITY PREDICTED BY RF-SCORE:    0.00 PKD
ROOT
HETATM    1  C   UNL     1      -6.732   2.117  70.025  1.00  0.00    -0.033 C  
HETATM    2  C   UNL     1      -7.975   2.926  69.621  1.00  0.00    -0.052 C  
HETATM    3  C   UNL     1      -9.232   2.121  69.964  1.00  0.00    -0.183 C  
HETATM    4  C   UNL     1      -8.027   4.300  70.282  1.00  0.00    -0.055 A  
HETATM    5  N   UNL     1      -7.392   4.393  71.474  1.00  0.00    -0.054 NA 
HETATM    6  C   UNL     1      -7.459   5.569  72.095  1.00  0.00    -0.099 A  
HETATM    7  N   UNL     1      -8.137   6.636  71.682  1.00  0.00    -0.107 NA 
HETATM    8  C   UNL     1      -8.741   5.376  69.719  1.00  0.00    -0.114 A  
HETATM    9  C   UNL     1      -8.822   6.531  70.512  1.00  0.00    -0.151 A  
ENDROOT
BRANCH   6  10
HETATM   10  N   UNL     1      -6.570   5.751  73.169  1.00  0.00    -0.068 N  
HETATM   11  C   UNL     1      -6.782   4.862  74.319  1.00  0.00    -0.071 C  
BRANCH  10  12
HETATM   12  S   UNL     1      -6.167   7.346  73.490  1.00  0.00    -0.061 S  
HETATM   13  C   UNL     1      -7.658   8.067  74.157  1.00  0.00    -0.191 C  
HETATM   14  O   UNL     1      -5.188   7.337  74.563  1.00  0.00    -0.056 OA 
HETATM   15  O   UNL     1      -5.879   8.028  72.249  1.00  0.00    -0.039 OA 
ENDBRANCH  10  12
ENDBRANCH   6  10
BRANCH   9  16
HETATM   16  C   UNL     1      -9.637   7.748  70.209  1.00  0.00    -0.175 A  
HETATM   17  F   UNL     1     -11.813  11.196  69.334  1.00  0.00    -0.285 F  
HETATM   18  C   UNL     1      -9.067   8.829  69.497  1.00  0.00    -0.146 A  
HETATM   19  C   UNL     1      -9.791   9.991  69.206  1.00  0.00    -0.227 A  
HETATM   20  C   UNL     1     -11.696   9.076  70.355  1.00  0.00    -0.090 A  
HETATM   21  C   UNL     1     -11.107  10.096  69.625  1.00  0.00    -0.263 A  
HETATM   22  C   UNL     1     -10.960   7.924  70.660  1.00  0.00    -0.248 A  
ENDBRANCH   9  16
BRANCH   8  23
HETATM   23  C   UNL     1      -9.330   5.229  68.374  1.00  0.00    -0.146 C  
HETATM   24  C   UNL     1      -8.621   5.275  67.228  1.00  0.00    -0.105 C  
BRANCH  24  25
HETATM   25  C   UNL     1      -9.142   4.934  65.847  1.00  0.00    -0.147 C  
HETATM   26  H   UNL     1     -10.837   4.319  65.055  1.00  0.00     0.000 HD 
HETATM   27  O   UNL     1     -10.511   4.533  65.920  1.00  0.00    -0.280 OA 
BRANCH  25  28
HETATM   28  C   UNL     1      -9.014   6.086  64.839  1.00  0.00     0.258 C  
BRANCH  28  29
HETATM   29  C   UNL     1      -7.891   7.086  65.205  1.00  0.00    -0.121 C  
HETATM   30  O   UNL     1      -6.696   6.797  64.474  1.00  0.00    -0.041 OA 
HETATM   31  H   UNL     1      -6.006   7.410  64.699  1.00  0.00     0.000 HD 
BRANCH  29  32
HETATM   32  C   UNL     1      -8.255   8.530  64.856  1.00  0.00    -0.166 C  
HETATM   33  C   UNL     1      -8.021   8.837  63.404  1.00  0.00    -0.161 C  
HETATM   34  O   UNL     1      -8.150   8.031  62.496  1.00  0.00    -0.154 OA 
HETATM   35  O   UNL     1      -7.660  10.122  63.183  1.00  0.00    -0.143 OA 
ENDBRANCH  29  32
ENDBRANCH  28  29
ENDBRANCH  25  28
ENDBRANCH  24  25
ENDBRANCH   8  23
TORSDOF 8
ENDMDL
MODEL      207
REMARK 921   NORMALIZED FREE ENERGY PREDICTED BY IDOCK:   -2.05 KCAL/MOL
REMARK 922        TOTAL FREE ENERGY PREDICTED BY IDOCK:   -4.55 KCAL/MOL
REMARK 923 INTER-LIGAND FREE ENERGY PREDICTED BY IDOCK:   -4.03 KCAL/MOL
REMARK 924 INTRA-LIGAND FREE ENERGY PREDICTED BY IDOCK:   -0.51 KCAL/MOL
REMARK 927      BINDING AFFINITY PREDICTED BY RF-SCORE:    0.00 PKD
ROOT
HETATM    1  C   UNL     1      -6.305   2.009  70.130  1.00  0.00    -0.024 C  
HETATM    2  C   UNL     1      -7.597   2.730  69.716  1.00  0.00    -0.043 C  
HETATM    3  C   UNL     1      -8.802   1.888  70.145  1.00  0.00    -0.124 C  
HETATM    4  C   UNL     1      -7.701   4.138  70.294  1.00  0.00    -0.048 A  
HETATM    5  N   UNL     1      -7.039   4.337  71.458  1.00  0.00    -0.041 NA 
HETATM    6  C   UNL     1      -7.148   5.544  72.008  1.00  0.00    -0.086 A  
HETATM    7  N   UNL     1      -7.890   6.548  71.553  1.00  0.00    -0.099 NA 
HETATM    8  C   UNL     1      -8.483   5.141  69.689  1.00  0.00    -0.093 A  
HETATM    9  C   UNL     1      -8.601   6.338  70.412  1.00  0.00    -0.142 A  
ENDROOT
BRANCH   6  10
HETATM   10  N   UNL     1      -6.239   5.835  73.041  1.00  0.00    -0.058 N  
HETATM   11  C   UNL     1      -6.214   4.869  74.148  1.00  0.00    -0.059 C  
BRANCH  10  12
HETATM   12  S   UNL     1      -6.112   7.460  73.433  1.00  0.00    -0.060 S  
HETATM   13  C   UNL     1      -5.338   8.212  72.011  1.00  0.00    -0.035 C  
HETATM   14  O   UNL     1      -7.461   7.993  73.507  1.00  0.00    -0.129 OA 
HETATM   15  O   UNL     1      -5.207   7.617  74.547  1.00  0.00    -0.064 OA 
ENDBRANCH  10  12
ENDBRANCH   6  10
BRANCH   9  16
HETATM   16  C   UNL     1      -9.484   7.493  70.062  1.00  0.00    -0.161 A  
HETATM   17  F   UNL     1     -12.028  10.670  69.156  1.00  0.00    -0.333 F  
HETATM   18  C   UNL     1     -10.655   7.748  70.813  1.00  0.00    -0.220 A  
HETATM   19  C   UNL     1     -11.516   8.809  70.509  1.00  0.00    -0.222 A  
HETATM   20  C   UNL     1     -10.102   9.409  68.657  1.00  0.00    -0.208 A  
HETATM   21  C   UNL     1     -11.220   9.641  69.441  1.00  0.00    -0.077 A  
HETATM   22  C   UNL     1      -9.255   8.333  68.954  1.00  0.00    -0.147 A  
ENDBRANCH   9  16
BRANCH   8  23
HETATM   23  C   UNL     1      -9.101   4.883  68.374  1.00  0.00    -0.141 C  
HETATM   24  C   UNL     1      -8.531   5.201  67.194  1.00  0.00    -0.106 C  
BRANCH  24  25
HETATM   25  C   UNL     1      -9.028   4.782  65.825  1.00  0.00    -0.138 C  
HETATM   26  H   UNL     1      -8.871   5.432  63.972  1.00  0.00     0.000 HD 
HETATM   27  O   UNL     1      -8.560   5.694  64.830  1.00  0.00    -0.145 OA 
BRANCH  25  28
HETATM   28  C   UNL     1      -8.612   3.357  65.429  1.00  0.00    -0.111 C  
BRANCH  28  29
HETATM   29  C   UNL     1      -8.329   3.211  63.915  1.00  0.00    -0.090 C  
HETATM   30  O   UNL     1      -7.002   2.723  63.692  1.00  0.00    -0.038 OA 
HETATM   31  H   UNL     1      -6.828   2.633  62.762  1.00  0.00     0.000 HD 
BRANCH  29  32
HETATM   32  C   UNL     1      -9.262   2.206  63.239  1.00  0.00    -0.092 C  
HETATM   33  C   UNL     1     -10.657   2.742  63.085  1.00  0.00    -0.209 C  
HETATM   34  O   UNL     1     -10.930   3.916  62.898  1.00  0.00    -0.153 OA 
HETATM   35  O   UNL     1     -11.607   1.781  63.159  1.00  0.00    -0.336 OA 
ENDBRANCH  29  32
ENDBRANCH  28  29
ENDBRANCH  25  28
ENDBRANCH  24  25
ENDBRANCH   8  23
TORSDOF 8
ENDMDL
MODEL      208
REMARK 921   NORMALIZED FREE ENERGY PREDICTED BY IDOCK:   -2.05 KCAL/MOL
REMARK 922        TOTAL FREE ENERGY PREDICTED BY IDOCK:   -4.55 KCAL/MOL
REMARK 923 INTER-LIGAND FREE ENERGY PREDICTED BY IDOCK:   -4.16 KCAL/MOL
REMARK 924 INTRA-LIGAND FREE ENERGY PREDICTED BY IDOCK:   -0.38 KCAL/MOL
REMARK 927      BINDING AFFINITY PREDICTED BY RF-SCORE:    0.00 PKD
ROOT
HETATM    1  C   UNL     1      -9.138  16.002  65.033  1.00  0.00     1.964 C  
HETATM    2  C   UNL     1      -9.561  15.110  66.211  1.00  0.00    -0.325 C  
HETATM    3  C   UNL     1      -8.414  14.155  66.555  1.00  0.00     0.251 C  
HETATM    4  C   UNL     1      -9.972  15.911  67.442  1.00  0.00    -0.239 A  
HETATM    5  N   UNL     1      -9.397  17.131  67.558  1.00  0.00    -0.236 NA 
HETATM    6  C   UNL     1      -9.704  17.835  68.646  1.00  0.00    -0.346 A  
HETATM    7  N   UNL     1     -10.473  17.428  69.651  1.00  0.00    -0.040 NA 
HETATM    8  C   UNL     1     -10.841  15.390  68.420  1.00  0.00    -0.268 A  
HETATM    9  C   UNL     1     -11.011  16.182  69.566  1.00  0.00    -0.341 A  
ENDROOT
BRANCH   6  10
HETATM   10  N   UNL     1      -9.346  19.194  68.622  1.00  0.00    -0.372 N  
HETATM   11  C   UNL     1     -10.363  20.104  68.079  1.00  0.00    -0.309 C  
BRANCH  10  12
HETATM   12  S   UNL     1      -7.747  19.496  68.218  1.00  0.00    -0.327 S  
HETATM   13  C   UNL     1      -7.793  19.977  66.499  1.00  0.00    -0.306 C  
HETATM   14  O   UNL     1      -7.324  20.665  68.970  1.00  0.00     0.250 OA 
HETATM   15  O   UNL     1      -6.991  18.268  68.299  1.00  0.00    -0.223 OA 
ENDBRANCH  10  12
ENDBRANCH   6  10
BRANCH   9  16
HETATM   16  C   UNL     1     -11.758  15.791  70.801  1.00  0.00    -0.430 A  
HETATM   17  F   UNL     1     -13.741  14.680  74.297  1.00  0.00     1.595 F  
HETATM   18  C   UNL     1     -11.070  15.609  72.023  1.00  0.00    -0.068 A  
HETATM   19  C   UNL     1     -11.730  15.229  73.198  1.00  0.00    -0.419 A  
HETATM   20  C   UNL     1     -13.810  15.158  71.992  1.00  0.00    -0.608 A  
HETATM   21  C   UNL     1     -13.100  15.024  73.174  1.00  0.00    -0.511 A  
HETATM   22  C   UNL     1     -13.140  15.518  70.814  1.00  0.00    -0.446 A  
ENDBRANCH   9  16
BRANCH   8  23
HETATM   23  C   UNL     1     -11.504  14.093  68.183  1.00  0.00    -0.340 C  
HETATM   24  C   UNL     1     -10.885  12.899  68.271  1.00  0.00    -0.263 C  
BRANCH  24  25
HETATM   25  C   UNL     1     -11.559  11.542  68.234  1.00  0.00    -0.308 C  
HETATM   26  H   UNL     1     -12.121  10.247  66.860  1.00  0.00     0.000 HD 
HETATM   27  O   UNL     1     -11.697  11.097  66.884  1.00  0.00    -0.410 OA 
BRANCH  25  28
HETATM   28  C   UNL     1     -10.821  10.464  69.041  1.00  0.00    -0.273 C  
BRANCH  28  29
HETATM   29  C   UNL     1      -9.624   9.851  68.274  1.00  0.00    -0.140 C  
HETATM   30  O   UNL     1      -8.615  10.838  68.035  1.00  0.00    -0.123 OA 
HETATM   31  H   UNL     1      -7.881  10.462  67.563  1.00  0.00     0.000 HD 
BRANCH  29  32
HETATM   32  C   UNL     1      -8.936   8.733  69.058  1.00  0.00    -0.137 C  
HETATM   33  C   UNL     1      -9.227   7.376  68.484  1.00  0.00    -0.142 C  
HETATM   34  O   UNL     1      -9.404   7.150  67.298  1.00  0.00    -0.129 OA 
HETATM   35  O   UNL     1      -9.262   6.399  69.420  1.00  0.00    -0.142 OA 
ENDBRANCH  29  32
ENDBRANCH  28  29
ENDBRANCH  25  28
ENDBRANCH  24  25
ENDBRANCH   8  23
TORSDOF 8
ENDMDL
MODEL      209
REMARK 921   NORMALIZED FREE ENERGY PREDICTED BY IDOCK:   -2.01 KCAL/MOL
REMARK 922        TOTAL FREE ENERGY PREDICTED BY IDOCK:   -4.49 KCAL/MOL
REMARK 923 INTER-LIGAND FREE ENERGY PREDICTED BY IDOCK:   -4.18 KCAL/MOL
REMARK 924 INTRA-LIGAND FREE ENERGY PREDICTED BY IDOCK:   -0.31 KCAL/MOL
REMARK 927      BINDING AFFINITY PREDICTED BY RF-SCORE:    0.00 PKD
ROOT
HETATM    1  C   UNL     1     -10.054   4.741  65.954  1.00  0.00    -0.265 C  
HETATM    2  C   UNL     1     -10.000   6.206  66.413  1.00  0.00    -0.130 C  
HETATM    3  C   UNL     1     -11.402   6.651  66.840  1.00  0.00     0.052 C  
HETATM    4  C   UNL     1      -9.003   6.436  67.544  1.00  0.00    -0.116 A  
HETATM    5  N   UNL     1      -8.769   5.365  68.337  1.00  0.00    -0.099 NA 
HETATM    6  C   UNL     1      -7.936   5.548  69.359  1.00  0.00    -0.094 A  
HETATM    7  N   UNL     1      -7.362   6.696  69.705  1.00  0.00    -0.081 NA 
HETATM    8  C   UNL     1      -8.416   7.694  67.782  1.00  0.00    -0.122 A  
HETATM    9  C   UNL     1      -7.634   7.790  68.944  1.00  0.00    -0.101 A  
ENDROOT
BRANCH   6  10
HETATM   10  N   UNL     1      -7.474   4.383  69.995  1.00  0.00    -0.049 N  
HETATM   11  C   UNL     1      -7.789   4.278  71.426  1.00  0.00    -0.080 C  
BRANCH  10  12
HETATM   12  S   UNL     1      -5.960   3.861  69.498  1.00  0.00    -0.023 S  
HETATM   13  C   UNL     1      -6.289   2.560  68.321  1.00  0.00    -0.029 C  
HETATM   14  O   UNL     1      -5.349   4.952  68.758  1.00  0.00    -0.003 OA 
HETATM   15  O   UNL     1      -5.266   3.264  70.616  1.00  0.00    -0.004 OA 
ENDBRANCH  10  12
ENDBRANCH   6  10
BRANCH   9  16
HETATM   16  C   UNL     1      -7.028   9.041  69.494  1.00  0.00    -0.051 A  
HETATM   17  F   UNL     1      -5.370  12.587  70.933  1.00  0.00    -0.117 F  
HETATM   18  C   UNL     1      -7.295  10.290  68.886  1.00  0.00    -0.090 A  
HETATM   19  C   UNL     1      -6.736  11.482  69.361  1.00  0.00    -0.116 A  
HETATM   20  C   UNL     1      -5.577  10.244  71.067  1.00  0.00    -0.083 A  
HETATM   21  C   UNL     1      -5.894  11.449  70.460  1.00  0.00    -0.131 A  
HETATM   22  C   UNL     1      -6.124   9.052  70.575  1.00  0.00    -0.040 A  
ENDBRANCH   9  16
BRANCH   8  23
HETATM   23  C   UNL     1      -8.642   8.792  66.822  1.00  0.00    -0.122 C  
HETATM   24  C   UNL     1      -9.759   9.547  66.785  1.00  0.00    -0.254 C  
BRANCH  24  25
HETATM   25  C   UNL     1      -9.956  10.803  65.960  1.00  0.00    -0.242 C  
HETATM   26  H   UNL     1     -11.463  11.946  65.410  1.00  0.00     0.000 HD 
HETATM   27  O   UNL     1     -11.339  11.159  65.928  1.00  0.00    -0.056 OA 
BRANCH  25  28
HETATM   28  C   UNL     1      -9.144  12.005  66.464  1.00  0.00    -0.202 C  
BRANCH  28  29
HETATM   29  C   UNL     1      -9.950  12.921  67.416  1.00  0.00    -0.217 C  
HETATM   30  O   UNL     1      -9.863  12.451  68.766  1.00  0.00    -0.396 OA 
HETATM   31  H   UNL     1     -10.358  13.013  69.351  1.00  0.00     0.000 HD 
BRANCH  29  32
HETATM   32  C   UNL     1      -9.419  14.355  67.439  1.00  0.00    -0.207 C  
HETATM   33  C   UNL     1     -10.124  15.204  68.458  1.00  0.00    -0.228 C  
HETATM   34  O   UNL     1     -10.560  14.791  69.521  1.00  0.00    -0.233 OA 
HETATM   35  O   UNL     1     -10.223  16.502  68.092  1.00  0.00    -0.251 OA 
ENDBRANCH  29  32
ENDBRANCH  28  29
ENDBRANCH  25  28
ENDBRANCH  24  25
ENDBRANCH   8  23
TORSDOF 8
ENDMDL
MODEL      210
REMARK 921   NORMALIZED FREE ENERGY PREDICTED BY IDOCK:   -1.89 KCAL/MOL
REMARK 922        TOTAL FREE ENERGY PREDICTED BY IDOCK:   -4.31 KCAL/MOL
REMARK 923 INTER-LIGAND FREE ENERGY PREDICTED BY IDOCK:   -5.00 KCAL/MOL
REMARK 924 INTRA-LIGAND FREE ENERGY PREDICTED BY IDOCK:    0.69 KCAL/MOL
REMARK 927      BINDING AFFINITY PREDICTED BY RF-SCORE:    0.00 PKD
ROOT
HETATM    1  C   UNL     1     -10.031   4.742  65.972  1.00  0.00    -0.255 C  
HETATM    2  C   UNL     1      -9.967   6.210  66.424  1.00  0.00    -0.130 C  
HETATM    3  C   UNL     1     -11.360   6.659  66.872  1.00  0.00     0.052 C  
HETATM    4  C   UNL     1      -8.950   6.442  67.537  1.00  0.00    -0.116 A  
HETATM    5  N   UNL     1      -8.706   5.374  68.331  1.00  0.00    -0.099 NA 
HETATM    6  C   UNL     1      -7.855   5.560  69.338  1.00  0.00    -0.087 A  
HETATM    7  N   UNL     1      -7.273   6.708  69.669  1.00  0.00    -0.076 NA 
HETATM    8  C   UNL     1      -8.357   7.700  67.760  1.00  0.00    -0.118 A  
HETATM    9  C   UNL     1      -7.556   7.799  68.908  1.00  0.00    -0.101 A  
ENDROOT
BRANCH   6  10
HETATM   10  N   UNL     1      -7.384   4.396  69.971  1.00  0.00    -0.046 N  
HETATM   11  C   UNL     1      -6.414   3.608  69.199  1.00  0.00    -0.033 C  
BRANCH  10  12
HETATM   12  S   UNL     1      -8.538   3.554  70.849  1.00  0.00    -0.074 S  
HETATM   13  C   UNL     1      -8.281   1.842  70.415  1.00  0.00    -0.041 C  
HETATM   14  O   UNL     1      -8.193   3.687  72.254  1.00  0.00    -0.080 OA 
HETATM   15  O   UNL     1      -9.856   3.921  70.387  1.00  0.00    -0.196 OA 
ENDBRANCH  10  12
ENDBRANCH   6  10
BRANCH   9  16
HETATM   16  C   UNL     1      -6.938   9.052  69.442  1.00  0.00    -0.052 A  
HETATM   17  F   UNL     1      -5.184  12.487  71.028  1.00  0.00    -0.112 F  
HETATM   18  C   UNL     1      -6.102   9.004  70.582  1.00  0.00    -0.040 A  
HETATM   19  C   UNL     1      -5.516  10.155  71.123  1.00  0.00    -0.085 A  
HETATM   20  C   UNL     1      -6.596  11.483  69.431  1.00  0.00    -0.117 A  
HETATM   21  C   UNL     1      -5.756  11.384  70.529  1.00  0.00    -0.145 A  
HETATM   22  C   UNL     1      -7.195  10.330  68.907  1.00  0.00    -0.086 A  
ENDBRANCH   9  16
BRANCH   8  23
HETATM   23  C   UNL     1      -8.597   8.794  66.799  1.00  0.00    -0.122 C  
HETATM   24  C   UNL     1      -9.712   9.553  66.779  1.00  0.00    -0.254 C  
BRANCH  24  25
HETATM   25  C   UNL     1      -9.920  10.805  65.952  1.00  0.00    -0.250 C  
HETATM   26  H   UNL     1     -11.437  11.936  65.402  1.00  0.00     0.000 HD 
HETATM   27  O   UNL     1     -11.306  11.151  65.920  1.00  0.00    -0.056 OA 
BRANCH  25  28
HETATM   28  C   UNL     1      -9.117  12.015  66.452  1.00  0.00    -0.193 C  
BRANCH  28  29
HETATM   29  C   UNL     1     -10.001  13.257  66.721  1.00  0.00    -0.263 C  
HETATM   30  O   UNL     1      -9.264  14.261  67.427  1.00  0.00    -0.186 OA 
HETATM   31  H   UNL     1      -9.807  15.023  67.592  1.00  0.00     0.000 HD 
BRANCH  29  32
HETATM   32  C   UNL     1     -10.483  13.923  65.432  1.00  0.00    -0.357 C  
HETATM   33  C   UNL     1     -10.045  15.356  65.336  1.00  0.00    -0.359 C  
HETATM   34  O   UNL     1      -8.998  15.791  65.789  1.00  0.00    -0.282 OA 
HETATM   35  O   UNL     1     -10.927  16.139  64.674  1.00  0.00    -0.642 OA 
ENDBRANCH  29  32
ENDBRANCH  28  29
ENDBRANCH  25  28
ENDBRANCH  24  25
ENDBRANCH   8  23
TORSDOF 8
ENDMDL
MODEL      211
REMARK 921   NORMALIZED FREE ENERGY PREDICTED BY IDOCK:   -1.77 KCAL/MOL
REMARK 922        TOTAL FREE ENERGY PREDICTED BY IDOCK:   -4.14 KCAL/MOL
REMARK 923 INTER-LIGAND FREE ENERGY PREDICTED BY IDOCK:   -4.25 KCAL/MOL
REMARK 924 INTRA-LIGAND FREE ENERGY PREDICTED BY IDOCK:    0.11 KCAL/MOL
REMARK 927      BINDING AFFINITY PREDICTED BY RF-SCORE:    0.00 PKD
ROOT
HETATM    1  C   UNL     1     -11.829   8.965  71.563  1.00  0.00    -0.402 C  
HETATM    2  C   UNL     1     -10.938   8.970  70.311  1.00  0.00    -0.274 C  
HETATM    3  C   UNL     1     -10.032  10.204  70.343  1.00  0.00     0.015 C  
HETATM    4  C   UNL     1     -10.102   7.701  70.174  1.00  0.00    -0.199 A  
HETATM    5  N   UNL     1      -9.805   7.075  71.337  1.00  0.00    -0.177 NA 
HETATM    6  C   UNL     1      -9.040   5.989  71.253  1.00  0.00    -0.143 A  
HETATM    7  N   UNL     1      -8.495   5.499  70.143  1.00  0.00    -0.115 NA 
HETATM    8  C   UNL     1      -9.622   7.249  68.930  1.00  0.00    -0.143 A  
HETATM    9  C   UNL     1      -8.746   6.154  68.978  1.00  0.00    -0.124 A  
ENDROOT
BRANCH   6  10
HETATM   10  N   UNL     1      -8.978   5.187  72.406  1.00  0.00    -0.131 N  
HETATM   11  C   UNL     1     -10.275   4.782  72.962  1.00  0.00    -0.171 C  
BRANCH  10  12
HETATM   12  S   UNL     1      -7.769   5.603  73.491  1.00  0.00    -0.102 S  
HETATM   13  C   UNL     1      -6.439   6.224  72.475  1.00  0.00    -0.059 C  
HETATM   14  O   UNL     1      -8.259   6.724  74.273  1.00  0.00    -0.122 OA 
HETATM   15  O   UNL     1      -7.285   4.413  74.151  1.00  0.00    -0.069 OA 
ENDBRANCH  10  12
ENDBRANCH   6  10
BRANCH   9  16
HETATM   16  C   UNL     1      -7.990   5.583  67.821  1.00  0.00    -0.101 A  
HETATM   17  F   UNL     1      -5.810   4.077  64.601  1.00  0.00    -0.013 F  
HETATM   18  C   UNL     1      -6.718   6.096  67.476  1.00  0.00    -0.058 A  
HETATM   19  C   UNL     1      -5.985   5.599  66.392  1.00  0.00    -0.022 A  
HETATM   20  C   UNL     1      -7.770   4.060  65.907  1.00  0.00    -0.090 A  
HETATM   21  C   UNL     1      -6.513   4.571  65.627  1.00  0.00    -0.040 A  
HETATM   22  C   UNL     1      -8.508   4.576  66.981  1.00  0.00    -0.104 A  
ENDBRANCH   9  16
BRANCH   8  23
HETATM   23  C   UNL     1     -10.062   7.927  67.695  1.00  0.00    -0.262 C  
HETATM   24  C   UNL     1      -9.677   9.167  67.333  1.00  0.00    -0.211 C  
BRANCH  24  25
HETATM   25  C   UNL     1      -9.938   9.824  65.993  1.00  0.00    -0.272 C  
HETATM   26  H   UNL     1     -11.155  11.193  65.269  1.00  0.00     0.000 HD 
HETATM   27  O   UNL     1     -10.991  10.782  66.109  1.00  0.00    -0.115 OA 
BRANCH  25  28
HETATM   28  C   UNL     1      -8.703  10.512  65.392  1.00  0.00    -0.195 C  
BRANCH  28  29
HETATM   29  C   UNL     1      -7.385   9.762  65.704  1.00  0.00    -0.106 C  
HETATM   30  O   UNL     1      -7.307   9.430  67.094  1.00  0.00    -0.086 OA 
HETATM   31  H   UNL     1      -6.497   8.970  67.286  1.00  0.00     0.000 HD 
BRANCH  29  32
HETATM   32  C   UNL     1      -7.272   8.437  64.951  1.00  0.00    -0.084 C  
HETATM   33  C   UNL     1      -6.896   8.633  63.510  1.00  0.00    -0.088 C  
HETATM   34  O   UNL     1      -6.178   9.530  63.098  1.00  0.00    -0.097 OA 
HETATM   35  O   UNL     1      -7.424   7.696  62.690  1.00  0.00    -0.089 OA 
ENDBRANCH  29  32
ENDBRANCH  28  29
ENDBRANCH  25  28
ENDBRANCH  24  25
ENDBRANCH   8  23
TORSDOF 8
ENDMDL
MODEL      212
REMARK 921   NORMALIZED FREE ENERGY PREDICTED BY IDOCK:   -1.75 KCAL/MOL
REMARK 922        TOTAL FREE ENERGY PREDICTED BY IDOCK:   -4.11 KCAL/MOL
REMARK 923 INTER-LIGAND FREE ENERGY PREDICTED BY IDOCK:   -4.33 KCAL/MOL
REMARK 924 INTRA-LIGAND FREE ENERGY PREDICTED BY IDOCK:    0.22 KCAL/MOL
REMARK 927      BINDING AFFINITY PREDICTED BY RF-SCORE:    0.00 PKD
ROOT
HETATM    1  C   UNL     1     -10.962   7.248  70.970  1.00  0.00    -0.272 C  
HETATM    2  C   UNL     1     -10.482   7.981  69.708  1.00  0.00    -0.227 C  
HETATM    3  C   UNL     1     -11.188   7.391  68.484  1.00  0.00     0.261 C  
HETATM    4  C   UNL     1     -10.709   9.489  69.776  1.00  0.00    -0.239 A  
HETATM    5  N   UNL     1     -11.739   9.884  70.561  1.00  0.00    -0.286 NA 
HETATM    6  C   UNL     1     -11.988  11.191  70.605  1.00  0.00    -0.360 A  
HETATM    7  N   UNL     1     -11.359  12.132  69.908  1.00  0.00    -0.112 NA 
HETATM    8  C   UNL     1      -9.938  10.398  69.026  1.00  0.00    -0.224 A  
HETATM    9  C   UNL     1     -10.357  11.736  69.077  1.00  0.00    -0.059 A  
ENDROOT
BRANCH   6  10
HETATM   10  N   UNL     1     -12.851  11.620  71.628  1.00  0.00    -0.383 N  
HETATM   11  C   UNL     1     -13.847  10.634  72.066  1.00  0.00     0.231 C  
BRANCH  10  12
HETATM   12  S   UNL     1     -13.347  13.217  71.510  1.00  0.00    -0.177 S  
HETATM   13  C   UNL     1     -11.924  14.174  72.007  1.00  0.00     0.257 C  
HETATM   14  O   UNL     1     -13.571  13.497  70.103  1.00  0.00     0.898 OA 
HETATM   15  O   UNL     1     -14.391  13.469  72.476  1.00  0.00    -0.713 OA 
ENDBRANCH  10  12
ENDBRANCH   6  10
BRANCH   9  16
HETATM   16  C   UNL     1      -9.804  12.861  68.263  1.00  0.00    -0.228 A  
HETATM   17  F   UNL     1      -8.172  16.008  66.065  1.00  0.00    -0.325 F  
HETATM   18  C   UNL     1      -8.486  13.323  68.487  1.00  0.00    -0.067 A  
HETATM   19  C   UNL     1      -7.936  14.383  67.757  1.00  0.00    -0.166 A  
HETATM   20  C   UNL     1     -10.005  14.610  66.551  1.00  0.00    -0.292 A  
HETATM   21  C   UNL     1      -8.697  15.006  66.782  1.00  0.00    -0.260 A  
HETATM   22  C   UNL     1     -10.557  13.561  67.299  1.00  0.00    -0.263 A  
ENDBRANCH   9  16
BRANCH   8  23
HETATM   23  C   UNL     1      -8.773   9.905  68.267  1.00  0.00    -0.119 C  
HETATM   24  C   UNL     1      -7.805   9.124  68.787  1.00  0.00    -0.096 C  
BRANCH  24  25
HETATM   25  C   UNL     1      -6.705   8.433  68.008  1.00  0.00    -0.065 C  
HETATM   26  H   UNL     1      -5.831   6.667  67.999  1.00  0.00     0.000 HD 
HETATM   27  O   UNL     1      -6.521   7.100  68.488  1.00  0.00    -0.037 OA 
BRANCH  25  28
HETATM   28  C   UNL     1      -6.958   8.387  66.493  1.00  0.00    -0.071 C  
BRANCH  28  29
HETATM   29  C   UNL     1      -7.077   9.793  65.859  1.00  0.00    -0.102 C  
HETATM   30  O   UNL     1      -5.870  10.540  66.051  1.00  0.00    -0.081 OA 
HETATM   31  H   UNL     1      -5.943  11.404  65.661  1.00  0.00     0.000 HD 
BRANCH  29  32
HETATM   32  C   UNL     1      -7.296   9.738  64.347  1.00  0.00    -0.132 C  
HETATM   33  C   UNL     1      -8.748   9.589  63.990  1.00  0.00    -0.216 C  
HETATM   34  O   UNL     1      -9.671  10.060  64.635  1.00  0.00    -0.310 OA 
HETATM   35  O   UNL     1      -8.947   8.882  62.854  1.00  0.00    -0.092 OA 
ENDBRANCH  29  32
ENDBRANCH  28  29
ENDBRANCH  25  28
ENDBRANCH  24  25
ENDBRANCH   8  23
TORSDOF 8
ENDMDL
MODEL      213
REMARK 921   NORMALIZED FREE ENERGY PREDICTED BY IDOCK:   -1.66 KCAL/MOL
REMARK 922        TOTAL FREE ENERGY PREDICTED BY IDOCK:   -3.97 KCAL/MOL
REMARK 923 INTER-LIGAND FREE ENERGY PREDICTED BY IDOCK:   -3.94 KCAL/MOL
REMARK 924 INTRA-LIGAND FREE ENERGY PREDICTED BY IDOCK:   -0.04 KCAL/MOL
REMARK 927      BINDING AFFINITY PREDICTED BY RF-SCORE:    0.00 PKD
ROOT
HETATM    1  C   UNL     1      -9.635  10.091  63.573  1.00  0.00    -0.135 C  
HETATM    2  C   UNL     1      -8.436   9.902  64.516  1.00  0.00    -0.181 C  
HETATM    3  C   UNL     1      -7.141  10.172  63.743  1.00  0.00    -0.103 C  
HETATM    4  C   UNL     1      -8.510  10.791  65.754  1.00  0.00    -0.174 A  
HETATM    5  N   UNL     1      -9.202  11.944  65.598  1.00  0.00    -0.121 NA 
HETATM    6  C   UNL     1      -9.247  12.760  66.649  1.00  0.00    -0.212 A  
HETATM    7  N   UNL     1      -8.628  12.576  67.811  1.00  0.00    -0.166 NA 
HETATM    8  C   UNL     1      -7.850  10.463  66.953  1.00  0.00    -0.114 A  
HETATM    9  C   UNL     1      -7.886  11.445  67.955  1.00  0.00    -0.121 A  
ENDROOT
BRANCH   6  10
HETATM   10  N   UNL     1     -10.193  13.798  66.584  1.00  0.00    -0.271 N  
HETATM   11  C   UNL     1      -9.839  15.020  67.317  1.00  0.00    -0.228 C  
BRANCH  10  12
HETATM   12  S   UNL     1     -11.793  13.298  66.644  1.00  0.00    -0.393 S  
HETATM   13  C   UNL     1     -12.292  13.161  64.935  1.00  0.00    -0.441 C  
HETATM   14  O   UNL     1     -11.805  11.955  67.194  1.00  0.00    -0.588 OA 
HETATM   15  O   UNL     1     -12.598  14.337  67.243  1.00  0.00    -0.097 OA 
ENDBRANCH  10  12
ENDBRANCH   6  10
BRANCH   9  16
HETATM   16  C   UNL     1      -7.147  11.402  69.254  1.00  0.00    -0.100 A  
HETATM   17  F   UNL     1      -5.140  11.185  72.903  1.00  0.00     0.015 F  
HETATM   18  C   UNL     1      -7.177  10.236  70.054  1.00  0.00    -0.164 A  
HETATM   19  C   UNL     1      -6.511  10.160  71.283  1.00  0.00     0.321 A  
HETATM   20  C   UNL     1      -5.766  12.431  71.004  1.00  0.00     0.041 A  
HETATM   21  C   UNL     1      -5.796  11.256  71.738  1.00  0.00     0.919 A  
HETATM   22  C   UNL     1      -6.452  12.507  69.784  1.00  0.00    -0.018 A  
ENDBRANCH   9  16
BRANCH   8  23
HETATM   23  C   UNL     1      -7.193   9.148  67.082  1.00  0.00    -0.086 C  
HETATM   24  C   UNL     1      -7.750   8.078  67.685  1.00  0.00    -0.110 C  
BRANCH  24  25
HETATM   25  C   UNL     1      -7.206   6.664  67.668  1.00  0.00    -0.090 C  
HETATM   26  H   UNL     1      -6.167   5.503  68.873  1.00  0.00     0.000 HD 
HETATM   27  O   UNL     1      -6.508   6.389  68.884  1.00  0.00    -0.039 OA 
BRANCH  25  28
HETATM   28  C   UNL     1      -8.285   5.591  67.460  1.00  0.00    -0.101 C  
BRANCH  28  29
HETATM   29  C   UNL     1      -8.836   5.024  68.791  1.00  0.00    -0.093 C  
HETATM   30  O   UNL     1      -8.093   5.531  69.904  1.00  0.00    -0.094 OA 
HETATM   31  H   UNL     1      -8.430   5.182  70.721  1.00  0.00     0.000 HD 
BRANCH  29  32
HETATM   32  C   UNL     1     -10.289   5.425  69.042  1.00  0.00    -0.282 C  
HETATM   33  C   UNL     1     -10.408   6.508  70.077  1.00  0.00    -0.198 C  
HETATM   34  O   UNL     1      -9.584   7.392  70.250  1.00  0.00    -0.166 OA 
HETATM   35  O   UNL     1     -11.543   6.424  70.807  1.00  0.00    -0.344 OA 
ENDBRANCH  29  32
ENDBRANCH  28  29
ENDBRANCH  25  28
ENDBRANCH  24  25
ENDBRANCH   8  23
TORSDOF 8
ENDMDL
MODEL      214
REMARK 921   NORMALIZED FREE ENERGY PREDICTED BY IDOCK:   -1.65 KCAL/MOL
REMARK 922        TOTAL FREE ENERGY PREDICTED BY IDOCK:   -3.96 KCAL/MOL
REMARK 923 INTER-LIGAND FREE ENERGY PREDICTED BY IDOCK:   -4.51 KCAL/MOL
REMARK 924 INTRA-LIGAND FREE ENERGY PREDICTED BY IDOCK:    0.56 KCAL/MOL
REMARK 927      BINDING AFFINITY PREDICTED BY RF-SCORE:    0.00 PKD
ROOT
HETATM    1  C   UNL     1     -11.032   4.837  65.755  1.00  0.00     0.020 C  
HETATM    2  C   UNL     1     -10.736   6.166  66.468  1.00  0.00    -0.207 C  
HETATM    3  C   UNL     1     -11.007   6.004  67.967  1.00  0.00    -0.340 C  
HETATM    4  C   UNL     1      -9.309   6.656  66.237  1.00  0.00    -0.105 A  
HETATM    5  N   UNL     1      -8.398   5.687  65.987  1.00  0.00    -0.119 NA 
HETATM    6  C   UNL     1      -7.136   6.082  65.825  1.00  0.00    -0.073 A  
HETATM    7  N   UNL     1      -6.684   7.326  65.944  1.00  0.00    -0.052 NA 
HETATM    8  C   UNL     1      -8.958   8.016  66.340  1.00  0.00    -0.204 A  
HETATM    9  C   UNL     1      -7.586   8.297  66.248  1.00  0.00    -0.096 A  
ENDROOT
BRANCH   6  10
HETATM   10  N   UNL     1      -6.257   5.128  65.284  1.00  0.00    -0.033 N  
HETATM   11  C   UNL     1      -5.166   5.671  64.464  1.00  0.00    -0.010 C  
BRANCH  10  12
HETATM   12  S   UNL     1      -6.986   3.713  64.758  1.00  0.00    -0.050 S  
HETATM   13  C   UNL     1      -8.303   4.252  63.679  1.00  0.00    -0.100 C  
HETATM   14  O   UNL     1      -6.022   3.013  63.927  1.00  0.00    -0.013 OA 
HETATM   15  O   UNL     1      -7.599   3.043  65.881  1.00  0.00    -0.072 OA 
ENDBRANCH  10  12
ENDBRANCH   6  10
BRANCH   9  16
HETATM   16  C   UNL     1      -6.946   9.630  66.469  1.00  0.00    -0.085 A  
HETATM   17  F   UNL     1      -5.130  13.350  66.975  1.00  0.00     0.160 F  
HETATM   18  C   UNL     1      -6.515  10.406  65.368  1.00  0.00    -0.115 A  
HETATM   19  C   UNL     1      -5.899  11.652  65.532  1.00  0.00     1.269 A  
HETATM   20  C   UNL     1      -6.076  11.410  67.919  1.00  0.00    -0.050 A  
HETATM   21  C   UNL     1      -5.701  12.150  66.809  1.00  0.00     0.118 A  
HETATM   22  C   UNL     1      -6.674  10.155  67.748  1.00  0.00    -0.071 A  
ENDBRANCH   9  16
BRANCH   8  23
HETATM   23  C   UNL     1     -10.018   9.026  66.522  1.00  0.00    -0.355 C  
HETATM   24  C   UNL     1     -10.158   9.787  67.625  1.00  0.00    -0.236 C  
BRANCH  24  25
HETATM   25  C   UNL     1     -11.097  10.966  67.780  1.00  0.00    -0.309 C  
HETATM   26  H   UNL     1     -11.177  12.618  68.850  1.00  0.00     0.000 HD 
HETATM   27  O   UNL     1     -10.588  11.879  68.753  1.00  0.00    -0.216 OA 
BRANCH  25  28
HETATM   28  C   UNL     1     -11.353  11.726  66.470  1.00  0.00    -0.370 C  
BRANCH  28  29
HETATM   29  C   UNL     1     -10.830  13.182  66.506  1.00  0.00    -0.280 C  
HETATM   30  O   UNL     1      -9.601  13.298  65.781  1.00  0.00    -0.455 OA 
HETATM   31  H   UNL     1      -9.280  14.192  65.804  1.00  0.00     0.000 HD 
BRANCH  29  32
HETATM   32  C   UNL     1     -11.796  14.168  65.848  1.00  0.00    -0.391 C  
HETATM   33  C   UNL     1     -12.467  13.582  64.638  1.00  0.00    -0.323 C  
HETATM   34  O   UNL     1     -12.756  12.403  64.510  1.00  0.00    -0.594 OA 
HETATM   35  O   UNL     1     -12.744  14.502  63.685  1.00  0.00    -0.754 OA 
ENDBRANCH  29  32
ENDBRANCH  28  29
ENDBRANCH  25  28
ENDBRANCH  24  25
ENDBRANCH   8  23
TORSDOF 8
ENDMDL
MODEL      215
REMARK 921   NORMALIZED FREE ENERGY PREDICTED BY IDOCK:   -1.53 KCAL/MOL
REMARK 922        TOTAL FREE ENERGY PREDICTED BY IDOCK:   -3.79 KCAL/MOL
REMARK 923 INTER-LIGAND FREE ENERGY PREDICTED BY IDOCK:   -4.67 KCAL/MOL
REMARK 924 INTRA-LIGAND FREE ENERGY PREDICTED BY IDOCK:    0.88 KCAL/MOL
REMARK 927      BINDING AFFINITY PREDICTED BY RF-SCORE:    0.00 PKD
ROOT
HETATM    1  C   UNL     1     -11.373  10.662  65.614  1.00  0.00     0.656 C  
HETATM    2  C   UNL     1     -10.055  11.016  66.321  1.00  0.00    -0.282 C  
HETATM    3  C   UNL     1      -8.900  10.290  65.626  1.00  0.00    -0.186 C  
HETATM    4  C   UNL     1      -9.790  12.518  66.361  1.00  0.00    -0.253 A  
HETATM    5  N   UNL     1     -10.349  13.232  65.356  1.00  0.00    -0.300 NA 
HETATM    6  C   UNL     1     -10.098  14.539  65.341  1.00  0.00    -0.364 A  
HETATM    7  N   UNL     1      -9.306  15.195  66.184  1.00  0.00    -0.309 NA 
HETATM    8  C   UNL     1      -8.969  13.109  67.342  1.00  0.00    -0.201 A  
HETATM    9  C   UNL     1      -8.698  14.474  67.165  1.00  0.00    -0.219 A  
ENDROOT
BRANCH   6  10
HETATM   10  N   UNL     1     -10.902  15.312  64.486  1.00  0.00    -0.237 N  
HETATM   11  C   UNL     1     -10.765  16.767  64.636  1.00  0.00     0.366 C  
BRANCH  10  12
HETATM   12  S   UNL     1     -12.443  14.705  64.227  1.00  0.00    -0.006 S  
HETATM   13  C   UNL     1     -12.931  14.013  65.798  1.00  0.00    -0.254 C  
HETATM   14  O   UNL     1     -13.318  15.837  63.977  1.00  0.00     0.075 OA 
HETATM   15  O   UNL     1     -12.378  13.615  63.281  1.00  0.00    -0.743 OA 
ENDBRANCH  10  12
ENDBRANCH   6  10
BRANCH   9  16
HETATM   16  C   UNL     1      -7.745  15.293  67.976  1.00  0.00    -0.133 A  
HETATM   17  F   UNL     1      -5.156  17.668  70.223  1.00  0.00    -0.164 F  
HETATM   18  C   UNL     1      -8.110  16.587  68.413  1.00  0.00    -0.196 A  
HETATM   19  C   UNL     1      -7.243  17.391  69.162  1.00  0.00    -0.175 A  
HETATM   20  C   UNL     1      -5.572  15.664  69.055  1.00  0.00    -0.103 A  
HETATM   21  C   UNL     1      -5.985  16.913  69.491  1.00  0.00    -0.213 A  
HETATM   22  C   UNL     1      -6.437  14.872  68.289  1.00  0.00    -0.120 A  
ENDBRANCH   9  16
BRANCH   8  23
HETATM   23  C   UNL     1      -8.470  12.285  68.460  1.00  0.00    -0.077 C  
HETATM   24  C   UNL     1      -8.124  10.987  68.349  1.00  0.00    -0.134 C  
BRANCH  24  25
HETATM   25  C   UNL     1      -7.424  10.160  69.409  1.00  0.00    -0.119 C  
HETATM   26  H   UNL     1      -6.240  10.489  70.948  1.00  0.00     0.000 HD 
HETATM   27  O   UNL     1      -6.679  11.007  70.284  1.00  0.00    -0.230 OA 
BRANCH  25  28
HETATM   28  C   UNL     1      -8.379   9.296  70.246  1.00  0.00    -0.204 C  
BRANCH  28  29
HETATM   29  C   UNL     1      -7.808   7.890  70.552  1.00  0.00    -0.095 C  
HETATM   30  O   UNL     1      -6.438   7.800  70.149  1.00  0.00    -0.033 OA 
HETATM   31  H   UNL     1      -6.087   6.937  70.336  1.00  0.00     0.000 HD 
BRANCH  29  32
HETATM   32  C   UNL     1      -7.825   7.564  72.046  1.00  0.00    -0.097 C  
HETATM   33  C   UNL     1      -8.003   6.095  72.304  1.00  0.00    -0.105 C  
HETATM   34  O   UNL     1      -7.578   5.209  71.580  1.00  0.00    -0.094 OA 
HETATM   35  O   UNL     1      -8.681   5.833  73.445  1.00  0.00    -0.121 OA 
ENDBRANCH  29  32
ENDBRANCH  28  29
ENDBRANCH  25  28
ENDBRANCH  24  25
ENDBRANCH   8  23
TORSDOF 8
ENDMDL
MODEL      216
REMARK 921   NORMALIZED FREE ENERGY PREDICTED BY IDOCK:   -1.44 KCAL/MOL
REMARK 922        TOTAL FREE ENERGY PREDICTED BY IDOCK:   -3.65 KCAL/MOL
REMARK 923 INTER-LIGAND FREE ENERGY PREDICTED BY IDOCK:   -5.00 KCAL/MOL
REMARK 924 INTRA-LIGAND FREE ENERGY PREDICTED BY IDOCK:    1.35 KCAL/MOL
REMARK 927      BINDING AFFINITY PREDICTED BY RF-SCORE:    0.00 PKD
ROOT
HETATM    1  C   UNL     1     -11.377  10.652  65.601  1.00  0.00     0.656 C  
HETATM    2  C   UNL     1     -10.075  10.949  66.362  1.00  0.00    -0.280 C  
HETATM    3  C   UNL     1      -8.909  10.250  65.658  1.00  0.00    -0.186 C  
HETATM    4  C   UNL     1      -9.796  12.443  66.495  1.00  0.00    -0.235 A  
HETATM    5  N   UNL     1     -10.320  13.220  65.518  1.00  0.00    -0.286 NA 
HETATM    6  C   UNL     1     -10.055  14.523  65.584  1.00  0.00    -0.359 A  
HETATM    7  N   UNL     1      -9.280  15.120  66.484  1.00  0.00    -0.269 NA 
HETATM    8  C   UNL     1      -8.996  12.968  67.529  1.00  0.00    -0.193 A  
HETATM    9  C   UNL     1      -8.706  14.338  67.437  1.00  0.00    -0.209 A  
ENDROOT
BRANCH   6  10
HETATM   10  N   UNL     1     -10.828  15.352  64.753  1.00  0.00    -0.411 N  
HETATM   11  C   UNL     1     -10.684  16.794  64.992  1.00  0.00    -0.100 C  
BRANCH  10  12
HETATM   12  S   UNL     1     -12.366  14.776  64.414  1.00  0.00    -0.189 S  
HETATM   13  C   UNL     1     -12.906  14.000  65.928  1.00  0.00    -0.311 C  
HETATM   14  O   UNL     1     -13.223  15.929  64.204  1.00  0.00     0.032 OA 
HETATM   15  O   UNL     1     -12.281  13.742  63.409  1.00  0.00    -0.634 OA 
ENDBRANCH  10  12
ENDBRANCH   6  10
BRANCH   9  16
HETATM   16  C   UNL     1      -7.768  15.098  68.319  1.00  0.00    -0.117 A  
HETATM   17  F   UNL     1      -5.217  17.311  70.766  1.00  0.00    -0.214 F  
HETATM   18  C   UNL     1      -8.132  16.370  68.819  1.00  0.00    -0.234 A  
HETATM   19  C   UNL     1      -7.277  17.119  69.635  1.00  0.00     0.279 A  
HETATM   20  C   UNL     1      -5.621  15.382  69.475  1.00  0.00    -0.103 A  
HETATM   21  C   UNL     1      -6.033  16.609  69.970  1.00  0.00    -0.187 A  
HETATM   22  C   UNL     1      -6.473  14.645  68.642  1.00  0.00    -0.085 A  
ENDBRANCH   9  16
BRANCH   8  23
HETATM   23  C   UNL     1      -8.536  12.076  68.611  1.00  0.00    -0.011 C  
HETATM   24  C   UNL     1      -8.148  10.798  68.427  1.00  0.00    -0.127 C  
BRANCH  24  25
HETATM   25  C   UNL     1      -7.485   9.912  69.462  1.00  0.00    -0.112 C  
HETATM   26  H   UNL     1      -7.835   9.348  71.316  1.00  0.00     0.000 HD 
HETATM   27  O   UNL     1      -8.251   9.903  70.667  1.00  0.00    -0.210 OA 
BRANCH  25  28
HETATM   28  C   UNL     1      -7.278   8.465  68.992  1.00  0.00    -0.070 C  
BRANCH  28  29
HETATM   29  C   UNL     1      -8.603   7.756  68.621  1.00  0.00    -0.129 C  
HETATM   30  O   UNL     1      -9.692   8.685  68.621  1.00  0.00    -0.157 OA 
HETATM   31  H   UNL     1     -10.506   8.250  68.393  1.00  0.00     0.000 HD 
BRANCH  29  32
HETATM   32  C   UNL     1      -8.571   7.152  67.217  1.00  0.00    -0.121 C  
HETATM   33  C   UNL     1      -9.427   5.922  67.109  1.00  0.00    -0.117 C  
HETATM   34  O   UNL     1     -10.461   5.742  67.733  1.00  0.00    -0.196 OA 
HETATM   35  O   UNL     1      -8.947   5.015  66.228  1.00  0.00    -0.121 OA 
ENDBRANCH  29  32
ENDBRANCH  28  29
ENDBRANCH  25  28
ENDBRANCH  24  25
ENDBRANCH   8  23
TORSDOF 8
ENDMDL
MODEL      217
REMARK 921   NORMALIZED FREE ENERGY PREDICTED BY IDOCK:   -1.32 KCAL/MOL
REMARK 922        TOTAL FREE ENERGY PREDICTED BY IDOCK:   -3.48 KCAL/MOL
REMARK 923 INTER-LIGAND FREE ENERGY PREDICTED BY IDOCK:   -2.57 KCAL/MOL
REMARK 924 INTRA-LIGAND FREE ENERGY PREDICTED BY IDOCK:   -0.91 KCAL/MOL
REMARK 927      BINDING AFFINITY PREDICTED BY RF-SCORE:    0.00 PKD
ROOT
HETATM    1  C   UNL     1     -11.895  12.608  69.708  1.00  0.00    -0.379 C  
HETATM    2  C   UNL     1     -11.548  11.615  68.588  1.00  0.00    -0.373 C  
HETATM    3  C   UNL     1     -12.712  11.551  67.594  1.00  0.00     2.854 C  
HETATM    4  C   UNL     1     -10.252  11.968  67.864  1.00  0.00    -0.196 A  
HETATM    5  N   UNL     1      -9.927  13.282  67.867  1.00  0.00    -0.227 NA 
HETATM    6  C   UNL     1      -8.824  13.626  67.205  1.00  0.00    -0.224 A  
HETATM    7  N   UNL     1      -8.049  12.810  66.498  1.00  0.00     0.262 NA 
HETATM    8  C   UNL     1      -9.483  11.001  67.189  1.00  0.00    -0.181 A  
HETATM    9  C   UNL     1      -8.400  11.496  66.447  1.00  0.00    -0.118 A  
ENDROOT
BRANCH   6  10
HETATM   10  N   UNL     1      -8.336  14.921  67.451  1.00  0.00    -0.180 N  
HETATM   11  C   UNL     1      -7.508  15.064  68.656  1.00  0.00    -0.122 C  
BRANCH  10  12
HETATM   12  S   UNL     1      -9.411  16.159  67.103  1.00  0.00    -0.227 S  
HETATM   13  C   UNL     1     -10.056  15.761  65.486  1.00  0.00    -0.351 C  
HETATM   14  O   UNL     1     -10.518  16.045  68.036  1.00  0.00    -0.259 OA 
HETATM   15  O   UNL     1      -8.688  17.404  66.982  1.00  0.00    -0.221 OA 
ENDBRANCH  10  12
ENDBRANCH   6  10
BRANCH   9  16
HETATM   16  C   UNL     1      -7.525  10.701  65.532  1.00  0.00    -0.063 A  
HETATM   17  F   UNL     1      -5.175   8.415  62.954  1.00  0.00    -0.061 F  
HETATM   18  C   UNL     1      -8.095   9.777  64.624  1.00  0.00    -0.148 A  
HETATM   19  C   UNL     1      -7.310   9.003  63.762  1.00  0.00    -0.101 A  
HETATM   20  C   UNL     1      -5.328  10.006  64.685  1.00  0.00    -0.088 A  
HETATM   21  C   UNL     1      -5.932   9.138  63.789  1.00  0.00    -0.083 A  
HETATM   22  C   UNL     1      -6.117  10.763  65.560  1.00  0.00    -0.062 A  
ENDBRANCH   9  16
BRANCH   8  23
HETATM   23  C   UNL     1      -9.846   9.576  67.307  1.00  0.00    -0.228 C  
HETATM   24  C   UNL     1      -9.834   8.885  68.464  1.00  0.00    -0.182 C  
BRANCH  24  25
HETATM   25  C   UNL     1     -10.384   7.488  68.672  1.00  0.00    -0.200 C  
HETATM   26  H   UNL     1      -9.670   5.654  68.764  1.00  0.00     0.000 HD 
HETATM   27  O   UNL     1      -9.325   6.530  68.634  1.00  0.00    -0.127 OA 
BRANCH  25  28
HETATM   28  C   UNL     1     -11.162   7.320  69.986  1.00  0.00    -0.234 C  
BRANCH  28  29
HETATM   29  C   UNL     1     -10.391   6.488  71.040  1.00  0.00    -0.206 C  
HETATM   30  O   UNL     1      -9.492   7.318  71.782  1.00  0.00    -0.150 OA 
HETATM   31  H   UNL     1      -9.018   6.807  72.429  1.00  0.00     0.000 HD 
BRANCH  29  32
HETATM   32  C   UNL     1     -11.319   5.850  72.074  1.00  0.00    -0.325 C  
HETATM   33  C   UNL     1     -10.678   4.679  72.764  1.00  0.00    -0.204 C  
HETATM   34  O   UNL     1      -9.484   4.586  73.003  1.00  0.00    -0.127 OA 
HETATM   35  O   UNL     1     -11.564   3.720  73.119  1.00  0.00    -0.047 OA 
ENDBRANCH  29  32
ENDBRANCH  28  29
ENDBRANCH  25  28
ENDBRANCH  24  25
ENDBRANCH   8  23
TORSDOF 8
ENDMDL
MODEL      218
REMARK 921   NORMALIZED FREE ENERGY PREDICTED BY IDOCK:   -1.14 KCAL/MOL
REMARK 922        TOTAL FREE ENERGY PREDICTED BY IDOCK:   -3.22 KCAL/MOL
REMARK 923 INTER-LIGAND FREE ENERGY PREDICTED BY IDOCK:   -4.93 KCAL/MOL
REMARK 924 INTRA-LIGAND FREE ENERGY PREDICTED BY IDOCK:    1.71 KCAL/MOL
REMARK 927      BINDING AFFINITY PREDICTED BY RF-SCORE:    0.00 PKD
ROOT
HETATM    1  C   UNL     1      -9.795   3.816  68.340  1.00  0.00     0.024 C  
HETATM    2  C   UNL     1      -9.764   4.938  67.290  1.00  0.00    -0.194 C  
HETATM    3  C   UNL     1     -10.775   4.621  66.185  1.00  0.00    -0.060 C  
HETATM    4  C   UNL     1     -10.043   6.314  67.886  1.00  0.00    -0.145 A  
HETATM    5  N   UNL     1     -10.805   6.317  69.004  1.00  0.00    -0.302 NA 
HETATM    6  C   UNL     1     -11.102   7.507  69.522  1.00  0.00    -0.046 A  
HETATM    7  N   UNL     1     -10.769   8.689  69.011  1.00  0.00    -0.157 NA 
HETATM    8  C   UNL     1      -9.590   7.501  67.277  1.00  0.00    -0.198 A  
HETATM    9  C   UNL     1     -10.048   8.694  67.857  1.00  0.00    -0.203 A  
ENDROOT
BRANCH   6  10
HETATM   10  N   UNL     1     -11.635   7.499  70.823  1.00  0.00    -0.289 N  
HETATM   11  C   UNL     1     -12.882   6.741  70.987  1.00  0.00    -0.061 C  
BRANCH  10  12
HETATM   12  S   UNL     1     -11.499   8.950  71.651  1.00  0.00    -0.364 S  
HETATM   13  C   UNL     1     -12.119  10.182  70.517  1.00  0.00    -0.291 C  
HETATM   14  O   UNL     1     -12.428   8.900  72.766  1.00  0.00    -0.280 OA 
HETATM   15  O   UNL     1     -10.103   9.244  71.881  1.00  0.00    -0.250 OA 
ENDBRANCH  10  12
ENDBRANCH   6  10
BRANCH   9  16
HETATM   16  C   UNL     1      -9.833  10.072  67.318  1.00  0.00    -0.225 A  
HETATM   17  F   UNL     1      -9.208  13.951  65.920  1.00  0.00    -0.189 F  
HETATM   18  C   UNL     1      -9.228  11.066  68.122  1.00  0.00    -0.165 A  
HETATM   19  C   UNL     1      -9.022  12.371  67.660  1.00  0.00    -0.183 A  
HETATM   20  C   UNL     1     -10.046  11.778  65.565  1.00  0.00    -0.285 A  
HETATM   21  C   UNL     1      -9.419  12.710  66.376  1.00  0.00    -0.231 A  
HETATM   22  C   UNL     1     -10.267  10.478  66.041  1.00  0.00    -0.310 A  
ENDBRANCH   9  16
BRANCH   8  23
HETATM   23  C   UNL     1      -8.686   7.418  66.114  1.00  0.00    -0.172 C  
HETATM   24  C   UNL     1      -9.033   7.768  64.859  1.00  0.00     0.439 C  
BRANCH  24  25
HETATM   25  C   UNL     1      -8.091   7.890  63.678  1.00  0.00    -0.074 C  
HETATM   26  H   UNL     1      -7.534   6.773  62.155  1.00  0.00     0.000 HD 
HETATM   27  O   UNL     1      -8.124   6.696  62.895  1.00  0.00    -0.106 OA 
BRANCH  25  28
HETATM   28  C   UNL     1      -8.397   9.090  62.769  1.00  0.00    -0.202 C  
BRANCH  28  29
HETATM   29  C   UNL     1      -7.280  10.162  62.790  1.00  0.00    -0.134 C  
HETATM   30  O   UNL     1      -7.809  11.438  63.166  1.00  0.00    -0.097 OA 
HETATM   31  H   UNL     1      -7.123  12.096  63.179  1.00  0.00     0.000 HD 
BRANCH  29  32
HETATM   32  C   UNL     1      -6.186   9.848  63.811  1.00  0.00    -0.125 C  
HETATM   33  C   UNL     1      -6.330  10.660  65.066  1.00  0.00     0.026 C  
HETATM   34  O   UNL     1      -7.397  11.021  65.538  1.00  0.00     0.033 OA 
HETATM   35  O   UNL     1      -5.146  10.953  65.650  1.00  0.00    -0.110 OA 
ENDBRANCH  29  32
ENDBRANCH  28  29
ENDBRANCH  25  28
ENDBRANCH  24  25
ENDBRANCH   8  23
TORSDOF 8
ENDMDL
MODEL      219
REMARK 921   NORMALIZED FREE ENERGY PREDICTED BY IDOCK:   -1.06 KCAL/MOL
REMARK 922        TOTAL FREE ENERGY PREDICTED BY IDOCK:   -3.10 KCAL/MOL
REMARK 923 INTER-LIGAND FREE ENERGY PREDICTED BY IDOCK:   -4.04 KCAL/MOL
REMARK 924 INTRA-LIGAND FREE ENERGY PREDICTED BY IDOCK:    0.94 KCAL/MOL
REMARK 927      BINDING AFFINITY PREDICTED BY RF-SCORE:    0.00 PKD
ROOT
HETATM    1  C   UNL     1     -11.557   6.707  70.093  1.00  0.00    -0.446 C  
HETATM    2  C   UNL     1     -11.315   8.203  69.838  1.00  0.00     0.062 C  
HETATM    3  C   UNL     1     -12.325   9.021  70.648  1.00  0.00     0.046 C  
HETATM    4  C   UNL     1      -9.891   8.638  70.171  1.00  0.00    -0.180 A  
HETATM    5  N   UNL     1      -9.267   7.900  71.119  1.00  0.00    -0.145 NA 
HETATM    6  C   UNL     1      -8.039   8.284  71.462  1.00  0.00    -0.130 A  
HETATM    7  N   UNL     1      -7.396   9.353  71.003  1.00  0.00    -0.291 NA 
HETATM    8  C   UNL     1      -9.293   9.766  69.577  1.00  0.00    -0.226 A  
HETATM    9  C   UNL     1      -8.038  10.129  70.090  1.00  0.00     0.035 A  
ENDROOT
BRANCH   6  10
HETATM   10  N   UNL     1      -7.293   7.361  72.217  1.00  0.00    -0.067 N  
HETATM   11  C   UNL     1      -5.927   7.114  71.738  1.00  0.00    -0.037 C  
BRANCH  10  12
HETATM   12  S   UNL     1      -8.164   6.044  72.782  1.00  0.00    -0.117 S  
HETATM   13  C   UNL     1      -8.919   6.612  74.297  1.00  0.00    -0.173 C  
HETATM   14  O   UNL     1      -9.242   5.803  71.840  1.00  0.00    -0.145 OA 
HETATM   15  O   UNL     1      -7.252   4.980  73.130  1.00  0.00    -0.082 OA 
ENDBRANCH  10  12
ENDBRANCH   6  10
BRANCH   9  16
HETATM   16  C   UNL     1      -7.267  11.360  69.735  1.00  0.00     0.192 A  
HETATM   17  F   UNL     1      -5.215  14.843  68.711  1.00  0.00    -0.082 F  
HETATM   18  C   UNL     1      -7.946  12.559  69.414  1.00  0.00     0.815 A  
HETATM   19  C   UNL     1      -7.262  13.729  69.063  1.00  0.00    -0.063 A  
HETATM   20  C   UNL     1      -5.171  12.563  69.301  1.00  0.00    -0.069 A  
HETATM   21  C   UNL     1      -5.877  13.724  69.027  1.00  0.00    -0.080 A  
HETATM   22  C   UNL     1      -5.862  11.390  69.632  1.00  0.00    -0.087 A  
ENDBRANCH   9  16
BRANCH   8  23
HETATM   23  C   UNL     1      -9.995  10.467  68.485  1.00  0.00    -0.179 C  
HETATM   24  C   UNL     1      -9.550  10.526  67.214  1.00  0.00    -0.188 C  
BRANCH  24  25
HETATM   25  C   UNL     1     -10.324  11.056  66.024  1.00  0.00    -0.254 C  
HETATM   26  H   UNL     1     -10.893  10.390  64.259  1.00  0.00     0.000 HD 
HETATM   27  O   UNL     1     -10.408  10.058  65.005  1.00  0.00    -0.193 OA 
BRANCH  25  28
HETATM   28  C   UNL     1     -11.742  11.531  66.373  1.00  0.00     0.119 C  
BRANCH  28  29
HETATM   29  C   UNL     1     -11.831  13.063  66.579  1.00  0.00    -0.403 C  
HETATM   30  O   UNL     1     -10.990  13.479  67.659  1.00  0.00    -0.255 OA 
HETATM   31  H   UNL     1     -11.045  14.419  67.786  1.00  0.00     0.000 HD 
BRANCH  29  32
HETATM   32  C   UNL     1     -11.356  13.846  65.355  1.00  0.00    -0.311 C  
HETATM   33  C   UNL     1     -10.194  14.744  65.673  1.00  0.00    -0.358 C  
HETATM   34  O   UNL     1      -9.332  14.493  66.500  1.00  0.00    -0.269 OA 
HETATM   35  O   UNL     1     -10.178  15.876  64.933  1.00  0.00    -0.472 OA 
ENDBRANCH  29  32
ENDBRANCH  28  29
ENDBRANCH  25  28
ENDBRANCH  24  25
ENDBRANCH   8  23
TORSDOF 8
ENDMDL
MODEL      220
REMARK 921   NORMALIZED FREE ENERGY PREDICTED BY IDOCK:   -0.91 KCAL/MOL
REMARK 922        TOTAL FREE ENERGY PREDICTED BY IDOCK:   -2.88 KCAL/MOL
REMARK 923 INTER-LIGAND FREE ENERGY PREDICTED BY IDOCK:   -2.95 KCAL/MOL
REMARK 924 INTRA-LIGAND FREE ENERGY PREDICTED BY IDOCK:    0.07 KCAL/MOL
REMARK 927      BINDING AFFINITY PREDICTED BY RF-SCORE:    0.00 PKD
ROOT
HETATM    1  C   UNL     1      -8.372  15.856  65.915  1.00  0.00     0.408 C  
HETATM    2  C   UNL     1      -8.714  14.514  66.581  1.00  0.00    -0.162 C  
HETATM    3  C   UNL     1      -7.415  13.776  66.921  1.00  0.00     0.544 C  
HETATM    4  C   UNL     1      -9.575  14.675  67.830  1.00  0.00    -0.213 A  
HETATM    5  N   UNL     1      -9.435  15.853  68.481  1.00  0.00    -0.203 NA 
HETATM    6  C   UNL     1     -10.143  16.005  69.599  1.00  0.00    -0.244 A  
HETATM    7  N   UNL     1     -10.924  15.088  70.162  1.00  0.00    -0.242 NA 
HETATM    8  C   UNL     1     -10.410  13.644  68.303  1.00  0.00    -0.251 A  
HETATM    9  C   UNL     1     -11.027  13.883  69.540  1.00  0.00    -0.063 A  
ENDROOT
BRANCH   6  10
HETATM   10  N   UNL     1     -10.222  17.314  70.106  1.00  0.00     0.517 N  
HETATM   11  C   UNL     1     -11.272  17.538  71.108  1.00  0.00     1.973 C  
BRANCH  10  12
HETATM   12  S   UNL     1      -9.961  18.525  68.976  1.00  0.00    -0.165 S  
HETATM   13  C   UNL     1     -10.780  17.953  67.497  1.00  0.00    -0.321 C  
HETATM   14  O   UNL     1     -10.685  19.700  69.429  1.00  0.00     0.390 OA 
HETATM   15  O   UNL     1      -8.550  18.610  68.680  1.00  0.00    -0.328 OA 
ENDBRANCH  10  12
ENDBRANCH   6  10
BRANCH   9  16
HETATM   16  C   UNL     1     -11.836  12.898  70.322  1.00  0.00    -0.291 A  
HETATM   17  F   UNL     1     -14.121  10.236  72.577  1.00  0.00    -0.205 F  
HETATM   18  C   UNL     1     -12.714  13.343  71.338  1.00  0.00    -0.411 A  
HETATM   19  C   UNL     1     -13.478  12.453  72.103  1.00  0.00    -0.481 A  
HETATM   20  C   UNL     1     -12.507  10.609  70.902  1.00  0.00    -0.495 A  
HETATM   21  C   UNL     1     -13.379  11.092  71.864  1.00  0.00    -0.304 A  
HETATM   22  C   UNL     1     -11.730  11.503  70.154  1.00  0.00    -0.395 A  
ENDBRANCH   9  16
BRANCH   8  23
HETATM   23  C   UNL     1     -10.584  12.424  67.492  1.00  0.00    -0.240 C  
HETATM   24  C   UNL     1      -9.800  11.332  67.588  1.00  0.00    -0.190 C  
BRANCH  24  25
HETATM   25  C   UNL     1     -10.056   9.992  66.928  1.00  0.00    -0.229 C  
HETATM   26  H   UNL     1     -10.665   9.342  65.171  1.00  0.00     0.000 HD 
HETATM   27  O   UNL     1     -10.504  10.181  65.585  1.00  0.00    -0.182 OA 
BRANCH  25  28
HETATM   28  C   UNL     1      -8.831   9.066  66.918  1.00  0.00    -0.129 C  
BRANCH  28  29
HETATM   29  C   UNL     1      -8.612   8.342  68.269  1.00  0.00    -0.133 C  
HETATM   30  O   UNL     1      -7.888   9.175  69.180  1.00  0.00    -0.089 OA 
HETATM   31  H   UNL     1      -7.753   8.730  70.009  1.00  0.00     0.000 HD 
BRANCH  29  32
HETATM   32  C   UNL     1      -9.927   8.002  68.971  1.00  0.00    -0.186 C  
HETATM   33  C   UNL     1      -9.791   6.818  69.887  1.00  0.00    -0.164 C  
HETATM   34  O   UNL     1      -8.779   6.537  70.508  1.00  0.00    -0.141 OA 
HETATM   35  O   UNL     1     -10.923   6.082  69.976  1.00  0.00    -0.324 OA 
ENDBRANCH  29  32
ENDBRANCH  28  29
ENDBRANCH  25  28
ENDBRANCH  24  25
ENDBRANCH   8  23
TORSDOF 8
ENDMDL
MODEL      221
REMARK 921   NORMALIZED FREE ENERGY PREDICTED BY IDOCK:   -0.90 KCAL/MOL
REMARK 922        TOTAL FREE ENERGY PREDICTED BY IDOCK:   -2.86 KCAL/MOL
REMARK 923 INTER-LIGAND FREE ENERGY PREDICTED BY IDOCK:   -4.04 KCAL/MOL
REMARK 924 INTRA-LIGAND FREE ENERGY PREDICTED BY IDOCK:    1.18 KCAL/MOL
REMARK 927      BINDING AFFINITY PREDICTED BY RF-SCORE:    0.00 PKD
ROOT
HETATM    1  C   UNL     1     -10.906   7.300  70.927  1.00  0.00    -0.262 C  
HETATM    2  C   UNL     1     -10.467   8.044  69.656  1.00  0.00    -0.224 C  
HETATM    3  C   UNL     1     -11.196   7.448  68.448  1.00  0.00     0.275 C  
HETATM    4  C   UNL     1     -10.713   9.548  69.735  1.00  0.00    -0.239 A  
HETATM    5  N   UNL     1     -11.728   9.927  70.546  1.00  0.00    -0.286 NA 
HETATM    6  C   UNL     1     -11.994  11.230  70.602  1.00  0.00    -0.336 A  
HETATM    7  N   UNL     1     -11.396  12.182  69.893  1.00  0.00    -0.112 NA 
HETATM    8  C   UNL     1      -9.975  10.470  68.969  1.00  0.00    -0.223 A  
HETATM    9  C   UNL     1     -10.411  11.802  69.035  1.00  0.00    -0.059 A  
ENDROOT
BRANCH   6  10
HETATM   10  N   UNL     1     -12.837  11.644  71.648  1.00  0.00    -0.383 N  
HETATM   11  C   UNL     1     -13.999  10.781  71.899  1.00  0.00     0.513 C  
BRANCH  10  12
HETATM   12  S   UNL     1     -13.069  13.301  71.754  1.00  0.00    -0.340 S  
HETATM   13  C   UNL     1     -11.663  14.013  70.915  1.00  0.00    -0.062 C  
HETATM   14  O   UNL     1     -14.241  13.625  70.960  1.00  0.00     0.421 OA 
HETATM   15  O   UNL     1     -12.994  13.708  73.138  1.00  0.00    -0.340 OA 
ENDBRANCH  10  12
ENDBRANCH   6  10
BRANCH   9  16
HETATM   16  C   UNL     1      -9.894  12.938  68.211  1.00  0.00    -0.228 A  
HETATM   17  F   UNL     1      -8.355  16.105  65.977  1.00  0.00    -0.339 F  
HETATM   18  C   UNL     1      -8.540  13.334  68.312  1.00  0.00    -0.169 A  
HETATM   19  C   UNL     1      -8.020  14.401  67.570  1.00  0.00    -0.208 A  
HETATM   20  C   UNL     1     -10.190  14.765  66.598  1.00  0.00    -0.271 A  
HETATM   21  C   UNL     1      -8.849  15.096  66.705  1.00  0.00    -0.271 A  
HETATM   22  C   UNL     1     -10.709  13.709  67.360  1.00  0.00    -0.272 A  
ENDBRANCH   9  16
BRANCH   8  23
HETATM   23  C   UNL     1      -8.822   9.996  68.178  1.00  0.00    -0.122 C  
HETATM   24  C   UNL     1      -7.552   9.976  68.629  1.00  0.00    -0.088 C  
BRANCH  24  25
HETATM   25  C   UNL     1      -6.373   9.320  67.938  1.00  0.00    -0.058 C  
HETATM   26  H   UNL     1      -4.453   9.060  68.294  1.00  0.00     0.000 HD 
HETATM   27  O   UNL     1      -5.192   9.471  68.727  1.00  0.00    -0.037 OA 
BRANCH  25  28
HETATM   28  C   UNL     1      -6.586   7.828  67.640  1.00  0.00    -0.063 C  
BRANCH  28  29
HETATM   29  C   UNL     1      -6.295   6.923  68.861  1.00  0.00    -0.028 C  
HETATM   30  O   UNL     1      -6.938   7.430  70.034  1.00  0.00    -0.057 OA 
HETATM   31  H   UNL     1      -6.759   6.875  70.784  1.00  0.00     0.000 HD 
BRANCH  29  32
HETATM   32  C   UNL     1      -6.827   5.501  68.676  1.00  0.00    -0.059 C  
HETATM   33  C   UNL     1      -6.363   4.885  67.387  1.00  0.00    -0.040 C  
HETATM   34  O   UNL     1      -5.285   5.112  66.861  1.00  0.00    -0.007 OA 
HETATM   35  O   UNL     1      -7.260   4.023  66.856  1.00  0.00    -0.066 OA 
ENDBRANCH  29  32
ENDBRANCH  28  29
ENDBRANCH  25  28
ENDBRANCH  24  25
ENDBRANCH   8  23
TORSDOF 8
ENDMDL
MODEL      222
REMARK 921   NORMALIZED FREE ENERGY PREDICTED BY IDOCK:   -0.15 KCAL/MOL
REMARK 922        TOTAL FREE ENERGY PREDICTED BY IDOCK:   -1.77 KCAL/MOL
REMARK 923 INTER-LIGAND FREE ENERGY PREDICTED BY IDOCK:   -1.73 KCAL/MOL
REMARK 924 INTRA-LIGAND FREE ENERGY PREDICTED BY IDOCK:   -0.04 KCAL/MOL
REMARK 927      BINDING AFFINITY PREDICTED BY RF-SCORE:    0.00 PKD
ROOT
HETATM    1  C   UNL     1     -11.261   5.534  66.278  1.00  0.00     0.315 C  
HETATM    2  C   UNL     1     -11.015   6.509  67.440  1.00  0.00    -0.458 C  
HETATM    3  C   UNL     1     -11.589   5.911  68.728  1.00  0.00     0.788 C  
HETATM    4  C   UNL     1      -9.540   6.850  67.625  1.00  0.00    -0.126 A  
HETATM    5  N   UNL     1      -8.669   5.901  67.210  1.00  0.00    -0.109 NA 
HETATM    6  C   UNL     1      -7.376   6.153  67.399  1.00  0.00    -0.077 A  
HETATM    7  N   UNL     1      -6.866   7.220  68.007  1.00  0.00    -0.068 NA 
HETATM    8  C   UNL     1      -9.118   8.044  68.241  1.00  0.00    -0.135 A  
HETATM    9  C   UNL     1      -7.738   8.153  68.474  1.00  0.00    -0.112 A  
ENDROOT
BRANCH   6  10
HETATM   10  N   UNL     1      -6.478   5.315  66.714  1.00  0.00    -0.040 N  
HETATM   11  C   UNL     1      -5.215   5.042  67.411  1.00  0.00    -0.008 C  
BRANCH  10  12
HETATM   12  S   UNL     1      -6.407   5.562  65.057  1.00  0.00    -0.039 S  
HETATM   13  C   UNL     1      -8.006   5.050  64.450  1.00  0.00    -0.104 C  
HETATM   14  O   UNL     1      -6.314   6.995  64.837  1.00  0.00    -0.036 OA 
HETATM   15  O   UNL     1      -5.425   4.673  64.480  1.00  0.00    -0.013 OA 
ENDBRANCH  10  12
ENDBRANCH   6  10
BRANCH   9  16
HETATM   16  C   UNL     1      -7.060   9.245  69.238  1.00  0.00    -0.057 A  
HETATM   17  F   UNL     1      -5.174  12.224  71.464  1.00  0.00    -0.139 F  
HETATM   18  C   UNL     1      -6.569   9.004  70.543  1.00  0.00    -0.054 A  
HETATM   19  C   UNL     1      -5.941  10.002  71.297  1.00  0.00     0.032 A  
HETATM   20  C   UNL     1      -6.286  11.560  69.496  1.00  0.00    -0.110 A  
HETATM   21  C   UNL     1      -5.790  11.269  70.757  1.00  0.00    -0.044 A  
HETATM   22  C   UNL     1      -6.931  10.562  68.754  1.00  0.00    -0.070 A  
ENDBRANCH   9  16
BRANCH   8  23
HETATM   23  C   UNL     1     -10.117   9.075  68.583  1.00  0.00    -0.207 C  
HETATM   24  C   UNL     1      -9.825  10.239  69.198  1.00  0.00    -0.228 C  
BRANCH  24  25
HETATM   25  C   UNL     1     -10.773  11.406  69.390  1.00  0.00    -0.104 C  
HETATM   26  H   UNL     1     -12.308  12.189  68.437  1.00  0.00     0.000 HD 
HETATM   27  O   UNL     1     -11.714  11.458  68.317  1.00  0.00    -0.408 OA 
BRANCH  25  28
HETATM   28  C   UNL     1     -11.536  11.366  70.722  1.00  0.00     0.130 C  
BRANCH  28  29
HETATM   29  C   UNL     1     -12.995  11.869  70.596  1.00  0.00     0.158 C  
HETATM   30  O   UNL     1     -13.825  11.277  71.601  1.00  0.00     0.244 OA 
HETATM   31  H   UNL     1     -14.720  11.586  71.523  1.00  0.00     0.000 HD 
BRANCH  29  32
HETATM   32  C   UNL     1     -13.113  13.381  70.795  1.00  0.00    -0.034 C  
HETATM   33  C   UNL     1     -13.252  13.752  72.244  1.00  0.00    -0.467 C  
HETATM   34  O   UNL     1     -12.738  13.141  73.167  1.00  0.00     0.300 OA 
HETATM   35  O   UNL     1     -14.005  14.859  72.439  1.00  0.00    -0.449 OA 
ENDBRANCH  29  32
ENDBRANCH  28  29
ENDBRANCH  25  28
ENDBRANCH  24  25
ENDBRANCH   8  23
TORSDOF 8
ENDMDL
MODEL      223
REMARK 921   NORMALIZED FREE ENERGY PREDICTED BY IDOCK:   -0.12 KCAL/MOL
REMARK 922        TOTAL FREE ENERGY PREDICTED BY IDOCK:   -1.72 KCAL/MOL
REMARK 923 INTER-LIGAND FREE ENERGY PREDICTED BY IDOCK:   -4.03 KCAL/MOL
REMARK 924 INTRA-LIGAND FREE ENERGY PREDICTED BY IDOCK:    2.30 KCAL/MOL
REMARK 927      BINDING AFFINITY PREDICTED BY RF-SCORE:    0.00 PKD
ROOT
HETATM    1  C   UNL     1     -11.377  10.652  65.601  1.00  0.00     0.656 C  
HETATM    2  C   UNL     1     -10.077  10.949  66.365  1.00  0.00    -0.280 C  
HETATM    3  C   UNL     1      -8.909  10.253  65.661  1.00  0.00    -0.186 C  
HETATM    4  C   UNL     1      -9.800  12.443  66.502  1.00  0.00    -0.235 A  
HETATM    5  N   UNL     1     -10.323  13.221  65.526  1.00  0.00    -0.286 NA 
HETATM    6  C   UNL     1     -10.060  14.524  65.596  1.00  0.00    -0.359 A  
HETATM    7  N   UNL     1      -9.286  15.120  66.498  1.00  0.00    -0.261 NA 
HETATM    8  C   UNL     1      -9.002  12.966  67.538  1.00  0.00    -0.193 A  
HETATM    9  C   UNL     1      -8.714  14.336  67.451  1.00  0.00    -0.209 A  
ENDROOT
BRANCH   6  10
HETATM   10  N   UNL     1     -10.833  15.355  64.765  1.00  0.00    -0.411 N  
HETATM   11  C   UNL     1     -10.690  16.796  65.008  1.00  0.00    -0.100 C  
BRANCH  10  12
HETATM   12  S   UNL     1     -12.369  14.778  64.423  1.00  0.00    -0.189 S  
HETATM   13  C   UNL     1     -12.910  13.997  65.934  1.00  0.00    -0.311 C  
HETATM   14  O   UNL     1     -13.227  15.931  64.215  1.00  0.00     0.172 OA 
HETATM   15  O   UNL     1     -12.282  13.746  63.415  1.00  0.00    -0.634 OA 
ENDBRANCH  10  12
ENDBRANCH   6  10
BRANCH   9  16
HETATM   16  C   UNL     1      -7.777  15.095  68.336  1.00  0.00    -0.118 A  
HETATM   17  F   UNL     1      -5.233  17.305  70.791  1.00  0.00    -0.214 F  
HETATM   18  C   UNL     1      -8.143  16.366  68.839  1.00  0.00    -0.236 A  
HETATM   19  C   UNL     1      -7.290  17.115  69.658  1.00  0.00     0.372 A  
HETATM   20  C   UNL     1      -5.632  15.379  69.496  1.00  0.00    -0.103 A  
HETATM   21  C   UNL     1      -6.047  16.604  69.993  1.00  0.00    -0.148 A  
HETATM   22  C   UNL     1      -6.483  14.643  68.660  1.00  0.00    -0.085 A  
ENDBRANCH   9  16
BRANCH   8  23
HETATM   23  C   UNL     1      -8.543  12.073  68.620  1.00  0.00    -0.011 C  
HETATM   24  C   UNL     1      -8.153  10.796  68.433  1.00  0.00    -0.127 C  
BRANCH  24  25
HETATM   25  C   UNL     1      -7.490   9.908  69.467  1.00  0.00    -0.112 C  
HETATM   26  H   UNL     1      -6.471  10.148  71.135  1.00  0.00     0.000 HD 
HETATM   27  O   UNL     1      -6.887  10.704  70.487  1.00  0.00    -0.309 OA 
BRANCH  25  28
HETATM   28  C   UNL     1      -8.449   8.902  70.121  1.00  0.00    -0.150 C  
BRANCH  28  29
HETATM   29  C   UNL     1      -9.632   9.584  70.849  1.00  0.00    -0.146 C  
HETATM   30  O   UNL     1      -9.655  10.989  70.575  1.00  0.00     0.999 OA 
HETATM   31  H   UNL     1     -10.382  11.407  71.023  1.00  0.00     0.000 HD 
BRANCH  29  32
HETATM   32  C   UNL     1     -10.989   9.048  70.392  1.00  0.00    -0.283 C  
HETATM   33  C   UNL     1     -12.016   9.095  71.488  1.00  0.00    -0.352 C  
HETATM   34  O   UNL     1     -12.057   9.948  72.361  1.00  0.00     0.130 OA 
HETATM   35  O   UNL     1     -12.921   8.093  71.412  1.00  0.00    -0.306 OA 
ENDBRANCH  29  32
ENDBRANCH  28  29
ENDBRANCH  25  28
ENDBRANCH  24  25
ENDBRANCH   8  23
TORSDOF 8
ENDMDL
MODEL      224
REMARK 921   NORMALIZED FREE ENERGY PREDICTED BY IDOCK:    0.53 KCAL/MOL
REMARK 922        TOTAL FREE ENERGY PREDICTED BY IDOCK:   -0.76 KCAL/MOL
REMARK 923 INTER-LIGAND FREE ENERGY PREDICTED BY IDOCK:   -4.02 KCAL/MOL
REMARK 924 INTRA-LIGAND FREE ENERGY PREDICTED BY IDOCK:    3.26 KCAL/MOL
REMARK 927      BINDING AFFINITY PREDICTED BY RF-SCORE:    0.00 PKD
ROOT
HETATM    1  C   UNL     1      -8.447   8.377  65.280  1.00  0.00    -0.189 C  
HETATM    2  C   UNL     1      -8.654   8.819  66.737  1.00  0.00    -0.122 C  
HETATM    3  C   UNL     1      -7.289   8.987  67.411  1.00  0.00    -0.084 C  
HETATM    4  C   UNL     1      -9.467  10.105  66.856  1.00  0.00    -0.169 A  
HETATM    5  N   UNL     1      -9.387  10.940  65.794  1.00  0.00    -0.195 NA 
HETATM    6  C   UNL     1     -10.051  12.090  65.888  1.00  0.00    -0.236 A  
HETATM    7  N   UNL     1     -10.734  12.516  66.947  1.00  0.00    -0.239 NA 
HETATM    8  C   UNL     1     -10.197  10.425  68.017  1.00  0.00    -0.199 A  
HETATM    9  C   UNL     1     -10.773  11.705  68.038  1.00  0.00    -0.208 A  
ENDROOT
BRANCH   6  10
HETATM   10  N   UNL     1     -10.207  12.812  64.692  1.00  0.00    -0.316 N  
HETATM   11  C   UNL     1     -11.140  13.945  64.757  1.00  0.00    -0.383 C  
BRANCH  10  12
HETATM   12  S   UNL     1     -10.223  11.877  63.300  1.00  0.00    -0.307 S  
HETATM   13  C   UNL     1      -9.687  10.259  63.832  1.00  0.00    -0.261 C  
HETATM   14  O   UNL     1     -11.608  11.746  62.885  1.00  0.00    -0.018 OA 
HETATM   15  O   UNL     1      -9.231  12.375  62.376  1.00  0.00     1.145 OA 
ENDBRANCH  10  12
ENDBRANCH   6  10
BRANCH   9  16
HETATM   16  C   UNL     1     -11.468  12.336  69.201  1.00  0.00    -0.352 A  
HETATM   17  F   UNL     1     -13.387  14.002  72.508  1.00  0.00    -0.448 F  
HETATM   18  C   UNL     1     -11.404  11.737  70.481  1.00  0.00     0.472 A  
HETATM   19  C   UNL     1     -12.052  12.288  71.593  1.00  0.00     0.796 A  
HETATM   20  C   UNL     1     -12.899  14.061  70.204  1.00  0.00    -0.079 A  
HETATM   21  C   UNL     1     -12.781  13.457  71.446  1.00  0.00    -0.322 A  
HETATM   22  C   UNL     1     -12.265  13.493  69.091  1.00  0.00    -0.236 A  
ENDBRANCH   9  16
BRANCH   8  23
HETATM   23  C   UNL     1     -10.316   9.427  69.097  1.00  0.00    -0.221 C  
HETATM   24  C   UNL     1     -10.591   8.122  68.895  1.00  0.00    -0.161 C  
BRANCH  24  25
HETATM   25  C   UNL     1     -10.527   7.028  69.941  1.00  0.00    -0.217 C  
HETATM   26  H   UNL     1     -11.678   6.343  71.386  1.00  0.00     0.000 HD 
HETATM   27  O   UNL     1     -11.718   7.029  70.730  1.00  0.00    -0.319 OA 
BRANCH  25  28
HETATM   28  C   UNL     1     -10.320   5.624  69.353  1.00  0.00    -0.343 C  
BRANCH  28  29
HETATM   29  C   UNL     1      -9.745   4.619  70.380  1.00  0.00    -0.222 C  
HETATM   30  O   UNL     1      -9.268   3.440  69.723  1.00  0.00    -0.119 OA 
HETATM   31  H   UNL     1      -8.916   2.823  70.354  1.00  0.00     0.000 HD 
BRANCH  29  32
HETATM   32  C   UNL     1      -8.548   5.183  71.145  1.00  0.00    -0.128 C  
HETATM   33  C   UNL     1      -8.659   4.947  72.625  1.00  0.00    -0.119 C  
HETATM   34  O   UNL     1      -9.192   3.973  73.132  1.00  0.00    -0.109 OA 
HETATM   35  O   UNL     1      -8.089   5.926  73.364  1.00  0.00    -0.111 OA 
ENDBRANCH  29  32
ENDBRANCH  28  29
ENDBRANCH  25  28
ENDBRANCH  24  25
ENDBRANCH   8  23
TORSDOF 8
ENDMDL
MODEL      225
REMARK 921   NORMALIZED FREE ENERGY PREDICTED BY IDOCK:    0.64 KCAL/MOL
REMARK 922        TOTAL FREE ENERGY PREDICTED BY IDOCK:   -0.61 KCAL/MOL
REMARK 923 INTER-LIGAND FREE ENERGY PREDICTED BY IDOCK:    0.64 KCAL/MOL
REMARK 924 INTRA-LIGAND FREE ENERGY PREDICTED BY IDOCK:   -1.25 KCAL/MOL
REMARK 927      BINDING AFFINITY PREDICTED BY RF-SCORE:    0.00 PKD
ROOT
HETATM    1  C   UNL     1     -11.522   6.076  69.073  1.00  0.00     0.077 C  
HETATM    2  C   UNL     1     -11.134   7.457  68.522  1.00  0.00     0.129 C  
HETATM    3  C   UNL     1     -12.396   8.314  68.380  1.00  0.00     4.932 C  
HETATM    4  C   UNL     1     -10.102   8.172  69.389  1.00  0.00    -0.194 A  
HETATM    5  N   UNL     1     -10.111   7.833  70.699  1.00  0.00    -0.191 NA 
HETATM    6  C   UNL     1      -9.250   8.473  71.487  1.00  0.00    -0.221 A  
HETATM    7  N   UNL     1      -8.428   9.450  71.119  1.00  0.00    -0.290 NA 
HETATM    8  C   UNL     1      -9.243   9.161  68.870  1.00  0.00    -0.139 A  
HETATM    9  C   UNL     1      -8.452   9.833  69.814  1.00  0.00    -0.193 A  
ENDROOT
BRANCH   6  10
HETATM   10  N   UNL     1      -9.059   7.922  72.767  1.00  0.00    -0.187 N  
HETATM   11  C   UNL     1      -8.376   8.793  73.732  1.00  0.00     0.442 C  
BRANCH  10  12
HETATM   12  S   UNL     1      -8.661   6.293  72.781  1.00  0.00    -0.121 S  
HETATM   13  C   UNL     1      -7.955   6.010  74.396  1.00  0.00    -0.105 C  
HETATM   14  O   UNL     1      -9.904   5.544  72.729  1.00  0.00    -0.162 OA 
HETATM   15  O   UNL     1      -7.622   6.044  71.809  1.00  0.00    -0.093 OA 
ENDBRANCH  10  12
ENDBRANCH   6  10
BRANCH   9  16
HETATM   16  C   UNL     1      -7.574  11.013  69.543  1.00  0.00    -0.001 A  
HETATM   17  F   UNL     1      -5.180  14.319  68.688  1.00  0.00    -0.077 F  
HETATM   18  C   UNL     1      -7.882  11.905  68.490  1.00  0.00    -0.136 A  
HETATM   19  C   UNL     1      -7.079  13.012  68.194  1.00  0.00    -0.107 A  
HETATM   20  C   UNL     1      -5.584  12.385  69.972  1.00  0.00    -0.125 A  
HETATM   21  C   UNL     1      -5.943  13.251  68.951  1.00  0.00    -0.079 A  
HETATM   22  C   UNL     1      -6.381  11.267  70.250  1.00  0.00    -0.073 A  
ENDBRANCH   9  16
BRANCH   8  23
HETATM   23  C   UNL     1      -9.223   9.413  67.416  1.00  0.00    -0.145 C  
HETATM   24  C   UNL     1      -8.362   8.829  66.559  1.00  0.00    -0.112 C  
BRANCH  24  25
HETATM   25  C   UNL     1      -8.428   8.900  65.046  1.00  0.00    -0.176 C  
HETATM   26  H   UNL     1      -8.302   7.641  63.536  1.00  0.00     0.000 HD 
HETATM   27  O   UNL     1      -8.261   7.597  64.484  1.00  0.00    -0.131 OA 
BRANCH  25  28
HETATM   28  C   UNL     1      -9.734   9.508  64.514  1.00  0.00     0.188 C  
BRANCH  28  29
HETATM   29  C   UNL     1      -9.695  11.054  64.447  1.00  0.00    -0.280 C  
HETATM   30  O   UNL     1      -9.159  11.494  63.195  1.00  0.00    -0.502 OA 
HETATM   31  H   UNL     1      -9.134  12.443  63.154  1.00  0.00     0.000 HD 
BRANCH  29  32
HETATM   32  C   UNL     1     -11.087  11.680  64.547  1.00  0.00    -0.365 C  
HETATM   33  C   UNL     1     -11.289  12.408  65.846  1.00  0.00    -0.356 C  
HETATM   34  O   UNL     1     -10.407  12.993  66.456  1.00  0.00    -0.265 OA 
HETATM   35  O   UNL     1     -12.568  12.372  66.283  1.00  0.00    -0.298 OA 
ENDBRANCH  29  32
ENDBRANCH  28  29
ENDBRANCH  25  28
ENDBRANCH  24  25
ENDBRANCH   8  23
TORSDOF 8
ENDMDL
MODEL      226
REMARK 921   NORMALIZED FREE ENERGY PREDICTED BY IDOCK:    0.75 KCAL/MOL
REMARK 922        TOTAL FREE ENERGY PREDICTED BY IDOCK:   -0.44 KCAL/MOL
REMARK 923 INTER-LIGAND FREE ENERGY PREDICTED BY IDOCK:   -5.36 KCAL/MOL
REMARK 924 INTRA-LIGAND FREE ENERGY PREDICTED BY IDOCK:    4.92 KCAL/MOL
REMARK 927      BINDING AFFINITY PREDICTED BY RF-SCORE:    0.00 PKD
ROOT
HETATM    1  C   UNL     1      -9.500  10.032  66.550  1.00  0.00    -0.222 C  
HETATM    2  C   UNL     1     -10.515  11.144  66.858  1.00  0.00    -0.289 C  
HETATM    3  C   UNL     1     -11.788  10.903  66.041  1.00  0.00     1.497 C  
HETATM    4  C   UNL     1     -10.849  11.245  68.344  1.00  0.00    -0.205 A  
HETATM    5  N   UNL     1     -10.718  10.096  69.046  1.00  0.00    -0.211 NA 
HETATM    6  C   UNL     1     -11.044  10.144  70.336  1.00  0.00    -0.324 A  
HETATM    7  N   UNL     1     -11.541  11.195  70.980  1.00  0.00     0.126 NA 
HETATM    8  C   UNL     1     -11.321  12.437  68.927  1.00  0.00    -0.342 A  
HETATM    9  C   UNL     1     -11.726  12.339  70.267  1.00  0.00    -0.137 A  
ENDROOT
BRANCH   6  10
HETATM   10  N   UNL     1     -10.635   9.048  71.117  1.00  0.00    -0.263 N  
HETATM   11  C   UNL     1      -9.456   8.327  70.620  1.00  0.00    -0.164 C  
BRANCH  10  12
HETATM   12  S   UNL     1     -11.884   8.135  71.762  1.00  0.00    -0.321 S  
HETATM   13  C   UNL     1     -11.377   7.789  73.439  1.00  0.00     0.341 C  
HETATM   14  O   UNL     1     -13.050   8.997  71.846  1.00  0.00    -0.344 OA 
HETATM   15  O   UNL     1     -11.963   6.871  71.068  1.00  0.00    -0.339 OA 
ENDBRANCH  10  12
ENDBRANCH   6  10
BRANCH   9  16
HETATM   16  C   UNL     1     -12.395  13.413  71.063  1.00  0.00    -0.401 A  
HETATM   17  F   UNL     1     -14.323  16.329  73.336  1.00  0.00    -0.463 F  
HETATM   18  C   UNL     1     -13.216  13.078  72.165  1.00  0.00    -0.558 A  
HETATM   19  C   UNL     1     -13.871  14.053  72.927  1.00  0.00    -0.087 A  
HETATM   20  C   UNL     1     -12.948  15.763  71.510  1.00  0.00    -0.495 A  
HETATM   21  C   UNL     1     -13.716  15.390  72.601  1.00  0.00    -0.542 A  
HETATM   22  C   UNL     1     -12.311  14.782  70.738  1.00  0.00    -0.397 A  
ENDBRANCH   9  16
BRANCH   8  23
HETATM   23  C   UNL     1     -11.351  13.674  68.123  1.00  0.00    -0.321 C  
HETATM   24  C   UNL     1     -11.997  14.799  68.488  1.00  0.00    -0.284 C  
BRANCH  24  25
HETATM   25  C   UNL     1     -11.893  16.147  67.802  1.00  0.00     0.383 C  
HETATM   26  H   UNL     1     -11.393  17.985  68.301  1.00  0.00     0.000 HD 
HETATM   27  O   UNL     1     -11.457  17.141  68.730  1.00  0.00     0.125 OA 
BRANCH  25  28
HETATM   28  C   UNL     1     -10.951  16.150  66.589  1.00  0.00    -0.055 C  
BRANCH  28  29
HETATM   29  C   UNL     1      -9.460  16.024  66.985  1.00  0.00    -0.218 C  
HETATM   30  O   UNL     1      -9.153  16.885  68.087  1.00  0.00    -0.219 OA 
HETATM   31  H   UNL     1      -8.237  16.808  68.329  1.00  0.00     0.000 HD 
BRANCH  29  32
HETATM   32  C   UNL     1      -9.092  14.613  67.444  1.00  0.00    -0.203 C  
HETATM   33  C   UNL     1      -8.533  14.598  68.838  1.00  0.00    -0.136 C  
HETATM   34  O   UNL     1      -8.869  15.366  69.726  1.00  0.00    -0.225 OA 
HETATM   35  O   UNL     1      -7.614  13.625  69.033  1.00  0.00    -0.064 OA 
ENDBRANCH  29  32
ENDBRANCH  28  29
ENDBRANCH  25  28
ENDBRANCH  24  25
ENDBRANCH   8  23
TORSDOF 8
ENDMDL
MODEL      227
REMARK 921   NORMALIZED FREE ENERGY PREDICTED BY IDOCK:    1.41 KCAL/MOL
REMARK 922        TOTAL FREE ENERGY PREDICTED BY IDOCK:    0.52 KCAL/MOL
REMARK 923 INTER-LIGAND FREE ENERGY PREDICTED BY IDOCK:    0.08 KCAL/MOL
REMARK 924 INTRA-LIGAND FREE ENERGY PREDICTED BY IDOCK:    0.44 KCAL/MOL
REMARK 927      BINDING AFFINITY PREDICTED BY RF-SCORE:    0.00 PKD
ROOT
HETATM    1  C   UNL     1      -9.303  10.820  63.710  1.00  0.00    -0.295 C  
HETATM    2  C   UNL     1      -8.150  10.630  64.707  1.00  0.00    -0.004 C  
HETATM    3  C   UNL     1      -6.818  10.865  63.987  1.00  0.00     0.597 C  
HETATM    4  C   UNL     1      -8.263  11.542  65.925  1.00  0.00     0.170 A  
HETATM    5  N   UNL     1      -8.929  12.703  65.719  1.00  0.00     0.281 NA 
HETATM    6  C   UNL     1      -9.006  13.538  66.752  1.00  0.00    -0.176 A  
HETATM    7  N   UNL     1      -8.442  13.365  67.943  1.00  0.00    -0.160 NA 
HETATM    8  C   UNL     1      -7.662  11.225  67.158  1.00  0.00    -0.147 A  
HETATM    9  C   UNL     1      -7.725  12.226  68.140  1.00  0.00    -0.138 A  
ENDROOT
BRANCH   6  10
HETATM   10  N   UNL     1      -9.932  14.589  66.628  1.00  0.00    -0.262 N  
HETATM   11  C   UNL     1     -10.931  14.425  65.564  1.00  0.00    -0.329 C  
BRANCH  10  12
HETATM   12  S   UNL     1      -9.295  16.123  66.859  1.00  0.00    -0.239 S  
HETATM   13  C   UNL     1     -10.046  16.705  68.370  1.00  0.00    -0.268 C  
HETATM   14  O   UNL     1      -7.877  15.965  67.130  1.00  0.00    -0.172 OA 
HETATM   15  O   UNL     1      -9.739  16.993  65.796  1.00  0.00    -0.522 OA 
ENDBRANCH  10  12
ENDBRANCH   6  10
BRANCH   9  16
HETATM   16  C   UNL     1      -7.044  12.195  69.470  1.00  0.00     0.191 A  
HETATM   17  F   UNL     1      -5.148  12.225  73.185  1.00  0.00     0.014 F  
HETATM   18  C   UNL     1      -6.971  13.365  70.261  1.00  0.00     0.837 A  
HETATM   19  C   UNL     1      -6.330  13.382  71.506  1.00  0.00     1.302 A  
HETATM   20  C   UNL     1      -5.764  11.060  71.231  1.00  0.00     0.168 A  
HETATM   21  C   UNL     1      -5.746  12.222  71.987  1.00  0.00     1.066 A  
HETATM   22  C   UNL     1      -6.390  11.055  69.978  1.00  0.00    -0.146 A  
ENDBRANCH   9  16
BRANCH   8  23
HETATM   23  C   UNL     1      -7.032   9.903  67.338  1.00  0.00    -0.083 C  
HETATM   24  C   UNL     1      -7.631   8.854  67.938  1.00  0.00    -0.093 C  
BRANCH  24  25
HETATM   25  C   UNL     1      -7.111   7.431  67.969  1.00  0.00    -0.081 C  
HETATM   26  H   UNL     1      -6.775   6.048  69.330  1.00  0.00     0.000 HD 
HETATM   27  O   UNL     1      -7.102   6.939  69.310  1.00  0.00    -0.078 OA 
BRANCH  25  28
HETATM   28  C   UNL     1      -7.912   6.462  67.088  1.00  0.00    -0.112 C  
BRANCH  28  29
HETATM   29  C   UNL     1      -9.410   6.839  66.986  1.00  0.00    -0.143 C  
HETATM   30  O   UNL     1     -10.212   5.674  66.765  1.00  0.00    -0.183 OA 
HETATM   31  H   UNL     1     -11.132   5.905  66.702  1.00  0.00     0.000 HD 
BRANCH  29  32
HETATM   32  C   UNL     1      -9.943   7.475  68.270  1.00  0.00    -0.193 C  
HETATM   33  C   UNL     1     -10.541   6.458  69.200  1.00  0.00    -0.255 C  
HETATM   34  O   UNL     1     -10.150   5.307  69.311  1.00  0.00    -0.194 OA 
HETATM   35  O   UNL     1     -11.567   6.947  69.935  1.00  0.00    -0.272 OA 
ENDBRANCH  29  32
ENDBRANCH  28  29
ENDBRANCH  25  28
ENDBRANCH  24  25
ENDBRANCH   8  23
TORSDOF 8
ENDMDL
MODEL      228
REMARK 921   NORMALIZED FREE ENERGY PREDICTED BY IDOCK:    1.51 KCAL/MOL
REMARK 922        TOTAL FREE ENERGY PREDICTED BY IDOCK:    0.67 KCAL/MOL
REMARK 923 INTER-LIGAND FREE ENERGY PREDICTED BY IDOCK:    0.21 KCAL/MOL
REMARK 924 INTRA-LIGAND FREE ENERGY PREDICTED BY IDOCK:    0.46 KCAL/MOL
REMARK 927      BINDING AFFINITY PREDICTED BY RF-SCORE:    0.00 PKD
ROOT
HETATM    1  C   UNL     1     -10.344  12.265  68.142  1.00  0.00    -0.221 C  
HETATM    2  C   UNL     1      -9.970  10.975  67.394  1.00  0.00    -0.209 C  
HETATM    3  C   UNL     1      -9.794  11.290  65.905  1.00  0.00    -0.272 C  
HETATM    4  C   UNL     1      -8.713  10.312  67.948  1.00  0.00    -0.122 A  
HETATM    5  N   UNL     1      -7.831  11.149  68.543  1.00  0.00    -0.128 NA 
HETATM    6  C   UNL     1      -6.704  10.605  68.997  1.00  0.00    -0.066 A  
HETATM    7  N   UNL     1      -6.342   9.332  68.869  1.00  0.00    -0.044 NA 
HETATM    8  C   UNL     1      -8.462   8.935  67.796  1.00  0.00    -0.125 A  
HETATM    9  C   UNL     1      -7.200   8.496  68.226  1.00  0.00    -0.086 A  
ENDROOT
BRANCH   6  10
HETATM   10  N   UNL     1      -5.936  11.406  69.859  1.00  0.00    -0.106 N  
HETATM   11  C   UNL     1      -5.627  10.810  71.165  1.00  0.00    -0.009 C  
BRANCH  10  12
HETATM   12  S   UNL     1      -6.313  13.040  69.827  1.00  0.00    -0.009 S  
HETATM   13  C   UNL     1      -5.530  13.659  68.347  1.00  0.00    -0.097 C  
HETATM   14  O   UNL     1      -7.746  13.148  69.621  1.00  0.00     0.617 OA 
HETATM   15  O   UNL     1      -5.688  13.699  70.951  1.00  0.00    -0.178 OA 
ENDBRANCH  10  12
ENDBRANCH   6  10
BRANCH   9  16
HETATM   16  C   UNL     1      -6.638   7.123  68.041  1.00  0.00    -0.049 A  
HETATM   17  F   UNL     1      -5.133   3.282  67.429  1.00  0.00    -0.006 F  
HETATM   18  C   UNL     1      -6.825   6.434  66.820  1.00  0.00    -0.066 A  
HETATM   19  C   UNL     1      -6.328   5.142  66.612  1.00  0.00    -0.040 A  
HETATM   20  C   UNL     1      -5.450   5.133  68.852  1.00  0.00    -0.004 A  
HETATM   21  C   UNL     1      -5.628   4.510  67.627  1.00  0.00    -0.017 A  
HETATM   22  C   UNL     1      -5.968   6.418  69.061  1.00  0.00    -0.021 A  
ENDBRANCH   9  16
BRANCH   8  23
HETATM   23  C   UNL     1      -9.509   8.067  67.222  1.00  0.00    -0.196 C  
HETATM   24  C   UNL     1      -9.751   6.804  67.625  1.00  0.00    -0.146 C  
BRANCH  24  25
HETATM   25  C   UNL     1     -10.932   5.949  67.211  1.00  0.00    -0.178 C  
HETATM   26  H   UNL     1     -12.888   5.983  67.438  1.00  0.00     0.000 HD 
HETATM   27  O   UNL     1     -12.148   6.519  67.697  1.00  0.00     1.528 OA 
BRANCH  25  28
HETATM   28  C   UNL     1     -11.046   5.750  65.692  1.00  0.00     1.351 C  
BRANCH  28  29
HETATM   29  C   UNL     1     -10.541   4.363  65.226  1.00  0.00    -0.152 C  
HETATM   30  O   UNL     1     -11.586   3.636  64.572  1.00  0.00    -0.355 OA 
HETATM   31  H   UNL     1     -11.277   2.785  64.286  1.00  0.00     0.000 HD 
BRANCH  29  32
HETATM   32  C   UNL     1      -9.404   4.465  64.209  1.00  0.00    -0.126 C  
HETATM   33  C   UNL     1      -8.671   3.164  64.046  1.00  0.00    -0.089 C  
HETATM   34  O   UNL     1      -9.187   2.062  64.145  1.00  0.00    -0.107 OA 
HETATM   35  O   UNL     1      -7.359   3.324  63.758  1.00  0.00    -0.055 OA 
ENDBRANCH  29  32
ENDBRANCH  28  29
ENDBRANCH  25  28
ENDBRANCH  24  25
ENDBRANCH   8  23
TORSDOF 8
ENDMDL
MODEL      229
REMARK 921   NORMALIZED FREE ENERGY PREDICTED BY IDOCK:    2.07 KCAL/MOL
REMARK 922        TOTAL FREE ENERGY PREDICTED BY IDOCK:    1.49 KCAL/MOL
REMARK 923 INTER-LIGAND FREE ENERGY PREDICTED BY IDOCK:    1.29 KCAL/MOL
REMARK 924 INTRA-LIGAND FREE ENERGY PREDICTED BY IDOCK:    0.21 KCAL/MOL
REMARK 927      BINDING AFFINITY PREDICTED BY RF-SCORE:    0.00 PKD
ROOT
HETATM    1  C   UNL     1      -8.726   7.182  71.494  1.00  0.00    -0.119 C  
HETATM    2  C   UNL     1      -8.502   8.155  70.326  1.00  0.00    -0.126 C  
HETATM    3  C   UNL     1      -8.195   7.355  69.057  1.00  0.00    -0.128 C  
HETATM    4  C   UNL     1      -9.689   9.085  70.094  1.00  0.00    -0.188 A  
HETATM    5  N   UNL     1     -10.891   8.596  70.478  1.00  0.00    -0.224 NA 
HETATM    6  C   UNL     1     -11.951   9.368  70.247  1.00  0.00     0.057 A  
HETATM    7  N   UNL     1     -11.944  10.543  69.625  1.00  0.00    -0.242 NA 
HETATM    8  C   UNL     1      -9.548  10.338  69.466  1.00  0.00    -0.225 A  
HETATM    9  C   UNL     1     -10.745  11.015  69.188  1.00  0.00    -0.234 A  
ENDROOT
BRANCH   6  10
HETATM   10  N   UNL     1     -13.139   8.996  70.901  1.00  0.00     0.008 N  
HETATM   11  C   UNL     1     -14.332   9.764  70.522  1.00  0.00     1.337 C  
BRANCH  10  12
HETATM   12  S   UNL     1     -12.959   8.597  72.519  1.00  0.00    -0.199 S  
HETATM   13  C   UNL     1     -12.169   6.996  72.509  1.00  0.00     0.077 C  
HETATM   14  O   UNL     1     -12.006   9.532  73.091  1.00  0.00     1.454 OA 
HETATM   15  O   UNL     1     -14.262   8.429  73.120  1.00  0.00    -0.072 OA 
ENDBRANCH  10  12
ENDBRANCH   6  10
BRANCH   9  16
HETATM   16  C   UNL     1     -10.876  12.282  68.404  1.00  0.00    -0.257 A  
HETATM   17  F   UNL     1     -11.227  15.754  66.121  1.00  0.00    -0.273 F  
HETATM   18  C   UNL     1     -11.060  12.238  67.003  1.00  0.00    -0.339 A  
HETATM   19  C   UNL     1     -11.172  13.400  66.231  1.00  0.00    -0.322 A  
HETATM   20  C   UNL     1     -10.888  14.730  68.215  1.00  0.00    -0.251 A  
HETATM   21  C   UNL     1     -11.102  14.638  66.849  1.00  0.00    -0.333 A  
HETATM   22  C   UNL     1     -10.756  13.563  68.980  1.00  0.00    -0.180 A  
ENDBRANCH   9  16
BRANCH   8  23
HETATM   23  C   UNL     1      -8.197  10.846  69.159  1.00  0.00    -0.090 C  
HETATM   24  C   UNL     1      -7.646  11.930  69.741  1.00  0.00     0.917 C  
BRANCH  24  25
HETATM   25  C   UNL     1      -6.202  12.373  69.609  1.00  0.00    -0.130 C  
HETATM   26  H   UNL     1      -4.895  13.372  70.691  1.00  0.00     0.000 HD 
HETATM   27  O   UNL     1      -5.799  13.094  70.774  1.00  0.00    -0.183 OA 
BRANCH  25  28
HETATM   28  C   UNL     1      -5.222  11.214  69.377  1.00  0.00    -0.044 C  
BRANCH  28  29
HETATM   29  C   UNL     1      -5.196  10.731  67.907  1.00  0.00    -0.036 C  
HETATM   30  O   UNL     1      -5.225   9.301  67.842  1.00  0.00    -0.034 OA 
HETATM   31  H   UNL     1      -5.209   9.004  66.939  1.00  0.00     0.000 HD 
BRANCH  29  32
HETATM   32  C   UNL     1      -6.412  11.208  67.112  1.00  0.00    -0.090 C  
HETATM   33  C   UNL     1      -6.286  10.904  65.646  1.00  0.00     0.001 C  
HETATM   34  O   UNL     1      -5.713   9.927  65.189  1.00  0.00    -0.067 OA 
HETATM   35  O   UNL     1      -6.891  11.821  64.858  1.00  0.00     1.825 OA 
ENDBRANCH  29  32
ENDBRANCH  28  29
ENDBRANCH  25  28
ENDBRANCH  24  25
ENDBRANCH   8  23
TORSDOF 8
ENDMDL
MODEL      230
REMARK 921   NORMALIZED FREE ENERGY PREDICTED BY IDOCK:    2.13 KCAL/MOL
REMARK 922        TOTAL FREE ENERGY PREDICTED BY IDOCK:    1.58 KCAL/MOL
REMARK 923 INTER-LIGAND FREE ENERGY PREDICTED BY IDOCK:    1.46 KCAL/MOL
REMARK 924 INTRA-LIGAND FREE ENERGY PREDICTED BY IDOCK:    0.12 KCAL/MOL
REMARK 927      BINDING AFFINITY PREDICTED BY RF-SCORE:    0.00 PKD
ROOT
HETATM    1  C   UNL     1     -11.776   5.704  66.332  1.00  0.00     1.605 C  
HETATM    2  C   UNL     1     -11.486   6.679  67.483  1.00  0.00     0.166 C  
HETATM    3  C   UNL     1     -12.482   6.428  68.619  1.00  0.00     4.432 C  
HETATM    4  C   UNL     1     -10.054   6.575  68.000  1.00  0.00    -0.150 A  
HETATM    5  N   UNL     1      -9.466   5.366  67.838  1.00  0.00    -0.117 NA 
HETATM    6  C   UNL     1      -8.232   5.233  68.319  1.00  0.00    -0.094 A  
HETATM    7  N   UNL     1      -7.550   6.155  68.992  1.00  0.00    -0.090 NA 
HETATM    8  C   UNL     1      -9.414   7.644  68.656  1.00  0.00    -0.151 A  
HETATM    9  C   UNL     1      -8.155   7.354  69.206  1.00  0.00    -0.123 A  
ENDROOT
BRANCH   6  10
HETATM   10  N   UNL     1      -7.526   4.093  67.897  1.00  0.00    -0.068 N  
HETATM   11  C   UNL     1      -7.292   3.078  68.933  1.00  0.00    -0.048 C  
BRANCH  10  12
HETATM   12  S   UNL     1      -6.280   4.395  66.817  1.00  0.00    -0.033 S  
HETATM   13  C   UNL     1      -7.025   5.373  65.522  1.00  0.00    -0.065 C  
HETATM   14  O   UNL     1      -5.321   5.252  67.491  1.00  0.00    -0.010 OA 
HETATM   15  O   UNL     1      -5.849   3.151  66.221  1.00  0.00    -0.021 OA 
ENDBRANCH  10  12
ENDBRANCH   6  10
BRANCH   9  16
HETATM   16  C   UNL     1      -7.343   8.265  70.069  1.00  0.00    -0.063 A  
HETATM   17  F   UNL     1      -5.145  10.781  72.565  1.00  0.00    -0.066 F  
HETATM   18  C   UNL     1      -7.521   8.265  71.472  1.00  0.00    -0.097 A  
HETATM   19  C   UNL     1      -6.791   9.112  72.314  1.00  0.00     0.271 A  
HETATM   20  C   UNL     1      -5.677  10.039  70.393  1.00  0.00    -0.064 A  
HETATM   21  C   UNL     1      -5.861   9.981  71.765  1.00  0.00     0.209 A  
HETATM   22  C   UNL     1      -6.426   9.203  69.554  1.00  0.00    -0.043 A  
ENDBRANCH   9  16
BRANCH   8  23
HETATM   23  C   UNL     1     -10.079   8.960  68.714  1.00  0.00    -0.215 C  
HETATM   24  C   UNL     1     -10.497   9.646  67.631  1.00  0.00    -0.317 C  
BRANCH  24  25
HETATM   25  C   UNL     1     -11.356  10.894  67.646  1.00  0.00    -0.270 C  
HETATM   26  H   UNL     1     -11.782  12.337  68.918  1.00  0.00     0.000 HD 
HETATM   27  O   UNL     1     -11.244  11.554  68.908  1.00  0.00    -0.206 OA 
BRANCH  25  28
HETATM   28  C   UNL     1     -11.011  11.892  66.530  1.00  0.00    -0.337 C  
BRANCH  28  29
HETATM   29  C   UNL     1     -11.018  13.363  67.013  1.00  0.00    -0.287 C  
HETATM   30  O   UNL     1      -9.800  14.021  66.652  1.00  0.00    -0.266 OA 
HETATM   31  H   UNL     1      -9.804  14.924  66.949  1.00  0.00     0.000 HD 
BRANCH  29  32
HETATM   32  C   UNL     1     -12.140  14.183  66.376  1.00  0.00    -0.475 C  
HETATM   33  C   UNL     1     -12.368  13.812  64.938  1.00  0.00    -0.405 C  
HETATM   34  O   UNL     1     -12.216  12.690  64.481  1.00  0.00    -0.395 OA 
HETATM   35  O   UNL     1     -12.780  14.852  64.179  1.00  0.00    -0.750 OA 
ENDBRANCH  29  32
ENDBRANCH  28  29
ENDBRANCH  25  28
ENDBRANCH  24  25
ENDBRANCH   8  23
TORSDOF 8
ENDMDL
MODEL      231
REMARK 921   NORMALIZED FREE ENERGY PREDICTED BY IDOCK:    2.43 KCAL/MOL
REMARK 922        TOTAL FREE ENERGY PREDICTED BY IDOCK:    2.02 KCAL/MOL
REMARK 923 INTER-LIGAND FREE ENERGY PREDICTED BY IDOCK:    2.07 KCAL/MOL
REMARK 924 INTRA-LIGAND FREE ENERGY PREDICTED BY IDOCK:   -0.05 KCAL/MOL
REMARK 927      BINDING AFFINITY PREDICTED BY RF-SCORE:    0.00 PKD
ROOT
HETATM    1  C   UNL     1     -13.379  14.883  69.100  1.00  0.00     2.121 C  
HETATM    2  C   UNL     1     -12.724  13.604  68.556  1.00  0.00     0.962 C  
HETATM    3  C   UNL     1     -13.268  13.319  67.153  1.00  0.00     3.356 C  
HETATM    4  C   UNL     1     -11.201  13.684  68.528  1.00  0.00    -0.280 A  
HETATM    5  N   UNL     1     -10.689  14.931  68.408  1.00  0.00    -0.239 NA 
HETATM    6  C   UNL     1      -9.363  15.028  68.337  1.00  0.00    -0.193 A  
HETATM    7  N   UNL     1      -8.503  14.014  68.315  1.00  0.00    -0.165 NA 
HETATM    8  C   UNL     1     -10.389  12.534  68.563  1.00  0.00    -0.233 A  
HETATM    9  C   UNL     1      -9.015  12.755  68.381  1.00  0.00    -0.120 A  
ENDROOT
BRANCH   6  10
HETATM   10  N   UNL     1      -8.828  16.318  68.506  1.00  0.00    -0.209 N  
HETATM   11  C   UNL     1      -9.801  17.361  68.856  1.00  0.00    -0.286 C  
BRANCH  10  12
HETATM   12  S   UNL     1      -7.614  16.726  67.425  1.00  0.00    -0.173 S  
HETATM   13  C   UNL     1      -6.779  18.112  68.179  1.00  0.00    -0.206 C  
HETATM   14  O   UNL     1      -6.667  15.625  67.404  1.00  0.00    -0.175 OA 
HETATM   15  O   UNL     1      -8.205  17.199  66.195  1.00  0.00    -0.395 OA 
ENDBRANCH  10  12
ENDBRANCH   6  10
BRANCH   9  16
HETATM   16  C   UNL     1      -7.967  11.699  68.232  1.00  0.00    -0.143 A  
HETATM   17  F   UNL     1      -5.128   8.671  67.823  1.00  0.00    -0.031 F  
HETATM   18  C   UNL     1      -8.339  10.354  68.000  1.00  0.00    -0.118 A  
HETATM   19  C   UNL     1      -7.391   9.333  67.869  1.00  0.00    -0.080 A  
HETATM   20  C   UNL     1      -5.633  10.937  68.226  1.00  0.00    -0.043 A  
HETATM   21  C   UNL     1      -6.043   9.639  67.966  1.00  0.00    -0.051 A  
HETATM   22  C   UNL     1      -6.589  11.951  68.377  1.00  0.00    -0.056 A  
ENDBRANCH   9  16
BRANCH   8  23
HETATM   23  C   UNL     1     -11.010  11.215  68.789  1.00  0.00    -0.268 C  
HETATM   24  C   UNL     1     -10.803  10.458  69.885  1.00  0.00    -0.353 C  
BRANCH  24  25
HETATM   25  C   UNL     1     -11.564   9.201  70.255  1.00  0.00    -0.086 C  
HETATM   26  H   UNL     1     -12.326   7.647  69.315  1.00  0.00     0.000 HD 
HETATM   27  O   UNL     1     -11.849   8.435  69.084  1.00  0.00     1.028 OA 
BRANCH  25  28
HETATM   28  C   UNL     1     -10.827   8.310  71.266  1.00  0.00    -0.285 C  
BRANCH  28  29
HETATM   29  C   UNL     1     -11.761   7.291  71.964  1.00  0.00    -0.292 C  
HETATM   30  O   UNL     1     -11.878   6.095  71.187  1.00  0.00    -0.244 OA 
HETATM   31  H   UNL     1     -12.452   5.470  71.615  1.00  0.00     0.000 HD 
BRANCH  29  32
HETATM   32  C   UNL     1     -11.231   6.851  73.329  1.00  0.00    -0.079 C  
HETATM   33  C   UNL     1     -10.320   5.661  73.226  1.00  0.00    -0.211 C  
HETATM   34  O   UNL     1      -9.581   5.434  72.281  1.00  0.00    -0.153 OA 
HETATM   35  O   UNL     1     -10.380   4.849  74.307  1.00  0.00    -0.229 OA 
ENDBRANCH  29  32
ENDBRANCH  28  29
ENDBRANCH  25  28
ENDBRANCH  24  25
ENDBRANCH   8  23
TORSDOF 8
ENDMDL
MODEL      232
REMARK 921   NORMALIZED FREE ENERGY PREDICTED BY IDOCK:    2.65 KCAL/MOL
REMARK 922        TOTAL FREE ENERGY PREDICTED BY IDOCK:    2.35 KCAL/MOL
REMARK 923 INTER-LIGAND FREE ENERGY PREDICTED BY IDOCK:    2.43 KCAL/MOL
REMARK 924 INTRA-LIGAND FREE ENERGY PREDICTED BY IDOCK:   -0.08 KCAL/MOL
REMARK 927      BINDING AFFINITY PREDICTED BY RF-SCORE:    0.00 PKD
ROOT
HETATM    1  C   UNL     1     -13.361  14.887  69.099  1.00  0.00     2.121 C  
HETATM    2  C   UNL     1     -12.719  13.591  68.578  1.00  0.00     0.982 C  
HETATM    3  C   UNL     1     -13.281  13.275  67.189  1.00  0.00     3.356 C  
HETATM    4  C   UNL     1     -11.196  13.663  68.531  1.00  0.00    -0.280 A  
HETATM    5  N   UNL     1     -10.679  14.904  68.374  1.00  0.00    -0.239 NA 
HETATM    6  C   UNL     1      -9.354  14.992  68.286  1.00  0.00    -0.192 A  
HETATM    7  N   UNL     1      -8.500  13.973  68.279  1.00  0.00    -0.165 NA 
HETATM    8  C   UNL     1     -10.389  12.510  68.584  1.00  0.00    -0.193 A  
HETATM    9  C   UNL     1      -9.016  12.719  68.382  1.00  0.00    -0.120 A  
ENDROOT
BRANCH   6  10
HETATM   10  N   UNL     1      -8.811  16.282  68.418  1.00  0.00    -0.195 N  
HETATM   11  C   UNL     1      -9.203  17.239  67.375  1.00  0.00    -0.231 C  
BRANCH  10  12
HETATM   12  S   UNL     1      -7.222  16.329  68.950  1.00  0.00    -0.202 S  
HETATM   13  C   UNL     1      -6.242  16.038  67.487  1.00  0.00    -0.165 C  
HETATM   14  O   UNL     1      -6.949  17.691  69.374  1.00  0.00    -0.209 OA 
HETATM   15  O   UNL     1      -6.985  15.225  69.852  1.00  0.00    -0.180 OA 
ENDBRANCH  10  12
ENDBRANCH   6  10
BRANCH   9  16
HETATM   16  C   UNL     1      -7.976  11.654  68.246  1.00  0.00    -0.143 A  
HETATM   17  F   UNL     1      -5.141   8.629  67.789  1.00  0.00    -0.031 F  
HETATM   18  C   UNL     1      -8.049  10.716  67.189  1.00  0.00    -0.121 A  
HETATM   19  C   UNL     1      -7.104   9.695  67.035  1.00  0.00    -0.086 A  
HETATM   20  C   UNL     1      -5.968  10.466  69.010  1.00  0.00    -0.040 A  
HETATM   21  C   UNL     1      -6.060   9.591  67.940  1.00  0.00    -0.052 A  
HETATM   22  C   UNL     1      -6.928  11.474  69.171  1.00  0.00    -0.113 A  
ENDBRANCH   9  16
BRANCH   8  23
HETATM   23  C   UNL     1     -11.015  11.200  68.849  1.00  0.00    -0.276 C  
HETATM   24  C   UNL     1     -10.783  10.459  69.952  1.00  0.00    -0.331 C  
BRANCH  24  25
HETATM   25  C   UNL     1     -11.543   9.215  70.363  1.00  0.00    -0.146 C  
HETATM   26  H   UNL     1     -13.391   8.753  70.869  1.00  0.00     0.000 HD 
HETATM   27  O   UNL     1     -12.914   9.533  70.610  1.00  0.00    -0.086 OA 
BRANCH  25  28
HETATM   28  C   UNL     1     -11.474   8.080  69.330  1.00  0.00     0.497 C  
BRANCH  28  29
HETATM   29  C   UNL     1     -11.182   6.701  69.969  1.00  0.00    -0.369 C  
HETATM   30  O   UNL     1     -12.225   6.331  70.876  1.00  0.00    -0.129 OA 
HETATM   31  H   UNL     1     -12.046   5.484  71.269  1.00  0.00     0.000 HD 
BRANCH  29  32
HETATM   32  C   UNL     1     -11.114   5.578  68.933  1.00  0.00     0.208 C  
HETATM   33  C   UNL     1     -10.672   6.076  67.586  1.00  0.00    -0.296 C  
HETATM   34  O   UNL     1      -9.890   6.997  67.411  1.00  0.00    -0.139 OA 
HETATM   35  O   UNL     1     -11.219   5.387  66.559  1.00  0.00    -0.006 OA 
ENDBRANCH  29  32
ENDBRANCH  28  29
ENDBRANCH  25  28
ENDBRANCH  24  25
ENDBRANCH   8  23
TORSDOF 8
ENDMDL
MODEL      233
REMARK 921   NORMALIZED FREE ENERGY PREDICTED BY IDOCK:    3.08 KCAL/MOL
REMARK 922        TOTAL FREE ENERGY PREDICTED BY IDOCK:    2.98 KCAL/MOL
REMARK 923 INTER-LIGAND FREE ENERGY PREDICTED BY IDOCK:    3.51 KCAL/MOL
REMARK 924 INTRA-LIGAND FREE ENERGY PREDICTED BY IDOCK:   -0.54 KCAL/MOL
REMARK 927      BINDING AFFINITY PREDICTED BY RF-SCORE:    0.00 PKD
ROOT
HETATM    1  C   UNL     1      -8.544  11.569  64.972  1.00  0.00     0.444 C  
HETATM    2  C   UNL     1      -7.532  11.402  66.117  1.00  0.00     0.120 C  
HETATM    3  C   UNL     1      -6.119  11.323  65.531  1.00  0.00     0.430 C  
HETATM    4  C   UNL     1      -7.617  12.522  67.150  1.00  0.00    -0.085 A  
HETATM    5  N   UNL     1      -8.074  13.707  66.683  1.00  0.00     0.322 NA 
HETATM    6  C   UNL     1      -8.117  14.715  67.552  1.00  0.00    -0.184 A  
HETATM    7  N   UNL     1      -7.700  14.679  68.814  1.00  0.00    -0.131 NA 
HETATM    8  C   UNL     1      -7.190  12.348  68.481  1.00  0.00    -0.103 A  
HETATM    9  C   UNL     1      -7.190  13.506  69.274  1.00  0.00     0.095 A  
ENDROOT
BRANCH   6  10
HETATM   10  N   UNL     1      -8.854  15.843  67.151  1.00  0.00    -0.197 N  
HETATM   11  C   UNL     1      -9.856  15.602  66.105  1.00  0.00    -0.314 C  
BRANCH  10  12
HETATM   12  S   UNL     1      -7.973  17.267  67.062  1.00  0.00    -0.230 S  
HETATM   13  C   UNL     1      -8.757  18.362  68.234  1.00  0.00    -0.302 C  
HETATM   14  O   UNL     1      -6.644  16.985  67.575  1.00  0.00    -0.132 OA 
HETATM   15  O   UNL     1      -8.137  17.852  65.752  1.00  0.00    -0.537 OA 
ENDBRANCH  10  12
ENDBRANCH   6  10
BRANCH   9  16
HETATM   16  C   UNL     1      -6.649  13.618  70.664  1.00  0.00     0.460 A  
HETATM   17  F   UNL     1      -5.158  13.818  74.553  1.00  0.00    -0.228 F  
HETATM   18  C   UNL     1      -6.331  12.454  71.402  1.00  0.00     2.099 A  
HETATM   19  C   UNL     1      -5.837  12.515  72.710  1.00  0.00     1.907 A  
HETATM   20  C   UNL     1      -5.979  14.915  72.637  1.00  0.00     0.689 A  
HETATM   21  C   UNL     1      -5.649  13.750  73.310  1.00  0.00     0.066 A  
HETATM   22  C   UNL     1      -6.492  14.847  71.335  1.00  0.00     0.697 A  
ENDBRANCH   9  16
BRANCH   8  23
HETATM   23  C   UNL     1      -6.792  11.005  68.944  1.00  0.00    -0.079 C  
HETATM   24  C   UNL     1      -7.589   9.919  68.894  1.00  0.00    -0.083 C  
BRANCH  24  25
HETATM   25  C   UNL     1      -7.165   8.491  69.168  1.00  0.00    -0.068 C  
HETATM   26  H   UNL     1      -5.717   7.577  70.142  1.00  0.00     0.000 HD 
HETATM   27  O   UNL     1      -5.983   8.472  69.970  1.00  0.00    -0.028 OA 
BRANCH  25  28
HETATM   28  C   UNL     1      -8.248   7.648  69.857  1.00  0.00    -0.130 C  
BRANCH  28  29
HETATM   29  C   UNL     1      -8.486   8.059  71.330  1.00  0.00    -0.121 C  
HETATM   30  O   UNL     1      -9.662   8.867  71.448  1.00  0.00    -0.249 OA 
HETATM   31  H   UNL     1      -9.807   9.120  72.352  1.00  0.00     0.000 HD 
BRANCH  29  32
HETATM   32  C   UNL     1      -8.713   6.856  72.246  1.00  0.00    -0.132 C  
HETATM   33  C   UNL     1      -8.361   7.157  73.675  1.00  0.00    -0.134 C  
HETATM   34  O   UNL     1      -8.491   8.249  74.205  1.00  0.00    -0.250 OA 
HETATM   35  O   UNL     1      -7.888   6.080  74.344  1.00  0.00    -0.100 OA 
ENDBRANCH  29  32
ENDBRANCH  28  29
ENDBRANCH  25  28
ENDBRANCH  24  25
ENDBRANCH   8  23
TORSDOF 8
ENDMDL
MODEL      234
REMARK 921   NORMALIZED FREE ENERGY PREDICTED BY IDOCK:    3.50 KCAL/MOL
REMARK 922        TOTAL FREE ENERGY PREDICTED BY IDOCK:    3.60 KCAL/MOL
REMARK 923 INTER-LIGAND FREE ENERGY PREDICTED BY IDOCK:    3.82 KCAL/MOL
REMARK 924 INTRA-LIGAND FREE ENERGY PREDICTED BY IDOCK:   -0.22 KCAL/MOL
REMARK 927      BINDING AFFINITY PREDICTED BY RF-SCORE:    0.00 PKD
ROOT
HETATM    1  C   UNL     1      -8.501  11.711  64.856  1.00  0.00     0.776 C  
HETATM    2  C   UNL     1      -7.460  11.684  65.986  1.00  0.00     0.432 C  
HETATM    3  C   UNL     1      -6.055  11.691  65.375  1.00  0.00     1.578 C  
HETATM    4  C   UNL     1      -7.619  12.843  66.966  1.00  0.00     0.070 A  
HETATM    5  N   UNL     1      -8.179  13.962  66.452  1.00  0.00     0.617 NA 
HETATM    6  C   UNL     1      -8.290  15.005  67.273  1.00  0.00    -0.205 A  
HETATM    7  N   UNL     1      -7.851  15.065  68.526  1.00  0.00    -0.130 NA 
HETATM    8  C   UNL     1      -7.156  12.770  68.294  1.00  0.00    -0.104 A  
HETATM    9  C   UNL     1      -7.238  13.961  69.031  1.00  0.00    -0.078 A  
ENDROOT
BRANCH   6  10
HETATM   10  N   UNL     1      -9.124  16.049  66.835  1.00  0.00    -0.215 N  
HETATM   11  C   UNL     1      -9.902  15.766  65.621  1.00  0.00    -0.322 C  
BRANCH  10  12
HETATM   12  S   UNL     1      -8.474  17.586  66.994  1.00  0.00    -0.243 S  
HETATM   13  C   UNL     1      -6.861  17.480  66.238  1.00  0.00    -0.287 C  
HETATM   14  O   UNL     1      -9.268  18.478  66.168  1.00  0.00    -0.461 OA 
HETATM   15  O   UNL     1      -8.273  17.879  68.394  1.00  0.00    -0.283 OA 
ENDBRANCH  10  12
ENDBRANCH   6  10
BRANCH   9  16
HETATM   16  C   UNL     1      -6.684  14.185  70.402  1.00  0.00     0.135 A  
HETATM   17  F   UNL     1      -5.148  14.696  74.245  1.00  0.00    -0.019 F  
HETATM   18  C   UNL     1      -6.251  13.089  71.184  1.00  0.00     0.854 A  
HETATM   19  C   UNL     1      -5.740  13.255  72.477  1.00  0.00     0.603 A  
HETATM   20  C   UNL     1      -6.097  15.627  72.300  1.00  0.00     1.685 A  
HETATM   21  C   UNL     1      -5.653  14.527  73.017  1.00  0.00     0.010 A  
HETATM   22  C   UNL     1      -6.625  15.453  71.014  1.00  0.00     0.834 A  
ENDBRANCH   9  16
BRANCH   8  23
HETATM   23  C   UNL     1      -6.641  11.488  68.812  1.00  0.00    -0.070 C  
HETATM   24  C   UNL     1      -7.306  10.318  68.735  1.00  0.00    -0.086 C  
BRANCH  24  25
HETATM   25  C   UNL     1      -6.743   8.951  69.068  1.00  0.00    -0.052 C  
HETATM   26  H   UNL     1      -5.557   8.173  70.435  1.00  0.00     0.000 HD 
HETATM   27  O   UNL     1      -5.911   9.030  70.226  1.00  0.00    -0.032 OA 
BRANCH  25  28
HETATM   28  C   UNL     1      -7.820   7.881  69.301  1.00  0.00    -0.115 C  
BRANCH  28  29
HETATM   29  C   UNL     1      -9.000   7.986  68.304  1.00  0.00    -0.132 C  
HETATM   30  O   UNL     1      -8.556   7.740  66.966  1.00  0.00    -0.124 OA 
HETATM   31  H   UNL     1      -9.280   7.805  66.353  1.00  0.00     0.000 HD 
BRANCH  29  32
HETATM   32  C   UNL     1     -10.092   6.953  68.578  1.00  0.00    -0.165 C  
HETATM   33  C   UNL     1     -11.025   7.390  69.671  1.00  0.00    -0.172 C  
HETATM   34  O   UNL     1     -11.335   8.550  69.894  1.00  0.00    -0.114 OA 
HETATM   35  O   UNL     1     -11.516   6.359  70.396  1.00  0.00    -0.361 OA 
ENDBRANCH  29  32
ENDBRANCH  28  29
ENDBRANCH  25  28
ENDBRANCH  24  25
ENDBRANCH   8  23
TORSDOF 8
ENDMDL
MODEL      235
REMARK 921   NORMALIZED FREE ENERGY PREDICTED BY IDOCK:    3.54 KCAL/MOL
REMARK 922        TOTAL FREE ENERGY PREDICTED BY IDOCK:    3.65 KCAL/MOL
REMARK 923 INTER-LIGAND FREE ENERGY PREDICTED BY IDOCK:    4.47 KCAL/MOL
REMARK 924 INTRA-LIGAND FREE ENERGY PREDICTED BY IDOCK:   -0.82 KCAL/MOL
REMARK 927      BINDING AFFINITY PREDICTED BY RF-SCORE:    0.00 PKD
ROOT
HETATM    1  C   UNL     1      -8.544  11.569  64.972  1.00  0.00     0.444 C  
HETATM    2  C   UNL     1      -7.531  11.427  66.119  1.00  0.00     0.120 C  
HETATM    3  C   UNL     1      -6.117  11.351  65.535  1.00  0.00     0.690 C  
HETATM    4  C   UNL     1      -7.624  12.562  67.135  1.00  0.00    -0.085 A  
HETATM    5  N   UNL     1      -8.091  13.736  66.650  1.00  0.00     0.326 NA 
HETATM    6  C   UNL     1      -8.142  14.756  67.504  1.00  0.00    -0.181 A  
HETATM    7  N   UNL     1      -7.725  14.743  68.767  1.00  0.00    -0.129 NA 
HETATM    8  C   UNL     1      -7.196  12.411  68.469  1.00  0.00    -0.103 A  
HETATM    9  C   UNL     1      -7.206  13.580  69.245  1.00  0.00     0.095 A  
ENDROOT
BRANCH   6  10
HETATM   10  N   UNL     1      -8.888  15.873  67.087  1.00  0.00    -0.197 N  
HETATM   11  C   UNL     1      -9.888  15.608  66.044  1.00  0.00    -0.333 C  
BRANCH  10  12
HETATM   12  S   UNL     1      -8.018  17.302  66.977  1.00  0.00    -0.230 S  
HETATM   13  C   UNL     1      -9.165  18.482  66.286  1.00  0.00    -0.224 C  
HETATM   14  O   UNL     1      -7.731  17.738  68.332  1.00  0.00    -0.258 OA 
HETATM   15  O   UNL     1      -6.945  17.139  66.024  1.00  0.00    -0.215 OA 
ENDBRANCH  10  12
ENDBRANCH   6  10
BRANCH   9  16
HETATM   16  C   UNL     1      -6.666  13.717  70.633  1.00  0.00     0.561 A  
HETATM   17  F   UNL     1      -5.178  13.987  74.519  1.00  0.00    -0.190 F  
HETATM   18  C   UNL     1      -6.340  12.567  71.388  1.00  0.00     2.048 A  
HETATM   19  C   UNL     1      -5.846  12.651  72.695  1.00  0.00     1.728 A  
HETATM   20  C   UNL     1      -6.006  15.049  72.586  1.00  0.00     0.827 A  
HETATM   21  C   UNL     1      -5.668  13.896  73.276  1.00  0.00     0.124 A  
HETATM   22  C   UNL     1      -6.519  14.957  71.286  1.00  0.00     0.586 A  
ENDBRANCH   9  16
BRANCH   8  23
HETATM   23  C   UNL     1      -6.788  11.078  68.952  1.00  0.00    -0.079 C  
HETATM   24  C   UNL     1      -7.645  10.142  69.407  1.00  0.00    -0.133 C  
BRANCH  24  25
HETATM   25  C   UNL     1      -7.301   8.701  69.723  1.00  0.00    -0.052 C  
HETATM   26  H   UNL     1      -8.266   6.992  69.898  1.00  0.00     0.000 HD 
HETATM   27  O   UNL     1      -8.481   7.895  69.699  1.00  0.00    -0.129 OA 
BRANCH  25  28
HETATM   28  C   UNL     1      -6.263   8.091  68.770  1.00  0.00    -0.040 C  
BRANCH  28  29
HETATM   29  C   UNL     1      -6.822   7.843  67.348  1.00  0.00    -0.070 C  
HETATM   30  O   UNL     1      -5.858   8.204  66.354  1.00  0.00    -0.039 OA 
HETATM   31  H   UNL     1      -6.201   8.052  65.481  1.00  0.00     0.000 HD 
BRANCH  29  32
HETATM   32  C   UNL     1      -7.149   6.371  67.096  1.00  0.00    -0.073 C  
HETATM   33  C   UNL     1      -7.837   6.161  65.777  1.00  0.00    -0.105 C  
HETATM   34  O   UNL     1      -7.632   6.830  64.776  1.00  0.00    -0.089 OA 
HETATM   35  O   UNL     1      -8.712   5.130  65.791  1.00  0.00    -0.129 OA 
ENDBRANCH  29  32
ENDBRANCH  28  29
ENDBRANCH  25  28
ENDBRANCH  24  25
ENDBRANCH   8  23
TORSDOF 8
ENDMDL
MODEL      236
REMARK 921   NORMALIZED FREE ENERGY PREDICTED BY IDOCK:    4.80 KCAL/MOL
REMARK 922        TOTAL FREE ENERGY PREDICTED BY IDOCK:    5.50 KCAL/MOL
REMARK 923 INTER-LIGAND FREE ENERGY PREDICTED BY IDOCK:    6.51 KCAL/MOL
REMARK 924 INTRA-LIGAND FREE ENERGY PREDICTED BY IDOCK:   -1.01 KCAL/MOL
REMARK 927      BINDING AFFINITY PREDICTED BY RF-SCORE:    0.00 PKD
ROOT
HETATM    1  C   UNL     1     -12.390   6.463  67.071  1.00  0.00     4.832 C  
HETATM    2  C   UNL     1     -11.956   7.298  68.286  1.00  0.00     2.050 C  
HETATM    3  C   UNL     1     -13.067   7.267  69.340  1.00  0.00     4.571 C  
HETATM    4  C   UNL     1     -10.638   6.825  68.890  1.00  0.00    -0.228 A  
HETATM    5  N   UNL     1     -10.354   5.514  68.707  1.00  0.00    -0.205 NA 
HETATM    6  C   UNL     1      -9.231   5.064  69.261  1.00  0.00    -0.109 A  
HETATM    7  N   UNL     1      -8.396   5.765  70.022  1.00  0.00    -0.121 NA 
HETATM    8  C   UNL     1      -9.806   7.681  69.638  1.00  0.00    -0.181 A  
HETATM    9  C   UNL     1      -8.703   7.070  70.254  1.00  0.00    -0.144 A  
ENDROOT
BRANCH   6  10
HETATM   10  N   UNL     1      -8.796   3.798  68.831  1.00  0.00    -0.100 N  
HETATM   11  C   UNL     1      -7.904   3.089  69.759  1.00  0.00    -0.042 C  
BRANCH  10  12
HETATM   12  S   UNL     1      -8.452   3.688  67.194  1.00  0.00    -0.105 S  
HETATM   13  C   UNL     1      -7.212   4.940  66.904  1.00  0.00    -0.077 C  
HETATM   14  O   UNL     1      -7.811   2.404  66.972  1.00  0.00    -0.069 OA 
HETATM   15  O   UNL     1      -9.621   4.058  66.431  1.00  0.00    -0.185 OA 
ENDBRANCH  10  12
ENDBRANCH   6  10
BRANCH   9  16
HETATM   16  C   UNL     1      -7.759   7.723  71.212  1.00  0.00    -0.085 A  
HETATM   17  F   UNL     1      -5.198   9.517  73.971  1.00  0.00    -0.114 F  
HETATM   18  C   UNL     1      -7.924   7.548  72.606  1.00  0.00    -0.120 A  
HETATM   19  C   UNL     1      -7.071   8.153  73.537  1.00  0.00    -0.166 A  
HETATM   20  C   UNL     1      -5.850   9.176  71.733  1.00  0.00    -0.072 A  
HETATM   21  C   UNL     1      -6.030   8.950  73.089  1.00  0.00    -0.044 A  
HETATM   22  C   UNL     1      -6.719   8.584  70.808  1.00  0.00    -0.043 A  
ENDBRANCH   9  16
BRANCH   8  23
HETATM   23  C   UNL     1     -10.129   9.118  69.717  1.00  0.00    -0.211 C  
HETATM   24  C   UNL     1     -10.065   9.968  68.672  1.00  0.00    -0.187 C  
BRANCH  24  25
HETATM   25  C   UNL     1     -10.574  11.395  68.653  1.00  0.00    -0.199 C  
HETATM   26  H   UNL     1      -9.795  13.204  68.602  1.00  0.00     0.000 HD 
HETATM   27  O   UNL     1      -9.477  12.309  68.614  1.00  0.00    -0.142 OA 
BRANCH  25  28
HETATM   28  C   UNL     1     -11.516  11.698  67.479  1.00  0.00    -0.360 C  
BRANCH  28  29
HETATM   29  C   UNL     1     -11.622  13.210  67.166  1.00  0.00    -0.361 C  
HETATM   30  O   UNL     1     -12.330  13.426  65.941  1.00  0.00    -0.434 OA 
HETATM   31  H   UNL     1     -12.395  14.355  65.748  1.00  0.00     0.000 HD 
BRANCH  29  32
HETATM   32  C   UNL     1     -12.398  13.978  68.236  1.00  0.00    -0.012 C  
HETATM   33  C   UNL     1     -11.544  14.999  68.933  1.00  0.00    -0.326 C  
HETATM   34  O   UNL     1     -10.633  15.616  68.404  1.00  0.00    -0.238 OA 
HETATM   35  O   UNL     1     -11.891  15.190  70.226  1.00  0.00    -0.267 OA 
ENDBRANCH  29  32
ENDBRANCH  28  29
ENDBRANCH  25  28
ENDBRANCH  24  25
ENDBRANCH   8  23
TORSDOF 8
ENDMDL
MODEL      237
REMARK 921   NORMALIZED FREE ENERGY PREDICTED BY IDOCK:    6.05 KCAL/MOL
REMARK 922        TOTAL FREE ENERGY PREDICTED BY IDOCK:    7.34 KCAL/MOL
REMARK 923 INTER-LIGAND FREE ENERGY PREDICTED BY IDOCK:    2.07 KCAL/MOL
REMARK 924 INTRA-LIGAND FREE ENERGY PREDICTED BY IDOCK:    5.28 KCAL/MOL
REMARK 927      BINDING AFFINITY PREDICTED BY RF-SCORE:    0.00 PKD
ROOT
HETATM    1  C   UNL     1      -7.090  12.656  68.563  1.00  0.00    -0.101 C  
HETATM    2  C   UNL     1      -7.190  11.440  69.497  1.00  0.00     0.022 C  
HETATM    3  C   UNL     1      -6.446  11.745  70.801  1.00  0.00     0.992 C  
HETATM    4  C   UNL     1      -8.632  11.036  69.790  1.00  0.00     0.747 A  
HETATM    5  N   UNL     1      -9.540  12.037  69.717  1.00  0.00     1.562 NA 
HETATM    6  C   UNL     1     -10.800  11.722  70.011  1.00  0.00     0.575 A  
HETATM    7  N   UNL     1     -11.235  10.536  70.424  1.00  0.00    -0.313 NA 
HETATM    8  C   UNL     1      -8.980   9.726  70.172  1.00  0.00    -0.235 A  
HETATM    9  C   UNL     1     -10.318   9.539  70.552  1.00  0.00    -0.288 A  
ENDROOT
BRANCH   6  10
HETATM   10  N   UNL     1     -11.772  12.674  69.656  1.00  0.00    -0.313 N  
HETATM   11  C   UNL     1     -13.098  12.130  69.336  1.00  0.00     1.858 C  
BRANCH  10  12
HETATM   12  S   UNL     1     -11.209  13.939  68.711  1.00  0.00    -0.289 S  
HETATM   13  C   UNL     1      -9.465  14.044  69.080  1.00  0.00     0.236 C  
HETATM   14  O   UNL     1     -11.320  13.524  67.323  1.00  0.00    -0.291 OA 
HETATM   15  O   UNL     1     -11.815  15.174  69.150  1.00  0.00    -0.308 OA 
ENDBRANCH  10  12
ENDBRANCH   6  10
BRANCH   9  16
HETATM   16  C   UNL     1     -10.901   8.291  71.132  1.00  0.00    -0.276 A  
HETATM   17  F   UNL     1     -12.430   4.794  72.812  1.00  0.00    -0.090 F  
HETATM   18  C   UNL     1     -10.296   7.674  72.252  1.00  0.00    -0.277 A  
HETATM   19  C   UNL     1     -10.801   6.497  72.816  1.00  0.00    -0.280 A  
HETATM   20  C   UNL     1     -12.535   6.459  71.149  1.00  0.00     0.044 A  
HETATM   21  C   UNL     1     -11.929   5.909  72.267  1.00  0.00    -0.152 A  
HETATM   22  C   UNL     1     -12.013   7.626  70.577  1.00  0.00    -0.044 A  
ENDBRANCH   9  16
BRANCH   8  23
HETATM   23  C   UNL     1      -7.955   8.665  70.139  1.00  0.00    -0.103 C  
HETATM   24  C   UNL     1      -7.454   8.130  69.008  1.00  0.00    -0.088 C  
BRANCH  24  25
HETATM   25  C   UNL     1      -6.268   7.191  68.917  1.00  0.00    -0.027 C  
HETATM   26  H   UNL     1      -5.619   5.590  69.865  1.00  0.00     0.000 HD 
HETATM   27  O   UNL     1      -6.363   6.179  69.921  1.00  0.00    -0.032 OA 
BRANCH  25  28
HETATM   28  C   UNL     1      -6.118   6.518  67.545  1.00  0.00    -0.024 C  
BRANCH  28  29
HETATM   29  C   UNL     1      -7.419   6.562  66.707  1.00  0.00    -0.079 C  
HETATM   30  O   UNL     1      -8.530   6.960  67.516  1.00  0.00    -0.121 OA 
HETATM   31  H   UNL     1      -9.329   6.987  67.002  1.00  0.00     0.000 HD 
BRANCH  29  32
HETATM   32  C   UNL     1      -7.348   7.579  65.567  1.00  0.00    -0.071 C  
HETATM   33  C   UNL     1      -6.259   8.592  65.778  1.00  0.00    -0.055 C  
HETATM   34  O   UNL     1      -5.200   8.362  66.341  1.00  0.00    -0.027 OA 
HETATM   35  O   UNL     1      -6.556   9.808  65.264  1.00  0.00    -0.085 OA 
ENDBRANCH  29  32
ENDBRANCH  28  29
ENDBRANCH  25  28
ENDBRANCH  24  25
ENDBRANCH   8  23
TORSDOF 8
ENDMDL
MODEL      238
REMARK 921   NORMALIZED FREE ENERGY PREDICTED BY IDOCK:    6.16 KCAL/MOL
REMARK 922        TOTAL FREE ENERGY PREDICTED BY IDOCK:    7.50 KCAL/MOL
REMARK 923 INTER-LIGAND FREE ENERGY PREDICTED BY IDOCK:    8.00 KCAL/MOL
REMARK 924 INTRA-LIGAND FREE ENERGY PREDICTED BY IDOCK:   -0.50 KCAL/MOL
REMARK 927      BINDING AFFINITY PREDICTED BY RF-SCORE:    0.00 PKD
ROOT
HETATM    1  C   UNL     1      -6.635  17.931  66.314  1.00  0.00    -0.288 C  
HETATM    2  C   UNL     1      -6.930  16.668  67.138  1.00  0.00    -0.226 C  
HETATM    3  C   UNL     1      -6.219  16.773  68.490  1.00  0.00    -0.144 C  
HETATM    4  C   UNL     1      -8.423  16.428  67.340  1.00  0.00    -0.178 A  
HETATM    5  N   UNL     1      -9.197  17.538  67.316  1.00  0.00    -0.237 NA 
HETATM    6  C   UNL     1     -10.498  17.364  67.534  1.00  0.00    -0.354 A  
HETATM    7  N   UNL     1     -11.096  16.214  67.828  1.00  0.00    -0.297 NA 
HETATM    8  C   UNL     1      -8.949  15.146  67.596  1.00  0.00    -0.183 A  
HETATM    9  C   UNL     1     -10.316  15.102  67.907  1.00  0.00    -0.241 A  
ENDROOT
BRANCH   6  10
HETATM   10  N   UNL     1     -11.327  18.456  67.222  1.00  0.00     0.379 N  
HETATM   11  C   UNL     1     -12.155  18.295  66.020  1.00  0.00     4.953 C  
BRANCH  10  12
HETATM   12  S   UNL     1     -10.641  19.962  67.491  1.00  0.00    -0.290 S  
HETATM   13  C   UNL     1      -9.278  19.651  68.600  1.00  0.00    -0.302 C  
HETATM   14  O   UNL     1     -10.066  20.405  66.233  1.00  0.00    -0.384 OA 
HETATM   15  O   UNL     1     -11.584  20.801  68.194  1.00  0.00     2.066 OA 
ENDBRANCH  10  12
ENDBRANCH   6  10
BRANCH   9  16
HETATM   16  C   UNL     1     -11.076  13.895  68.357  1.00  0.00    -0.278 A  
HETATM   17  F   UNL     1     -13.210  10.579  69.714  1.00  0.00    -0.182 F  
HETATM   18  C   UNL     1     -11.810  13.924  69.565  1.00  0.00    -0.383 A  
HETATM   19  C   UNL     1     -12.522  12.812  70.029  1.00  0.00    -0.068 A  
HETATM   20  C   UNL     1     -11.783  11.556  68.115  1.00  0.00    -0.357 A  
HETATM   21  C   UNL     1     -12.515  11.641  69.288  1.00  0.00     0.172 A  
HETATM   22  C   UNL     1     -11.055  12.667  67.666  1.00  0.00    -0.303 A  
ENDBRANCH   9  16
BRANCH   8  23
HETATM   23  C   UNL     1      -8.061  13.970  67.514  1.00  0.00    -0.197 C  
HETATM   24  C   UNL     1      -7.803  13.294  66.377  1.00  0.00     1.191 C  
BRANCH  24  25
HETATM   25  C   UNL     1      -6.755  12.214  66.204  1.00  0.00     1.315 C  
HETATM   26  H   UNL     1      -5.619  11.526  64.749  1.00  0.00     0.000 HD 
HETATM   27  O   UNL     1      -6.276  12.203  64.858  1.00  0.00     3.174 OA 
BRANCH  25  28
HETATM   28  C   UNL     1      -5.559  12.357  67.157  1.00  0.00    -0.048 C  
BRANCH  28  29
HETATM   29  C   UNL     1      -5.417  11.162  68.130  1.00  0.00    -0.042 C  
HETATM   30  O   UNL     1      -5.363  11.615  69.486  1.00  0.00    -0.055 OA 
HETATM   31  H   UNL     1      -5.276  10.882  70.084  1.00  0.00     0.000 HD 
BRANCH  29  32
HETATM   32  C   UNL     1      -6.606  10.203  68.058  1.00  0.00    -0.058 C  
HETATM   33  C   UNL     1      -6.225   8.799  68.432  1.00  0.00    -0.054 C  
HETATM   34  O   UNL     1      -5.369   8.510  69.253  1.00  0.00    -0.030 OA 
HETATM   35  O   UNL     1      -6.942   7.860  67.774  1.00  0.00    -0.070 OA 
ENDBRANCH  29  32
ENDBRANCH  28  29
ENDBRANCH  25  28
ENDBRANCH  24  25
ENDBRANCH   8  23
TORSDOF 8
ENDMDL
MODEL      239
REMARK 921   NORMALIZED FREE ENERGY PREDICTED BY IDOCK:    6.61 KCAL/MOL
REMARK 922        TOTAL FREE ENERGY PREDICTED BY IDOCK:    8.16 KCAL/MOL
REMARK 923 INTER-LIGAND FREE ENERGY PREDICTED BY IDOCK:    7.87 KCAL/MOL
REMARK 924 INTRA-LIGAND FREE ENERGY PREDICTED BY IDOCK:    0.29 KCAL/MOL
REMARK 927      BINDING AFFINITY PREDICTED BY RF-SCORE:    0.00 PKD
ROOT
HETATM    1  C   UNL     1      -7.135  18.635  66.466  1.00  0.00    -0.244 C  
HETATM    2  C   UNL     1      -7.430  17.567  67.531  1.00  0.00    -0.202 C  
HETATM    3  C   UNL     1      -7.220  18.172  68.922  1.00  0.00    -0.268 C  
HETATM    4  C   UNL     1      -8.836  16.985  67.412  1.00  0.00    -0.203 A  
HETATM    5  N   UNL     1      -9.758  17.807  66.859  1.00  0.00    -0.288 NA 
HETATM    6  C   UNL     1     -11.003  17.342  66.782  1.00  0.00     0.175 A  
HETATM    7  N   UNL     1     -11.433  16.174  67.250  1.00  0.00     0.117 NA 
HETATM    8  C   UNL     1      -9.161  15.705  67.901  1.00  0.00    -0.190 A  
HETATM    9  C   UNL     1     -10.522  15.365  67.855  1.00  0.00    -0.256 A  
ENDROOT
BRANCH   6  10
HETATM   10  N   UNL     1     -11.882  18.065  65.956  1.00  0.00     2.833 N  
HETATM   11  C   UNL     1     -12.183  17.442  64.661  1.00  0.00     4.620 C  
BRANCH  10  12
HETATM   12  S   UNL     1     -11.668  19.728  65.983  1.00  0.00     2.445 S  
HETATM   13  C   UNL     1     -10.063  19.970  66.725  1.00  0.00    -0.476 C  
HETATM   14  O   UNL     1     -11.564  20.171  64.604  1.00  0.00     0.559 OA 
HETATM   15  O   UNL     1     -12.643  20.323  66.866  1.00  0.00     3.063 OA 
ENDBRANCH  10  12
ENDBRANCH   6  10
BRANCH   9  16
HETATM   16  C   UNL     1     -11.141  14.137  68.441  1.00  0.00    -0.273 A  
HETATM   17  F   UNL     1     -12.881  10.669  69.970  1.00  0.00    -0.376 F  
HETATM   18  C   UNL     1     -11.368  12.998  67.634  1.00  0.00    -0.342 A  
HETATM   19  C   UNL     1     -11.957  11.834  68.140  1.00  0.00    -0.214 A  
HETATM   20  C   UNL     1     -12.162  12.889  70.293  1.00  0.00    -0.362 A  
HETATM   21  C   UNL     1     -12.334  11.785  69.473  1.00  0.00    -0.058 A  
HETATM   22  C   UNL     1     -11.590  14.059  69.775  1.00  0.00    -0.344 A  
ENDBRANCH   9  16
BRANCH   8  23
HETATM   23  C   UNL     1      -8.087  14.828  68.406  1.00  0.00    -0.144 C  
HETATM   24  C   UNL     1      -7.318  14.045  67.623  1.00  0.00    -0.188 C  
BRANCH  24  25
HETATM   25  C   UNL     1      -6.083  13.286  68.065  1.00  0.00    -0.122 C  
HETATM   26  H   UNL     1      -4.368  12.734  67.269  1.00  0.00     0.000 HD 
HETATM   27  O   UNL     1      -5.142  13.210  66.993  1.00  0.00    -0.299 OA 
BRANCH  25  28
HETATM   28  C   UNL     1      -5.391  13.895  69.293  1.00  0.00    -0.081 C  
BRANCH  28  29
HETATM   29  C   UNL     1      -5.392  12.948  70.517  1.00  0.00    -0.138 C  
HETATM   30  O   UNL     1      -5.910  13.613  71.674  1.00  0.00    -0.462 OA 
HETATM   31  H   UNL     1      -5.910  13.031  72.425  1.00  0.00     0.000 HD 
BRANCH  29  32
HETATM   32  C   UNL     1      -6.281  11.721  70.308  1.00  0.00    -0.047 C  
HETATM   33  C   UNL     1      -5.767  10.517  71.045  1.00  0.00    -0.041 C  
HETATM   34  O   UNL     1      -5.177  10.559  72.113  1.00  0.00    -0.281 OA 
HETATM   35  O   UNL     1      -6.037   9.352  70.414  1.00  0.00    -0.043 OA 
ENDBRANCH  29  32
ENDBRANCH  28  29
ENDBRANCH  25  28
ENDBRANCH  24  25
ENDBRANCH   8  23
TORSDOF 8
ENDMDL
MODEL      240
REMARK 921   NORMALIZED FREE ENERGY PREDICTED BY IDOCK:    8.76 KCAL/MOL
REMARK 922        TOTAL FREE ENERGY PREDICTED BY IDOCK:   11.31 KCAL/MOL
REMARK 923 INTER-LIGAND FREE ENERGY PREDICTED BY IDOCK:   12.21 KCAL/MOL
REMARK 924 INTRA-LIGAND FREE ENERGY PREDICTED BY IDOCK:   -0.90 KCAL/MOL
REMARK 927      BINDING AFFINITY PREDICTED BY RF-SCORE:    0.00 PKD
ROOT
HETATM    1  C   UNL     1     -12.352  15.628  70.664  1.00  0.00    -0.457 C  
HETATM    2  C   UNL     1     -11.677  15.518  69.288  1.00  0.00    -0.380 C  
HETATM    3  C   UNL     1     -12.753  15.345  68.213  1.00  0.00     1.256 C  
HETATM    4  C   UNL     1     -10.792  16.719  68.965  1.00  0.00    -0.291 A  
HETATM    5  N   UNL     1     -11.147  17.878  69.567  1.00  0.00     1.152 NA 
HETATM    6  C   UNL     1     -10.419  18.952  69.269  1.00  0.00     0.452 A  
HETATM    7  N   UNL     1      -9.418  19.002  68.396  1.00  0.00    -0.344 NA 
HETATM    8  C   UNL     1      -9.720  16.636  68.056  1.00  0.00    -0.241 A  
HETATM    9  C   UNL     1      -9.090  17.852  67.748  1.00  0.00    -0.258 A  
ENDROOT
BRANCH   6  10
HETATM   10  N   UNL     1     -10.600  20.070  70.103  1.00  0.00     0.710 N  
HETATM   11  C   UNL     1     -10.517  21.375  69.433  1.00  0.00     1.672 C  
BRANCH  10  12
HETATM   12  S   UNL     1      -9.904  19.937  71.622  1.00  0.00     3.349 S  
HETATM   13  C   UNL     1      -8.175  19.623  71.307  1.00  0.00     2.968 C  
HETATM   14  O   UNL     1      -9.986  21.243  72.251  1.00  0.00     3.124 OA 
HETATM   15  O   UNL     1     -10.435  18.773  72.294  1.00  0.00     2.431 OA 
ENDBRANCH  10  12
ENDBRANCH   6  10
BRANCH   9  16
HETATM   16  C   UNL     1      -8.032  18.055  66.711  1.00  0.00    -0.261 A  
HETATM   17  F   UNL     1      -5.145  18.706  63.773  1.00  0.00    -0.206 F  
HETATM   18  C   UNL     1      -8.065  19.193  65.872  1.00  0.00    -0.087 A  
HETATM   19  C   UNL     1      -7.103  19.413  64.880  1.00  0.00     0.447 A  
HETATM   20  C   UNL     1      -6.028  17.347  65.483  1.00  0.00     0.495 A  
HETATM   21  C   UNL     1      -6.081  18.494  64.707  1.00  0.00    -0.020 A  
HETATM   22  C   UNL     1      -7.006  17.123  66.461  1.00  0.00    -0.296 A  
ENDBRANCH   9  16
BRANCH   8  23
HETATM   23  C   UNL     1      -9.332  15.321  67.511  1.00  0.00    -0.204 C  
HETATM   24  C   UNL     1      -8.901  14.287  68.262  1.00  0.00    -0.185 C  
BRANCH  24  25
HETATM   25  C   UNL     1      -8.683  12.868  67.778  1.00  0.00    -0.188 C  
HETATM   26  H   UNL     1      -7.298  11.478  67.958  1.00  0.00     0.000 HD 
HETATM   27  O   UNL     1      -7.435  12.368  68.261  1.00  0.00    -0.107 OA 
BRANCH  25  28
HETATM   28  C   UNL     1      -9.801  11.898  68.191  1.00  0.00    -0.192 C  
BRANCH  28  29
HETATM   29  C   UNL     1     -10.877  11.716  67.093  1.00  0.00    -0.261 C  
HETATM   30  O   UNL     1     -12.184  11.977  67.616  1.00  0.00    -0.484 OA 
HETATM   31  H   UNL     1     -12.844  11.865  66.942  1.00  0.00     0.000 HD 
BRANCH  29  32
HETATM   32  C   UNL     1     -10.693  12.686  65.926  1.00  0.00    -0.293 C  
HETATM   33  C   UNL     1     -11.657  12.414  64.806  1.00  0.00    -0.341 C  
HETATM   34  O   UNL     1     -12.790  11.986  64.957  1.00  0.00    -0.321 OA 
HETATM   35  O   UNL     1     -11.151  12.707  63.586  1.00  0.00    -0.429 OA 
ENDBRANCH  29  32
ENDBRANCH  28  29
ENDBRANCH  25  28
ENDBRANCH  24  25
ENDBRANCH   8  23
TORSDOF 8
ENDMDL
MODEL      241
REMARK 921   NORMALIZED FREE ENERGY PREDICTED BY IDOCK:   10.51 KCAL/MOL
REMARK 922        TOTAL FREE ENERGY PREDICTED BY IDOCK:   13.89 KCAL/MOL
REMARK 923 INTER-LIGAND FREE ENERGY PREDICTED BY IDOCK:   14.70 KCAL/MOL
REMARK 924 INTRA-LIGAND FREE ENERGY PREDICTED BY IDOCK:   -0.81 KCAL/MOL
REMARK 927      BINDING AFFINITY PREDICTED BY RF-SCORE:    0.00 PKD
ROOT
HETATM    1  C   UNL     1     -12.142  15.242  69.671  1.00  0.00    -0.342 C  
HETATM    2  C   UNL     1     -11.494  15.310  68.279  1.00  0.00    -0.359 C  
HETATM    3  C   UNL     1     -12.590  15.237  67.211  1.00  0.00     1.368 C  
HETATM    4  C   UNL     1     -10.643  16.560  68.082  1.00  0.00    -0.329 A  
HETATM    5  N   UNL     1     -11.010  17.633  68.821  1.00  0.00     0.094 NA 
HETATM    6  C   UNL     1     -10.312  18.752  68.637  1.00  0.00    -0.207 A  
HETATM    7  N   UNL     1      -9.331  18.927  67.757  1.00  0.00    -0.289 NA 
HETATM    8  C   UNL     1      -9.589  16.610  67.149  1.00  0.00    -0.244 A  
HETATM    9  C   UNL     1      -8.993  17.868  66.973  1.00  0.00    -0.250 A  
ENDROOT
BRANCH   6  10
HETATM   10  N   UNL     1     -10.498  19.760  69.599  1.00  0.00     0.202 N  
HETATM   11  C   UNL     1     -10.641  21.121  69.065  1.00  0.00     1.226 C  
BRANCH  10  12
HETATM   12  S   UNL     1      -9.599  19.572  71.002  1.00  0.00     2.784 S  
HETATM   13  C   UNL     1      -8.003  18.996  70.447  1.00  0.00     1.992 C  
HETATM   14  O   UNL     1      -9.396  20.895  71.565  1.00  0.00     1.512 OA 
HETATM   15  O   UNL     1     -10.179  18.522  71.806  1.00  0.00     3.132 OA 
ENDBRANCH  10  12
ENDBRANCH   6  10
BRANCH   9  16
HETATM   16  C   UNL     1      -7.963  18.216  65.947  1.00  0.00    -0.049 A  
HETATM   17  F   UNL     1      -5.159  19.269  63.045  1.00  0.00    -0.217 F  
HETATM   18  C   UNL     1      -8.079  19.408  65.194  1.00  0.00     1.257 A  
HETATM   19  C   UNL     1      -7.145  19.763  64.215  1.00  0.00     1.196 A  
HETATM   20  C   UNL     1      -5.931  17.733  64.656  1.00  0.00     1.228 A  
HETATM   21  C   UNL     1      -6.068  18.928  63.967  1.00  0.00     0.402 A  
HETATM   22  C   UNL     1      -6.881  17.374  65.621  1.00  0.00     0.244 A  
ENDBRANCH   9  16
BRANCH   8  23
HETATM   23  C   UNL     1      -9.185  15.377  66.446  1.00  0.00    -0.339 C  
HETATM   24  C   UNL     1      -8.767  14.255  67.065  1.00  0.00    -0.231 C  
BRANCH  24  25
HETATM   25  C   UNL     1      -8.534  12.910  66.407  1.00  0.00     0.342 C  
HETATM   26  H   UNL     1      -6.995  11.876  65.742  1.00  0.00     0.000 HD 
HETATM   27  O   UNL     1      -7.141  12.718  66.155  1.00  0.00     1.286 OA 
BRANCH  25  28
HETATM   28  C   UNL     1      -9.060  11.723  67.228  1.00  0.00    -0.171 C  
BRANCH  28  29
HETATM   29  C   UNL     1      -7.930  10.917  67.914  1.00  0.00    -0.111 C  
HETATM   30  O   UNL     1      -7.231  11.730  68.863  1.00  0.00    -0.108 OA 
HETATM   31  H   UNL     1      -6.537  11.236  69.284  1.00  0.00     0.000 HD 
BRANCH  29  32
HETATM   32  C   UNL     1      -8.460   9.719  68.703  1.00  0.00    -0.116 C  
HETATM   33  C   UNL     1      -7.358   8.951  69.375  1.00  0.00    -0.075 C  
HETATM   34  O   UNL     1      -6.332   9.450  69.809  1.00  0.00    -0.038 OA 
HETATM   35  O   UNL     1      -7.616   7.627  69.474  1.00  0.00    -0.093 OA 
ENDBRANCH  29  32
ENDBRANCH  28  29
ENDBRANCH  25  28
ENDBRANCH  24  25
ENDBRANCH   8  23
TORSDOF 8
ENDMDL
MODEL      242
REMARK 921   NORMALIZED FREE ENERGY PREDICTED BY IDOCK:   59.53 KCAL/MOL
REMARK 922        TOTAL FREE ENERGY PREDICTED BY IDOCK:   85.82 KCAL/MOL
REMARK 923 INTER-LIGAND FREE ENERGY PREDICTED BY IDOCK:   83.98 KCAL/MOL
REMARK 924 INTRA-LIGAND FREE ENERGY PREDICTED BY IDOCK:    1.84 KCAL/MOL
REMARK 927      BINDING AFFINITY PREDICTED BY RF-SCORE:    0.00 PKD
ROOT
HETATM    1  C   UNL     1      -8.914   8.149  69.063  1.00  0.00    -0.144 C  
HETATM    2  C   UNL     1      -9.579   8.694  67.790  1.00  0.00    -0.178 C  
HETATM    3  C   UNL     1     -10.731   7.769  67.388  1.00  0.00    -0.300 C  
HETATM    4  C   UNL     1     -10.079  10.127  67.951  1.00  0.00    -0.176 A  
HETATM    5  N   UNL     1     -10.405  10.488  69.214  1.00  0.00    -0.217 NA 
HETATM    6  C   UNL     1     -10.886  11.718  69.377  1.00  0.00    -0.064 A  
HETATM    7  N   UNL     1     -11.129  12.599  68.412  1.00  0.00    -0.249 NA 
HETATM    8  C   UNL     1     -10.248  10.990  66.851  1.00  0.00    -0.263 A  
HETATM    9  C   UNL     1     -10.854  12.223  67.134  1.00  0.00    -0.244 A  
ENDROOT
BRANCH   6  10
HETATM   10  N   UNL     1     -10.945  12.186  70.702  1.00  0.00     1.677 N  
HETATM   11  C   UNL     1      -9.669  12.647  71.265  1.00  0.00    11.594 C  
BRANCH  10  12
HETATM   12  S   UNL     1     -11.966  11.320  71.712  1.00  0.00     1.444 S  
HETATM   13  C   UNL     1     -12.861  10.223  70.623  1.00  0.00    -0.285 C  
HETATM   14  O   UNL     1     -11.131  10.484  72.556  1.00  0.00     3.570 OA 
HETATM   15  O   UNL     1     -12.931  12.217  72.304  1.00  0.00    -0.302 OA 
ENDBRANCH  10  12
ENDBRANCH   6  10
BRANCH   9  16
HETATM   16  C   UNL     1     -11.275  13.247  66.129  1.00  0.00    -0.317 A  
HETATM   17  F   UNL     1     -12.498  16.018  63.262  1.00  0.00     0.670 F  
HETATM   18  C   UNL     1     -12.206  12.913  65.117  1.00  0.00    -0.519 A  
HETATM   19  C   UNL     1     -12.614  13.837  64.149  1.00  0.00    -0.159 A  
HETATM   20  C   UNL     1     -11.158  15.484  65.125  1.00  0.00    -0.382 A  
HETATM   21  C   UNL     1     -12.097  15.122  64.173  1.00  0.00    -0.176 A  
HETATM   22  C   UNL     1     -10.738  14.548  66.079  1.00  0.00    -0.306 A  
ENDBRANCH   9  16
BRANCH   8  23
HETATM   23  C   UNL     1      -9.785  10.562  65.517  1.00  0.00    -0.298 C  
HETATM   24  C   UNL     1      -9.860   9.296  65.059  1.00  0.00     0.273 C  
BRANCH  24  25
HETATM   25  C   UNL     1      -9.585   8.847  63.638  1.00  0.00     1.778 C  
HETATM   26  H   UNL     1      -8.622   7.375  62.750  1.00  0.00     0.000 HD 
HETATM   27  O   UNL     1      -8.794   7.657  63.641  1.00  0.00     0.516 OA 
BRANCH  25  28
HETATM   28  C   UNL     1     -10.857   8.597  62.814  1.00  0.00     9.474 C  
BRANCH  28  29
HETATM   29  C   UNL     1     -11.642   7.346  63.280  1.00  0.00    20.435 C  
HETATM   30  O   UNL     1     -10.920   6.150  62.971  1.00  0.00     4.755 OA 
HETATM   31  H   UNL     1     -11.402   5.382  63.257  1.00  0.00     0.000 HD 
BRANCH  29  32
HETATM   32  C   UNL     1     -11.859   7.322  64.794  1.00  0.00    14.223 C  
HETATM   33  C   UNL     1     -12.608   6.098  65.239  1.00  0.00     7.414 C  
HETATM   34  O   UNL     1     -12.525   5.003  64.705  1.00  0.00     2.456 OA 
HETATM   35  O   UNL     1     -13.391   6.317  66.320  1.00  0.00     8.283 OA 
ENDBRANCH  29  32
ENDBRANCH  28  29
ENDBRANCH  25  28
ENDBRANCH  24  25
ENDBRANCH   8  23
TORSDOF 8
ENDMDL
MODEL      243
REMARK 921   NORMALIZED FREE ENERGY PREDICTED BY IDOCK:   61.41 KCAL/MOL
REMARK 922        TOTAL FREE ENERGY PREDICTED BY IDOCK:   88.59 KCAL/MOL
REMARK 923 INTER-LIGAND FREE ENERGY PREDICTED BY IDOCK:   88.32 KCAL/MOL
REMARK 924 INTRA-LIGAND FREE ENERGY PREDICTED BY IDOCK:    0.27 KCAL/MOL
REMARK 927      BINDING AFFINITY PREDICTED BY RF-SCORE:    0.00 PKD
ROOT
HETATM    1  C   UNL     1      -9.845  16.689  69.271  1.00  0.00    -0.194 C  
HETATM    2  C   UNL     1      -9.393  15.394  68.578  1.00  0.00    -0.198 C  
HETATM    3  C   UNL     1      -7.958  15.569  68.071  1.00  0.00    -0.138 C  
HETATM    4  C   UNL     1      -9.489  14.172  69.486  1.00  0.00     0.600 A  
HETATM    5  N   UNL     1      -9.377  14.425  70.811  1.00  0.00     2.508 NA 
HETATM    6  C   UNL     1      -9.413  13.372  71.625  1.00  0.00    12.363 A  
HETATM    7  N   UNL     1      -9.491  12.097  71.255  1.00  0.00    10.392 NA 
HETATM    8  C   UNL     1      -9.623  12.866  68.975  1.00  0.00     0.377 A  
HETATM    9  C   UNL     1      -9.550  11.833  69.922  1.00  0.00     2.002 A  
ENDROOT
BRANCH   6  10
HETATM   10  N   UNL     1      -9.590  13.654  72.991  1.00  0.00    11.588 N  
HETATM   11  C   UNL     1      -9.796  12.484  73.855  1.00  0.00    21.735 C  
BRANCH  10  12
HETATM   12  S   UNL     1     -10.501  15.023  73.317  1.00  0.00     4.676 S  
HETATM   13  C   UNL     1      -9.359  16.158  74.088  1.00  0.00    16.289 C  
HETATM   14  O   UNL     1     -10.875  15.607  72.040  1.00  0.00     0.035 OA 
HETATM   15  O   UNL     1     -11.515  14.704  74.295  1.00  0.00     0.326 OA 
ENDBRANCH  10  12
ENDBRANCH   6  10
BRANCH   9  16
HETATM   16  C   UNL     1      -9.517  10.368  69.622  1.00  0.00    -0.118 A  
HETATM   17  F   UNL     1      -9.311   6.290  68.776  1.00  0.00    -0.125 F  
HETATM   18  C   UNL     1      -8.285   9.673  69.596  1.00  0.00    -0.148 A  
HETATM   19  C   UNL     1      -8.210   8.306  69.306  1.00  0.00    -0.118 A  
HETATM   20  C   UNL     1     -10.598   8.249  69.016  1.00  0.00    -0.167 A  
HETATM   21  C   UNL     1      -9.372   7.602  69.035  1.00  0.00    -0.146 A  
HETATM   22  C   UNL     1     -10.664   9.622  69.288  1.00  0.00    -0.246 A  
ENDBRANCH   9  16
BRANCH   8  23
HETATM   23  C   UNL     1      -9.834  12.674  67.527  1.00  0.00    -0.203 C  
HETATM   24  C   UNL     1      -8.904  12.931  66.586  1.00  0.00    -0.098 C  
BRANCH  24  25
HETATM   25  C   UNL     1      -8.999  12.565  65.118  1.00  0.00     0.920 C  
HETATM   26  H   UNL     1     -10.005  11.281  64.013  1.00  0.00     0.000 HD 
HETATM   27  O   UNL     1      -9.945  11.511  64.933  1.00  0.00    -0.241 OA 
BRANCH  25  28
HETATM   28  C   UNL     1      -9.385  13.745  64.213  1.00  0.00     2.617 C  
BRANCH  28  29
HETATM   29  C   UNL     1     -10.161  14.853  64.965  1.00  0.00    -0.265 C  
HETATM   30  O   UNL     1      -9.325  15.993  65.192  1.00  0.00    -0.116 OA 
HETATM   31  H   UNL     1      -9.801  16.673  65.654  1.00  0.00     0.000 HD 
BRANCH  29  32
HETATM   32  C   UNL     1     -11.361  15.369  64.171  1.00  0.00     0.028 C  
HETATM   33  C   UNL     1     -12.364  16.063  65.048  1.00  0.00     1.132 C  
HETATM   34  O   UNL     1     -12.082  16.706  66.047  1.00  0.00     1.899 OA 
HETATM   35  O   UNL     1     -13.638  15.922  64.615  1.00  0.00     1.357 OA 
ENDBRANCH  29  32
ENDBRANCH  28  29
ENDBRANCH  25  28
ENDBRANCH  24  25
ENDBRANCH   8  23
TORSDOF 8
ENDMDL
