MODEL        1
REMARK 921   NORMALIZED FREE ENERGY PREDICTED BY IDOCK:   -6.17 KCAL/MOL
REMARK 922        TOTAL FREE ENERGY PREDICTED BY IDOCK:   -9.72 KCAL/MOL
REMARK 923 INTER-LIGAND FREE ENERGY PREDICTED BY IDOCK:   -8.33 KCAL/MOL
REMARK 924 INTRA-LIGAND FREE ENERGY PREDICTED BY IDOCK:   -1.39 KCAL/MOL
REMARK 927      BINDING AFFINITY PREDICTED BY RF-SCORE:    0.00 PKD
ROOT
HETATM    1  C   UNL     1     -12.151  16.079  71.834  1.00  0.00    -0.590 C  
HETATM    2  C   UNL     1     -11.927  15.736  70.368  1.00  0.00    -0.385 C  
ENDROOT
BRANCH   2   3
HETATM    3  C   UNL     1     -10.597  14.992  70.158  1.00  0.00    -0.127 C  
BRANCH   3   4
HETATM    4  N   UNL     1     -10.242  14.666  68.759  1.00  0.00    -0.238 NA 
BRANCH   4   5
HETATM    5  C   UNL     1     -10.524  13.255  68.425  1.00  0.00    -0.253 C  
BRANCH   5   6
HETATM    6  C   UNL     1     -11.886  13.043  67.734  1.00  0.00    -0.395 C  
BRANCH   6   7
HETATM    7  C   UNL     1     -11.721  12.953  66.243  1.00  0.00    -0.399 A  
HETATM    8  S   UNL     1     -10.505  11.948  65.573  1.00  0.00    -0.279 SA 
HETATM    9  C   UNL     1     -12.441  13.605  65.262  1.00  0.00    -0.517 A  
HETATM   10  C   UNL     1     -11.973  13.292  63.953  1.00  0.00    -0.541 A  
HETATM   11  C   UNL     1     -10.922  12.405  63.980  1.00  0.00    -0.391 A  
ENDBRANCH   6   7
ENDBRANCH   5   6
ENDBRANCH   4   5
BRANCH   4  12
HETATM   12  C   UNL     1      -8.881  15.126  68.356  1.00  0.00    -0.174 C  
HETATM   13  C   UNL     1      -8.619  15.088  66.833  1.00  0.00    -0.280 C  
HETATM   14  C   UNL     1      -8.576  16.598  68.755  1.00  0.00    -0.261 C  
HETATM   15  C   UNL     1      -9.624  15.949  66.063  1.00  0.00    -0.385 C  
HETATM   16  C   UNL     1      -9.367  17.616  67.956  1.00  0.00    -0.274 A  
HETATM   17  C   UNL     1      -9.567  18.896  68.496  1.00  0.00    -0.432 A  
HETATM   18  C   UNL     1      -9.849  17.316  66.665  1.00  0.00    -0.299 A  
HETATM   19  C   UNL     1     -10.273  19.865  67.783  1.00  0.00    -0.567 A  
HETATM   20  C   UNL     1     -10.578  18.300  65.976  1.00  0.00    -0.296 A  
HETATM   21  O   UNL     1     -11.131  18.088  64.744  1.00  0.00    -0.708 OA 
HETATM   22  H   UNL     1     -11.624  18.753  64.277  1.00  0.00     0.000 HD 
HETATM   23  C   UNL     1     -10.782  19.564  66.525  1.00  0.00    -0.535 A  
ENDBRANCH   4  12
ENDBRANCH   3   4
ENDBRANCH   2   3
TORSDOF 6
ENDMDL
MODEL        2
REMARK 921   NORMALIZED FREE ENERGY PREDICTED BY IDOCK:   -5.78 KCAL/MOL
REMARK 922        TOTAL FREE ENERGY PREDICTED BY IDOCK:   -9.20 KCAL/MOL
REMARK 923 INTER-LIGAND FREE ENERGY PREDICTED BY IDOCK:   -8.46 KCAL/MOL
REMARK 924 INTRA-LIGAND FREE ENERGY PREDICTED BY IDOCK:   -0.74 KCAL/MOL
REMARK 927      BINDING AFFINITY PREDICTED BY RF-SCORE:    0.00 PKD
ROOT
HETATM    1  C   UNL     1     -12.990  15.305  72.622  1.00  0.00    -0.504 C  
HETATM    2  C   UNL     1     -12.919  15.558  71.122  1.00  0.00    -0.560 C  
ENDROOT
BRANCH   2   3
HETATM    3  C   UNL     1     -11.468  15.529  70.613  1.00  0.00    -0.358 C  
BRANCH   3   4
HETATM    4  N   UNL     1     -11.272  15.082  69.216  1.00  0.00    -0.269 NA 
BRANCH   4   5
HETATM    5  C   UNL     1     -12.016  13.843  68.916  1.00  0.00    -0.358 C  
BRANCH   5   6
HETATM    6  C   UNL     1     -11.179  12.560  69.095  1.00  0.00    -0.297 C  
BRANCH   6   7
HETATM    7  C   UNL     1     -11.796  11.658  70.127  1.00  0.00    -0.344 A  
HETATM    8  S   UNL     1     -11.248  10.042  70.292  1.00  0.00    -0.332 SA 
HETATM    9  C   UNL     1     -12.811  11.945  71.018  1.00  0.00    -0.291 A  
HETATM   10  C   UNL     1     -13.153  10.821  71.824  1.00  0.00    -0.573 A  
HETATM   11  C   UNL     1     -12.381   9.721  71.529  1.00  0.00    -0.405 A  
ENDBRANCH   6   7
ENDBRANCH   5   6
ENDBRANCH   4   5
BRANCH   4  12
HETATM   12  C   UNL     1      -9.844  15.054  68.783  1.00  0.00    -0.233 C  
HETATM   13  C   UNL     1      -9.639  14.774  67.276  1.00  0.00    -0.223 C  
HETATM   14  C   UNL     1      -9.092  16.394  69.025  1.00  0.00    -0.252 C  
HETATM   15  C   UNL     1     -10.346  15.816  66.405  1.00  0.00    -0.306 C  
HETATM   16  C   UNL     1      -9.547  17.515  68.110  1.00  0.00    -0.294 A  
HETATM   17  C   UNL     1      -9.331  18.844  68.506  1.00  0.00    -0.412 A  
HETATM   18  C   UNL     1     -10.126  17.243  66.852  1.00  0.00    -0.304 A  
HETATM   19  C   UNL     1      -9.719  19.902  67.683  1.00  0.00    -0.511 A  
HETATM   20  C   UNL     1     -10.530  18.324  66.052  1.00  0.00    -0.361 A  
HETATM   21  O   UNL     1     -11.148  18.163  64.843  1.00  0.00    -0.673 OA 
HETATM   22  H   UNL     1     -11.421  18.894  64.301  1.00  0.00     0.000 HD 
HETATM   23  C   UNL     1     -10.323  19.640  66.458  1.00  0.00    -0.601 A  
ENDBRANCH   4  12
ENDBRANCH   3   4
ENDBRANCH   2   3
TORSDOF 6
ENDMDL
MODEL        3
REMARK 921   NORMALIZED FREE ENERGY PREDICTED BY IDOCK:   -5.64 KCAL/MOL
REMARK 922        TOTAL FREE ENERGY PREDICTED BY IDOCK:   -9.01 KCAL/MOL
REMARK 923 INTER-LIGAND FREE ENERGY PREDICTED BY IDOCK:   -8.73 KCAL/MOL
REMARK 924 INTRA-LIGAND FREE ENERGY PREDICTED BY IDOCK:   -0.28 KCAL/MOL
REMARK 927      BINDING AFFINITY PREDICTED BY RF-SCORE:    0.00 PKD
ROOT
HETATM    1  C   UNL     1      -9.774  19.988  66.429  1.00  0.00    -0.557 C  
HETATM    2  C   UNL     1     -10.768  19.149  67.222  1.00  0.00    -0.585 C  
ENDROOT
BRANCH   2   3
HETATM    3  C   UNL     1     -10.064  18.314  68.305  1.00  0.00    -0.386 C  
BRANCH   3   4
HETATM    4  N   UNL     1     -10.219  16.846  68.206  1.00  0.00    -0.299 NA 
BRANCH   4   5
HETATM    5  C   UNL     1     -10.512  16.226  69.514  1.00  0.00    -0.299 C  
BRANCH   5   6
HETATM    6  C   UNL     1     -12.003  15.892  69.720  1.00  0.00    -0.276 C  
BRANCH   6   7
HETATM    7  C   UNL     1     -12.277  15.523  71.151  1.00  0.00    -0.396 A  
HETATM    8  S   UNL     1     -13.142  14.089  71.517  1.00  0.00    -0.370 SA 
HETATM    9  C   UNL     1     -11.922  16.209  72.295  1.00  0.00    -0.637 A  
HETATM   10  C   UNL     1     -12.386  15.563  73.476  1.00  0.00    -0.664 A  
HETATM   11  C   UNL     1     -13.067  14.401  73.195  1.00  0.00    -0.385 A  
ENDBRANCH   6   7
ENDBRANCH   5   6
ENDBRANCH   4   5
BRANCH   4  12
HETATM   12  C   UNL     1      -9.130  16.171  67.442  1.00  0.00    -0.195 C  
HETATM   13  C   UNL     1      -8.784  14.750  67.945  1.00  0.00    -0.167 C  
HETATM   14  C   UNL     1      -9.456  15.970  65.935  1.00  0.00    -0.351 C  
HETATM   15  C   UNL     1     -10.000  13.821  67.898  1.00  0.00    -0.240 C  
HETATM   16  C   UNL     1     -10.535  14.934  65.684  1.00  0.00    -0.366 A  
HETATM   17  C   UNL     1     -11.257  14.983  64.480  1.00  0.00    -0.276 A  
HETATM   18  C   UNL     1     -10.782  13.897  66.608  1.00  0.00    -0.281 A  
HETATM   19  C   UNL     1     -12.244  14.037  64.205  1.00  0.00    -0.453 A  
HETATM   20  C   UNL     1     -11.797  12.970  66.320  1.00  0.00    -0.408 A  
HETATM   21  O   UNL     1     -12.147  11.963  67.176  1.00  0.00    -0.590 OA 
HETATM   22  H   UNL     1     -12.834  11.335  66.981  1.00  0.00     0.000 HD 
HETATM   23  C   UNL     1     -12.517  13.034  65.129  1.00  0.00    -0.552 A  
ENDBRANCH   4  12
ENDBRANCH   3   4
ENDBRANCH   2   3
TORSDOF 6
ENDMDL
MODEL        4
REMARK 921   NORMALIZED FREE ENERGY PREDICTED BY IDOCK:   -5.64 KCAL/MOL
REMARK 922        TOTAL FREE ENERGY PREDICTED BY IDOCK:   -9.01 KCAL/MOL
REMARK 923 INTER-LIGAND FREE ENERGY PREDICTED BY IDOCK:   -7.91 KCAL/MOL
REMARK 924 INTRA-LIGAND FREE ENERGY PREDICTED BY IDOCK:   -1.11 KCAL/MOL
REMARK 927      BINDING AFFINITY PREDICTED BY RF-SCORE:    0.00 PKD
ROOT
HETATM    1  C   UNL     1      -7.837  12.804  67.469  1.00  0.00    -0.171 C  
HETATM    2  C   UNL     1      -8.276  14.012  68.285  1.00  0.00    -0.153 C  
ENDROOT
BRANCH   2   3
HETATM    3  C   UNL     1      -9.808  14.147  68.314  1.00  0.00    -0.235 C  
BRANCH   3   4
HETATM    4  N   UNL     1     -10.482  14.256  67.001  1.00  0.00    -0.270 NA 
BRANCH   4   5
HETATM    5  C   UNL     1     -10.629  15.659  66.564  1.00  0.00    -0.307 C  
BRANCH   5   6
HETATM    6  C   UNL     1     -10.865  16.647  67.724  1.00  0.00    -0.292 C  
BRANCH   6   7
HETATM    7  C   UNL     1     -10.458  18.040  67.333  1.00  0.00    -0.387 A  
HETATM    8  S   UNL     1      -9.935  19.150  68.530  1.00  0.00    -0.436 SA 
HETATM    9  C   UNL     1     -10.447  18.606  66.074  1.00  0.00    -0.456 A  
HETATM   10  C   UNL     1     -10.028  19.967  66.099  1.00  0.00    -0.580 A  
HETATM   11  C   UNL     1      -9.722  20.389  67.373  1.00  0.00    -0.457 A  
ENDBRANCH   6   7
ENDBRANCH   5   6
ENDBRANCH   4   5
BRANCH   4  12
HETATM   12  C   UNL     1     -11.733  13.451  66.894  1.00  0.00    -0.389 C  
HETATM   13  C   UNL     1     -12.374  13.452  65.487  1.00  0.00    -0.528 C  
HETATM   14  C   UNL     1     -11.535  11.943  67.218  1.00  0.00    -0.385 C  
HETATM   15  C   UNL     1     -11.410  12.917  64.425  1.00  0.00    -0.402 C  
HETATM   16  C   UNL     1     -10.738  11.199  66.165  1.00  0.00    -0.285 A  
HETATM   17  C   UNL     1     -10.083  10.010  66.522  1.00  0.00    -0.296 A  
HETATM   18  C   UNL     1     -10.694  11.649  64.828  1.00  0.00    -0.365 A  
HETATM   19  C   UNL     1      -9.355   9.287  65.576  1.00  0.00    -0.303 A  
HETATM   20  C   UNL     1      -9.935  10.918  63.899  1.00  0.00    -0.343 A  
HETATM   21  O   UNL     1      -9.787  11.302  62.595  1.00  0.00    -0.581 OA 
HETATM   22  H   UNL     1      -9.274  10.808  61.966  1.00  0.00     0.000 HD 
HETATM   23  C   UNL     1      -9.278   9.746  64.266  1.00  0.00    -0.286 A  
ENDBRANCH   4  12
ENDBRANCH   3   4
ENDBRANCH   2   3
TORSDOF 6
ENDMDL
MODEL        5
REMARK 921   NORMALIZED FREE ENERGY PREDICTED BY IDOCK:   -5.55 KCAL/MOL
REMARK 922        TOTAL FREE ENERGY PREDICTED BY IDOCK:   -8.90 KCAL/MOL
REMARK 923 INTER-LIGAND FREE ENERGY PREDICTED BY IDOCK:   -7.86 KCAL/MOL
REMARK 924 INTRA-LIGAND FREE ENERGY PREDICTED BY IDOCK:   -1.04 KCAL/MOL
REMARK 927      BINDING AFFINITY PREDICTED BY RF-SCORE:    0.00 PKD
ROOT
HETATM    1  C   UNL     1      -7.615  12.810  67.568  1.00  0.00    -0.162 C  
HETATM    2  C   UNL     1      -8.423  14.095  67.686  1.00  0.00    -0.189 C  
ENDROOT
BRANCH   2   3
HETATM    3  C   UNL     1      -9.801  13.840  68.322  1.00  0.00    -0.232 C  
BRANCH   3   4
HETATM    4  N   UNL     1     -10.935  14.605  67.758  1.00  0.00    -0.278 NA 
BRANCH   4   5
HETATM    5  C   UNL     1     -11.212  15.838  68.522  1.00  0.00    -0.354 C  
BRANCH   5   6
HETATM    6  C   UNL     1     -10.797  15.753  70.005  1.00  0.00    -0.348 C  
BRANCH   6   7
HETATM    7  C   UNL     1     -12.005  15.636  70.892  1.00  0.00    -0.397 A  
HETATM    8  S   UNL     1     -11.932  16.179  72.517  1.00  0.00    -0.546 SA 
HETATM    9  C   UNL     1     -13.246  15.117  70.584  1.00  0.00    -0.354 A  
HETATM   10  C   UNL     1     -14.133  15.145  71.699  1.00  0.00    -0.645 A  
HETATM   11  C   UNL     1     -13.543  15.696  72.813  1.00  0.00    -0.593 A  
ENDBRANCH   6   7
ENDBRANCH   5   6
ENDBRANCH   4   5
BRANCH   4  12
HETATM   12  C   UNL     1     -12.145  13.778  67.479  1.00  0.00    -0.331 C  
HETATM   13  C   UNL     1     -12.741  13.974  66.065  1.00  0.00    -0.379 C  
HETATM   14  C   UNL     1     -11.890  12.246  67.572  1.00  0.00    -0.331 C  
HETATM   15  C   UNL     1     -11.720  13.650  64.971  1.00  0.00    -0.354 C  
HETATM   16  C   UNL     1     -11.027  11.709  66.447  1.00  0.00    -0.345 A  
HETATM   17  C   UNL     1     -10.331  10.505  66.641  1.00  0.00    -0.295 A  
HETATM   18  C   UNL     1     -10.961  12.365  65.200  1.00  0.00    -0.339 A  
HETATM   19  C   UNL     1      -9.542   9.969  65.623  1.00  0.00    -0.313 A  
HETATM   20  C   UNL     1     -10.141  11.819  64.198  1.00  0.00    -0.310 A  
HETATM   21  O   UNL     1      -9.969  12.408  62.976  1.00  0.00    -0.443 OA 
HETATM   22  H   UNL     1      -9.415  12.039  62.299  1.00  0.00     0.000 HD 
HETATM   23  C   UNL     1      -9.444  10.630  64.403  1.00  0.00    -0.317 A  
ENDBRANCH   4  12
ENDBRANCH   3   4
ENDBRANCH   2   3
TORSDOF 6
ENDMDL
MODEL        6
REMARK 921   NORMALIZED FREE ENERGY PREDICTED BY IDOCK:   -5.48 KCAL/MOL
REMARK 922        TOTAL FREE ENERGY PREDICTED BY IDOCK:   -8.80 KCAL/MOL
REMARK 923 INTER-LIGAND FREE ENERGY PREDICTED BY IDOCK:   -7.65 KCAL/MOL
REMARK 924 INTRA-LIGAND FREE ENERGY PREDICTED BY IDOCK:   -1.16 KCAL/MOL
REMARK 927      BINDING AFFINITY PREDICTED BY RF-SCORE:    0.00 PKD
ROOT
HETATM    1  C   UNL     1      -7.647  12.569  67.271  1.00  0.00    -0.131 C  
HETATM    2  C   UNL     1      -7.993  13.783  68.123  1.00  0.00    -0.150 C  
ENDROOT
BRANCH   2   3
HETATM    3  C   UNL     1      -9.420  14.282  67.843  1.00  0.00    -0.212 C  
BRANCH   3   4
HETATM    4  N   UNL     1      -9.778  14.482  66.421  1.00  0.00    -0.282 NA 
BRANCH   4   5
HETATM    5  C   UNL     1      -9.375  15.813  65.924  1.00  0.00    -0.321 C  
BRANCH   5   6
HETATM    6  C   UNL     1     -10.553  16.795  65.762  1.00  0.00    -0.259 C  
BRANCH   6   7
HETATM    7  C   UNL     1     -10.340  18.028  66.594  1.00  0.00    -0.371 A  
HETATM    8  S   UNL     1     -10.021  17.887  68.273  1.00  0.00    -0.381 SA 
HETATM    9  C   UNL     1     -10.372  19.348  66.191  1.00  0.00    -0.595 A  
HETATM   10  C   UNL     1     -10.156  20.247  67.275  1.00  0.00    -0.545 A  
HETATM   11  C   UNL     1      -9.954  19.583  68.463  1.00  0.00    -0.446 A  
ENDBRANCH   6   7
ENDBRANCH   5   6
ENDBRANCH   4   5
BRANCH   4  12
HETATM   12  C   UNL     1     -11.185  14.110  66.092  1.00  0.00    -0.326 C  
HETATM   13  C   UNL     1     -11.388  13.594  64.648  1.00  0.00    -0.380 C  
HETATM   14  C   UNL     1     -11.755  12.971  66.984  1.00  0.00    -0.441 C  
HETATM   15  C   UNL     1     -10.525  12.363  64.360  1.00  0.00    -0.371 C  
HETATM   16  C   UNL     1     -11.130  11.617  66.707  1.00  0.00    -0.366 A  
HETATM   17  C   UNL     1     -11.174  10.632  67.706  1.00  0.00    -0.383 A  
HETATM   18  C   UNL     1     -10.562  11.318  65.451  1.00  0.00    -0.312 A  
HETATM   19  C   UNL     1     -10.627   9.368  67.482  1.00  0.00    -0.333 A  
HETATM   20  C   UNL     1      -9.996  10.047  65.257  1.00  0.00    -0.298 A  
HETATM   21  O   UNL     1      -9.375   9.680  64.095  1.00  0.00    -0.391 OA 
HETATM   22  H   UNL     1      -8.993   8.821  63.963  1.00  0.00     0.000 HD 
HETATM   23  C   UNL     1     -10.033   9.079  66.258  1.00  0.00    -0.352 A  
ENDBRANCH   4  12
ENDBRANCH   3   4
ENDBRANCH   2   3
TORSDOF 6
ENDMDL
MODEL        7
REMARK 921   NORMALIZED FREE ENERGY PREDICTED BY IDOCK:   -5.46 KCAL/MOL
REMARK 922        TOTAL FREE ENERGY PREDICTED BY IDOCK:   -8.76 KCAL/MOL
REMARK 923 INTER-LIGAND FREE ENERGY PREDICTED BY IDOCK:   -8.03 KCAL/MOL
REMARK 924 INTRA-LIGAND FREE ENERGY PREDICTED BY IDOCK:   -0.73 KCAL/MOL
REMARK 927      BINDING AFFINITY PREDICTED BY RF-SCORE:    0.00 PKD
ROOT
HETATM    1  C   UNL     1     -11.510  15.183  70.759  1.00  0.00    -0.350 C  
HETATM    2  C   UNL     1     -11.422  15.744  69.346  1.00  0.00    -0.357 C  
ENDROOT
BRANCH   2   3
HETATM    3  C   UNL     1     -10.390  14.980  68.499  1.00  0.00    -0.230 C  
BRANCH   3   4
HETATM    4  N   UNL     1     -10.768  14.706  67.094  1.00  0.00    -0.287 NA 
BRANCH   4   5
HETATM    5  C   UNL     1     -10.729  15.923  66.258  1.00  0.00    -0.261 C  
BRANCH   5   6
HETATM    6  C   UNL     1      -9.339  16.587  66.197  1.00  0.00    -0.339 C  
BRANCH   6   7
HETATM    7  C   UNL     1      -9.391  17.987  66.743  1.00  0.00    -0.284 A  
HETATM    8  S   UNL     1      -7.953  18.911  66.872  1.00  0.00    -0.264 SA 
HETATM    9  C   UNL     1     -10.490  18.689  67.196  1.00  0.00    -0.461 A  
HETATM   10  C   UNL     1     -10.141  19.985  67.672  1.00  0.00    -0.562 A  
HETATM   11  C   UNL     1      -8.793  20.232  67.556  1.00  0.00    -0.318 A  
ENDBRANCH   6   7
ENDBRANCH   5   6
ENDBRANCH   4   5
BRANCH   4  12
HETATM   12  C   UNL     1     -12.018  13.906  66.948  1.00  0.00    -0.433 C  
HETATM   13  C   UNL     1     -12.596  13.881  65.514  1.00  0.00    -0.560 C  
HETATM   14  C   UNL     1     -11.845  12.404  67.312  1.00  0.00    -0.357 C  
HETATM   15  C   UNL     1     -11.588  13.317  64.508  1.00  0.00    -0.407 C  
HETATM   16  C   UNL     1     -11.006  11.633  66.311  1.00  0.00    -0.338 A  
HETATM   17  C   UNL     1     -10.375  10.448  66.723  1.00  0.00    -0.294 A  
HETATM   18  C   UNL     1     -10.899  12.055  64.969  1.00  0.00    -0.351 A  
HETATM   19  C   UNL     1      -9.611   9.702  65.825  1.00  0.00    -0.329 A  
HETATM   20  C   UNL     1     -10.105  11.300  64.090  1.00  0.00    -0.320 A  
HETATM   21  O   UNL     1      -9.896  11.655  62.786  1.00  0.00    -0.564 OA 
HETATM   22  H   UNL     1      -9.359  11.145  62.192  1.00  0.00     0.000 HD 
HETATM   23  C   UNL     1      -9.473  10.132  64.510  1.00  0.00    -0.364 A  
ENDBRANCH   4  12
ENDBRANCH   3   4
ENDBRANCH   2   3
TORSDOF 6
ENDMDL
MODEL        8
REMARK 921   NORMALIZED FREE ENERGY PREDICTED BY IDOCK:   -5.44 KCAL/MOL
REMARK 922        TOTAL FREE ENERGY PREDICTED BY IDOCK:   -8.74 KCAL/MOL
REMARK 923 INTER-LIGAND FREE ENERGY PREDICTED BY IDOCK:   -7.60 KCAL/MOL
REMARK 924 INTRA-LIGAND FREE ENERGY PREDICTED BY IDOCK:   -1.14 KCAL/MOL
REMARK 927      BINDING AFFINITY PREDICTED BY RF-SCORE:    0.00 PKD
ROOT
HETATM    1  C   UNL     1      -6.949  11.937  67.056  1.00  0.00    -0.116 C  
HETATM    2  C   UNL     1      -7.623  13.301  67.128  1.00  0.00     0.014 C  
ENDROOT
BRANCH   2   3
HETATM    3  C   UNL     1      -8.447  13.456  68.417  1.00  0.00    -0.135 C  
BRANCH   3   4
HETATM    4  N   UNL     1      -9.743  14.159  68.286  1.00  0.00    -0.222 NA 
BRANCH   4   5
HETATM    5  C   UNL     1      -9.776  15.418  69.059  1.00  0.00    -0.239 C  
BRANCH   5   6
HETATM    6  C   UNL     1      -8.752  16.466  68.577  1.00  0.00    -0.223 C  
BRANCH   6   7
HETATM    7  C   UNL     1      -9.445  17.708  68.093  1.00  0.00    -0.286 A  
HETATM    8  S   UNL     1      -9.955  17.827  66.460  1.00  0.00    -0.357 SA 
HETATM    9  C   UNL     1      -9.749  18.851  68.805  1.00  0.00    -0.454 A  
HETATM   10  C   UNL     1     -10.383  19.837  67.996  1.00  0.00    -0.567 A  
HETATM   11  C   UNL     1     -10.552  19.409  66.699  1.00  0.00    -0.467 A  
ENDBRANCH   6   7
ENDBRANCH   5   6
ENDBRANCH   4   5
BRANCH   4  12
HETATM   12  C   UNL     1     -10.932  13.284  68.498  1.00  0.00    -0.266 C  
HETATM   13  C   UNL     1     -12.269  13.894  68.016  1.00  0.00    -0.188 C  
HETATM   14  C   UNL     1     -10.846  11.922  67.751  1.00  0.00    -0.254 C  
HETATM   15  C   UNL     1     -12.229  14.235  66.523  1.00  0.00    -0.419 C  
HETATM   16  C   UNL     1     -10.970  12.051  66.245  1.00  0.00    -0.340 A  
HETATM   17  C   UNL     1     -10.449  11.033  65.431  1.00  0.00    -0.306 A  
HETATM   18  C   UNL     1     -11.647  13.142  65.658  1.00  0.00    -0.371 A  
HETATM   19  C   UNL     1     -10.561  11.108  64.042  1.00  0.00    -0.436 A  
HETATM   20  C   UNL     1     -11.725  13.207  64.257  1.00  0.00    -0.395 A  
HETATM   21  O   UNL     1     -12.312  14.248  63.594  1.00  0.00    -1.035 OA 
HETATM   22  H   UNL     1     -12.366  14.293  62.647  1.00  0.00     0.000 HD 
HETATM   23  C   UNL     1     -11.195  12.198  63.457  1.00  0.00    -0.536 A  
ENDBRANCH   4  12
ENDBRANCH   3   4
ENDBRANCH   2   3
TORSDOF 6
ENDMDL
MODEL        9
REMARK 921   NORMALIZED FREE ENERGY PREDICTED BY IDOCK:   -5.41 KCAL/MOL
REMARK 922        TOTAL FREE ENERGY PREDICTED BY IDOCK:   -8.70 KCAL/MOL
REMARK 923 INTER-LIGAND FREE ENERGY PREDICTED BY IDOCK:   -7.75 KCAL/MOL
REMARK 924 INTRA-LIGAND FREE ENERGY PREDICTED BY IDOCK:   -0.95 KCAL/MOL
REMARK 927      BINDING AFFINITY PREDICTED BY RF-SCORE:    0.00 PKD
ROOT
HETATM    1  C   UNL     1     -11.879  15.472  70.659  1.00  0.00    -0.400 C  
HETATM    2  C   UNL     1     -12.134  14.567  69.461  1.00  0.00    -0.348 C  
ENDROOT
BRANCH   2   3
HETATM    3  C   UNL     1     -11.330  13.259  69.561  1.00  0.00    -0.170 C  
BRANCH   3   4
HETATM    4  N   UNL     1     -11.555  12.267  68.486  1.00  0.00    -0.289 NA 
BRANCH   4   5
HETATM    5  C   UNL     1     -12.245  11.058  68.978  1.00  0.00    -0.097 C  
BRANCH   5   6
HETATM    6  C   UNL     1     -12.525  11.080  70.495  1.00  0.00    -0.432 C  
BRANCH   6   7
HETATM    7  C   UNL     1     -11.894   9.897  71.173  1.00  0.00    -0.386 A  
HETATM    8  S   UNL     1     -12.811   8.943  72.264  1.00  0.00    -0.396 SA 
HETATM    9  C   UNL     1     -10.601   9.430  71.053  1.00  0.00    -0.400 A  
HETATM   10  C   UNL     1     -10.358   8.297  71.881  1.00  0.00    -0.324 A  
HETATM   11  C   UNL     1     -11.476   7.931  72.594  1.00  0.00    -0.395 A  
ENDBRANCH   6   7
ENDBRANCH   5   6
ENDBRANCH   4   5
BRANCH   4  12
HETATM   12  C   UNL     1     -10.347  11.984  67.659  1.00  0.00    -0.198 C  
HETATM   13  C   UNL     1     -10.654  11.461  66.237  1.00  0.00    -0.312 C  
HETATM   14  C   UNL     1      -9.449  13.231  67.418  1.00  0.00    -0.218 C  
HETATM   15  C   UNL     1     -11.513  12.450  65.443  1.00  0.00    -0.402 C  
HETATM   16  C   UNL     1     -10.076  14.256  66.494  1.00  0.00    -0.283 A  
HETATM   17  C   UNL     1      -9.637  15.588  66.559  1.00  0.00    -0.295 A  
HETATM   18  C   UNL     1     -11.045  13.883  65.538  1.00  0.00    -0.304 A  
HETATM   19  C   UNL     1     -10.177  16.556  65.712  1.00  0.00    -0.350 A  
HETATM   20  C   UNL     1     -11.592  14.880  64.712  1.00  0.00    -0.410 A  
HETATM   21  O   UNL     1     -12.572  14.628  63.794  1.00  0.00    -0.992 OA 
HETATM   22  H   UNL     1     -12.942  15.301  63.235  1.00  0.00     0.000 HD 
HETATM   23  C   UNL     1     -11.158  16.201  64.793  1.00  0.00    -0.345 A  
ENDBRANCH   4  12
ENDBRANCH   3   4
ENDBRANCH   2   3
TORSDOF 6
ENDMDL
MODEL       10
REMARK 921   NORMALIZED FREE ENERGY PREDICTED BY IDOCK:   -5.37 KCAL/MOL
REMARK 922        TOTAL FREE ENERGY PREDICTED BY IDOCK:   -8.65 KCAL/MOL
REMARK 923 INTER-LIGAND FREE ENERGY PREDICTED BY IDOCK:   -7.53 KCAL/MOL
REMARK 924 INTRA-LIGAND FREE ENERGY PREDICTED BY IDOCK:   -1.12 KCAL/MOL
REMARK 927      BINDING AFFINITY PREDICTED BY RF-SCORE:    0.00 PKD
ROOT
HETATM    1  C   UNL     1     -11.825  14.993  69.047  1.00  0.00    -0.330 C  
HETATM    2  C   UNL     1     -12.031  13.493  68.883  1.00  0.00    -0.378 C  
ENDROOT
BRANCH   2   3
HETATM    3  C   UNL     1     -10.691  12.740  68.838  1.00  0.00    -0.163 C  
BRANCH   3   4
HETATM    4  N   UNL     1     -10.559  11.697  67.796  1.00  0.00    -0.188 NA 
BRANCH   4   5
HETATM    5  C   UNL     1     -10.735  10.336  68.343  1.00  0.00    -0.226 C  
BRANCH   5   6
HETATM    6  C   UNL     1     -10.176  10.167  69.771  1.00  0.00    -0.286 C  
BRANCH   6   7
HETATM    7  C   UNL     1     -11.243   9.676  70.709  1.00  0.00    -0.336 A  
HETATM    8  S   UNL     1     -11.104   8.128  71.432  1.00  0.00    -0.257 SA 
HETATM    9  C   UNL     1     -12.401  10.319  71.100  1.00  0.00    -0.501 A  
HETATM   10  C   UNL     1     -13.187   9.522  71.980  1.00  0.00    -0.539 A  
HETATM   11  C   UNL     1     -12.598   8.306  72.239  1.00  0.00    -0.311 A  
ENDBRANCH   6   7
ENDBRANCH   5   6
ENDBRANCH   4   5
BRANCH   4  12
HETATM   12  C   UNL     1      -9.355  11.854  66.931  1.00  0.00    -0.196 C  
HETATM   13  C   UNL     1      -9.572  11.445  65.455  1.00  0.00    -0.255 C  
HETATM   14  C   UNL     1      -8.832  13.316  66.845  1.00  0.00    -0.186 C  
HETATM   15  C   UNL     1     -10.695  12.255  64.803  1.00  0.00    -0.338 C  
HETATM   16  C   UNL     1      -9.749  14.240  66.066  1.00  0.00    -0.312 A  
HETATM   17  C   UNL     1      -9.679  15.622  66.300  1.00  0.00    -0.328 A  
HETATM   18  C   UNL     1     -10.623  13.739  65.078  1.00  0.00    -0.402 A  
HETATM   19  C   UNL     1     -10.493  16.505  65.590  1.00  0.00    -0.341 A  
HETATM   20  C   UNL     1     -11.450  14.645  64.393  1.00  0.00    -0.263 A  
HETATM   21  O   UNL     1     -12.366  14.252  63.457  1.00  0.00    -1.080 OA 
HETATM   22  H   UNL     1     -12.925  14.864  62.993  1.00  0.00     0.000 HD 
HETATM   23  C   UNL     1     -11.382  16.014  64.640  1.00  0.00    -0.312 A  
ENDBRANCH   4  12
ENDBRANCH   3   4
ENDBRANCH   2   3
TORSDOF 6
ENDMDL
MODEL       11
REMARK 921   NORMALIZED FREE ENERGY PREDICTED BY IDOCK:   -5.33 KCAL/MOL
REMARK 922        TOTAL FREE ENERGY PREDICTED BY IDOCK:   -8.59 KCAL/MOL
REMARK 923 INTER-LIGAND FREE ENERGY PREDICTED BY IDOCK:   -7.23 KCAL/MOL
REMARK 924 INTRA-LIGAND FREE ENERGY PREDICTED BY IDOCK:   -1.36 KCAL/MOL
REMARK 927      BINDING AFFINITY PREDICTED BY RF-SCORE:    0.00 PKD
ROOT
HETATM    1  C   UNL     1      -8.166  15.087  67.627  1.00  0.00    -0.181 C  
HETATM    2  C   UNL     1      -9.109  14.926  66.442  1.00  0.00    -0.293 C  
ENDROOT
BRANCH   2   3
HETATM    3  C   UNL     1     -10.426  15.689  66.662  1.00  0.00    -0.301 C  
BRANCH   3   4
HETATM    4  N   UNL     1     -10.431  16.689  67.754  1.00  0.00    -0.307 NA 
BRANCH   4   5
HETATM    5  C   UNL     1     -11.368  16.329  68.837  1.00  0.00    -0.317 C  
BRANCH   5   6
HETATM    6  C   UNL     1     -10.669  15.840  70.122  1.00  0.00    -0.354 C  
BRANCH   6   7
HETATM    7  C   UNL     1     -11.677  15.501  71.184  1.00  0.00    -0.391 A  
HETATM    8  S   UNL     1     -12.647  14.096  71.030  1.00  0.00    -0.389 SA 
HETATM    9  C   UNL     1     -11.969  16.197  72.340  1.00  0.00    -0.649 A  
HETATM   10  C   UNL     1     -13.012  15.582  73.089  1.00  0.00    -0.634 A  
HETATM   11  C   UNL     1     -13.471  14.433  72.487  1.00  0.00    -0.497 A  
ENDBRANCH   6   7
ENDBRANCH   5   6
ENDBRANCH   4   5
BRANCH   4  12
HETATM   12  C   UNL     1     -10.558  18.099  67.283  1.00  0.00    -0.367 C  
HETATM   13  C   UNL     1     -10.362  19.161  68.390  1.00  0.00    -0.412 C  
HETATM   14  C   UNL     1      -9.518  18.490  66.195  1.00  0.00    -0.175 C  
HETATM   15  C   UNL     1      -8.989  19.037  69.056  1.00  0.00    -0.219 C  
HETATM   16  C   UNL     1      -8.100  18.591  66.724  1.00  0.00    -0.267 A  
HETATM   17  C   UNL     1      -7.029  18.458  65.826  1.00  0.00    -0.288 A  
HETATM   18  C   UNL     1      -7.846  18.873  68.083  1.00  0.00    -0.327 A  
HETATM   19  C   UNL     1      -5.712  18.565  66.272  1.00  0.00    -0.191 A  
HETATM   20  C   UNL     1      -6.511  18.951  68.513  1.00  0.00    -0.242 A  
HETATM   21  O   UNL     1      -6.162  19.166  69.817  1.00  0.00    -0.260 OA 
HETATM   22  H   UNL     1      -5.259  19.220  70.108  1.00  0.00     0.000 HD 
HETATM   23  C   UNL     1      -5.454  18.806  67.617  1.00  0.00    -0.167 A  
ENDBRANCH   4  12
ENDBRANCH   3   4
ENDBRANCH   2   3
TORSDOF 6
ENDMDL
MODEL       12
REMARK 921   NORMALIZED FREE ENERGY PREDICTED BY IDOCK:   -5.33 KCAL/MOL
REMARK 922        TOTAL FREE ENERGY PREDICTED BY IDOCK:   -8.59 KCAL/MOL
REMARK 923 INTER-LIGAND FREE ENERGY PREDICTED BY IDOCK:   -7.61 KCAL/MOL
REMARK 924 INTRA-LIGAND FREE ENERGY PREDICTED BY IDOCK:   -0.98 KCAL/MOL
REMARK 927      BINDING AFFINITY PREDICTED BY RF-SCORE:    0.00 PKD
ROOT
HETATM    1  C   UNL     1     -10.245  19.525  66.230  1.00  0.00    -0.582 C  
HETATM    2  C   UNL     1     -10.820  19.617  67.637  1.00  0.00    -0.413 C  
ENDROOT
BRANCH   2   3
HETATM    3  C   UNL     1      -9.989  18.801  68.641  1.00  0.00    -0.394 C  
BRANCH   3   4
HETATM    4  N   UNL     1      -9.658  17.414  68.245  1.00  0.00    -0.280 NA 
BRANCH   4   5
HETATM    5  C   UNL     1     -10.723  16.459  68.612  1.00  0.00    -0.317 C  
BRANCH   5   6
HETATM    6  C   UNL     1     -10.446  15.700  69.926  1.00  0.00    -0.327 C  
BRANCH   6   7
HETATM    7  C   UNL     1     -11.713  15.514  70.713  1.00  0.00    -0.362 A  
HETATM    8  S   UNL     1     -11.862  16.204  72.275  1.00  0.00    -0.491 SA 
HETATM    9  C   UNL     1     -12.850  14.819  70.353  1.00  0.00    -0.323 A  
HETATM   10  C   UNL     1     -13.838  14.836  71.379  1.00  0.00    -0.509 A  
HETATM   11  C   UNL     1     -13.428  15.552  72.479  1.00  0.00    -0.526 A  
ENDBRANCH   6   7
ENDBRANCH   5   6
ENDBRANCH   4   5
BRANCH   4  12
HETATM   12  C   UNL     1      -8.288  16.980  68.643  1.00  0.00    -0.264 C  
HETATM   13  C   UNL     1      -7.493  16.267  67.525  1.00  0.00    -0.172 C  
HETATM   14  C   UNL     1      -7.362  18.153  69.075  1.00  0.00    -0.200 C  
HETATM   15  C   UNL     1      -7.335  17.155  66.288  1.00  0.00    -0.326 C  
HETATM   16  C   UNL     1      -6.951  19.053  67.925  1.00  0.00    -0.250 A  
HETATM   17  C   UNL     1      -6.543  20.367  68.203  1.00  0.00    -0.338 A  
HETATM   18  C   UNL     1      -6.917  18.573  66.599  1.00  0.00    -0.228 A  
HETATM   19  C   UNL     1      -6.140  21.218  67.174  1.00  0.00    -0.413 A  
HETATM   20  C   UNL     1      -6.531  19.456  65.576  1.00  0.00    -0.259 A  
HETATM   21  O   UNL     1      -6.518  19.103  64.256  1.00  0.00    -0.367 OA 
HETATM   22  H   UNL     1      -6.256  19.699  63.564  1.00  0.00     0.000 HD 
HETATM   23  C   UNL     1      -6.139  20.763  65.860  1.00  0.00    -0.270 A  
ENDBRANCH   4  12
ENDBRANCH   3   4
ENDBRANCH   2   3
TORSDOF 6
ENDMDL
MODEL       13
REMARK 921   NORMALIZED FREE ENERGY PREDICTED BY IDOCK:   -5.31 KCAL/MOL
REMARK 922        TOTAL FREE ENERGY PREDICTED BY IDOCK:   -8.57 KCAL/MOL
REMARK 923 INTER-LIGAND FREE ENERGY PREDICTED BY IDOCK:   -7.14 KCAL/MOL
REMARK 924 INTRA-LIGAND FREE ENERGY PREDICTED BY IDOCK:   -1.42 KCAL/MOL
REMARK 927      BINDING AFFINITY PREDICTED BY RF-SCORE:    0.00 PKD
ROOT
HETATM    1  C   UNL     1     -10.919   6.467  68.810  1.00  0.00    -0.404 C  
HETATM    2  C   UNL     1      -9.441   6.611  68.472  1.00  0.00    -0.123 C  
ENDROOT
BRANCH   2   3
HETATM    3  C   UNL     1      -9.104   8.039  68.013  1.00  0.00    -0.129 C  
BRANCH   3   4
HETATM    4  N   UNL     1     -10.184   9.043  68.143  1.00  0.00    -0.196 NA 
BRANCH   4   5
HETATM    5  C   UNL     1     -10.759   9.418  66.836  1.00  0.00    -0.104 C  
BRANCH   5   6
HETATM    6  C   UNL     1      -9.963  10.518  66.104  1.00  0.00    -0.286 C  
BRANCH   6   7
HETATM    7  C   UNL     1     -10.889  11.535  65.497  1.00  0.00    -0.254 A  
HETATM    8  S   UNL     1     -10.832  11.851  63.813  1.00  0.00    -0.460 SA 
HETATM    9  C   UNL     1     -11.837  12.313  66.130  1.00  0.00    -0.398 A  
HETATM   10  C   UNL     1     -12.503  13.190  65.226  1.00  0.00    -0.550 A  
HETATM   11  C   UNL     1     -12.049  13.043  63.936  1.00  0.00    -0.471 A  
ENDBRANCH   6   7
ENDBRANCH   5   6
ENDBRANCH   4   5
BRANCH   4  12
HETATM   12  C   UNL     1      -9.830  10.205  69.009  1.00  0.00    -0.205 C  
HETATM   13  C   UNL     1     -11.046  10.934  69.627  1.00  0.00    -0.328 C  
HETATM   14  C   UNL     1      -8.952   9.826  70.236  1.00  0.00    -0.198 C  
HETATM   15  C   UNL     1     -11.899   9.990  70.479  1.00  0.00    -0.387 C  
HETATM   16  C   UNL     1      -9.697   9.026  71.286  1.00  0.00    -0.371 A  
HETATM   17  C   UNL     1      -8.964   8.225  72.177  1.00  0.00    -0.274 A  
HETATM   18  C   UNL     1     -11.099   9.118  71.418  1.00  0.00    -0.415 A  
HETATM   19  C   UNL     1      -9.612   7.489  73.168  1.00  0.00    -0.286 A  
HETATM   20  C   UNL     1     -11.732   8.349  72.408  1.00  0.00    -0.382 A  
HETATM   21  O   UNL     1     -13.088   8.329  72.580  1.00  0.00    -0.562 OA 
HETATM   22  H   UNL     1     -13.516   7.809  73.250  1.00  0.00     0.000 HD 
HETATM   23  C   UNL     1     -10.997   7.548  73.280  1.00  0.00    -0.362 A  
ENDBRANCH   4  12
ENDBRANCH   3   4
ENDBRANCH   2   3
TORSDOF 6
ENDMDL
MODEL       14
REMARK 921   NORMALIZED FREE ENERGY PREDICTED BY IDOCK:   -5.31 KCAL/MOL
REMARK 922        TOTAL FREE ENERGY PREDICTED BY IDOCK:   -8.56 KCAL/MOL
REMARK 923 INTER-LIGAND FREE ENERGY PREDICTED BY IDOCK:   -7.36 KCAL/MOL
REMARK 924 INTRA-LIGAND FREE ENERGY PREDICTED BY IDOCK:   -1.20 KCAL/MOL
REMARK 927      BINDING AFFINITY PREDICTED BY RF-SCORE:    0.00 PKD
ROOT
HETATM    1  C   UNL     1      -7.096  17.134  66.894  1.00  0.00    -0.244 C  
HETATM    2  C   UNL     1      -7.793  15.852  66.461  1.00  0.00    -0.169 C  
ENDROOT
BRANCH   2   3
HETATM    3  C   UNL     1      -8.182  14.985  67.671  1.00  0.00    -0.168 C  
BRANCH   3   4
HETATM    4  N   UNL     1      -9.615  14.977  68.040  1.00  0.00    -0.206 NA 
BRANCH   4   5
HETATM    5  C   UNL     1     -10.004  16.187  68.794  1.00  0.00    -0.231 C  
BRANCH   5   6
HETATM    6  C   UNL     1     -11.154  16.979  68.140  1.00  0.00    -0.163 C  
BRANCH   6   7
HETATM    7  C   UNL     1     -10.646  18.255  67.529  1.00  0.00    -0.409 A  
HETATM    8  S   UNL     1     -10.033  19.503  68.532  1.00  0.00    -0.457 SA 
HETATM    9  C   UNL     1     -10.600  18.606  66.194  1.00  0.00    -0.409 A  
HETATM   10  C   UNL     1     -10.079  19.917  66.000  1.00  0.00    -0.589 A  
HETATM   11  C   UNL     1      -9.735  20.517  67.190  1.00  0.00    -0.441 A  
ENDBRANCH   6   7
ENDBRANCH   5   6
ENDBRANCH   4   5
BRANCH   4  12
HETATM   12  C   UNL     1     -10.075  13.701  68.659  1.00  0.00    -0.180 C  
HETATM   13  C   UNL     1     -11.610  13.512  68.668  1.00  0.00    -0.365 C  
HETATM   14  C   UNL     1      -9.542  12.429  67.939  1.00  0.00    -0.205 C  
HETATM   15  C   UNL     1     -12.194  13.555  67.254  1.00  0.00    -0.305 C  
HETATM   16  C   UNL     1     -10.156  12.210  66.570  1.00  0.00    -0.229 A  
HETATM   17  C   UNL     1      -9.463  11.428  65.632  1.00  0.00    -0.253 A  
HETATM   18  C   UNL     1     -11.429  12.728  66.248  1.00  0.00    -0.405 A  
HETATM   19  C   UNL     1     -10.004  11.188  64.369  1.00  0.00    -0.354 A  
HETATM   20  C   UNL     1     -11.942  12.493  64.961  1.00  0.00    -0.427 A  
HETATM   21  O   UNL     1     -13.140  12.997  64.537  1.00  0.00    -0.693 OA 
HETATM   22  H   UNL     1     -13.488  12.838  63.667  1.00  0.00     0.000 HD 
HETATM   23  C   UNL     1     -11.242  11.726  64.033  1.00  0.00    -0.461 A  
ENDBRANCH   4  12
ENDBRANCH   3   4
ENDBRANCH   2   3
TORSDOF 6
ENDMDL
MODEL       15
REMARK 921   NORMALIZED FREE ENERGY PREDICTED BY IDOCK:   -5.22 KCAL/MOL
REMARK 922        TOTAL FREE ENERGY PREDICTED BY IDOCK:   -8.44 KCAL/MOL
REMARK 923 INTER-LIGAND FREE ENERGY PREDICTED BY IDOCK:   -7.37 KCAL/MOL
REMARK 924 INTRA-LIGAND FREE ENERGY PREDICTED BY IDOCK:   -1.08 KCAL/MOL
REMARK 927      BINDING AFFINITY PREDICTED BY RF-SCORE:    0.00 PKD
ROOT
HETATM    1  C   UNL     1      -5.546  16.153  68.986  1.00  0.00    -0.114 C  
HETATM    2  C   UNL     1      -6.966  16.466  69.440  1.00  0.00    -0.210 C  
ENDROOT
BRANCH   2   3
HETATM    3  C   UNL     1      -7.966  15.416  68.929  1.00  0.00    -0.177 C  
BRANCH   3   4
HETATM    4  N   UNL     1      -9.323  15.907  68.601  1.00  0.00    -0.202 NA 
BRANCH   4   5
HETATM    5  C   UNL     1     -10.357  15.317  69.477  1.00  0.00    -0.262 C  
BRANCH   5   6
HETATM    6  C   UNL     1     -11.113  16.358  70.327  1.00  0.00    -0.267 C  
BRANCH   6   7
HETATM    7  C   UNL     1     -11.932  15.686  71.393  1.00  0.00    -0.418 A  
HETATM    8  S   UNL     1     -12.732  14.207  71.056  1.00  0.00    -0.371 SA 
HETATM    9  C   UNL     1     -12.164  16.106  72.687  1.00  0.00    -0.625 A  
HETATM   10  C   UNL     1     -13.022  15.218  73.396  1.00  0.00    -0.656 A  
HETATM   11  C   UNL     1     -13.406  14.146  72.624  1.00  0.00    -0.541 A  
ENDBRANCH   6   7
ENDBRANCH   5   6
ENDBRANCH   4   5
BRANCH   4  12
HETATM   12  C   UNL     1      -9.654  15.852  67.148  1.00  0.00    -0.218 C  
HETATM   13  C   UNL     1     -10.760  16.839  66.707  1.00  0.00    -0.117 C  
HETATM   14  C   UNL     1      -8.452  16.192  66.221  1.00  0.00    -0.357 C  
HETATM   15  C   UNL     1     -10.383  18.289  67.022  1.00  0.00    -0.408 C  
HETATM   16  C   UNL     1      -8.047  17.653  66.270  1.00  0.00    -0.281 A  
HETATM   17  C   UNL     1      -6.742  18.009  65.892  1.00  0.00    -0.323 A  
HETATM   18  C   UNL     1      -8.971  18.656  66.631  1.00  0.00    -0.307 A  
HETATM   19  C   UNL     1      -6.339  19.344  65.905  1.00  0.00    -0.230 A  
HETATM   20  C   UNL     1      -8.534  19.991  66.661  1.00  0.00    -0.317 A  
HETATM   21  O   UNL     1      -9.338  21.027  67.049  1.00  0.00    -0.668 OA 
HETATM   22  H   UNL     1      -9.043  21.929  67.069  1.00  0.00     0.000 HD 
HETATM   23  C   UNL     1      -7.234  20.333  66.295  1.00  0.00    -0.302 A  
ENDBRANCH   4  12
ENDBRANCH   3   4
ENDBRANCH   2   3
TORSDOF 6
ENDMDL
MODEL       16
REMARK 921   NORMALIZED FREE ENERGY PREDICTED BY IDOCK:   -5.21 KCAL/MOL
REMARK 922        TOTAL FREE ENERGY PREDICTED BY IDOCK:   -8.43 KCAL/MOL
REMARK 923 INTER-LIGAND FREE ENERGY PREDICTED BY IDOCK:   -7.31 KCAL/MOL
REMARK 924 INTRA-LIGAND FREE ENERGY PREDICTED BY IDOCK:   -1.13 KCAL/MOL
REMARK 927      BINDING AFFINITY PREDICTED BY RF-SCORE:    0.00 PKD
ROOT
HETATM    1  C   UNL     1     -12.445  13.098  65.392  1.00  0.00    -0.535 C  
HETATM    2  C   UNL     1     -11.386  13.227  64.306  1.00  0.00    -0.428 C  
ENDROOT
BRANCH   2   3
HETATM    3  C   UNL     1     -10.110  13.900  64.840  1.00  0.00    -0.263 C  
BRANCH   3   4
HETATM    4  N   UNL     1     -10.254  14.686  66.086  1.00  0.00    -0.287 NA 
BRANCH   4   5
HETATM    5  C   UNL     1     -10.424  16.129  65.819  1.00  0.00    -0.367 C  
BRANCH   5   6
HETATM    6  C   UNL     1      -9.153  16.961  66.086  1.00  0.00    -0.265 C  
BRANCH   6   7
HETATM    7  C   UNL     1      -9.483  18.211  66.852  1.00  0.00    -0.286 A  
HETATM    8  S   UNL     1      -9.962  18.110  68.495  1.00  0.00    -0.406 SA 
HETATM    9  C   UNL     1      -9.466  19.517  66.405  1.00  0.00    -0.457 A  
HETATM   10  C   UNL     1      -9.873  20.436  67.415  1.00  0.00    -0.587 A  
HETATM   11  C   UNL     1     -10.173  19.802  68.599  1.00  0.00    -0.405 A  
ENDBRANCH   6   7
ENDBRANCH   5   6
ENDBRANCH   4   5
BRANCH   4  12
HETATM   12  C   UNL     1      -9.227  14.376  67.121  1.00  0.00    -0.222 C  
HETATM   13  C   UNL     1      -9.789  14.227  68.554  1.00  0.00    -0.231 C  
HETATM   14  C   UNL     1      -8.472  13.039  66.871  1.00  0.00    -0.087 C  
HETATM   15  C   UNL     1     -10.848  13.124  68.635  1.00  0.00    -0.287 C  
HETATM   16  C   UNL     1      -9.334  11.810  67.082  1.00  0.00    -0.178 A  
HETATM   17  C   UNL     1      -8.969  10.608  66.455  1.00  0.00    -0.169 A  
HETATM   18  C   UNL     1     -10.455  11.842  67.939  1.00  0.00    -0.225 A  
HETATM   19  C   UNL     1      -9.727   9.452  66.642  1.00  0.00    -0.280 A  
HETATM   20  C   UNL     1     -11.216  10.672  68.091  1.00  0.00    -0.302 A  
HETATM   21  O   UNL     1     -12.348  10.616  68.856  1.00  0.00    -0.800 OA 
HETATM   22  H   UNL     1     -12.863   9.825  68.960  1.00  0.00     0.000 HD 
HETATM   23  C   UNL     1     -10.853   9.486  67.456  1.00  0.00    -0.239 A  
ENDBRANCH   4  12
ENDBRANCH   3   4
ENDBRANCH   2   3
TORSDOF 6
ENDMDL
MODEL       17
REMARK 921   NORMALIZED FREE ENERGY PREDICTED BY IDOCK:   -5.19 KCAL/MOL
REMARK 922        TOTAL FREE ENERGY PREDICTED BY IDOCK:   -8.41 KCAL/MOL
REMARK 923 INTER-LIGAND FREE ENERGY PREDICTED BY IDOCK:   -7.29 KCAL/MOL
REMARK 924 INTRA-LIGAND FREE ENERGY PREDICTED BY IDOCK:   -1.12 KCAL/MOL
REMARK 927      BINDING AFFINITY PREDICTED BY RF-SCORE:    0.00 PKD
ROOT
HETATM    1  C   UNL     1     -12.535  12.370  64.399  1.00  0.00    -0.520 C  
HETATM    2  C   UNL     1     -12.072  13.281  65.528  1.00  0.00    -0.480 C  
ENDROOT
BRANCH   2   3
HETATM    3  C   UNL     1     -10.621  13.747  65.318  1.00  0.00    -0.353 C  
BRANCH   3   4
HETATM    4  N   UNL     1     -10.092  14.709  66.310  1.00  0.00    -0.281 NA 
BRANCH   4   5
HETATM    5  C   UNL     1      -9.620  15.959  65.679  1.00  0.00    -0.231 C  
BRANCH   5   6
HETATM    6  C   UNL     1     -10.651  17.104  65.729  1.00  0.00    -0.201 C  
BRANCH   6   7
HETATM    7  C   UNL     1     -10.127  18.262  66.531  1.00  0.00    -0.385 A  
HETATM    8  S   UNL     1      -8.445  18.593  66.562  1.00  0.00    -0.277 SA 
HETATM    9  C   UNL     1     -10.837  19.157  67.306  1.00  0.00    -0.529 A  
HETATM   10  C   UNL     1      -9.989  20.105  67.946  1.00  0.00    -0.537 A  
HETATM   11  C   UNL     1      -8.664  19.909  67.629  1.00  0.00    -0.334 A  
ENDBRANCH   6   7
ENDBRANCH   5   6
ENDBRANCH   4   5
BRANCH   4  12
HETATM   12  C   UNL     1      -9.125  14.113  67.277  1.00  0.00    -0.213 C  
HETATM   13  C   UNL     1      -8.523  15.122  68.283  1.00  0.00    -0.152 C  
HETATM   14  C   UNL     1      -9.744  13.006  68.177  1.00  0.00    -0.228 C  
HETATM   15  C   UNL     1      -9.611  15.812  69.111  1.00  0.00    -0.255 C  
HETATM   16  C   UNL     1     -10.731  13.539  69.197  1.00  0.00    -0.118 A  
HETATM   17  C   UNL     1     -11.696  12.669  69.728  1.00  0.00    -0.354 A  
HETATM   18  C   UNL     1     -10.656  14.870  69.660  1.00  0.00    -0.213 A  
HETATM   19  C   UNL     1     -12.608  13.118  70.683  1.00  0.00    -0.286 A  
HETATM   20  C   UNL     1     -11.601  15.306  70.603  1.00  0.00    -0.319 A  
HETATM   21  O   UNL     1     -11.645  16.590  71.072  1.00  0.00    -0.598 OA 
HETATM   22  H   UNL     1     -12.284  16.885  71.710  1.00  0.00     0.000 HD 
HETATM   23  C   UNL     1     -12.563  14.438  71.116  1.00  0.00    -0.422 A  
ENDBRANCH   4  12
ENDBRANCH   3   4
ENDBRANCH   2   3
TORSDOF 6
ENDMDL
MODEL       18
REMARK 921   NORMALIZED FREE ENERGY PREDICTED BY IDOCK:   -5.19 KCAL/MOL
REMARK 922        TOTAL FREE ENERGY PREDICTED BY IDOCK:   -8.40 KCAL/MOL
REMARK 923 INTER-LIGAND FREE ENERGY PREDICTED BY IDOCK:   -7.26 KCAL/MOL
REMARK 924 INTRA-LIGAND FREE ENERGY PREDICTED BY IDOCK:   -1.14 KCAL/MOL
REMARK 927      BINDING AFFINITY PREDICTED BY RF-SCORE:    0.00 PKD
ROOT
HETATM    1  C   UNL     1     -13.138  10.569  71.508  1.00  0.00    -0.532 C  
HETATM    2  C   UNL     1     -12.127  11.412  70.742  1.00  0.00    -0.433 C  
ENDROOT
BRANCH   2   3
HETATM    3  C   UNL     1     -12.140  11.083  69.240  1.00  0.00    -0.292 C  
BRANCH   3   4
HETATM    4  N   UNL     1     -10.819  10.937  68.588  1.00  0.00    -0.200 NA 
BRANCH   4   5
HETATM    5  C   UNL     1      -9.921  10.038  69.341  1.00  0.00    -0.223 C  
BRANCH   5   6
HETATM    6  C   UNL     1     -10.295   8.547  69.217  1.00  0.00    -0.227 C  
BRANCH   6   7
HETATM    7  C   UNL     1     -10.613   7.961  70.564  1.00  0.00    -0.223 A  
HETATM    8  S   UNL     1     -11.646   6.598  70.685  1.00  0.00    -0.387 SA 
HETATM    9  C   UNL     1     -10.181   8.384  71.805  1.00  0.00    -0.323 A  
HETATM   10  C   UNL     1     -10.722   7.595  72.861  1.00  0.00    -0.428 A  
HETATM   11  C   UNL     1     -11.537   6.592  72.390  1.00  0.00    -0.245 A  
ENDBRANCH   6   7
ENDBRANCH   5   6
ENDBRANCH   4   5
BRANCH   4  12
HETATM   12  C   UNL     1     -10.192  12.232  68.193  1.00  0.00    -0.212 C  
HETATM   13  C   UNL     1      -8.939  12.087  67.298  1.00  0.00    -0.180 C  
HETATM   14  C   UNL     1     -11.135  13.159  67.376  1.00  0.00    -0.301 C  
HETATM   15  C   UNL     1      -9.252  11.333  66.003  1.00  0.00    -0.224 C  
HETATM   16  C   UNL     1     -11.419  12.649  65.976  1.00  0.00    -0.414 A  
HETATM   17  C   UNL     1     -12.578  13.086  65.316  1.00  0.00    -0.516 A  
HETATM   18  C   UNL     1     -10.513  11.795  65.312  1.00  0.00    -0.320 A  
HETATM   19  C   UNL     1     -12.863  12.654  64.021  1.00  0.00    -0.262 A  
HETATM   20  C   UNL     1     -10.834  11.354  64.017  1.00  0.00    -0.383 A  
HETATM   21  O   UNL     1     -10.048  10.484  63.313  1.00  0.00    -0.488 OA 
HETATM   22  H   UNL     1     -10.264  10.186  62.438  1.00  0.00     0.000 HD 
HETATM   23  C   UNL     1     -11.993  11.784  63.374  1.00  0.00    -0.443 A  
ENDBRANCH   4  12
ENDBRANCH   3   4
ENDBRANCH   2   3
TORSDOF 6
ENDMDL
MODEL       19
REMARK 921   NORMALIZED FREE ENERGY PREDICTED BY IDOCK:   -5.16 KCAL/MOL
REMARK 922        TOTAL FREE ENERGY PREDICTED BY IDOCK:   -8.37 KCAL/MOL
REMARK 923 INTER-LIGAND FREE ENERGY PREDICTED BY IDOCK:   -7.29 KCAL/MOL
REMARK 924 INTRA-LIGAND FREE ENERGY PREDICTED BY IDOCK:   -1.08 KCAL/MOL
REMARK 927      BINDING AFFINITY PREDICTED BY RF-SCORE:    0.00 PKD
ROOT
HETATM    1  C   UNL     1     -12.507  11.101  71.008  1.00  0.00    -0.506 C  
HETATM    2  C   UNL     1     -12.410  11.400  69.518  1.00  0.00    -0.211 C  
ENDROOT
BRANCH   2   3
HETATM    3  C   UNL     1     -10.947  11.547  69.066  1.00  0.00    -0.234 C  
BRANCH   3   4
HETATM    4  N   UNL     1     -10.508  10.659  67.965  1.00  0.00    -0.183 NA 
BRANCH   4   5
HETATM    5  C   UNL     1     -10.428   9.246  68.386  1.00  0.00    -0.206 C  
BRANCH   5   6
HETATM    6  C   UNL     1      -9.446   9.001  69.549  1.00  0.00    -0.164 C  
BRANCH   6   7
HETATM    7  C   UNL     1     -10.138   8.329  70.702  1.00  0.00    -0.191 A  
HETATM    8  S   UNL     1     -11.320   7.123  70.408  1.00  0.00    -0.273 SA 
HETATM    9  C   UNL     1      -9.964   8.554  72.053  1.00  0.00    -0.383 A  
HETATM   10  C   UNL     1     -10.826   7.744  72.848  1.00  0.00    -0.453 A  
HETATM   11  C   UNL     1     -11.617   6.923  72.078  1.00  0.00    -0.285 A  
ENDBRANCH   6   7
ENDBRANCH   5   6
ENDBRANCH   4   5
BRANCH   4  12
HETATM   12  C   UNL     1      -9.300  11.147  67.239  1.00  0.00    -0.160 C  
HETATM   13  C   UNL     1      -9.027  10.426  65.898  1.00  0.00    -0.182 C  
HETATM   14  C   UNL     1      -9.369  12.652  66.851  1.00  0.00    -0.228 C  
HETATM   15  C   UNL     1     -10.208  10.558  64.933  1.00  0.00    -0.371 C  
HETATM   16  C   UNL     1     -10.381  12.948  65.761  1.00  0.00    -0.297 A  
HETATM   17  C   UNL     1     -10.894  14.250  65.646  1.00  0.00    -0.311 A  
HETATM   18  C   UNL     1     -10.767  11.958  64.833  1.00  0.00    -0.350 A  
HETATM   19  C   UNL     1     -11.812  14.565  64.644  1.00  0.00    -0.462 A  
HETATM   20  C   UNL     1     -11.711  12.293  63.848  1.00  0.00    -0.451 A  
HETATM   21  O   UNL     1     -12.187  11.390  62.938  1.00  0.00    -0.940 OA 
HETATM   22  H   UNL     1     -12.825  11.616  62.272  1.00  0.00     0.000 HD 
HETATM   23  C   UNL     1     -12.223  13.584  63.749  1.00  0.00    -0.449 A  
ENDBRANCH   4  12
ENDBRANCH   3   4
ENDBRANCH   2   3
TORSDOF 6
ENDMDL
MODEL       20
REMARK 921   NORMALIZED FREE ENERGY PREDICTED BY IDOCK:   -5.16 KCAL/MOL
REMARK 922        TOTAL FREE ENERGY PREDICTED BY IDOCK:   -8.36 KCAL/MOL
REMARK 923 INTER-LIGAND FREE ENERGY PREDICTED BY IDOCK:   -7.77 KCAL/MOL
REMARK 924 INTRA-LIGAND FREE ENERGY PREDICTED BY IDOCK:   -0.59 KCAL/MOL
REMARK 927      BINDING AFFINITY PREDICTED BY RF-SCORE:    0.00 PKD
ROOT
HETATM    1  C   UNL     1     -13.164  15.363  70.920  1.00  0.00    -0.512 C  
HETATM    2  C   UNL     1     -12.269  14.354  70.213  1.00  0.00    -0.397 C  
ENDROOT
BRANCH   2   3
HETATM    3  C   UNL     1     -12.085  14.706  68.727  1.00  0.00    -0.202 C  
BRANCH   3   4
HETATM    4  N   UNL     1     -10.714  15.065  68.303  1.00  0.00    -0.248 NA 
BRANCH   4   5
HETATM    5  C   UNL     1      -9.994  13.921  67.708  1.00  0.00    -0.241 C  
BRANCH   5   6
HETATM    6  C   UNL     1     -10.914  12.741  67.331  1.00  0.00    -0.285 C  
BRANCH   6   7
HETATM    7  C   UNL     1     -11.104  12.665  65.842  1.00  0.00    -0.289 A  
HETATM    8  S   UNL     1     -12.508  13.332  65.120  1.00  0.00    -0.457 SA 
HETATM    9  C   UNL     1     -10.269  12.094  64.902  1.00  0.00    -0.309 A  
HETATM   10  C   UNL     1     -10.801  12.187  63.584  1.00  0.00    -0.523 A  
HETATM   11  C   UNL     1     -12.015  12.835  63.562  1.00  0.00    -0.555 A  
ENDBRANCH   6   7
ENDBRANCH   5   6
ENDBRANCH   4   5
BRANCH   4  12
HETATM   12  C   UNL     1      -9.933  15.804  69.337  1.00  0.00    -0.274 C  
HETATM   13  C   UNL     1      -8.406  15.819  69.095  1.00  0.00    -0.249 C  
HETATM   14  C   UNL     1     -10.313  17.308  69.451  1.00  0.00    -0.158 C  
HETATM   15  C   UNL     1      -8.053  16.445  67.743  1.00  0.00    -0.167 C  
HETATM   16  C   UNL     1      -9.875  18.133  68.257  1.00  0.00    -0.360 A  
HETATM   17  C   UNL     1     -10.535  19.342  67.988  1.00  0.00    -0.512 A  
HETATM   18  C   UNL     1      -8.785  17.734  67.454  1.00  0.00    -0.235 A  
HETATM   19  C   UNL     1     -10.147  20.138  66.909  1.00  0.00    -0.592 A  
HETATM   20  C   UNL     1      -8.429  18.540  66.359  1.00  0.00    -0.258 A  
HETATM   21  O   UNL     1      -7.424  18.212  65.492  1.00  0.00    -0.540 OA 
HETATM   22  H   UNL     1      -7.183  18.757  64.752  1.00  0.00     0.000 HD 
HETATM   23  C   UNL     1      -9.098  19.733  66.093  1.00  0.00    -0.403 A  
ENDBRANCH   4  12
ENDBRANCH   3   4
ENDBRANCH   2   3
TORSDOF 6
ENDMDL
MODEL       21
REMARK 921   NORMALIZED FREE ENERGY PREDICTED BY IDOCK:   -5.13 KCAL/MOL
REMARK 922        TOTAL FREE ENERGY PREDICTED BY IDOCK:   -8.32 KCAL/MOL
REMARK 923 INTER-LIGAND FREE ENERGY PREDICTED BY IDOCK:   -7.29 KCAL/MOL
REMARK 924 INTRA-LIGAND FREE ENERGY PREDICTED BY IDOCK:   -1.03 KCAL/MOL
REMARK 927      BINDING AFFINITY PREDICTED BY RF-SCORE:    0.00 PKD
ROOT
HETATM    1  C   UNL     1     -13.157  10.371  71.716  1.00  0.00    -0.567 C  
HETATM    2  C   UNL     1     -12.321  11.340  70.891  1.00  0.00    -0.490 C  
ENDROOT
BRANCH   2   3
HETATM    3  C   UNL     1     -11.988  10.760  69.506  1.00  0.00    -0.292 C  
BRANCH   3   4
HETATM    4  N   UNL     1     -10.596  10.943  69.035  1.00  0.00    -0.205 NA 
BRANCH   4   5
HETATM    5  C   UNL     1     -10.459  12.108  68.139  1.00  0.00    -0.211 C  
BRANCH   5   6
HETATM    6  C   UNL     1     -11.765  12.488  67.413  1.00  0.00    -0.432 C  
BRANCH   6   7
HETATM    7  C   UNL     1     -11.579  12.453  65.922  1.00  0.00    -0.396 A  
HETATM    8  S   UNL     1     -10.049  12.060  65.257  1.00  0.00    -0.256 SA 
HETATM    9  C   UNL     1     -12.510  12.715  64.937  1.00  0.00    -0.564 A  
HETATM   10  C   UNL     1     -11.954  12.614  63.630  1.00  0.00    -0.615 A  
HETATM   11  C   UNL     1     -10.623  12.267  63.662  1.00  0.00    -0.462 A  
ENDBRANCH   6   7
ENDBRANCH   5   6
ENDBRANCH   4   5
BRANCH   4  12
HETATM   12  C   UNL     1      -9.964   9.696  68.514  1.00  0.00    -0.165 C  
HETATM   13  C   UNL     1      -8.515   9.464  69.000  1.00  0.00    -0.129 C  
HETATM   14  C   UNL     1     -10.713   8.396  68.925  1.00  0.00    -0.095 C  
HETATM   15  C   UNL     1      -8.434   9.397  70.528  1.00  0.00    -0.251 C  
HETATM   16  C   UNL     1     -10.591   8.070  70.400  1.00  0.00    -0.224 A  
HETATM   17  C   UNL     1     -11.561   7.249  70.997  1.00  0.00    -0.329 A  
HETATM   18  C   UNL     1      -9.495   8.528  71.162  1.00  0.00    -0.249 A  
HETATM   19  C   UNL     1     -11.471   6.911  72.348  1.00  0.00    -0.297 A  
HETATM   20  C   UNL     1      -9.439   8.195  72.525  1.00  0.00    -0.269 A  
HETATM   21  O   UNL     1      -8.448   8.635  73.357  1.00  0.00    -0.385 OA 
HETATM   22  H   UNL     1      -8.410   8.409  74.279  1.00  0.00     0.000 HD 
HETATM   23  C   UNL     1     -10.413   7.389  73.112  1.00  0.00    -0.406 A  
ENDBRANCH   4  12
ENDBRANCH   3   4
ENDBRANCH   2   3
TORSDOF 6
ENDMDL
MODEL       22
REMARK 921   NORMALIZED FREE ENERGY PREDICTED BY IDOCK:   -5.08 KCAL/MOL
REMARK 922        TOTAL FREE ENERGY PREDICTED BY IDOCK:   -8.25 KCAL/MOL
REMARK 923 INTER-LIGAND FREE ENERGY PREDICTED BY IDOCK:   -7.57 KCAL/MOL
REMARK 924 INTRA-LIGAND FREE ENERGY PREDICTED BY IDOCK:   -0.68 KCAL/MOL
REMARK 927      BINDING AFFINITY PREDICTED BY RF-SCORE:    0.00 PKD
ROOT
HETATM    1  C   UNL     1     -11.611  11.389  69.504  1.00  0.00    -0.399 C  
HETATM    2  C   UNL     1     -10.971  12.667  68.979  1.00  0.00    -0.240 C  
ENDROOT
BRANCH   2   3
HETATM    3  C   UNL     1     -12.022  13.623  68.388  1.00  0.00    -0.356 C  
BRANCH   3   4
HETATM    4  N   UNL     1     -11.569  14.491  67.278  1.00  0.00    -0.371 NA 
BRANCH   4   5
HETATM    5  C   UNL     1     -12.224  14.149  65.999  1.00  0.00    -0.443 C  
BRANCH   5   6
HETATM    6  C   UNL     1     -12.416  12.633  65.789  1.00  0.00    -0.159 C  
BRANCH   6   7
HETATM    7  C   UNL     1     -11.317  12.068  64.934  1.00  0.00    -0.310 A  
HETATM    8  S   UNL     1     -10.218  10.928  65.591  1.00  0.00    -0.255 SA 
HETATM    9  C   UNL     1     -11.031  12.348  63.613  1.00  0.00    -0.525 A  
HETATM   10  C   UNL     1      -9.887  11.638  63.148  1.00  0.00    -0.407 A  
HETATM   11  C   UNL     1      -9.347  10.833  64.125  1.00  0.00    -0.252 A  
ENDBRANCH   6   7
ENDBRANCH   5   6
ENDBRANCH   4   5
BRANCH   4  12
HETATM   12  C   UNL     1     -10.087  14.632  67.185  1.00  0.00    -0.244 C  
HETATM   13  C   UNL     1      -9.579  15.136  65.814  1.00  0.00    -0.344 C  
HETATM   14  C   UNL     1      -9.490  15.643  68.205  1.00  0.00    -0.195 C  
HETATM   15  C   UNL     1     -10.178  16.499  65.455  1.00  0.00    -0.177 C  
HETATM   16  C   UNL     1      -9.839  17.086  67.898  1.00  0.00    -0.269 A  
HETATM   17  C   UNL     1      -9.797  18.031  68.936  1.00  0.00    -0.321 A  
HETATM   18  C   UNL     1     -10.147  17.501  66.584  1.00  0.00    -0.328 A  
HETATM   19  C   UNL     1     -10.092  19.371  68.688  1.00  0.00    -0.515 A  
HETATM   20  C   UNL     1     -10.465  18.851  66.365  1.00  0.00    -0.439 A  
HETATM   21  O   UNL     1     -10.828  19.339  65.140  1.00  0.00    -0.445 OA 
HETATM   22  H   UNL     1     -11.043  20.252  64.991  1.00  0.00     0.000 HD 
HETATM   23  C   UNL     1     -10.432  19.779  67.403  1.00  0.00    -0.577 A  
ENDBRANCH   4  12
ENDBRANCH   3   4
ENDBRANCH   2   3
TORSDOF 6
ENDMDL
MODEL       23
REMARK 921   NORMALIZED FREE ENERGY PREDICTED BY IDOCK:   -5.04 KCAL/MOL
REMARK 922        TOTAL FREE ENERGY PREDICTED BY IDOCK:   -8.20 KCAL/MOL
REMARK 923 INTER-LIGAND FREE ENERGY PREDICTED BY IDOCK:   -6.71 KCAL/MOL
REMARK 924 INTRA-LIGAND FREE ENERGY PREDICTED BY IDOCK:   -1.49 KCAL/MOL
REMARK 927      BINDING AFFINITY PREDICTED BY RF-SCORE:    0.00 PKD
ROOT
HETATM    1  C   UNL     1      -8.310  13.030  68.062  1.00  0.00    -0.169 C  
HETATM    2  C   UNL     1      -7.595  12.257  66.962  1.00  0.00    -0.071 C  
ENDROOT
BRANCH   2   3
HETATM    3  C   UNL     1      -8.582  11.438  66.114  1.00  0.00    -0.128 C  
BRANCH   3   4
HETATM    4  N   UNL     1     -10.019  11.619  66.422  1.00  0.00    -0.201 NA 
BRANCH   4   5
HETATM    5  C   UNL     1     -10.643  10.377  66.922  1.00  0.00    -0.230 C  
BRANCH   5   6
HETATM    6  C   UNL     1     -10.020   9.856  68.233  1.00  0.00    -0.172 C  
BRANCH   6   7
HETATM    7  C   UNL     1     -10.957  10.061  69.390  1.00  0.00    -0.244 A  
HETATM    8  S   UNL     1     -11.039   8.896  70.645  1.00  0.00    -0.270 SA 
HETATM    9  C   UNL     1     -11.828  11.109  69.610  1.00  0.00    -0.419 A  
HETATM   10  C   UNL     1     -12.582  10.940  70.806  1.00  0.00    -0.470 A  
HETATM   11  C   UNL     1     -12.253   9.776  71.463  1.00  0.00    -0.406 A  
ENDBRANCH   6   7
ENDBRANCH   5   6
ENDBRANCH   4   5
BRANCH   4  12
HETATM   12  C   UNL     1     -10.791  12.295  65.340  1.00  0.00    -0.286 C  
HETATM   13  C   UNL     1     -12.241  12.668  65.727  1.00  0.00    -0.427 C  
HETATM   14  C   UNL     1     -10.166  13.641  64.874  1.00  0.00    -0.363 C  
HETATM   15  C   UNL     1     -12.281  13.594  66.946  1.00  0.00    -0.398 C  
HETATM   16  C   UNL     1     -10.275  14.746  65.906  1.00  0.00    -0.331 A  
HETATM   17  C   UNL     1      -9.376  15.823  65.846  1.00  0.00    -0.356 A  
HETATM   18  C   UNL     1     -11.295  14.737  66.882  1.00  0.00    -0.358 A  
HETATM   19  C   UNL     1      -9.458  16.868  66.767  1.00  0.00    -0.269 A  
HETATM   20  C   UNL     1     -11.342  15.788  67.813  1.00  0.00    -0.240 A  
HETATM   21  O   UNL     1     -12.257  15.841  68.827  1.00  0.00    -0.560 OA 
HETATM   22  H   UNL     1     -12.290  16.552  69.456  1.00  0.00     0.000 HD 
HETATM   23  C   UNL     1     -10.438  16.847  67.753  1.00  0.00    -0.340 A  
ENDBRANCH   4  12
ENDBRANCH   3   4
ENDBRANCH   2   3
TORSDOF 6
ENDMDL
MODEL       24
REMARK 921   NORMALIZED FREE ENERGY PREDICTED BY IDOCK:   -5.02 KCAL/MOL
REMARK 922        TOTAL FREE ENERGY PREDICTED BY IDOCK:   -8.18 KCAL/MOL
REMARK 923 INTER-LIGAND FREE ENERGY PREDICTED BY IDOCK:   -7.18 KCAL/MOL
REMARK 924 INTRA-LIGAND FREE ENERGY PREDICTED BY IDOCK:   -1.00 KCAL/MOL
REMARK 927      BINDING AFFINITY PREDICTED BY RF-SCORE:    0.00 PKD
ROOT
HETATM    1  C   UNL     1     -10.149  20.261  67.067  1.00  0.00    -0.567 C  
HETATM    2  C   UNL     1     -10.638  18.860  67.412  1.00  0.00    -0.534 C  
ENDROOT
BRANCH   2   3
HETATM    3  C   UNL     1      -9.791  18.225  68.527  1.00  0.00    -0.381 C  
BRANCH   3   4
HETATM    4  N   UNL     1      -9.189  16.907  68.224  1.00  0.00    -0.234 NA 
BRANCH   4   5
HETATM    5  C   UNL     1     -10.068  15.788  68.619  1.00  0.00    -0.211 C  
BRANCH   5   6
HETATM    6  C   UNL     1      -9.764  14.470  67.877  1.00  0.00    -0.218 C  
BRANCH   6   7
HETATM    7  C   UNL     1     -10.741  14.249  66.757  1.00  0.00    -0.287 A  
HETATM    8  S   UNL     1     -11.653  12.798  66.688  1.00  0.00    -0.388 SA 
HETATM    9  C   UNL     1     -11.033  15.085  65.698  1.00  0.00    -0.357 A  
HETATM   10  C   UNL     1     -11.995  14.517  64.814  1.00  0.00    -0.449 A  
HETATM   11  C   UNL     1     -12.412  13.275  65.235  1.00  0.00    -0.489 A  
ENDBRANCH   6   7
ENDBRANCH   5   6
ENDBRANCH   4   5
BRANCH   4  12
HETATM   12  C   UNL     1      -7.778  16.764  68.684  1.00  0.00    -0.232 C  
HETATM   13  C   UNL     1      -6.819  16.166  67.628  1.00  0.00    -0.176 C  
HETATM   14  C   UNL     1      -7.110  18.112  69.080  1.00  0.00    -0.244 C  
HETATM   15  C   UNL     1      -6.786  17.010  66.351  1.00  0.00    -0.248 C  
HETATM   16  C   UNL     1      -6.835  19.019  67.896  1.00  0.00    -0.240 A  
HETATM   17  C   UNL     1      -6.697  20.399  68.115  1.00  0.00    -0.326 A  
HETATM   18  C   UNL     1      -6.659  18.494  66.598  1.00  0.00    -0.212 A  
HETATM   19  C   UNL     1      -6.424  21.263  67.054  1.00  0.00    -0.395 A  
HETATM   20  C   UNL     1      -6.410  19.386  65.542  1.00  0.00    -0.245 A  
HETATM   21  O   UNL     1      -6.278  18.981  64.243  1.00  0.00    -0.471 OA 
HETATM   22  H   UNL     1      -6.109  19.584  63.529  1.00  0.00     0.000 HD 
HETATM   23  C   UNL     1      -6.286  20.756  65.767  1.00  0.00    -0.276 A  
ENDBRANCH   4  12
ENDBRANCH   3   4
ENDBRANCH   2   3
TORSDOF 6
ENDMDL
MODEL       25
REMARK 921   NORMALIZED FREE ENERGY PREDICTED BY IDOCK:   -4.99 KCAL/MOL
REMARK 922        TOTAL FREE ENERGY PREDICTED BY IDOCK:   -8.13 KCAL/MOL
REMARK 923 INTER-LIGAND FREE ENERGY PREDICTED BY IDOCK:   -7.19 KCAL/MOL
REMARK 924 INTRA-LIGAND FREE ENERGY PREDICTED BY IDOCK:   -0.94 KCAL/MOL
REMARK 927      BINDING AFFINITY PREDICTED BY RF-SCORE:    0.00 PKD
ROOT
HETATM    1  C   UNL     1      -9.345  10.811  63.294  1.00  0.00    -0.324 C  
HETATM    2  C   UNL     1     -10.013  10.585  64.643  1.00  0.00    -0.415 C  
ENDROOT
BRANCH   2   3
HETATM    3  C   UNL     1      -9.433  11.513  65.724  1.00  0.00    -0.234 C  
BRANCH   3   4
HETATM    4  N   UNL     1     -10.415  12.243  66.558  1.00  0.00    -0.224 NA 
BRANCH   4   5
HETATM    5  C   UNL     1     -11.203  11.335  67.416  1.00  0.00    -0.303 C  
BRANCH   5   6
HETATM    6  C   UNL     1     -10.476  10.923  68.712  1.00  0.00    -0.224 C  
BRANCH   6   7
HETATM    7  C   UNL     1     -11.423  10.918  69.879  1.00  0.00    -0.323 A  
HETATM    8  S   UNL     1     -11.628   9.494  70.811  1.00  0.00    -0.320 SA 
HETATM    9  C   UNL     1     -12.214  11.949  70.343  1.00  0.00    -0.399 A  
HETATM   10  C   UNL     1     -13.009  11.557  71.458  1.00  0.00    -0.485 A  
HETATM   11  C   UNL     1     -12.790  10.246  71.813  1.00  0.00    -0.460 A  
ENDBRANCH   6   7
ENDBRANCH   5   6
ENDBRANCH   4   5
BRANCH   4  12
HETATM   12  C   UNL     1     -11.236  13.232  65.802  1.00  0.00    -0.294 C  
HETATM   13  C   UNL     1     -12.367  13.888  66.628  1.00  0.00    -0.411 C  
HETATM   14  C   UNL     1     -10.418  14.437  65.257  1.00  0.00    -0.410 C  
HETATM   15  C   UNL     1     -11.819  14.615  67.859  1.00  0.00    -0.352 C  
HETATM   16  C   UNL     1      -9.936  15.379  66.343  1.00  0.00    -0.295 A  
HETATM   17  C   UNL     1      -8.828  16.203  66.086  1.00  0.00    -0.367 A  
HETATM   18  C   UNL     1     -10.614  15.481  67.576  1.00  0.00    -0.297 A  
HETATM   19  C   UNL     1      -8.368  17.096  67.053  1.00  0.00    -0.232 A  
HETATM   20  C   UNL     1     -10.117  16.370  68.544  1.00  0.00    -0.248 A  
HETATM   21  O   UNL     1     -10.671  16.501  69.786  1.00  0.00    -0.328 OA 
HETATM   22  H   UNL     1     -10.336  17.102  70.441  1.00  0.00     0.000 HD 
HETATM   23  C   UNL     1      -9.010  17.175  68.284  1.00  0.00    -0.248 A  
ENDBRANCH   4  12
ENDBRANCH   3   4
ENDBRANCH   2   3
TORSDOF 6
ENDMDL
MODEL       26
REMARK 921   NORMALIZED FREE ENERGY PREDICTED BY IDOCK:   -4.96 KCAL/MOL
REMARK 922        TOTAL FREE ENERGY PREDICTED BY IDOCK:   -8.10 KCAL/MOL
REMARK 923 INTER-LIGAND FREE ENERGY PREDICTED BY IDOCK:   -6.19 KCAL/MOL
REMARK 924 INTRA-LIGAND FREE ENERGY PREDICTED BY IDOCK:   -1.90 KCAL/MOL
REMARK 927      BINDING AFFINITY PREDICTED BY RF-SCORE:    0.00 PKD
ROOT
HETATM    1  C   UNL     1     -11.262   6.268  69.521  1.00  0.00    -0.500 C  
HETATM    2  C   UNL     1     -10.436   5.225  70.261  1.00  0.00    -0.332 C  
ENDROOT
BRANCH   2   3
HETATM    3  C   UNL     1      -9.058   5.776  70.664  1.00  0.00    -0.151 C  
BRANCH   3   4
HETATM    4  N   UNL     1      -8.669   7.073  70.064  1.00  0.00    -0.141 NA 
BRANCH   4   5
HETATM    5  C   UNL     1      -7.638   6.918  69.019  1.00  0.00    -0.104 C  
BRANCH   5   6
HETATM    6  C   UNL     1      -8.217   6.661  67.613  1.00  0.00    -0.122 C  
BRANCH   6   7
HETATM    7  C   UNL     1      -8.666   7.946  66.975  1.00  0.00    -0.129 A  
HETATM    8  S   UNL     1      -7.516   9.152  66.572  1.00  0.00    -0.093 SA 
HETATM    9  C   UNL     1      -9.949   8.337  66.650  1.00  0.00    -0.348 A  
HETATM   10  C   UNL     1      -9.987   9.644  66.087  1.00  0.00    -0.346 A  
HETATM   11  C   UNL     1      -8.732  10.201  65.991  1.00  0.00    -0.140 A  
ENDBRANCH   6   7
ENDBRANCH   5   6
ENDBRANCH   4   5
BRANCH   4  12
HETATM   12  C   UNL     1      -8.367   8.136  71.065  1.00  0.00    -0.120 C  
HETATM   13  C   UNL     1      -8.332   9.569  70.483  1.00  0.00    -0.203 C  
HETATM   14  C   UNL     1      -9.406   8.222  72.219  1.00  0.00    -0.323 C  
HETATM   15  C   UNL     1      -9.663   9.945  69.825  1.00  0.00    -0.266 C  
HETATM   16  C   UNL     1     -10.756   8.753  71.778  1.00  0.00    -0.413 A  
HETATM   17  C   UNL     1     -11.891   8.447  72.546  1.00  0.00    -0.427 A  
HETATM   18  C   UNL     1     -10.878   9.591  70.649  1.00  0.00    -0.371 A  
HETATM   19  C   UNL     1     -13.147   8.933  72.182  1.00  0.00    -0.475 A  
HETATM   20  C   UNL     1     -12.157  10.049  70.289  1.00  0.00    -0.150 A  
HETATM   21  O   UNL     1     -12.385  10.820  69.183  1.00  0.00    -0.699 OA 
HETATM   22  H   UNL     1     -13.249  11.130  68.939  1.00  0.00     0.000 HD 
HETATM   23  C   UNL     1     -13.279   9.730  71.050  1.00  0.00    -0.341 A  
ENDBRANCH   4  12
ENDBRANCH   3   4
ENDBRANCH   2   3
TORSDOF 6
ENDMDL
MODEL       27
REMARK 921   NORMALIZED FREE ENERGY PREDICTED BY IDOCK:   -4.96 KCAL/MOL
REMARK 922        TOTAL FREE ENERGY PREDICTED BY IDOCK:   -8.09 KCAL/MOL
REMARK 923 INTER-LIGAND FREE ENERGY PREDICTED BY IDOCK:   -7.05 KCAL/MOL
REMARK 924 INTRA-LIGAND FREE ENERGY PREDICTED BY IDOCK:   -1.04 KCAL/MOL
REMARK 927      BINDING AFFINITY PREDICTED BY RF-SCORE:    0.00 PKD
ROOT
HETATM    1  C   UNL     1     -10.306   5.394  66.980  1.00  0.00    -0.299 C  
HETATM    2  C   UNL     1     -11.151   6.658  67.079  1.00  0.00    -0.395 C  
ENDROOT
BRANCH   2   3
HETATM    3  C   UNL     1     -10.291   7.924  66.927  1.00  0.00    -0.330 C  
BRANCH   3   4
HETATM    4  N   UNL     1     -10.477   8.972  67.956  1.00  0.00    -0.226 NA 
BRANCH   4   5
HETATM    5  C   UNL     1     -10.991  10.233  67.383  1.00  0.00    -0.252 C  
BRANCH   5   6
HETATM    6  C   UNL     1     -10.208  10.712  66.144  1.00  0.00    -0.308 C  
BRANCH   6   7
HETATM    7  C   UNL     1     -11.022  11.687  65.341  1.00  0.00    -0.270 A  
HETATM    8  S   UNL     1     -10.825  11.773  63.640  1.00  0.00    -0.457 SA 
HETATM    9  C   UNL     1     -11.962  12.592  65.791  1.00  0.00    -0.503 A  
HETATM   10  C   UNL     1     -12.505  13.375  64.733  1.00  0.00    -0.416 A  
HETATM   11  C   UNL     1     -11.971  13.034  63.512  1.00  0.00    -0.545 A  
ENDBRANCH   6   7
ENDBRANCH   5   6
ENDBRANCH   4   5
BRANCH   4  12
HETATM   12  C   UNL     1      -9.305   9.147  68.861  1.00  0.00    -0.146 C  
HETATM   13  C   UNL     1      -9.569  10.063  70.078  1.00  0.00    -0.205 C  
HETATM   14  C   UNL     1      -8.798   7.818  69.491  1.00  0.00    -0.139 C  
HETATM   15  C   UNL     1     -10.722   9.541  70.941  1.00  0.00    -0.403 C  
HETATM   16  C   UNL     1      -9.749   7.237  70.520  1.00  0.00    -0.176 A  
HETATM   17  C   UNL     1      -9.681   5.865  70.809  1.00  0.00    -0.212 A  
HETATM   18  C   UNL     1     -10.652   8.059  71.227  1.00  0.00    -0.245 A  
HETATM   19  C   UNL     1     -10.526   5.298  71.763  1.00  0.00    -0.278 A  
HETATM   20  C   UNL     1     -11.509   7.461  72.166  1.00  0.00    -0.282 A  
HETATM   21  O   UNL     1     -12.454   8.163  72.861  1.00  0.00    -0.617 OA 
HETATM   22  H   UNL     1     -13.034   7.759  73.496  1.00  0.00     0.000 HD 
HETATM   23  C   UNL     1     -11.443   6.096  72.437  1.00  0.00    -0.349 A  
ENDBRANCH   4  12
ENDBRANCH   3   4
ENDBRANCH   2   3
TORSDOF 6
ENDMDL
MODEL       28
REMARK 921   NORMALIZED FREE ENERGY PREDICTED BY IDOCK:   -4.95 KCAL/MOL
REMARK 922        TOTAL FREE ENERGY PREDICTED BY IDOCK:   -8.09 KCAL/MOL
REMARK 923 INTER-LIGAND FREE ENERGY PREDICTED BY IDOCK:   -6.43 KCAL/MOL
REMARK 924 INTRA-LIGAND FREE ENERGY PREDICTED BY IDOCK:   -1.66 KCAL/MOL
REMARK 927      BINDING AFFINITY PREDICTED BY RF-SCORE:    0.00 PKD
ROOT
HETATM    1  C   UNL     1     -10.575   7.803  67.154  1.00  0.00    -0.401 C  
HETATM    2  C   UNL     1      -9.171   7.686  66.576  1.00  0.00    -0.220 C  
ENDROOT
BRANCH   2   3
HETATM    3  C   UNL     1      -8.355   8.968  66.811  1.00  0.00    -0.115 C  
BRANCH   3   4
HETATM    4  N   UNL     1      -9.116  10.237  66.824  1.00  0.00    -0.142 NA 
BRANCH   4   5
HETATM    5  C   UNL     1      -9.216  10.843  65.481  1.00  0.00    -0.209 C  
BRANCH   5   6
HETATM    6  C   UNL     1     -10.652  10.868  64.920  1.00  0.00    -0.304 C  
BRANCH   6   7
HETATM    7  C   UNL     1     -11.233  12.252  64.995  1.00  0.00    -0.321 A  
HETATM    8  S   UNL     1     -10.197  13.618  65.003  1.00  0.00    -0.294 SA 
HETATM    9  C   UNL     1     -12.562  12.620  65.072  1.00  0.00    -0.504 A  
HETATM   10  C   UNL     1     -12.725  14.032  65.161  1.00  0.00    -0.419 A  
HETATM   11  C   UNL     1     -11.518  14.693  65.138  1.00  0.00    -0.375 A  
ENDBRANCH   6   7
ENDBRANCH   5   6
ENDBRANCH   4   5
BRANCH   4  12
HETATM   12  C   UNL     1      -8.689  11.188  67.891  1.00  0.00    -0.136 C  
HETATM   13  C   UNL     1      -9.755  12.242  68.272  1.00  0.00    -0.219 C  
HETATM   14  C   UNL     1      -8.341  10.498  69.241  1.00  0.00    -0.144 C  
HETATM   15  C   UNL     1     -11.052  11.586  68.755  1.00  0.00    -0.288 C  
HETATM   16  C   UNL     1      -9.551   9.935  69.960  1.00  0.00    -0.260 A  
HETATM   17  C   UNL     1      -9.366   8.906  70.897  1.00  0.00    -0.295 A  
HETATM   18  C   UNL     1     -10.841  10.465  69.746  1.00  0.00    -0.342 A  
HETATM   19  C   UNL     1     -10.453   8.375  71.593  1.00  0.00    -0.321 A  
HETATM   20  C   UNL     1     -11.923   9.899  70.441  1.00  0.00    -0.195 A  
HETATM   21  O   UNL     1     -13.215  10.307  70.262  1.00  0.00    -0.538 OA 
HETATM   22  H   UNL     1     -13.947   9.924  70.731  1.00  0.00     0.000 HD 
HETATM   23  C   UNL     1     -11.731   8.869  71.360  1.00  0.00    -0.385 A  
ENDBRANCH   4  12
ENDBRANCH   3   4
ENDBRANCH   2   3
TORSDOF 6
ENDMDL
MODEL       29
REMARK 921   NORMALIZED FREE ENERGY PREDICTED BY IDOCK:   -4.91 KCAL/MOL
REMARK 922        TOTAL FREE ENERGY PREDICTED BY IDOCK:   -8.03 KCAL/MOL
REMARK 923 INTER-LIGAND FREE ENERGY PREDICTED BY IDOCK:   -7.00 KCAL/MOL
REMARK 924 INTRA-LIGAND FREE ENERGY PREDICTED BY IDOCK:   -1.03 KCAL/MOL
REMARK 927      BINDING AFFINITY PREDICTED BY RF-SCORE:    0.00 PKD
ROOT
HETATM    1  C   UNL     1     -10.456   6.628  67.895  1.00  0.00    -0.267 C  
HETATM    2  C   UNL     1     -10.616   7.885  67.050  1.00  0.00    -0.381 C  
ENDROOT
BRANCH   2   3
HETATM    3  C   UNL     1     -10.080   9.128  67.780  1.00  0.00    -0.203 C  
BRANCH   3   4
HETATM    4  N   UNL     1     -11.090   9.993  68.432  1.00  0.00    -0.218 NA 
BRANCH   4   5
HETATM    5  C   UNL     1     -11.620  11.022  67.515  1.00  0.00    -0.080 C  
BRANCH   5   6
HETATM    6  C   UNL     1     -10.588  11.520  66.482  1.00  0.00    -0.301 C  
BRANCH   6   7
HETATM    7  C   UNL     1     -11.191  12.563  65.584  1.00  0.00    -0.317 A  
HETATM    8  S   UNL     1     -11.049  14.225  65.983  1.00  0.00    -0.326 SA 
HETATM    9  C   UNL     1     -11.896  12.379  64.412  1.00  0.00    -0.461 A  
HETATM   10  C   UNL     1     -12.341  13.612  63.853  1.00  0.00    -0.375 A  
HETATM   11  C   UNL     1     -11.951  14.692  64.610  1.00  0.00    -0.462 A  
ENDBRANCH   6   7
ENDBRANCH   5   6
ENDBRANCH   4   5
BRANCH   4  12
HETATM   12  C   UNL     1     -10.667  10.522  69.761  1.00  0.00    -0.264 C  
HETATM   13  C   UNL     1     -11.837  10.908  70.696  1.00  0.00    -0.453 C  
HETATM   14  C   UNL     1      -9.831   9.512  70.599  1.00  0.00    -0.328 C  
HETATM   15  C   UNL     1     -12.762   9.718  70.966  1.00  0.00    -0.392 C  
HETATM   16  C   UNL     1     -10.641   8.336  71.110  1.00  0.00    -0.258 A  
HETATM   17  C   UNL     1      -9.974   7.147  71.446  1.00  0.00    -0.193 A  
HETATM   18  C   UNL     1     -12.034   8.438  71.306  1.00  0.00    -0.323 A  
HETATM   19  C   UNL     1     -10.682   6.051  71.937  1.00  0.00    -0.282 A  
HETATM   20  C   UNL     1     -12.729   7.313  71.779  1.00  0.00    -0.335 A  
HETATM   21  O   UNL     1     -14.086   7.295  71.950  1.00  0.00    -0.515 OA 
HETATM   22  H   UNL     1     -14.556   6.535  72.270  1.00  0.00     0.000 HD 
HETATM   23  C   UNL     1     -12.061   6.133  72.098  1.00  0.00    -0.263 A  
ENDBRANCH   4  12
ENDBRANCH   3   4
ENDBRANCH   2   3
TORSDOF 6
ENDMDL
MODEL       30
REMARK 921   NORMALIZED FREE ENERGY PREDICTED BY IDOCK:   -4.91 KCAL/MOL
REMARK 922        TOTAL FREE ENERGY PREDICTED BY IDOCK:   -8.02 KCAL/MOL
REMARK 923 INTER-LIGAND FREE ENERGY PREDICTED BY IDOCK:   -7.03 KCAL/MOL
REMARK 924 INTRA-LIGAND FREE ENERGY PREDICTED BY IDOCK:   -0.99 KCAL/MOL
REMARK 927      BINDING AFFINITY PREDICTED BY RF-SCORE:    0.00 PKD
ROOT
HETATM    1  C   UNL     1     -13.066  10.174  71.264  1.00  0.00    -0.490 C  
HETATM    2  C   UNL     1     -11.755  10.619  70.631  1.00  0.00    -0.454 C  
ENDROOT
BRANCH   2   3
HETATM    3  C   UNL     1     -11.908  10.849  69.118  1.00  0.00    -0.317 C  
BRANCH   3   4
HETATM    4  N   UNL     1     -10.719  10.557  68.286  1.00  0.00    -0.212 NA 
BRANCH   4   5
HETATM    5  C   UNL     1      -9.986   9.365  68.758  1.00  0.00    -0.179 C  
BRANCH   5   6
HETATM    6  C   UNL     1     -10.481   8.046  68.131  1.00  0.00    -0.222 C  
BRANCH   6   7
HETATM    7  C   UNL     1     -10.440   6.927  69.134  1.00  0.00    -0.207 A  
HETATM    8  S   UNL     1      -9.468   5.546  68.840  1.00  0.00    -0.136 SA 
HETATM    9  C   UNL     1     -11.116   6.829  70.333  1.00  0.00    -0.357 A  
HETATM   10  C   UNL     1     -10.850   5.599  71.001  1.00  0.00    -0.289 A  
HETATM   11  C   UNL     1      -9.972   4.808  70.296  1.00  0.00    -0.250 A  
ENDBRANCH   6   7
ENDBRANCH   5   6
ENDBRANCH   4   5
BRANCH   4  12
HETATM   12  C   UNL     1      -9.851  11.743  68.030  1.00  0.00    -0.183 C  
HETATM   13  C   UNL     1      -8.745  11.509  66.976  1.00  0.00    -0.169 C  
HETATM   14  C   UNL     1     -10.627  12.981  67.497  1.00  0.00    -0.237 C  
HETATM   15  C   UNL     1      -9.330  11.089  65.625  1.00  0.00    -0.239 C  
HETATM   16  C   UNL     1     -11.137  12.808  66.079  1.00  0.00    -0.315 A  
HETATM   17  C   UNL     1     -12.220  13.591  65.646  1.00  0.00    -0.500 A  
HETATM   18  C   UNL     1     -10.508  11.923  65.179  1.00  0.00    -0.330 A  
HETATM   19  C   UNL     1     -12.705  13.474  64.344  1.00  0.00    -0.126 A  
HETATM   20  C   UNL     1     -11.029  11.804  63.880  1.00  0.00    -0.407 A  
HETATM   21  O   UNL     1     -10.523  10.936  62.953  1.00  0.00    -0.758 OA 
HETATM   22  H   UNL     1     -10.875  10.856  62.074  1.00  0.00     0.000 HD 
HETATM   23  C   UNL     1     -12.112  12.576  63.463  1.00  0.00    -0.653 A  
ENDBRANCH   4  12
ENDBRANCH   3   4
ENDBRANCH   2   3
TORSDOF 6
ENDMDL
MODEL       31
REMARK 921   NORMALIZED FREE ENERGY PREDICTED BY IDOCK:   -4.90 KCAL/MOL
REMARK 922        TOTAL FREE ENERGY PREDICTED BY IDOCK:   -8.01 KCAL/MOL
REMARK 923 INTER-LIGAND FREE ENERGY PREDICTED BY IDOCK:   -7.04 KCAL/MOL
REMARK 924 INTRA-LIGAND FREE ENERGY PREDICTED BY IDOCK:   -0.97 KCAL/MOL
REMARK 927      BINDING AFFINITY PREDICTED BY RF-SCORE:    0.00 PKD
ROOT
HETATM    1  C   UNL     1     -12.000  13.671  64.083  1.00  0.00    -0.488 C  
HETATM    2  C   UNL     1     -11.434  14.842  64.874  1.00  0.00    -0.407 C  
ENDROOT
BRANCH   2   3
HETATM    3  C   UNL     1     -11.638  14.652  66.387  1.00  0.00    -0.339 C  
BRANCH   3   4
HETATM    4  N   UNL     1     -10.411  14.603  67.214  1.00  0.00    -0.264 NA 
BRANCH   4   5
HETATM    5  C   UNL     1      -9.853  13.239  67.304  1.00  0.00    -0.233 C  
BRANCH   5   6
HETATM    6  C   UNL     1     -10.914  12.127  67.169  1.00  0.00    -0.316 C  
BRANCH   6   7
HETATM    7  C   UNL     1     -11.300  11.588  68.518  1.00  0.00    -0.277 A  
HETATM    8  S   UNL     1     -10.799  10.019  68.992  1.00  0.00    -0.212 SA 
HETATM    9  C   UNL     1     -12.054  12.200  69.500  1.00  0.00    -0.263 A  
HETATM   10  C   UNL     1     -12.239  11.362  70.636  1.00  0.00    -0.484 A  
HETATM   11  C   UNL     1     -11.611  10.147  70.489  1.00  0.00    -0.329 A  
ENDBRANCH   6   7
ENDBRANCH   5   6
ENDBRANCH   4   5
BRANCH   4  12
HETATM   12  C   UNL     1     -10.538  15.297  68.528  1.00  0.00    -0.237 C  
HETATM   13  C   UNL     1      -9.197  15.516  69.266  1.00  0.00    -0.268 C  
HETATM   14  C   UNL     1     -11.150  16.724  68.425  1.00  0.00    -0.266 C  
HETATM   15  C   UNL     1      -8.215  16.335  68.424  1.00  0.00    -0.185 C  
HETATM   16  C   UNL     1     -10.227  17.730  67.765  1.00  0.00    -0.362 A  
HETATM   17  C   UNL     1     -10.782  18.879  67.180  1.00  0.00    -0.506 A  
HETATM   18  C   UNL     1      -8.827  17.558  67.781  1.00  0.00    -0.241 A  
HETATM   19  C   UNL     1      -9.964  19.836  66.580  1.00  0.00    -0.556 A  
HETATM   20  C   UNL     1      -8.025  18.523  67.150  1.00  0.00    -0.242 A  
HETATM   21  O   UNL     1      -6.664  18.419  67.066  1.00  0.00    -0.182 OA 
HETATM   22  H   UNL     1      -6.122  19.072  66.640  1.00  0.00     0.000 HD 
HETATM   23  C   UNL     1      -8.586  19.655  66.562  1.00  0.00    -0.387 A  
ENDBRANCH   4  12
ENDBRANCH   3   4
ENDBRANCH   2   3
TORSDOF 6
ENDMDL
MODEL       32
REMARK 921   NORMALIZED FREE ENERGY PREDICTED BY IDOCK:   -4.89 KCAL/MOL
REMARK 922        TOTAL FREE ENERGY PREDICTED BY IDOCK:   -8.00 KCAL/MOL
REMARK 923 INTER-LIGAND FREE ENERGY PREDICTED BY IDOCK:   -6.74 KCAL/MOL
REMARK 924 INTRA-LIGAND FREE ENERGY PREDICTED BY IDOCK:   -1.26 KCAL/MOL
REMARK 927      BINDING AFFINITY PREDICTED BY RF-SCORE:    0.00 PKD
ROOT
HETATM    1  C   UNL     1     -12.912   9.793  71.724  1.00  0.00    -0.536 C  
HETATM    2  C   UNL     1     -12.220  10.970  71.051  1.00  0.00    -0.456 C  
ENDROOT
BRANCH   2   3
HETATM    3  C   UNL     1     -12.258  10.847  69.518  1.00  0.00    -0.261 C  
BRANCH   3   4
HETATM    4  N   UNL     1     -10.990  11.120  68.805  1.00  0.00    -0.201 NA 
BRANCH   4   5
HETATM    5  C   UNL     1      -9.842  10.428  69.423  1.00  0.00    -0.213 C  
BRANCH   5   6
HETATM    6  C   UNL     1      -9.826   8.907  69.168  1.00  0.00    -0.180 C  
BRANCH   6   7
HETATM    7  C   UNL     1      -9.132   8.588  67.874  1.00  0.00    -0.140 A  
HETATM    8  S   UNL     1      -7.431   8.382  67.840  1.00  0.00    -0.099 SA 
HETATM    9  C   UNL     1      -9.689   8.433  66.620  1.00  0.00    -0.320 A  
HETATM   10  C   UNL     1      -8.706   8.166  65.624  1.00  0.00    -0.176 A  
HETATM   11  C   UNL     1      -7.437   8.115  66.153  1.00  0.00    -0.078 A  
ENDBRANCH   6   7
ENDBRANCH   5   6
ENDBRANCH   4   5
BRANCH   4  12
HETATM   12  C   UNL     1     -10.752  12.566  68.527  1.00  0.00    -0.239 C  
HETATM   13  C   UNL     1      -9.346  12.884  67.966  1.00  0.00    -0.213 C  
HETATM   14  C   UNL     1     -11.724  13.168  67.472  1.00  0.00    -0.414 C  
HETATM   15  C   UNL     1      -9.072  12.130  66.662  1.00  0.00    -0.206 C  
HETATM   16  C   UNL     1     -11.479  12.659  66.065  1.00  0.00    -0.414 A  
HETATM   17  C   UNL     1     -12.523  12.720  65.129  1.00  0.00    -0.565 A  
HETATM   18  C   UNL     1     -10.210  12.183  65.671  1.00  0.00    -0.285 A  
HETATM   19  C   UNL     1     -12.330  12.278  63.820  1.00  0.00    -0.637 A  
HETATM   20  C   UNL     1     -10.047  11.722  64.354  1.00  0.00    -0.282 A  
HETATM   21  O   UNL     1      -8.873  11.193  63.893  1.00  0.00    -0.376 OA 
HETATM   22  H   UNL     1      -8.762  10.882  63.002  1.00  0.00     0.000 HD 
HETATM   23  C   UNL     1     -11.093  11.775  63.435  1.00  0.00    -0.448 A  
ENDBRANCH   4  12
ENDBRANCH   3   4
ENDBRANCH   2   3
TORSDOF 6
ENDMDL
MODEL       33
REMARK 921   NORMALIZED FREE ENERGY PREDICTED BY IDOCK:   -4.87 KCAL/MOL
REMARK 922        TOTAL FREE ENERGY PREDICTED BY IDOCK:   -7.97 KCAL/MOL
REMARK 923 INTER-LIGAND FREE ENERGY PREDICTED BY IDOCK:   -6.75 KCAL/MOL
REMARK 924 INTRA-LIGAND FREE ENERGY PREDICTED BY IDOCK:   -1.22 KCAL/MOL
REMARK 927      BINDING AFFINITY PREDICTED BY RF-SCORE:    0.00 PKD
ROOT
HETATM    1  C   UNL     1      -6.814  12.510  67.419  1.00  0.00    -0.145 C  
HETATM    2  C   UNL     1      -8.002  12.127  68.292  1.00  0.00    -0.163 C  
ENDROOT
BRANCH   2   3
HETATM    3  C   UNL     1      -9.206  11.684  67.444  1.00  0.00    -0.168 C  
BRANCH   3   4
HETATM    4  N   UNL     1     -10.504  12.321  67.764  1.00  0.00    -0.206 NA 
BRANCH   4   5
HETATM    5  C   UNL     1     -11.437  11.385  68.424  1.00  0.00    -0.299 C  
BRANCH   5   6
HETATM    6  C   UNL     1     -11.762  11.764  69.883  1.00  0.00    -0.399 C  
BRANCH   6   7
HETATM    7  C   UNL     1     -11.919  10.534  70.733  1.00  0.00    -0.370 A  
HETATM    8  S   UNL     1     -10.630   9.411  70.863  1.00  0.00    -0.338 SA 
HETATM    9  C   UNL     1     -13.016  10.138  71.471  1.00  0.00    -0.547 A  
HETATM   10  C   UNL     1     -12.803   8.891  72.126  1.00  0.00    -0.471 A  
HETATM   11  C   UNL     1     -11.547   8.386  71.876  1.00  0.00    -0.329 A  
ENDBRANCH   6   7
ENDBRANCH   5   6
ENDBRANCH   4   5
BRANCH   4  12
HETATM   12  C   UNL     1     -11.104  13.078  66.628  1.00  0.00    -0.289 C  
HETATM   13  C   UNL     1     -12.247  14.038  67.034  1.00  0.00    -0.387 C  
HETATM   14  C   UNL     1     -10.090  13.992  65.882  1.00  0.00    -0.336 C  
HETATM   15  C   UNL     1     -11.779  15.074  68.060  1.00  0.00    -0.320 C  
HETATM   16  C   UNL     1      -9.645  15.191  66.697  1.00  0.00    -0.272 A  
HETATM   17  C   UNL     1      -8.426  15.812  66.380  1.00  0.00    -0.313 A  
HETATM   18  C   UNL     1     -10.457  15.721  67.721  1.00  0.00    -0.283 A  
HETATM   19  C   UNL     1      -7.992  16.928  67.095  1.00  0.00    -0.210 A  
HETATM   20  C   UNL     1      -9.987  16.831  68.443  1.00  0.00    -0.268 A  
HETATM   21  O   UNL     1     -10.675  17.383  69.487  1.00  0.00    -0.382 OA 
HETATM   22  H   UNL     1     -10.358  18.133  69.975  1.00  0.00     0.000 HD 
HETATM   23  C   UNL     1      -8.771  17.434  68.130  1.00  0.00    -0.256 A  
ENDBRANCH   4  12
ENDBRANCH   3   4
ENDBRANCH   2   3
TORSDOF 6
ENDMDL
MODEL       34
REMARK 921   NORMALIZED FREE ENERGY PREDICTED BY IDOCK:   -4.85 KCAL/MOL
REMARK 922        TOTAL FREE ENERGY PREDICTED BY IDOCK:   -7.95 KCAL/MOL
REMARK 923 INTER-LIGAND FREE ENERGY PREDICTED BY IDOCK:   -6.49 KCAL/MOL
REMARK 924 INTRA-LIGAND FREE ENERGY PREDICTED BY IDOCK:   -1.46 KCAL/MOL
REMARK 927      BINDING AFFINITY PREDICTED BY RF-SCORE:    0.00 PKD
ROOT
HETATM    1  C   UNL     1      -8.099  13.539  68.072  1.00  0.00    -0.156 C  
HETATM    2  C   UNL     1      -7.766  12.162  67.513  1.00  0.00    -0.159 C  
ENDROOT
BRANCH   2   3
HETATM    3  C   UNL     1      -9.037  11.381  67.139  1.00  0.00    -0.164 C  
BRANCH   3   4
HETATM    4  N   UNL     1      -9.916  10.982  68.261  1.00  0.00    -0.173 NA 
BRANCH   4   5
HETATM    5  C   UNL     1      -9.528   9.679  68.838  1.00  0.00    -0.157 C  
BRANCH   5   6
HETATM    6  C   UNL     1      -8.795   9.796  70.190  1.00  0.00    -0.226 C  
BRANCH   6   7
HETATM    7  C   UNL     1      -9.495   8.993  71.250  1.00  0.00    -0.269 A  
HETATM    8  S   UNL     1      -8.610   7.879  72.207  1.00  0.00    -0.161 SA 
HETATM    9  C   UNL     1     -10.832   9.009  71.592  1.00  0.00    -0.437 A  
HETATM   10  C   UNL     1     -11.133   8.081  72.630  1.00  0.00    -0.453 A  
HETATM   11  C   UNL     1     -10.015   7.400  73.053  1.00  0.00    -0.249 A  
ENDBRANCH   6   7
ENDBRANCH   5   6
ENDBRANCH   4   5
BRANCH   4  12
HETATM   12  C   UNL     1     -11.372  11.107  67.964  1.00  0.00    -0.312 C  
HETATM   13  C   UNL     1     -12.285  11.051  69.211  1.00  0.00    -0.280 C  
HETATM   14  C   UNL     1     -11.757  12.447  67.274  1.00  0.00    -0.419 C  
HETATM   15  C   UNL     1     -11.941  12.156  70.214  1.00  0.00    -0.389 C  
HETATM   16  C   UNL     1     -11.644  13.651  68.188  1.00  0.00    -0.367 A  
HETATM   17  C   UNL     1     -11.487  14.925  67.619  1.00  0.00    -0.366 A  
HETATM   18  C   UNL     1     -11.753  13.518  69.589  1.00  0.00    -0.378 A  
HETATM   19  C   UNL     1     -11.399  16.058  68.427  1.00  0.00    -0.355 A  
HETATM   20  C   UNL     1     -11.637  14.670  70.383  1.00  0.00    -0.268 A  
HETATM   21  O   UNL     1     -11.675  14.638  71.750  1.00  0.00    -0.414 OA 
HETATM   22  H   UNL     1     -11.597  15.417  72.287  1.00  0.00     0.000 HD 
HETATM   23  C   UNL     1     -11.469  15.929  69.810  1.00  0.00    -0.342 A  
ENDBRANCH   4  12
ENDBRANCH   3   4
ENDBRANCH   2   3
TORSDOF 6
ENDMDL
MODEL       35
REMARK 921   NORMALIZED FREE ENERGY PREDICTED BY IDOCK:   -4.85 KCAL/MOL
REMARK 922        TOTAL FREE ENERGY PREDICTED BY IDOCK:   -7.95 KCAL/MOL
REMARK 923 INTER-LIGAND FREE ENERGY PREDICTED BY IDOCK:   -8.37 KCAL/MOL
REMARK 924 INTRA-LIGAND FREE ENERGY PREDICTED BY IDOCK:    0.42 KCAL/MOL
REMARK 927      BINDING AFFINITY PREDICTED BY RF-SCORE:    0.00 PKD
ROOT
HETATM    1  C   UNL     1     -12.479  10.244  71.294  1.00  0.00    -0.514 C  
HETATM    2  C   UNL     1     -12.616  11.683  70.814  1.00  0.00    -0.365 C  
ENDROOT
BRANCH   2   3
HETATM    3  C   UNL     1     -12.002  11.873  69.417  1.00  0.00    -0.289 C  
BRANCH   3   4
HETATM    4  N   UNL     1     -10.914  12.871  69.308  1.00  0.00    -0.128 NA 
BRANCH   4   5
HETATM    5  C   UNL     1     -11.428  14.232  69.058  1.00  0.00    -0.284 C  
BRANCH   5   6
HETATM    6  C   UNL     1     -10.936  15.276  70.081  1.00  0.00    -0.312 C  
BRANCH   6   7
HETATM    7  C   UNL     1     -11.869  15.355  71.257  1.00  0.00    -0.380 A  
HETATM    8  S   UNL     1     -13.563  15.255  71.017  1.00  0.00    -0.339 SA 
HETATM    9  C   UNL     1     -11.552  15.514  72.591  1.00  0.00    -0.503 A  
HETATM   10  C   UNL     1     -12.712  15.577  73.416  1.00  0.00    -0.653 A  
HETATM   11  C   UNL     1     -13.871  15.452  72.685  1.00  0.00    -0.529 A  
ENDBRANCH   6   7
ENDBRANCH   5   6
ENDBRANCH   4   5
BRANCH   4  12
HETATM   12  C   UNL     1      -9.806  12.462  68.397  1.00  0.00    -0.198 C  
HETATM   13  C   UNL     1     -10.163  11.302  67.438  1.00  0.00    -0.217 C  
HETATM   14  C   UNL     1      -9.322  13.599  67.452  1.00  0.00    -0.227 C  
HETATM   15  C   UNL     1     -11.361  11.649  66.551  1.00  0.00    -0.331 C  
HETATM   16  C   UNL     1     -10.330  13.959  66.377  1.00  0.00    -0.289 A  
HETATM   17  C   UNL     1     -10.262  15.229  65.781  1.00  0.00    -0.372 A  
HETATM   18  C   UNL     1     -11.289  13.025  65.931  1.00  0.00    -0.344 A  
HETATM   19  C   UNL     1     -11.159  15.590  64.776  1.00  0.00    -0.421 A  
HETATM   20  C   UNL     1     -12.197  13.420  64.935  1.00  0.00    -0.408 A  
HETATM   21  O   UNL     1     -13.195  12.607  64.475  1.00  0.00    -0.783 OA 
HETATM   22  H   UNL     1     -13.809  12.874  63.801  1.00  0.00     0.000 HD 
HETATM   23  C   UNL     1     -12.129  14.686  64.357  1.00  0.00    -0.481 A  
ENDBRANCH   4  12
ENDBRANCH   3   4
ENDBRANCH   2   3
TORSDOF 6
ENDMDL
MODEL       36
REMARK 921   NORMALIZED FREE ENERGY PREDICTED BY IDOCK:   -4.83 KCAL/MOL
REMARK 922        TOTAL FREE ENERGY PREDICTED BY IDOCK:   -7.92 KCAL/MOL
REMARK 923 INTER-LIGAND FREE ENERGY PREDICTED BY IDOCK:   -6.90 KCAL/MOL
REMARK 924 INTRA-LIGAND FREE ENERGY PREDICTED BY IDOCK:   -1.02 KCAL/MOL
REMARK 927      BINDING AFFINITY PREDICTED BY RF-SCORE:    0.00 PKD
ROOT
HETATM    1  C   UNL     1      -9.866  20.510  67.110  1.00  0.00    -0.567 C  
HETATM    2  C   UNL     1     -10.793  19.375  67.526  1.00  0.00    -0.521 C  
ENDROOT
BRANCH   2   3
HETATM    3  C   UNL     1     -10.050  18.317  68.360  1.00  0.00    -0.391 C  
BRANCH   3   4
HETATM    4  N   UNL     1      -9.527  17.147  67.621  1.00  0.00    -0.239 NA 
BRANCH   4   5
HETATM    5  C   UNL     1     -10.540  16.083  67.470  1.00  0.00    -0.313 C  
BRANCH   5   6
HETATM    6  C   UNL     1     -11.513  15.982  68.663  1.00  0.00    -0.377 C  
BRANCH   6   7
HETATM    7  C   UNL     1     -11.651  14.558  69.123  1.00  0.00    -0.298 A  
HETATM    8  S   UNL     1     -12.428  14.208  70.610  1.00  0.00    -0.372 SA 
HETATM    9  C   UNL     1     -11.211  13.410  68.495  1.00  0.00    -0.316 A  
HETATM   10  C   UNL     1     -11.496  12.239  69.255  1.00  0.00    -0.352 A  
HETATM   11  C   UNL     1     -12.152  12.532  70.428  1.00  0.00    -0.297 A  
ENDBRANCH   6   7
ENDBRANCH   5   6
ENDBRANCH   4   5
BRANCH   4  12
HETATM   12  C   UNL     1      -8.204  16.663  68.111  1.00  0.00    -0.192 C  
HETATM   13  C   UNL     1      -7.226  16.236  66.992  1.00  0.00    -0.262 C  
HETATM   14  C   UNL     1      -7.410  17.727  68.922  1.00  0.00    -0.245 C  
HETATM   15  C   UNL     1      -6.945  17.384  66.018  1.00  0.00    -0.246 C  
HETATM   16  C   UNL     1      -6.892  18.870  68.071  1.00  0.00    -0.251 A  
HETATM   17  C   UNL     1      -6.597  20.096  68.689  1.00  0.00    -0.334 A  
HETATM   18  C   UNL     1      -6.650  18.704  66.691  1.00  0.00    -0.211 A  
HETATM   19  C   UNL     1      -6.101  21.166  67.943  1.00  0.00    -0.400 A  
HETATM   20  C   UNL     1      -6.173  19.802  65.957  1.00  0.00    -0.183 A  
HETATM   21  O   UNL     1      -5.958  19.756  64.607  1.00  0.00    -0.228 OA 
HETATM   22  H   UNL     1      -5.635  20.498  64.110  1.00  0.00     0.000 HD 
HETATM   23  C   UNL     1      -5.894  21.018  66.576  1.00  0.00    -0.310 A  
ENDBRANCH   4  12
ENDBRANCH   3   4
ENDBRANCH   2   3
TORSDOF 6
ENDMDL
MODEL       37
REMARK 921   NORMALIZED FREE ENERGY PREDICTED BY IDOCK:   -4.82 KCAL/MOL
REMARK 922        TOTAL FREE ENERGY PREDICTED BY IDOCK:   -7.91 KCAL/MOL
REMARK 923 INTER-LIGAND FREE ENERGY PREDICTED BY IDOCK:   -7.42 KCAL/MOL
REMARK 924 INTRA-LIGAND FREE ENERGY PREDICTED BY IDOCK:   -0.49 KCAL/MOL
REMARK 927      BINDING AFFINITY PREDICTED BY RF-SCORE:    0.00 PKD
ROOT
HETATM    1  C   UNL     1     -11.891  15.928  71.676  1.00  0.00    -0.565 C  
HETATM    2  C   UNL     1     -12.089  14.482  71.239  1.00  0.00    -0.419 C  
ENDROOT
BRANCH   2   3
HETATM    3  C   UNL     1     -12.455  14.388  69.748  1.00  0.00    -0.217 C  
BRANCH   3   4
HETATM    4  N   UNL     1     -11.554  13.575  68.901  1.00  0.00    -0.299 NA 
BRANCH   4   5
HETATM    5  C   UNL     1     -11.082  12.359  69.594  1.00  0.00     0.071 C  
BRANCH   5   6
HETATM    6  C   UNL     1     -12.005  11.139  69.399  1.00  0.00    -0.420 C  
BRANCH   6   7
HETATM    7  C   UNL     1     -11.762  10.107  70.465  1.00  0.00    -0.322 A  
HETATM    8  S   UNL     1     -13.038   9.633  71.506  1.00  0.00    -0.422 SA 
HETATM    9  C   UNL     1     -10.589   9.443  70.761  1.00  0.00    -0.371 A  
HETATM   10  C   UNL     1     -10.737   8.557  71.867  1.00  0.00    -0.394 A  
HETATM   11  C   UNL     1     -12.018   8.566  72.367  1.00  0.00    -0.364 A  
ENDBRANCH   6   7
ENDBRANCH   5   6
ENDBRANCH   4   5
BRANCH   4  12
HETATM   12  C   UNL     1     -10.469  14.360  68.243  1.00  0.00    -0.245 C  
HETATM   13  C   UNL     1      -9.230  13.526  67.844  1.00  0.00    -0.211 C  
HETATM   14  C   UNL     1     -10.909  15.042  66.916  1.00  0.00    -0.315 C  
HETATM   15  C   UNL     1      -9.597  12.388  66.888  1.00  0.00    -0.219 C  
HETATM   16  C   UNL     1     -11.150  14.061  65.784  1.00  0.00    -0.305 A  
HETATM   17  C   UNL     1     -11.981  14.444  64.720  1.00  0.00    -0.455 A  
HETATM   18  C   UNL     1     -10.509  12.804  65.758  1.00  0.00    -0.294 A  
HETATM   19  C   UNL     1     -12.211  13.576  63.651  1.00  0.00    -0.438 A  
HETATM   20  C   UNL     1     -10.775  11.939  64.684  1.00  0.00    -0.307 A  
HETATM   21  O   UNL     1     -10.246  10.681  64.595  1.00  0.00    -0.333 OA 
HETATM   22  H   UNL     1     -10.425  10.096  63.869  1.00  0.00     0.000 HD 
HETATM   23  C   UNL     1     -11.611  12.322  63.637  1.00  0.00    -0.581 A  
ENDBRANCH   4  12
ENDBRANCH   3   4
ENDBRANCH   2   3
TORSDOF 6
ENDMDL
MODEL       38
REMARK 921   NORMALIZED FREE ENERGY PREDICTED BY IDOCK:   -4.82 KCAL/MOL
REMARK 922        TOTAL FREE ENERGY PREDICTED BY IDOCK:   -7.90 KCAL/MOL
REMARK 923 INTER-LIGAND FREE ENERGY PREDICTED BY IDOCK:   -6.98 KCAL/MOL
REMARK 924 INTRA-LIGAND FREE ENERGY PREDICTED BY IDOCK:   -0.91 KCAL/MOL
REMARK 927      BINDING AFFINITY PREDICTED BY RF-SCORE:    0.00 PKD
ROOT
HETATM    1  C   UNL     1     -12.946  14.987  72.448  1.00  0.00    -0.444 C  
HETATM    2  C   UNL     1     -12.850  15.359  70.974  1.00  0.00    -0.525 C  
ENDROOT
BRANCH   2   3
HETATM    3  C   UNL     1     -12.039  14.320  70.181  1.00  0.00    -0.339 C  
BRANCH   3   4
HETATM    4  N   UNL     1     -11.383  14.803  68.946  1.00  0.00    -0.267 NA 
BRANCH   4   5
HETATM    5  C   UNL     1     -11.425  16.275  68.830  1.00  0.00    -0.282 C  
BRANCH   5   6
HETATM    6  C   UNL     1     -10.082  16.958  69.157  1.00  0.00    -0.269 C  
BRANCH   6   7
HETATM    7  C   UNL     1      -9.823  18.105  68.221  1.00  0.00    -0.351 A  
HETATM    8  S   UNL     1      -9.096  17.821  66.694  1.00  0.00    -0.265 SA 
HETATM    9  C   UNL     1     -10.090  19.446  68.415  1.00  0.00    -0.538 A  
HETATM   10  C   UNL     1      -9.673  20.243  67.312  1.00  0.00    -0.590 A  
HETATM   11  C   UNL     1      -9.113  19.485  66.309  1.00  0.00    -0.360 A  
ENDBRANCH   6   7
ENDBRANCH   5   6
ENDBRANCH   4   5
BRANCH   4  12
HETATM   12  C   UNL     1     -11.811  14.083  67.711  1.00  0.00    -0.384 C  
HETATM   13  C   UNL     1     -10.936  14.370  66.469  1.00  0.00    -0.316 C  
HETATM   14  C   UNL     1     -11.777  12.534  67.848  1.00  0.00    -0.416 C  
HETATM   15  C   UNL     1      -9.469  14.001  66.712  1.00  0.00    -0.292 C  
HETATM   16  C   UNL     1     -10.373  11.966  67.924  1.00  0.00    -0.212 A  
HETATM   17  C   UNL     1     -10.182  10.705  68.512  1.00  0.00    -0.191 A  
HETATM   18  C   UNL     1      -9.275  12.653  67.365  1.00  0.00    -0.191 A  
HETATM   19  C   UNL     1      -8.908  10.141  68.583  1.00  0.00    -0.136 A  
HETATM   20  C   UNL     1      -7.998  12.076  67.470  1.00  0.00    -0.159 A  
HETATM   21  O   UNL     1      -6.866  12.688  67.009  1.00  0.00    -0.350 OA 
HETATM   22  H   UNL     1      -6.003  12.298  67.080  1.00  0.00     0.000 HD 
HETATM   23  C   UNL     1      -7.816  10.830  68.066  1.00  0.00    -0.106 A  
ENDBRANCH   4  12
ENDBRANCH   3   4
ENDBRANCH   2   3
TORSDOF 6
ENDMDL
MODEL       39
REMARK 921   NORMALIZED FREE ENERGY PREDICTED BY IDOCK:   -4.80 KCAL/MOL
REMARK 922        TOTAL FREE ENERGY PREDICTED BY IDOCK:   -7.88 KCAL/MOL
REMARK 923 INTER-LIGAND FREE ENERGY PREDICTED BY IDOCK:   -6.39 KCAL/MOL
REMARK 924 INTRA-LIGAND FREE ENERGY PREDICTED BY IDOCK:   -1.48 KCAL/MOL
REMARK 927      BINDING AFFINITY PREDICTED BY RF-SCORE:    0.00 PKD
ROOT
HETATM    1  C   UNL     1      -7.821  12.542  67.121  1.00  0.00    -0.123 C  
HETATM    2  C   UNL     1      -7.995  11.153  66.521  1.00  0.00    -0.158 C  
ENDROOT
BRANCH   2   3
HETATM    3  C   UNL     1      -9.327  10.515  66.950  1.00  0.00    -0.159 C  
BRANCH   3   4
HETATM    4  N   UNL     1      -9.980  11.098  68.144  1.00  0.00    -0.172 NA 
BRANCH   4   5
HETATM    5  C   UNL     1      -9.658  10.351  69.376  1.00  0.00    -0.192 C  
BRANCH   5   6
HETATM    6  C   UNL     1     -10.056   8.862  69.318  1.00  0.00    -0.205 C  
BRANCH   6   7
HETATM    7  C   UNL     1     -11.059   8.533  70.387  1.00  0.00    -0.231 A  
HETATM    8  S   UNL     1     -11.726   6.956  70.483  1.00  0.00    -0.327 SA 
HETATM    9  C   UNL     1     -11.568   9.361  71.367  1.00  0.00    -0.451 A  
HETATM   10  C   UNL     1     -12.529   8.700  72.185  1.00  0.00    -0.453 A  
HETATM   11  C   UNL     1     -12.711   7.389  71.810  1.00  0.00    -0.334 A  
ENDBRANCH   6   7
ENDBRANCH   5   6
ENDBRANCH   4   5
BRANCH   4  12
HETATM   12  C   UNL     1     -11.433  11.379  67.963  1.00  0.00    -0.307 C  
HETATM   13  C   UNL     1     -12.027  12.362  69.000  1.00  0.00    -0.291 C  
HETATM   14  C   UNL     1     -11.780  12.023  66.590  1.00  0.00    -0.331 C  
HETATM   15  C   UNL     1     -11.307  13.713  68.975  1.00  0.00    -0.333 C  
HETATM   16  C   UNL     1     -11.291  13.452  66.453  1.00  0.00    -0.338 A  
HETATM   17  C   UNL     1     -11.097  13.983  65.168  1.00  0.00    -0.341 A  
HETATM   18  C   UNL     1     -11.085  14.266  67.587  1.00  0.00    -0.305 A  
HETATM   19  C   UNL     1     -10.666  15.299  65.001  1.00  0.00    -0.461 A  
HETATM   20  C   UNL     1     -10.627  15.580  67.395  1.00  0.00    -0.292 A  
HETATM   21  O   UNL     1     -10.348  16.428  68.430  1.00  0.00    -0.256 OA 
HETATM   22  H   UNL     1     -10.039  17.317  68.301  1.00  0.00     0.000 HD 
HETATM   23  C   UNL     1     -10.427  16.095  66.116  1.00  0.00    -0.334 A  
ENDBRANCH   4  12
ENDBRANCH   3   4
ENDBRANCH   2   3
TORSDOF 6
ENDMDL
MODEL       40
REMARK 921   NORMALIZED FREE ENERGY PREDICTED BY IDOCK:   -4.78 KCAL/MOL
REMARK 922        TOTAL FREE ENERGY PREDICTED BY IDOCK:   -7.85 KCAL/MOL
REMARK 923 INTER-LIGAND FREE ENERGY PREDICTED BY IDOCK:   -7.14 KCAL/MOL
REMARK 924 INTRA-LIGAND FREE ENERGY PREDICTED BY IDOCK:   -0.70 KCAL/MOL
REMARK 927      BINDING AFFINITY PREDICTED BY RF-SCORE:    0.00 PKD
ROOT
HETATM    1  C   UNL     1     -11.850  12.409  63.717  1.00  0.00    -0.587 C  
HETATM    2  C   UNL     1     -12.682  12.722  64.954  1.00  0.00    -0.479 C  
ENDROOT
BRANCH   2   3
HETATM    3  C   UNL     1     -11.880  12.491  66.247  1.00  0.00    -0.390 C  
BRANCH   3   4
HETATM    4  N   UNL     1     -11.709  13.665  67.132  1.00  0.00    -0.360 NA 
BRANCH   4   5
HETATM    5  C   UNL     1     -11.837  14.941  66.399  1.00  0.00    -0.131 C  
BRANCH   5   6
HETATM    6  C   UNL     1     -10.483  15.570  66.013  1.00  0.00    -0.335 C  
BRANCH   6   7
HETATM    7  C   UNL     1     -10.488  17.051  66.271  1.00  0.00    -0.258 A  
HETATM    8  S   UNL     1     -10.419  17.642  67.879  1.00  0.00    -0.386 SA 
HETATM    9  C   UNL     1     -10.553  18.080  65.353  1.00  0.00     0.146 A  
HETATM   10  C   UNL     1     -10.569  19.359  65.978  1.00  0.00    -0.573 A  
HETATM   11  C   UNL     1     -10.504  19.264  67.350  1.00  0.00    -0.459 A  
ENDBRANCH   6   7
ENDBRANCH   5   6
ENDBRANCH   4   5
BRANCH   4  12
HETATM   12  C   UNL     1     -10.510  13.588  68.015  1.00  0.00    -0.242 C  
HETATM   13  C   UNL     1     -10.626  14.408  69.321  1.00  0.00    -0.190 C  
HETATM   14  C   UNL     1     -10.182  12.147  68.501  1.00  0.00    -0.214 C  
HETATM   15  C   UNL     1     -11.825  13.965  70.163  1.00  0.00    -0.368 C  
HETATM   16  C   UNL     1     -11.188  11.603  69.496  1.00  0.00    -0.282 A  
HETATM   17  C   UNL     1     -11.308  10.213  69.650  1.00  0.00    -0.289 A  
HETATM   18  C   UNL     1     -11.958  12.467  70.305  1.00  0.00    -0.371 A  
HETATM   19  C   UNL     1     -12.208   9.675  70.570  1.00  0.00    -0.153 A  
HETATM   20  C   UNL     1     -12.875  11.902  71.206  1.00  0.00    -0.290 A  
HETATM   21  O   UNL     1     -13.702  12.654  71.993  1.00  0.00    -0.389 OA 
HETATM   22  H   UNL     1     -14.322  12.272  72.603  1.00  0.00     0.000 HD 
HETATM   23  C   UNL     1     -12.995  10.520  71.344  1.00  0.00    -0.542 A  
ENDBRANCH   4  12
ENDBRANCH   3   4
ENDBRANCH   2   3
TORSDOF 6
ENDMDL
MODEL       41
REMARK 921   NORMALIZED FREE ENERGY PREDICTED BY IDOCK:   -4.77 KCAL/MOL
REMARK 922        TOTAL FREE ENERGY PREDICTED BY IDOCK:   -7.84 KCAL/MOL
REMARK 923 INTER-LIGAND FREE ENERGY PREDICTED BY IDOCK:   -6.56 KCAL/MOL
REMARK 924 INTRA-LIGAND FREE ENERGY PREDICTED BY IDOCK:   -1.28 KCAL/MOL
REMARK 927      BINDING AFFINITY PREDICTED BY RF-SCORE:    0.00 PKD
ROOT
HETATM    1  C   UNL     1     -11.813  10.861  68.957  1.00  0.00    -0.370 C  
HETATM    2  C   UNL     1     -10.761  10.020  69.669  1.00  0.00    -0.282 C  
ENDROOT
BRANCH   2   3
HETATM    3  C   UNL     1      -9.445   9.972  68.875  1.00  0.00    -0.172 C  
BRANCH   3   4
HETATM    4  N   UNL     1      -9.562   9.703  67.424  1.00  0.00    -0.144 NA 
BRANCH   4   5
HETATM    5  C   UNL     1      -9.437   8.266  67.111  1.00  0.00    -0.160 C  
BRANCH   5   6
HETATM    6  C   UNL     1     -10.729   7.463  67.364  1.00  0.00    -0.348 C  
BRANCH   6   7
HETATM    7  C   UNL     1     -10.522   6.443  68.448  1.00  0.00    -0.222 A  
HETATM    8  S   UNL     1      -9.495   5.097  68.176  1.00  0.00    -0.133 SA 
HETATM    9  C   UNL     1     -11.074   6.414  69.713  1.00  0.00    -0.459 A  
HETATM   10  C   UNL     1     -10.667   5.267  70.452  1.00  0.00    -0.216 A  
HETATM   11  C   UNL     1      -9.811   4.466  69.732  1.00  0.00    -0.214 A  
ENDBRANCH   6   7
ENDBRANCH   5   6
ENDBRANCH   4   5
BRANCH   4  12
HETATM   12  C   UNL     1      -8.715  10.588  66.574  1.00  0.00    -0.139 C  
HETATM   13  C   UNL     1      -8.974  10.453  65.055  1.00  0.00    -0.221 C  
HETATM   14  C   UNL     1      -8.914  12.105  66.858  1.00  0.00    -0.201 C  
HETATM   15  C   UNL     1     -10.432  10.760  64.700  1.00  0.00    -0.346 C  
HETATM   16  C   UNL     1     -10.260  12.633  66.401  1.00  0.00    -0.263 A  
HETATM   17  C   UNL     1     -10.768  13.800  66.993  1.00  0.00    -0.283 A  
HETATM   18  C   UNL     1     -10.976  12.006  65.359  1.00  0.00    -0.347 A  
HETATM   19  C   UNL     1     -11.994  14.327  66.586  1.00  0.00    -0.454 A  
HETATM   20  C   UNL     1     -12.219  12.541  64.984  1.00  0.00    -0.456 A  
HETATM   21  O   UNL     1     -13.011  11.975  64.024  1.00  0.00    -0.622 OA 
HETATM   22  H   UNL     1     -13.852  12.337  63.769  1.00  0.00     0.000 HD 
HETATM   23  C   UNL     1     -12.721  13.693  65.585  1.00  0.00    -0.505 A  
ENDBRANCH   4  12
ENDBRANCH   3   4
ENDBRANCH   2   3
TORSDOF 6
ENDMDL
MODEL       42
REMARK 921   NORMALIZED FREE ENERGY PREDICTED BY IDOCK:   -4.77 KCAL/MOL
REMARK 922        TOTAL FREE ENERGY PREDICTED BY IDOCK:   -7.83 KCAL/MOL
REMARK 923 INTER-LIGAND FREE ENERGY PREDICTED BY IDOCK:   -6.60 KCAL/MOL
REMARK 924 INTRA-LIGAND FREE ENERGY PREDICTED BY IDOCK:   -1.23 KCAL/MOL
REMARK 927      BINDING AFFINITY PREDICTED BY RF-SCORE:    0.00 PKD
ROOT
HETATM    1  C   UNL     1     -11.215  15.863  64.597  1.00  0.00    -0.361 C  
HETATM    2  C   UNL     1     -12.032  14.676  65.091  1.00  0.00    -0.334 C  
ENDROOT
BRANCH   2   3
HETATM    3  C   UNL     1     -11.697  14.329  66.551  1.00  0.00    -0.394 C  
BRANCH   3   4
HETATM    4  N   UNL     1     -10.293  14.539  66.970  1.00  0.00    -0.261 NA 
BRANCH   4   5
HETATM    5  C   UNL     1      -9.473  13.322  66.804  1.00  0.00    -0.257 C  
BRANCH   5   6
HETATM    6  C   UNL     1     -10.305  12.032  66.655  1.00  0.00    -0.237 C  
BRANCH   6   7
HETATM    7  C   UNL     1      -9.931  11.295  65.399  1.00  0.00    -0.250 A  
HETATM    8  S   UNL     1      -8.707  10.096  65.440  1.00  0.00    -0.172 SA 
HETATM    9  C   UNL     1     -10.450  11.451  64.129  1.00  0.00    -0.421 A  
HETATM   10  C   UNL     1      -9.819  10.594  63.182  1.00  0.00    -0.351 A  
HETATM   11  C   UNL     1      -8.851   9.807  63.762  1.00  0.00    -0.235 A  
ENDBRANCH   6   7
ENDBRANCH   5   6
ENDBRANCH   4   5
BRANCH   4  12
HETATM   12  C   UNL     1     -10.149  15.192  68.304  1.00  0.00    -0.223 C  
HETATM   13  C   UNL     1      -8.686  15.439  68.739  1.00  0.00    -0.195 C  
HETATM   14  C   UNL     1     -10.810  16.597  68.386  1.00  0.00    -0.361 C  
HETATM   15  C   UNL     1      -7.936  16.316  67.733  1.00  0.00    -0.154 C  
HETATM   16  C   UNL     1     -10.084  17.654  67.576  1.00  0.00    -0.337 A  
HETATM   17  C   UNL     1     -10.787  18.798  67.166  1.00  0.00    -0.375 A  
HETATM   18  C   UNL     1      -8.709  17.532  67.281  1.00  0.00    -0.236 A  
HETATM   19  C   UNL     1     -10.148  19.800  66.437  1.00  0.00    -0.600 A  
HETATM   20  C   UNL     1      -8.094  18.543  66.525  1.00  0.00    -0.280 A  
HETATM   21  O   UNL     1      -6.782  18.490  66.143  1.00  0.00    -0.205 OA 
HETATM   22  H   UNL     1      -6.365  19.173  65.632  1.00  0.00     0.000 HD 
HETATM   23  C   UNL     1      -8.802  19.669  66.112  1.00  0.00    -0.367 A  
ENDBRANCH   4  12
ENDBRANCH   3   4
ENDBRANCH   2   3
TORSDOF 6
ENDMDL
MODEL       43
REMARK 921   NORMALIZED FREE ENERGY PREDICTED BY IDOCK:   -4.76 KCAL/MOL
REMARK 922        TOTAL FREE ENERGY PREDICTED BY IDOCK:   -7.82 KCAL/MOL
REMARK 923 INTER-LIGAND FREE ENERGY PREDICTED BY IDOCK:   -7.00 KCAL/MOL
REMARK 924 INTRA-LIGAND FREE ENERGY PREDICTED BY IDOCK:   -0.82 KCAL/MOL
REMARK 927      BINDING AFFINITY PREDICTED BY RF-SCORE:    0.00 PKD
ROOT
HETATM    1  C   UNL     1      -7.252  17.406  68.638  1.00  0.00    -0.237 C  
HETATM    2  C   UNL     1      -7.298  15.907  68.901  1.00  0.00    -0.167 C  
ENDROOT
BRANCH   2   3
HETATM    3  C   UNL     1      -8.653  15.478  69.487  1.00  0.00    -0.218 C  
BRANCH   3   4
HETATM    4  N   UNL     1      -9.547  14.716  68.586  1.00  0.00    -0.216 NA 
BRANCH   4   5
HETATM    5  C   UNL     1      -8.836  14.203  67.397  1.00  0.00    -0.206 C  
BRANCH   5   6
HETATM    6  C   UNL     1      -9.124  12.718  67.097  1.00  0.00    -0.219 C  
BRANCH   6   7
HETATM    7  C   UNL     1      -9.904  12.571  65.821  1.00  0.00    -0.234 A  
HETATM    8  S   UNL     1     -10.178  11.014  65.157  1.00  0.00    -0.297 SA 
HETATM    9  C   UNL     1     -10.467  13.563  65.043  1.00  0.00    -0.390 A  
HETATM   10  C   UNL     1     -11.106  13.039  63.883  1.00  0.00    -0.411 A  
HETATM   11  C   UNL     1     -11.020  11.667  63.822  1.00  0.00    -0.422 A  
ENDBRANCH   6   7
ENDBRANCH   5   6
ENDBRANCH   4   5
BRANCH   4  12
HETATM   12  C   UNL     1     -10.830  15.410  68.276  1.00  0.00    -0.269 C  
HETATM   13  C   UNL     1     -12.015  14.460  67.985  1.00  0.00    -0.326 C  
HETATM   14  C   UNL     1     -11.345  16.315  69.430  1.00  0.00    -0.284 C  
HETATM   15  C   UNL     1     -12.292  13.522  69.164  1.00  0.00    -0.080 C  
HETATM   16  C   UNL     1     -11.836  15.536  70.635  1.00  0.00    -0.400 A  
HETATM   17  C   UNL     1     -11.872  16.172  71.887  1.00  0.00    -0.605 A  
HETATM   18  C   UNL     1     -12.307  14.212  70.507  1.00  0.00    -0.434 A  
HETATM   19  C   UNL     1     -12.335  15.494  73.014  1.00  0.00    -0.554 A  
HETATM   20  C   UNL     1     -12.745  13.542  71.662  1.00  0.00    -0.287 A  
HETATM   21  O   UNL     1     -13.169  12.242  71.650  1.00  0.00    -0.398 OA 
HETATM   22  H   UNL     1     -13.466  11.789  72.430  1.00  0.00     0.000 HD 
HETATM   23  C   UNL     1     -12.766  14.177  72.901  1.00  0.00    -0.347 A  
ENDBRANCH   4  12
ENDBRANCH   3   4
ENDBRANCH   2   3
TORSDOF 6
ENDMDL
MODEL       44
REMARK 921   NORMALIZED FREE ENERGY PREDICTED BY IDOCK:   -4.75 KCAL/MOL
REMARK 922        TOTAL FREE ENERGY PREDICTED BY IDOCK:   -7.81 KCAL/MOL
REMARK 923 INTER-LIGAND FREE ENERGY PREDICTED BY IDOCK:   -6.72 KCAL/MOL
REMARK 924 INTRA-LIGAND FREE ENERGY PREDICTED BY IDOCK:   -1.09 KCAL/MOL
REMARK 927      BINDING AFFINITY PREDICTED BY RF-SCORE:    0.00 PKD
ROOT
HETATM    1  C   UNL     1      -8.032  18.363  68.550  1.00  0.00    -0.333 C  
HETATM    2  C   UNL     1      -8.734  17.166  67.923  1.00  0.00    -0.222 C  
ENDROOT
BRANCH   2   3
HETATM    3  C   UNL     1      -8.895  16.014  68.929  1.00  0.00    -0.233 C  
BRANCH   3   4
HETATM    4  N   UNL     1      -9.646  14.830  68.455  1.00  0.00    -0.212 NA 
BRANCH   4   5
HETATM    5  C   UNL     1      -8.848  13.993  67.537  1.00  0.00    -0.199 C  
BRANCH   5   6
HETATM    6  C   UNL     1      -8.372  12.667  68.165  1.00  0.00    -0.175 C  
BRANCH   6   7
HETATM    7  C   UNL     1      -9.061  11.494  67.525  1.00  0.00    -0.166 A  
HETATM    8  S   UNL     1      -9.368  11.494  65.838  1.00  0.00    -0.211 SA 
HETATM    9  C   UNL     1      -9.524  10.341  68.127  1.00  0.00    -0.155 A  
HETATM   10  C   UNL     1     -10.155   9.465  67.198  1.00  0.00    -0.292 A  
HETATM   11  C   UNL     1     -10.142   9.973  65.919  1.00  0.00    -0.249 A  
ENDBRANCH   6   7
ENDBRANCH   5   6
ENDBRANCH   4   5
BRANCH   4  12
HETATM   12  C   UNL     1     -11.017  15.140  67.959  1.00  0.00    -0.295 C  
HETATM   13  C   UNL     1     -11.868  13.896  67.613  1.00  0.00    -0.422 C  
HETATM   14  C   UNL     1     -11.890  15.922  68.982  1.00  0.00    -0.328 C  
HETATM   15  C   UNL     1     -12.033  12.969  68.821  1.00  0.00    -0.302 C  
HETATM   16  C   UNL     1     -12.304  15.092  70.182  1.00  0.00    -0.380 A  
HETATM   17  C   UNL     1     -12.659  15.747  71.372  1.00  0.00    -0.516 A  
HETATM   18  C   UNL     1     -12.393  13.686  70.101  1.00  0.00    -0.372 A  
HETATM   19  C   UNL     1     -13.063  15.017  72.490  1.00  0.00    -0.480 A  
HETATM   20  C   UNL     1     -12.779  12.972  71.248  1.00  0.00    -0.293 A  
HETATM   21  O   UNL     1     -12.844  11.607  71.286  1.00  0.00    -0.391 OA 
HETATM   22  H   UNL     1     -13.105  11.123  72.061  1.00  0.00     0.000 HD 
HETATM   23  C   UNL     1     -13.118  13.630  72.428  1.00  0.00    -0.498 A  
ENDBRANCH   4  12
ENDBRANCH   3   4
ENDBRANCH   2   3
TORSDOF 6
ENDMDL
MODEL       45
REMARK 921   NORMALIZED FREE ENERGY PREDICTED BY IDOCK:   -4.74 KCAL/MOL
REMARK 922        TOTAL FREE ENERGY PREDICTED BY IDOCK:   -7.79 KCAL/MOL
REMARK 923 INTER-LIGAND FREE ENERGY PREDICTED BY IDOCK:   -6.60 KCAL/MOL
REMARK 924 INTRA-LIGAND FREE ENERGY PREDICTED BY IDOCK:   -1.19 KCAL/MOL
REMARK 927      BINDING AFFINITY PREDICTED BY RF-SCORE:    0.00 PKD
ROOT
HETATM    1  C   UNL     1     -13.182  13.211  71.806  1.00  0.00    -0.494 C  
HETATM    2  C   UNL     1     -12.057  14.008  71.160  1.00  0.00    -0.355 C  
ENDROOT
BRANCH   2   3
HETATM    3  C   UNL     1     -12.148  13.971  69.625  1.00  0.00    -0.355 C  
BRANCH   3   4
HETATM    4  N   UNL     1     -11.004  13.355  68.916  1.00  0.00    -0.256 NA 
BRANCH   4   5
HETATM    5  C   UNL     1     -10.162  14.361  68.236  1.00  0.00    -0.241 C  
BRANCH   5   6
HETATM    6  C   UNL     1      -9.232  15.136  69.192  1.00  0.00    -0.215 C  
BRANCH   6   7
HETATM    7  C   UNL     1      -9.230  16.603  68.865  1.00  0.00    -0.244 A  
HETATM    8  S   UNL     1      -7.772  17.377  68.402  1.00  0.00    -0.267 SA 
HETATM    9  C   UNL     1     -10.291  17.486  68.888  1.00  0.00    -0.338 A  
HETATM   10  C   UNL     1      -9.895  18.811  68.546  1.00  0.00    -0.444 A  
HETATM   11  C   UNL     1      -8.551  18.891  68.262  1.00  0.00    -0.330 A  
ENDBRANCH   6   7
ENDBRANCH   5   6
ENDBRANCH   4   5
BRANCH   4  12
HETATM   12  C   UNL     1     -11.377  12.194  68.057  1.00  0.00    -0.295 C  
HETATM   13  C   UNL     1     -10.175  11.362  67.552  1.00  0.00    -0.210 C  
HETATM   14  C   UNL     1     -12.283  11.153  68.774  1.00  0.00    -0.080 C  
HETATM   15  C   UNL     1      -9.343  10.807  68.711  1.00  0.00    -0.186 C  
HETATM   16  C   UNL     1     -11.563  10.369  69.854  1.00  0.00    -0.358 A  
HETATM   17  C   UNL     1     -12.317   9.770  70.876  1.00  0.00    -0.379 A  
HETATM   18  C   UNL     1     -10.164  10.185  69.815  1.00  0.00    -0.286 A  
HETATM   19  C   UNL     1     -11.692   9.025  71.876  1.00  0.00    -0.445 A  
HETATM   20  C   UNL     1      -9.555   9.451  70.847  1.00  0.00    -0.231 A  
HETATM   21  O   UNL     1      -8.203   9.264  70.926  1.00  0.00    -0.189 OA 
HETATM   22  H   UNL     1      -7.791   8.768  71.623  1.00  0.00     0.000 HD 
HETATM   23  C   UNL     1     -10.311   8.871  71.863  1.00  0.00    -0.407 A  
ENDBRANCH   4  12
ENDBRANCH   3   4
ENDBRANCH   2   3
TORSDOF 6
ENDMDL
MODEL       46
REMARK 921   NORMALIZED FREE ENERGY PREDICTED BY IDOCK:   -4.73 KCAL/MOL
REMARK 922        TOTAL FREE ENERGY PREDICTED BY IDOCK:   -7.79 KCAL/MOL
REMARK 923 INTER-LIGAND FREE ENERGY PREDICTED BY IDOCK:   -6.83 KCAL/MOL
REMARK 924 INTRA-LIGAND FREE ENERGY PREDICTED BY IDOCK:   -0.96 KCAL/MOL
REMARK 927      BINDING AFFINITY PREDICTED BY RF-SCORE:    0.00 PKD
ROOT
HETATM    1  C   UNL     1     -11.564  15.816  71.433  1.00  0.00    -0.511 C  
HETATM    2  C   UNL     1     -12.017  14.771  70.422  1.00  0.00    -0.368 C  
ENDROOT
BRANCH   2   3
HETATM    3  C   UNL     1     -11.693  15.201  68.981  1.00  0.00    -0.335 C  
BRANCH   3   4
HETATM    4  N   UNL     1     -10.521  14.554  68.350  1.00  0.00    -0.240 NA 
BRANCH   4   5
HETATM    5  C   UNL     1      -9.475  15.529  67.982  1.00  0.00    -0.194 C  
BRANCH   5   6
HETATM    6  C   UNL     1      -9.875  16.452  66.813  1.00  0.00    -0.265 C  
BRANCH   6   7
HETATM    7  C   UNL     1      -9.941  17.885  67.260  1.00  0.00    -0.325 A  
HETATM    8  S   UNL     1     -10.325  19.119  66.134  1.00  0.00    -0.470 SA 
HETATM    9  C   UNL     1      -9.717  18.399  68.522  1.00  0.00    -0.386 A  
HETATM   10  C   UNL     1      -9.839  19.818  68.554  1.00  0.00    -0.506 A  
HETATM   11  C   UNL     1     -10.164  20.336  67.322  1.00  0.00    -0.354 A  
ENDBRANCH   6   7
ENDBRANCH   5   6
ENDBRANCH   4   5
BRANCH   4  12
HETATM   12  C   UNL     1     -10.871  13.596  67.262  1.00  0.00    -0.284 C  
HETATM   13  C   UNL     1      -9.675  12.774  66.726  1.00  0.00    -0.243 C  
HETATM   14  C   UNL     1     -11.910  12.520  67.686  1.00  0.00    -0.381 C  
HETATM   15  C   UNL     1      -9.007  11.958  67.836  1.00  0.00    -0.179 C  
HETATM   16  C   UNL     1     -11.359  11.502  68.666  1.00  0.00    -0.330 A  
HETATM   17  C   UNL     1     -12.253  10.794  69.485  1.00  0.00    -0.292 A  
HETATM   18  C   UNL     1      -9.978  11.218  68.725  1.00  0.00    -0.203 A  
HETATM   19  C   UNL     1     -11.785   9.836  70.385  1.00  0.00    -0.301 A  
HETATM   20  C   UNL     1      -9.528  10.267  69.656  1.00  0.00    -0.151 A  
HETATM   21  O   UNL     1      -8.207   9.962  69.826  1.00  0.00    -0.151 OA 
HETATM   22  H   UNL     1      -7.902   9.318  70.456  1.00  0.00     0.000 HD 
HETATM   23  C   UNL     1     -10.422   9.578  70.473  1.00  0.00    -0.358 A  
ENDBRANCH   4  12
ENDBRANCH   3   4
ENDBRANCH   2   3
TORSDOF 6
ENDMDL
MODEL       47
REMARK 921   NORMALIZED FREE ENERGY PREDICTED BY IDOCK:   -4.73 KCAL/MOL
REMARK 922        TOTAL FREE ENERGY PREDICTED BY IDOCK:   -7.78 KCAL/MOL
REMARK 923 INTER-LIGAND FREE ENERGY PREDICTED BY IDOCK:   -6.62 KCAL/MOL
REMARK 924 INTRA-LIGAND FREE ENERGY PREDICTED BY IDOCK:   -1.16 KCAL/MOL
REMARK 927      BINDING AFFINITY PREDICTED BY RF-SCORE:    0.00 PKD
ROOT
HETATM    1  C   UNL     1      -8.889  15.314  69.623  1.00  0.00    -0.110 C  
HETATM    2  C   UNL     1      -8.308  14.201  68.762  1.00  0.00    -0.069 C  
ENDROOT
BRANCH   2   3
HETATM    3  C   UNL     1      -9.124  14.000  67.473  1.00  0.00    -0.196 C  
BRANCH   3   4
HETATM    4  N   UNL     1     -10.102  15.062  67.144  1.00  0.00    -0.238 NA 
BRANCH   4   5
HETATM    5  C   UNL     1     -11.484  14.545  67.074  1.00  0.00    -0.370 C  
BRANCH   5   6
HETATM    6  C   UNL     1     -11.564  13.010  66.947  1.00  0.00    -0.419 C  
BRANCH   6   7
HETATM    7  C   UNL     1     -11.663  12.596  65.506  1.00  0.00    -0.402 A  
HETATM    8  S   UNL     1     -10.276  12.017  64.682  1.00  0.00    -0.280 SA 
HETATM    9  C   UNL     1     -12.772  12.619  64.683  1.00  0.00    -0.458 A  
HETATM   10  C   UNL     1     -12.471  12.180  63.362  1.00  0.00    -0.625 A  
HETATM   11  C   UNL     1     -11.148  11.825  63.226  1.00  0.00    -0.286 A  
ENDBRANCH   6   7
ENDBRANCH   5   6
ENDBRANCH   4   5
BRANCH   4  12
HETATM   12  C   UNL     1      -9.709  15.908  65.980  1.00  0.00    -0.343 C  
HETATM   13  C   UNL     1     -10.625  17.131  65.742  1.00  0.00    -0.201 C  
HETATM   14  C   UNL     1      -8.285  16.521  66.106  1.00  0.00    -0.279 C  
HETATM   15  C   UNL     1     -10.670  18.051  66.965  1.00  0.00    -0.251 C  
HETATM   16  C   UNL     1      -8.184  17.598  67.169  1.00  0.00    -0.229 A  
HETATM   17  C   UNL     1      -6.927  17.891  67.722  1.00  0.00    -0.202 A  
HETATM   18  C   UNL     1      -9.315  18.343  67.565  1.00  0.00    -0.270 A  
HETATM   19  C   UNL     1      -6.791  18.888  68.688  1.00  0.00    -0.302 A  
HETATM   20  C   UNL     1      -9.158  19.325  68.557  1.00  0.00    -0.377 A  
HETATM   21  O   UNL     1     -10.201  20.061  69.046  1.00  0.00    -0.514 OA 
HETATM   22  H   UNL     1     -10.095  20.726  69.716  1.00  0.00     0.000 HD 
HETATM   23  C   UNL     1      -7.908  19.601  69.109  1.00  0.00    -0.201 A  
ENDBRANCH   4  12
ENDBRANCH   3   4
ENDBRANCH   2   3
TORSDOF 6
ENDMDL
MODEL       48
REMARK 921   NORMALIZED FREE ENERGY PREDICTED BY IDOCK:   -4.72 KCAL/MOL
REMARK 922        TOTAL FREE ENERGY PREDICTED BY IDOCK:   -7.77 KCAL/MOL
REMARK 923 INTER-LIGAND FREE ENERGY PREDICTED BY IDOCK:   -7.50 KCAL/MOL
REMARK 924 INTRA-LIGAND FREE ENERGY PREDICTED BY IDOCK:   -0.28 KCAL/MOL
REMARK 927      BINDING AFFINITY PREDICTED BY RF-SCORE:    0.00 PKD
ROOT
HETATM    1  C   UNL     1     -11.217  11.878  63.703  1.00  0.00    -0.522 C  
HETATM    2  C   UNL     1     -11.006  12.672  64.985  1.00  0.00    -0.323 C  
ENDROOT
BRANCH   2   3
HETATM    3  C   UNL     1     -12.035  12.288  66.062  1.00  0.00    -0.269 C  
BRANCH   3   4
HETATM    4  N   UNL     1     -11.513  11.553  67.236  1.00  0.00    -0.495 NA 
BRANCH   4   5
HETATM    5  C   UNL     1     -11.816  12.242  68.507  1.00  0.00    -0.307 C  
BRANCH   5   6
HETATM    6  C   UNL     1     -11.906  13.775  68.372  1.00  0.00    -0.411 C  
BRANCH   6   7
HETATM    7  C   UNL     1     -11.981  14.428  69.724  1.00  0.00    -0.332 A  
HETATM    8  S   UNL     1     -11.225  15.944  69.989  1.00  0.00    -0.378 SA 
HETATM    9  C   UNL     1     -12.600  13.962  70.866  1.00  0.00    -0.431 A  
HETATM   10  C   UNL     1     -12.430  14.846  71.970  1.00  0.00    -0.408 A  
HETATM   11  C   UNL     1     -11.699  15.961  71.629  1.00  0.00    -0.485 A  
ENDBRANCH   6   7
ENDBRANCH   5   6
ENDBRANCH   4   5
BRANCH   4  12
HETATM   12  C   UNL     1     -10.090  11.126  67.100  1.00  0.00    -0.191 C  
HETATM   13  C   UNL     1      -9.297  11.116  68.427  1.00  0.00    -0.185 C  
HETATM   14  C   UNL     1      -9.922   9.681  66.548  1.00  0.00    -0.313 C  
HETATM   15  C   UNL     1      -9.940  10.191  69.465  1.00  0.00    -0.257 C  
HETATM   16  C   UNL     1     -10.351   8.607  67.528  1.00  0.00    -0.336 A  
HETATM   17  C   UNL     1     -10.708   7.341  67.036  1.00  0.00    -0.406 A  
HETATM   18  C   UNL     1     -10.341   8.840  68.920  1.00  0.00    -0.229 A  
HETATM   19  C   UNL     1     -11.090   6.322  67.908  1.00  0.00    -0.360 A  
HETATM   20  C   UNL     1     -10.752   7.806  69.776  1.00  0.00    -0.236 A  
HETATM   21  O   UNL     1     -10.828   7.952  71.134  1.00  0.00    -0.230 OA 
HETATM   22  H   UNL     1     -11.106   7.253  71.714  1.00  0.00     0.000 HD 
HETATM   23  C   UNL     1     -11.117   6.557  69.278  1.00  0.00    -0.393 A  
ENDBRANCH   4  12
ENDBRANCH   3   4
ENDBRANCH   2   3
TORSDOF 6
ENDMDL
MODEL       49
REMARK 921   NORMALIZED FREE ENERGY PREDICTED BY IDOCK:   -4.69 KCAL/MOL
REMARK 922        TOTAL FREE ENERGY PREDICTED BY IDOCK:   -7.73 KCAL/MOL
REMARK 923 INTER-LIGAND FREE ENERGY PREDICTED BY IDOCK:   -6.89 KCAL/MOL
REMARK 924 INTRA-LIGAND FREE ENERGY PREDICTED BY IDOCK:   -0.84 KCAL/MOL
REMARK 927      BINDING AFFINITY PREDICTED BY RF-SCORE:    0.00 PKD
ROOT
HETATM    1  C   UNL     1      -5.689  13.129  69.321  1.00  0.00    -0.084 C  
HETATM    2  C   UNL     1      -7.022  12.564  68.847  1.00  0.00    -0.088 C  
ENDROOT
BRANCH   2   3
HETATM    3  C   UNL     1      -7.430  13.147  67.484  1.00  0.00    -0.160 C  
BRANCH   3   4
HETATM    4  N   UNL     1      -8.143  14.444  67.511  1.00  0.00    -0.176 NA 
BRANCH   4   5
HETATM    5  C   UNL     1      -7.269  15.552  67.946  1.00  0.00    -0.141 C  
BRANCH   5   6
HETATM    6  C   UNL     1      -6.890  16.523  66.809  1.00  0.00    -0.225 C  
BRANCH   6   7
HETATM    7  C   UNL     1      -7.311  17.927  67.140  1.00  0.00    -0.190 A  
HETATM    8  S   UNL     1      -7.120  19.176  65.981  1.00  0.00    -0.273 SA 
HETATM    9  C   UNL     1      -7.859  18.401  68.315  1.00  0.00    -0.314 A  
HETATM   10  C   UNL     1      -8.100  19.804  68.268  1.00  0.00    -0.322 A  
HETATM   11  C   UNL     1      -7.740  20.349  67.057  1.00  0.00    -0.318 A  
ENDBRANCH   6   7
ENDBRANCH   5   6
ENDBRANCH   4   5
BRANCH   4  12
HETATM   12  C   UNL     1      -9.459  14.397  68.210  1.00  0.00    -0.207 C  
HETATM   13  C   UNL     1     -10.283  15.702  68.108  1.00  0.00    -0.228 C  
HETATM   14  C   UNL     1     -10.418  13.301  67.663  1.00  0.00    -0.231 C  
HETATM   15  C   UNL     1     -10.567  16.080  66.652  1.00  0.00    -0.297 C  
HETATM   16  C   UNL     1     -10.949  13.602  66.275  1.00  0.00    -0.300 A  
HETATM   17  C   UNL     1     -11.409  12.541  65.479  1.00  0.00    -0.368 A  
HETATM   18  C   UNL     1     -11.040  14.927  65.798  1.00  0.00    -0.342 A  
HETATM   19  C   UNL     1     -11.922  12.781  64.204  1.00  0.00    -0.499 A  
HETATM   20  C   UNL     1     -11.538  15.141  64.502  1.00  0.00    -0.329 A  
HETATM   21  O   UNL     1     -11.615  16.382  63.932  1.00  0.00    -1.564 OA 
HETATM   22  H   UNL     1     -11.952  16.527  63.056  1.00  0.00     0.000 HD 
HETATM   23  C   UNL     1     -11.981  14.081  63.715  1.00  0.00    -0.230 A  
ENDBRANCH   4  12
ENDBRANCH   3   4
ENDBRANCH   2   3
TORSDOF 6
ENDMDL
MODEL       50
REMARK 921   NORMALIZED FREE ENERGY PREDICTED BY IDOCK:   -4.68 KCAL/MOL
REMARK 922        TOTAL FREE ENERGY PREDICTED BY IDOCK:   -7.72 KCAL/MOL
REMARK 923 INTER-LIGAND FREE ENERGY PREDICTED BY IDOCK:   -7.26 KCAL/MOL
REMARK 924 INTRA-LIGAND FREE ENERGY PREDICTED BY IDOCK:   -0.46 KCAL/MOL
REMARK 927      BINDING AFFINITY PREDICTED BY RF-SCORE:    0.00 PKD
ROOT
HETATM    1  C   UNL     1     -12.495  12.040  63.334  1.00  0.00    -0.625 C  
HETATM    2  C   UNL     1     -11.999  13.189  64.202  1.00  0.00    -0.499 C  
ENDROOT
BRANCH   2   3
HETATM    3  C   UNL     1     -12.246  12.916  65.695  1.00  0.00    -0.463 C  
BRANCH   3   4
HETATM    4  N   UNL     1     -11.199  13.385  66.630  1.00  0.00    -0.302 NA 
BRANCH   4   5
HETATM    5  C   UNL     1     -11.357  14.812  66.976  1.00  0.00    -0.353 C  
BRANCH   5   6
HETATM    6  C   UNL     1     -10.526  15.759  66.087  1.00  0.00    -0.326 C  
BRANCH   6   7
HETATM    7  C   UNL     1     -10.410  17.119  66.715  1.00  0.00    -0.302 A  
HETATM    8  S   UNL     1     -10.241  17.268  68.414  1.00  0.00    -0.381 SA 
HETATM    9  C   UNL     1     -10.427  18.352  66.095  1.00  0.00    -0.422 A  
HETATM   10  C   UNL     1     -10.324  19.425  67.027  1.00  0.00    -0.547 A  
HETATM   11  C   UNL     1     -10.220  18.973  68.322  1.00  0.00    -0.386 A  
ENDBRANCH   6   7
ENDBRANCH   5   6
ENDBRANCH   4   5
BRANCH   4  12
HETATM   12  C   UNL     1      -9.814  13.005  66.228  1.00  0.00    -0.278 C  
HETATM   13  C   UNL     1      -8.776  13.071  67.373  1.00  0.00    -0.205 C  
HETATM   14  C   UNL     1      -9.695  11.549  65.694  1.00  0.00    -0.261 C  
HETATM   15  C   UNL     1      -9.163  12.161  68.541  1.00  0.00    -0.100 C  
HETATM   16  C   UNL     1      -9.877  10.495  66.768  1.00  0.00    -0.237 A  
HETATM   17  C   UNL     1     -10.269   9.201  66.391  1.00  0.00    -0.300 A  
HETATM   18  C   UNL     1      -9.604  10.778  68.124  1.00  0.00    -0.167 A  
HETATM   19  C   UNL     1     -10.429   8.200  67.349  1.00  0.00    -0.356 A  
HETATM   20  C   UNL     1      -9.795   9.761  69.073  1.00  0.00    -0.181 A  
HETATM   21  O   UNL     1      -9.610   9.952  70.414  1.00  0.00    -0.354 OA 
HETATM   22  H   UNL     1      -9.739   9.264  71.056  1.00  0.00     0.000 HD 
HETATM   23  C   UNL     1     -10.196   8.482  68.691  1.00  0.00    -0.217 A  
ENDBRANCH   4  12
ENDBRANCH   3   4
ENDBRANCH   2   3
TORSDOF 6
ENDMDL
MODEL       51
REMARK 921   NORMALIZED FREE ENERGY PREDICTED BY IDOCK:   -4.67 KCAL/MOL
REMARK 922        TOTAL FREE ENERGY PREDICTED BY IDOCK:   -7.70 KCAL/MOL
REMARK 923 INTER-LIGAND FREE ENERGY PREDICTED BY IDOCK:   -6.82 KCAL/MOL
REMARK 924 INTRA-LIGAND FREE ENERGY PREDICTED BY IDOCK:   -0.88 KCAL/MOL
REMARK 927      BINDING AFFINITY PREDICTED BY RF-SCORE:    0.00 PKD
ROOT
HETATM    1  C   UNL     1     -12.255  15.477  70.365  1.00  0.00    -0.443 C  
HETATM    2  C   UNL     1     -10.873  15.773  69.797  1.00  0.00    -0.314 C  
ENDROOT
BRANCH   2   3
HETATM    3  C   UNL     1     -10.347  14.601  68.952  1.00  0.00    -0.245 C  
BRANCH   3   4
HETATM    4  N   UNL     1     -10.913  14.467  67.590  1.00  0.00    -0.280 NA 
BRANCH   4   5
HETATM    5  C   UNL     1     -11.908  13.380  67.503  1.00  0.00    -0.366 C  
BRANCH   5   6
HETATM    6  C   UNL     1     -11.332  12.058  66.955  1.00  0.00    -0.396 C  
BRANCH   6   7
HETATM    7  C   UNL     1     -11.159  11.051  68.058  1.00  0.00    -0.286 A  
HETATM    8  S   UNL     1     -11.891  11.317  69.585  1.00  0.00    -0.384 SA 
HETATM    9  C   UNL     1     -10.447   9.869  68.033  1.00  0.00    -0.266 A  
HETATM   10  C   UNL     1     -10.485   9.192  69.286  1.00  0.00    -0.231 A  
HETATM   11  C   UNL     1     -11.234   9.873  70.218  1.00  0.00    -0.301 A  
ENDBRANCH   6   7
ENDBRANCH   5   6
ENDBRANCH   4   5
BRANCH   4  12
HETATM   12  C   UNL     1      -9.887  14.442  66.508  1.00  0.00    -0.287 C  
HETATM   13  C   UNL     1     -10.383  14.980  65.145  1.00  0.00    -0.422 C  
HETATM   14  C   UNL     1      -8.629  15.303  66.819  1.00  0.00    -0.300 C  
HETATM   15  C   UNL     1     -10.879  16.425  65.254  1.00  0.00    -0.271 C  
HETATM   16  C   UNL     1      -8.898  16.795  66.793  1.00  0.00    -0.257 A  
HETATM   17  C   UNL     1      -8.037  17.652  67.497  1.00  0.00    -0.217 A  
HETATM   18  C   UNL     1      -9.956  17.334  66.031  1.00  0.00    -0.249 A  
HETATM   19  C   UNL     1      -8.241  19.032  67.481  1.00  0.00    -0.301 A  
HETATM   20  C   UNL     1     -10.156  18.725  66.051  1.00  0.00    -0.317 A  
HETATM   21  O   UNL     1     -11.185  19.336  65.390  1.00  0.00    -0.256 OA 
HETATM   22  H   UNL     1     -11.320  20.277  65.402  1.00  0.00     0.000 HD 
HETATM   23  C   UNL     1      -9.304  19.567  66.762  1.00  0.00    -0.431 A  
ENDBRANCH   4  12
ENDBRANCH   3   4
ENDBRANCH   2   3
TORSDOF 6
ENDMDL
MODEL       52
REMARK 921   NORMALIZED FREE ENERGY PREDICTED BY IDOCK:   -4.67 KCAL/MOL
REMARK 922        TOTAL FREE ENERGY PREDICTED BY IDOCK:   -7.70 KCAL/MOL
REMARK 923 INTER-LIGAND FREE ENERGY PREDICTED BY IDOCK:   -6.75 KCAL/MOL
REMARK 924 INTRA-LIGAND FREE ENERGY PREDICTED BY IDOCK:   -0.95 KCAL/MOL
REMARK 927      BINDING AFFINITY PREDICTED BY RF-SCORE:    0.00 PKD
ROOT
HETATM    1  C   UNL     1     -12.014  11.714  70.386  1.00  0.00    -0.448 C  
HETATM    2  C   UNL     1     -11.768  11.644  68.885  1.00  0.00    -0.397 C  
ENDROOT
BRANCH   2   3
HETATM    3  C   UNL     1     -11.828  13.038  68.237  1.00  0.00    -0.343 C  
BRANCH   3   4
HETATM    4  N   UNL     1     -10.594  13.852  68.316  1.00  0.00    -0.250 NA 
BRANCH   4   5
HETATM    5  C   UNL     1     -10.755  15.027  69.196  1.00  0.00    -0.249 C  
BRANCH   5   6
HETATM    6  C   UNL     1     -12.222  15.468  69.376  1.00  0.00    -0.233 C  
BRANCH   6   7
HETATM    7  C   UNL     1     -12.562  15.616  70.832  1.00  0.00    -0.449 A  
HETATM    8  S   UNL     1     -14.155  15.297  71.379  1.00  0.00    -0.429 SA 
HETATM    9  C   UNL     1     -11.736  16.003  71.868  1.00  0.00    -0.594 A  
HETATM   10  C   UNL     1     -12.425  16.060  73.113  1.00  0.00    -0.633 A  
HETATM   11  C   UNL     1     -13.748  15.703  72.987  1.00  0.00    -0.476 A  
ENDBRANCH   6   7
ENDBRANCH   5   6
ENDBRANCH   4   5
BRANCH   4  12
HETATM   12  C   UNL     1      -9.988  14.163  66.989  1.00  0.00    -0.260 C  
HETATM   13  C   UNL     1      -8.447  14.286  67.004  1.00  0.00    -0.190 C  
HETATM   14  C   UNL     1     -10.271  13.085  65.904  1.00  0.00    -0.298 C  
HETATM   15  C   UNL     1      -7.781  13.002  67.505  1.00  0.00    -0.168 C  
HETATM   16  C   UNL     1      -9.539  11.779  66.147  1.00  0.00    -0.250 A  
HETATM   17  C   UNL     1     -10.039  10.602  65.567  1.00  0.00    -0.343 A  
HETATM   18  C   UNL     1      -8.341  11.740  66.892  1.00  0.00    -0.170 A  
HETATM   19  C   UNL     1      -9.382   9.385  65.752  1.00  0.00    -0.301 A  
HETATM   20  C   UNL     1      -7.711  10.499  67.084  1.00  0.00    -0.101 A  
HETATM   21  O   UNL     1      -6.578  10.350  67.834  1.00  0.00    -0.061 OA 
HETATM   22  H   UNL     1      -6.151   9.511  67.964  1.00  0.00     0.000 HD 
HETATM   23  C   UNL     1      -8.221   9.334  66.515  1.00  0.00    -0.107 A  
ENDBRANCH   4  12
ENDBRANCH   3   4
ENDBRANCH   2   3
TORSDOF 6
ENDMDL
MODEL       53
REMARK 921   NORMALIZED FREE ENERGY PREDICTED BY IDOCK:   -4.67 KCAL/MOL
REMARK 922        TOTAL FREE ENERGY PREDICTED BY IDOCK:   -7.70 KCAL/MOL
REMARK 923 INTER-LIGAND FREE ENERGY PREDICTED BY IDOCK:   -6.38 KCAL/MOL
REMARK 924 INTRA-LIGAND FREE ENERGY PREDICTED BY IDOCK:   -1.32 KCAL/MOL
REMARK 927      BINDING AFFINITY PREDICTED BY RF-SCORE:    0.00 PKD
ROOT
HETATM    1  C   UNL     1      -8.007  12.756  67.434  1.00  0.00    -0.179 C  
HETATM    2  C   UNL     1      -7.425  11.455  66.897  1.00  0.00    -0.147 C  
ENDROOT
BRANCH   2   3
HETATM    3  C   UNL     1      -8.214  10.234  67.400  1.00  0.00    -0.114 C  
BRANCH   3   4
HETATM    4  N   UNL     1      -9.224  10.492  68.451  1.00  0.00    -0.148 NA 
BRANCH   4   5
HETATM    5  C   UNL     1      -8.755  10.081  69.789  1.00  0.00    -0.179 C  
BRANCH   5   6
HETATM    6  C   UNL     1      -8.743   8.553  69.998  1.00  0.00    -0.136 C  
BRANCH   6   7
HETATM    7  C   UNL     1      -9.974   8.103  70.732  1.00  0.00    -0.188 A  
HETATM    8  S   UNL     1     -10.916   6.809  70.116  1.00  0.00    -0.316 SA 
HETATM    9  C   UNL     1     -10.507   8.609  71.901  1.00  0.00    -0.410 A  
HETATM   10  C   UNL     1     -11.708   7.943  72.277  1.00  0.00    -0.408 A  
HETATM   11  C   UNL     1     -12.044   6.945  71.391  1.00  0.00    -0.364 A  
ENDBRANCH   6   7
ENDBRANCH   5   6
ENDBRANCH   4   5
BRANCH   4  12
HETATM   12  C   UNL     1     -10.592  10.005  68.109  1.00  0.00    -0.227 C  
HETATM   13  C   UNL     1     -11.726  10.653  68.938  1.00  0.00    -0.282 C  
HETATM   14  C   UNL     1     -11.001  10.276  66.633  1.00  0.00    -0.030 C  
HETATM   15  C   UNL     1     -11.744  12.175  68.779  1.00  0.00    -0.374 C  
HETATM   16  C   UNL     1     -11.240  11.743  66.332  1.00  0.00    -0.382 A  
HETATM   17  C   UNL     1     -11.140  12.189  65.005  1.00  0.00    -0.368 A  
HETATM   18  C   UNL     1     -11.615  12.646  67.350  1.00  0.00    -0.421 A  
HETATM   19  C   UNL     1     -11.371  13.528  64.687  1.00  0.00    -0.375 A  
HETATM   20  C   UNL     1     -11.819  13.993  67.009  1.00  0.00    -0.428 A  
HETATM   21  O   UNL     1     -12.131  14.954  67.930  1.00  0.00    -0.546 OA 
HETATM   22  H   UNL     1     -12.269  15.865  67.700  1.00  0.00     0.000 HD 
HETATM   23  C   UNL     1     -11.706  14.430  65.690  1.00  0.00    -0.356 A  
ENDBRANCH   4  12
ENDBRANCH   3   4
ENDBRANCH   2   3
TORSDOF 6
ENDMDL
MODEL       54
REMARK 921   NORMALIZED FREE ENERGY PREDICTED BY IDOCK:   -4.66 KCAL/MOL
REMARK 922        TOTAL FREE ENERGY PREDICTED BY IDOCK:   -7.70 KCAL/MOL
REMARK 923 INTER-LIGAND FREE ENERGY PREDICTED BY IDOCK:   -6.65 KCAL/MOL
REMARK 924 INTRA-LIGAND FREE ENERGY PREDICTED BY IDOCK:   -1.04 KCAL/MOL
REMARK 927      BINDING AFFINITY PREDICTED BY RF-SCORE:    0.00 PKD
ROOT
HETATM    1  C   UNL     1      -6.322  16.605  68.448  1.00  0.00    -0.133 C  
HETATM    2  C   UNL     1      -6.532  16.545  66.941  1.00  0.00    -0.190 C  
ENDROOT
BRANCH   2   3
HETATM    3  C   UNL     1      -8.027  16.552  66.579  1.00  0.00    -0.310 C  
BRANCH   3   4
HETATM    4  N   UNL     1      -8.966  16.883  67.674  1.00  0.00    -0.217 NA 
BRANCH   4   5
HETATM    5  C   UNL     1      -9.745  15.709  68.116  1.00  0.00    -0.204 C  
BRANCH   5   6
HETATM    6  C   UNL     1      -9.555  14.468  67.220  1.00  0.00    -0.226 C  
BRANCH   6   7
HETATM    7  C   UNL     1     -10.743  14.270  66.321  1.00  0.00    -0.297 A  
HETATM    8  S   UNL     1     -11.955  13.132  66.740  1.00  0.00    -0.338 SA 
HETATM    9  C   UNL     1     -11.025  14.898  65.125  1.00  0.00    -0.410 A  
HETATM   10  C   UNL     1     -12.234  14.423  64.540  1.00  0.00    -0.483 A  
HETATM   11  C   UNL     1     -12.837  13.459  65.314  1.00  0.00    -0.334 A  
ENDBRANCH   6   7
ENDBRANCH   5   6
ENDBRANCH   4   5
BRANCH   4  12
HETATM   12  C   UNL     1      -9.791  18.099  67.419  1.00  0.00    -0.313 C  
HETATM   13  C   UNL     1      -9.861  19.084  68.609  1.00  0.00    -0.474 C  
HETATM   14  C   UNL     1      -9.272  18.969  66.239  1.00  0.00    -0.307 C  
HETATM   15  C   UNL     1      -8.470  19.571  69.025  1.00  0.00    -0.217 C  
HETATM   16  C   UNL     1      -7.969  19.683  66.542  1.00  0.00    -0.321 A  
HETATM   17  C   UNL     1      -7.154  20.092  65.474  1.00  0.00    -0.315 A  
HETATM   18  C   UNL     1      -7.594  19.989  67.867  1.00  0.00    -0.325 A  
HETATM   19  C   UNL     1      -5.957  20.768  65.713  1.00  0.00    -0.268 A  
HETATM   20  C   UNL     1      -6.373  20.648  68.084  1.00  0.00    -0.315 A  
HETATM   21  O   UNL     1      -5.898  20.941  69.332  1.00  0.00    -0.363 OA 
HETATM   22  H   UNL     1      -5.072  21.387  69.479  1.00  0.00     0.000 HD 
HETATM   23  C   UNL     1      -5.565  21.041  67.019  1.00  0.00    -0.293 A  
ENDBRANCH   4  12
ENDBRANCH   3   4
ENDBRANCH   2   3
TORSDOF 6
ENDMDL
MODEL       55
REMARK 921   NORMALIZED FREE ENERGY PREDICTED BY IDOCK:   -4.64 KCAL/MOL
REMARK 922        TOTAL FREE ENERGY PREDICTED BY IDOCK:   -7.66 KCAL/MOL
REMARK 923 INTER-LIGAND FREE ENERGY PREDICTED BY IDOCK:   -6.59 KCAL/MOL
REMARK 924 INTRA-LIGAND FREE ENERGY PREDICTED BY IDOCK:   -1.08 KCAL/MOL
REMARK 927      BINDING AFFINITY PREDICTED BY RF-SCORE:    0.00 PKD
ROOT
HETATM    1  C   UNL     1     -12.255  12.013  63.284  1.00  0.00    -0.531 C  
HETATM    2  C   UNL     1     -10.906  11.494  63.763  1.00  0.00    -0.486 C  
ENDROOT
BRANCH   2   3
HETATM    3  C   UNL     1     -10.396  12.287  64.979  1.00  0.00    -0.291 C  
BRANCH   3   4
HETATM    4  N   UNL     1     -10.834  11.804  66.308  1.00  0.00    -0.271 NA 
BRANCH   4   5
HETATM    5  C   UNL     1     -11.958  12.597  66.847  1.00  0.00    -0.275 C  
BRANCH   5   6
HETATM    6  C   UNL     1     -11.675  14.112  66.901  1.00  0.00    -0.437 C  
BRANCH   6   7
HETATM    7  C   UNL     1     -11.692  14.609  68.320  1.00  0.00    -0.328 A  
HETATM    8  S   UNL     1     -11.085  16.169  68.690  1.00  0.00    -0.368 SA 
HETATM    9  C   UNL     1     -12.145  13.958  69.449  1.00  0.00    -0.384 A  
HETATM   10  C   UNL     1     -11.969  14.738  70.628  1.00  0.00    -0.371 A  
HETATM   11  C   UNL     1     -11.400  15.961  70.356  1.00  0.00    -0.385 A  
ENDBRANCH   6   7
ENDBRANCH   5   6
ENDBRANCH   4   5
BRANCH   4  12
HETATM   12  C   UNL     1      -9.719  11.594  67.275  1.00  0.00    -0.180 C  
HETATM   13  C   UNL     1     -10.152  10.980  68.626  1.00  0.00    -0.207 C  
HETATM   14  C   UNL     1      -8.616  10.626  66.757  1.00  0.00    -0.129 C  
HETATM   15  C   UNL     1     -10.838   9.624  68.438  1.00  0.00    -0.212 C  
HETATM   16  C   UNL     1      -9.072   9.182  66.673  1.00  0.00    -0.182 A  
HETATM   17  C   UNL     1      -8.398   8.306  65.808  1.00  0.00    -0.142 A  
HETATM   18  C   UNL     1     -10.116   8.697  67.489  1.00  0.00    -0.277 A  
HETATM   19  C   UNL     1      -8.775   6.967  65.718  1.00  0.00    -0.120 A  
HETATM   20  C   UNL     1     -10.494   7.350  67.363  1.00  0.00    -0.296 A  
HETATM   21  O   UNL     1     -11.528   6.800  68.069  1.00  0.00    -0.547 OA 
HETATM   22  H   UNL     1     -11.784   5.889  67.984  1.00  0.00     0.000 HD 
HETATM   23  C   UNL     1      -9.827   6.491  66.492  1.00  0.00    -0.169 A  
ENDBRANCH   4  12
ENDBRANCH   3   4
ENDBRANCH   2   3
TORSDOF 6
ENDMDL
MODEL       56
REMARK 921   NORMALIZED FREE ENERGY PREDICTED BY IDOCK:   -4.64 KCAL/MOL
REMARK 922        TOTAL FREE ENERGY PREDICTED BY IDOCK:   -7.66 KCAL/MOL
REMARK 923 INTER-LIGAND FREE ENERGY PREDICTED BY IDOCK:   -7.15 KCAL/MOL
REMARK 924 INTRA-LIGAND FREE ENERGY PREDICTED BY IDOCK:   -0.51 KCAL/MOL
REMARK 927      BINDING AFFINITY PREDICTED BY RF-SCORE:    0.00 PKD
ROOT
HETATM    1  C   UNL     1      -9.369   5.610  66.355  1.00  0.00    -0.165 C  
HETATM    2  C   UNL     1      -9.097   7.091  66.584  1.00  0.00    -0.175 C  
ENDROOT
BRANCH   2   3
HETATM    3  C   UNL     1     -10.400   7.874  66.819  1.00  0.00    -0.287 C  
BRANCH   3   4
HETATM    4  N   UNL     1     -10.367   8.895  67.890  1.00  0.00    -0.222 NA 
BRANCH   4   5
HETATM    5  C   UNL     1     -10.001  10.231  67.377  1.00  0.00    -0.189 C  
BRANCH   5   6
HETATM    6  C   UNL     1      -9.894  10.295  65.840  1.00  0.00    -0.298 C  
BRANCH   6   7
HETATM    7  C   UNL     1     -10.756  11.396  65.289  1.00  0.00    -0.265 A  
HETATM    8  S   UNL     1     -11.490  12.525  66.350  1.00  0.00    -0.384 SA 
HETATM    9  C   UNL     1     -11.077  11.652  63.971  1.00  0.00    -0.458 A  
HETATM   10  C   UNL     1     -11.951  12.769  63.837  1.00  0.00    -0.554 A  
HETATM   11  C   UNL     1     -12.256  13.333  65.055  1.00  0.00    -0.432 A  
ENDBRANCH   6   7
ENDBRANCH   5   6
ENDBRANCH   4   5
BRANCH   4  12
HETATM   12  C   UNL     1      -9.604   8.478  69.102  1.00  0.00    -0.167 C  
HETATM   13  C   UNL     1      -9.369   9.610  70.130  1.00  0.00    -0.294 C  
HETATM   14  C   UNL     1     -10.302   7.358  69.925  1.00  0.00    -0.222 C  
HETATM   15  C   UNL     1     -10.689  10.210  70.622  1.00  0.00    -0.243 C  
HETATM   16  C   UNL     1     -11.554   7.826  70.640  1.00  0.00    -0.233 A  
HETATM   17  C   UNL     1     -12.523   6.878  71.005  1.00  0.00    -0.364 A  
HETATM   18  C   UNL     1     -11.732   9.181  70.992  1.00  0.00    -0.363 A  
HETATM   19  C   UNL     1     -13.679   7.268  71.681  1.00  0.00    -0.446 A  
HETATM   20  C   UNL     1     -12.916   9.554  71.650  1.00  0.00    -0.396 A  
HETATM   21  O   UNL     1     -13.204  10.848  71.984  1.00  0.00    -0.502 OA 
HETATM   22  H   UNL     1     -14.004  11.100  72.430  1.00  0.00     0.000 HD 
HETATM   23  C   UNL     1     -13.877   8.607  71.998  1.00  0.00    -0.491 A  
ENDBRANCH   4  12
ENDBRANCH   3   4
ENDBRANCH   2   3
TORSDOF 6
ENDMDL
MODEL       57
REMARK 921   NORMALIZED FREE ENERGY PREDICTED BY IDOCK:   -4.62 KCAL/MOL
REMARK 922        TOTAL FREE ENERGY PREDICTED BY IDOCK:   -7.63 KCAL/MOL
REMARK 923 INTER-LIGAND FREE ENERGY PREDICTED BY IDOCK:   -6.88 KCAL/MOL
REMARK 924 INTRA-LIGAND FREE ENERGY PREDICTED BY IDOCK:   -0.75 KCAL/MOL
REMARK 927      BINDING AFFINITY PREDICTED BY RF-SCORE:    0.00 PKD
ROOT
HETATM    1  C   UNL     1      -7.607   7.691  70.585  1.00  0.00    -0.080 C  
HETATM    2  C   UNL     1      -8.383   8.492  71.622  1.00  0.00    -0.218 C  
ENDROOT
BRANCH   2   3
HETATM    3  C   UNL     1      -9.423   9.413  70.962  1.00  0.00    -0.173 C  
BRANCH   3   4
HETATM    4  N   UNL     1     -10.784   9.389  71.544  1.00  0.00    -0.346 NA 
BRANCH   4   5
HETATM    5  C   UNL     1     -10.939   8.327  72.558  1.00  0.00    -0.354 C  
BRANCH   5   6
HETATM    6  C   UNL     1     -11.817   7.149  72.091  1.00  0.00    -0.315 C  
BRANCH   6   7
HETATM    7  C   UNL     1     -10.969   6.022  71.572  1.00  0.00    -0.277 A  
HETATM    8  S   UNL     1     -10.782   5.796  69.883  1.00  0.00    -0.336 SA 
HETATM    9  C   UNL     1     -10.277   5.070  72.293  1.00  0.00    -0.257 A  
HETATM   10  C   UNL     1      -9.609   4.137  71.449  1.00  0.00    -0.238 A  
HETATM   11  C   UNL     1      -9.804   4.415  70.116  1.00  0.00    -0.217 A  
ENDBRANCH   6   7
ENDBRANCH   5   6
ENDBRANCH   4   5
BRANCH   4  12
HETATM   12  C   UNL     1     -11.877   9.426  70.530  1.00  0.00    -0.151 C  
HETATM   13  C   UNL     1     -13.289   9.643  71.121  1.00  0.00    -0.344 C  
HETATM   14  C   UNL     1     -11.723  10.569  69.486  1.00  0.00    -0.313 C  
HETATM   15  C   UNL     1     -13.376  10.951  71.913  1.00  0.00    -0.429 C  
HETATM   16  C   UNL     1     -11.955  11.951  70.067  1.00  0.00    -0.409 A  
HETATM   17  C   UNL     1     -11.402  13.063  69.413  1.00  0.00    -0.269 A  
HETATM   18  C   UNL     1     -12.759  12.137  71.211  1.00  0.00    -0.363 A  
HETATM   19  C   UNL     1     -11.609  14.352  69.906  1.00  0.00    -0.341 A  
HETATM   20  C   UNL     1     -12.933  13.442  71.703  1.00  0.00    -0.355 A  
HETATM   21  O   UNL     1     -13.648  13.719  72.834  1.00  0.00    -0.681 OA 
HETATM   22  H   UNL     1     -13.767  14.601  73.167  1.00  0.00     0.000 HD 
HETATM   23  C   UNL     1     -12.370  14.539  71.055  1.00  0.00    -0.417 A  
ENDBRANCH   4  12
ENDBRANCH   3   4
ENDBRANCH   2   3
TORSDOF 6
ENDMDL
MODEL       58
REMARK 921   NORMALIZED FREE ENERGY PREDICTED BY IDOCK:   -4.61 KCAL/MOL
REMARK 922        TOTAL FREE ENERGY PREDICTED BY IDOCK:   -7.62 KCAL/MOL
REMARK 923 INTER-LIGAND FREE ENERGY PREDICTED BY IDOCK:   -6.54 KCAL/MOL
REMARK 924 INTRA-LIGAND FREE ENERGY PREDICTED BY IDOCK:   -1.08 KCAL/MOL
REMARK 927      BINDING AFFINITY PREDICTED BY RF-SCORE:    0.00 PKD
ROOT
HETATM    1  C   UNL     1     -12.874  10.352  70.964  1.00  0.00    -0.494 C  
HETATM    2  C   UNL     1     -12.201  10.899  69.712  1.00  0.00    -0.381 C  
ENDROOT
BRANCH   2   3
HETATM    3  C   UNL     1     -10.705  10.545  69.674  1.00  0.00    -0.259 C  
BRANCH   3   4
HETATM    4  N   UNL     1     -10.124  10.293  68.337  1.00  0.00    -0.154 NA 
BRANCH   4   5
HETATM    5  C   UNL     1      -9.593   8.921  68.207  1.00  0.00    -0.146 C  
BRANCH   5   6
HETATM    6  C   UNL     1     -10.519   7.973  67.418  1.00  0.00    -0.357 C  
BRANCH   6   7
HETATM    7  C   UNL     1      -9.717   7.003  66.596  1.00  0.00    -0.166 A  
HETATM    8  S   UNL     1     -10.202   5.362  66.489  1.00  0.00    -0.254 SA 
HETATM    9  C   UNL     1      -8.567   7.243  65.871  1.00  0.00    -0.159 A  
HETATM   10  C   UNL     1      -8.071   6.065  65.243  1.00  0.00    -0.134 A  
HETATM   11  C   UNL     1      -8.864   4.970  65.501  1.00  0.00    -0.146 A  
ENDBRANCH   6   7
ENDBRANCH   5   6
ENDBRANCH   4   5
BRANCH   4  12
HETATM   12  C   UNL     1      -9.184  11.355  67.875  1.00  0.00    -0.164 C  
HETATM   13  C   UNL     1      -8.534  11.078  66.499  1.00  0.00    -0.161 C  
HETATM   14  C   UNL     1      -9.851  12.750  67.704  1.00  0.00    -0.214 C  
HETATM   15  C   UNL     1      -9.586  10.909  65.400  1.00  0.00    -0.271 C  
HETATM   16  C   UNL     1     -10.810  12.820  66.531  1.00  0.00    -0.280 A  
HETATM   17  C   UNL     1     -11.813  13.802  66.532  1.00  0.00    -0.438 A  
HETATM   18  C   UNL     1     -10.673  11.958  65.422  1.00  0.00    -0.330 A  
HETATM   19  C   UNL     1     -12.702  13.910  65.462  1.00  0.00    -0.536 A  
HETATM   20  C   UNL     1     -11.595  12.070  64.368  1.00  0.00    -0.336 A  
HETATM   21  O   UNL     1     -11.579  11.246  63.277  1.00  0.00    -0.805 OA 
HETATM   22  H   UNL     1     -12.201  11.322  62.564  1.00  0.00     0.000 HD 
HETATM   23  C   UNL     1     -12.595  13.040  64.383  1.00  0.00    -0.356 A  
ENDBRANCH   4  12
ENDBRANCH   3   4
ENDBRANCH   2   3
TORSDOF 6
ENDMDL
MODEL       59
REMARK 921   NORMALIZED FREE ENERGY PREDICTED BY IDOCK:   -4.59 KCAL/MOL
REMARK 922        TOTAL FREE ENERGY PREDICTED BY IDOCK:   -7.59 KCAL/MOL
REMARK 923 INTER-LIGAND FREE ENERGY PREDICTED BY IDOCK:   -6.35 KCAL/MOL
REMARK 924 INTRA-LIGAND FREE ENERGY PREDICTED BY IDOCK:   -1.24 KCAL/MOL
REMARK 927      BINDING AFFINITY PREDICTED BY RF-SCORE:    0.00 PKD
ROOT
HETATM    1  C   UNL     1     -11.030   3.797  73.566  1.00  0.00    -0.339 C  
HETATM    2  C   UNL     1     -10.084   3.873  72.374  1.00  0.00    -0.237 C  
ENDROOT
BRANCH   2   3
HETATM    3  C   UNL     1     -10.479   5.005  71.411  1.00  0.00    -0.143 C  
BRANCH   3   4
HETATM    4  N   UNL     1      -9.517   6.123  71.284  1.00  0.00    -0.163 NA 
BRANCH   4   5
HETATM    5  C   UNL     1      -8.225   5.687  70.716  1.00  0.00    -0.118 C  
BRANCH   5   6
HETATM    6  C   UNL     1      -7.868   6.383  69.387  1.00  0.00    -0.105 C  
BRANCH   6   7
HETATM    7  C   UNL     1      -9.059   6.429  68.471  1.00  0.00    -0.126 A  
HETATM    8  S   UNL     1      -9.598   5.001  67.691  1.00  0.00    -0.154 SA 
HETATM    9  C   UNL     1      -9.833   7.520  68.129  1.00  0.00    -0.179 A  
HETATM   10  C   UNL     1     -10.861   7.181  67.203  1.00  0.00    -0.403 A  
HETATM   11  C   UNL     1     -10.843   5.844  66.879  1.00  0.00    -0.296 A  
ENDBRANCH   6   7
ENDBRANCH   5   6
ENDBRANCH   4   5
BRANCH   4  12
HETATM   12  C   UNL     1      -9.391   6.957  72.514  1.00  0.00    -0.139 C  
HETATM   13  C   UNL     1      -8.547   8.240  72.332  1.00  0.00    -0.270 C  
HETATM   14  C   UNL     1     -10.752   7.474  73.061  1.00  0.00    -0.438 C  
HETATM   15  C   UNL     1      -9.123   9.146  71.240  1.00  0.00    -0.232 C  
HETATM   16  C   UNL     1     -11.395   8.528  72.181  1.00  0.00    -0.442 A  
HETATM   17  C   UNL     1     -12.781   8.732  72.267  1.00  0.00    -0.466 A  
HETATM   18  C   UNL     1     -10.618   9.341  71.328  1.00  0.00    -0.417 A  
HETATM   19  C   UNL     1     -13.406   9.705  71.487  1.00  0.00    -0.468 A  
HETATM   20  C   UNL     1     -11.272  10.298  70.535  1.00  0.00    -0.330 A  
HETATM   21  O   UNL     1     -10.615  11.094  69.639  1.00  0.00    -0.429 OA 
HETATM   22  H   UNL     1     -11.057  11.742  69.102  1.00  0.00     0.000 HD 
HETATM   23  C   UNL     1     -12.650  10.484  70.617  1.00  0.00    -0.457 A  
ENDBRANCH   4  12
ENDBRANCH   3   4
ENDBRANCH   2   3
TORSDOF 6
ENDMDL
MODEL       60
REMARK 921   NORMALIZED FREE ENERGY PREDICTED BY IDOCK:   -4.56 KCAL/MOL
REMARK 922        TOTAL FREE ENERGY PREDICTED BY IDOCK:   -7.55 KCAL/MOL
REMARK 923 INTER-LIGAND FREE ENERGY PREDICTED BY IDOCK:   -6.20 KCAL/MOL
REMARK 924 INTRA-LIGAND FREE ENERGY PREDICTED BY IDOCK:   -1.35 KCAL/MOL
REMARK 927      BINDING AFFINITY PREDICTED BY RF-SCORE:    0.00 PKD
ROOT
HETATM    1  C   UNL     1     -12.370  14.165  70.926  1.00  0.00    -0.438 C  
HETATM    2  C   UNL     1     -11.541  15.300  70.340  1.00  0.00    -0.341 C  
ENDROOT
BRANCH   2   3
HETATM    3  C   UNL     1     -12.025  15.683  68.931  1.00  0.00    -0.279 C  
BRANCH   3   4
HETATM    4  N   UNL     1     -10.989  15.744  67.876  1.00  0.00    -0.317 NA 
BRANCH   4   5
HETATM    5  C   UNL     1     -10.570  17.130  67.584  1.00  0.00    -0.343 C  
BRANCH   5   6
HETATM    6  C   UNL     1      -9.516  17.677  68.568  1.00  0.00    -0.298 C  
BRANCH   6   7
HETATM    7  C   UNL     1      -8.152  17.698  67.935  1.00  0.00    -0.233 A  
HETATM    8  S   UNL     1      -6.936  18.737  68.551  1.00  0.00    -0.274 SA 
HETATM    9  C   UNL     1      -7.699  16.966  66.856  1.00  0.00    -0.252 A  
HETATM   10  C   UNL     1      -6.350  17.280  66.521  1.00  0.00    -0.263 A  
HETATM   11  C   UNL     1      -5.819  18.231  67.362  1.00  0.00    -0.146 A  
ENDBRANCH   6   7
ENDBRANCH   5   6
ENDBRANCH   4   5
BRANCH   4  12
HETATM   12  C   UNL     1     -11.311  14.938  66.663  1.00  0.00    -0.326 C  
HETATM   13  C   UNL     1     -10.073  14.437  65.882  1.00  0.00    -0.344 C  
HETATM   14  C   UNL     1     -12.114  13.641  66.970  1.00  0.00    -0.423 C  
HETATM   15  C   UNL     1      -9.161  13.575  66.759  1.00  0.00    -0.248 C  
HETATM   16  C   UNL     1     -11.301  12.584  67.692  1.00  0.00    -0.362 A  
HETATM   17  C   UNL     1     -11.973  11.604  68.440  1.00  0.00    -0.266 A  
HETATM   18  C   UNL     1      -9.895  12.538  67.577  1.00  0.00    -0.198 A  
HETATM   19  C   UNL     1     -11.260  10.605  69.103  1.00  0.00    -0.324 A  
HETATM   20  C   UNL     1      -9.198  11.537  68.273  1.00  0.00    -0.186 A  
HETATM   21  O   UNL     1      -7.834  11.441  68.267  1.00  0.00    -0.117 OA 
HETATM   22  H   UNL     1      -7.362  10.763  68.738  1.00  0.00     0.000 HD 
HETATM   23  C   UNL     1      -9.872  10.575  69.023  1.00  0.00    -0.224 A  
ENDBRANCH   4  12
ENDBRANCH   3   4
ENDBRANCH   2   3
TORSDOF 6
ENDMDL
MODEL       61
REMARK 921   NORMALIZED FREE ENERGY PREDICTED BY IDOCK:   -4.54 KCAL/MOL
REMARK 922        TOTAL FREE ENERGY PREDICTED BY IDOCK:   -7.53 KCAL/MOL
REMARK 923 INTER-LIGAND FREE ENERGY PREDICTED BY IDOCK:   -6.10 KCAL/MOL
REMARK 924 INTRA-LIGAND FREE ENERGY PREDICTED BY IDOCK:   -1.42 KCAL/MOL
REMARK 927      BINDING AFFINITY PREDICTED BY RF-SCORE:    0.00 PKD
ROOT
HETATM    1  C   UNL     1     -11.025   6.220  67.727  1.00  0.00    -0.427 C  
HETATM    2  C   UNL     1     -10.452   7.200  66.712  1.00  0.00    -0.300 C  
ENDROOT
BRANCH   2   3
HETATM    3  C   UNL     1      -9.203   7.913  67.258  1.00  0.00    -0.142 C  
BRANCH   3   4
HETATM    4  N   UNL     1      -9.404   8.767  68.450  1.00  0.00    -0.137 NA 
BRANCH   4   5
HETATM    5  C   UNL     1      -9.733  10.161  68.089  1.00  0.00    -0.139 C  
BRANCH   5   6
HETATM    6  C   UNL     1     -11.248  10.438  68.014  1.00  0.00    -0.340 C  
BRANCH   6   7
HETATM    7  C   UNL     1     -11.617  11.627  68.857  1.00  0.00    -0.314 A  
HETATM    8  S   UNL     1     -11.548  13.206  68.191  1.00  0.00    -0.361 SA 
HETATM    9  C   UNL     1     -12.022  11.648  70.176  1.00  0.00    -0.441 A  
HETATM   10  C   UNL     1     -12.254  12.972  70.647  1.00  0.00    -0.390 A  
HETATM   11  C   UNL     1     -12.030  13.914  69.669  1.00  0.00    -0.342 A  
ENDBRANCH   6   7
ENDBRANCH   5   6
ENDBRANCH   4   5
BRANCH   4  12
HETATM   12  C   UNL     1      -8.326   8.642  69.474  1.00  0.00    -0.117 C  
HETATM   13  C   UNL     1      -8.582   9.444  70.771  1.00  0.00    -0.201 C  
HETATM   14  C   UNL     1      -8.100   7.184  69.968  1.00  0.00    -0.127 C  
HETATM   15  C   UNL     1      -9.888   9.022  71.449  1.00  0.00    -0.381 C  
HETATM   16  C   UNL     1      -9.237   6.654  70.821  1.00  0.00    -0.155 A  
HETATM   17  C   UNL     1      -9.412   5.265  70.932  1.00  0.00    -0.216 A  
HETATM   18  C   UNL     1     -10.077   7.527  71.544  1.00  0.00    -0.201 A  
HETATM   19  C   UNL     1     -10.434   4.739  71.722  1.00  0.00    -0.182 A  
HETATM   20  C   UNL     1     -11.114   6.974  72.313  1.00  0.00    -0.252 A  
HETATM   21  O   UNL     1     -12.013   7.738  73.006  1.00  0.00    -0.610 OA 
HETATM   22  H   UNL     1     -12.714   7.365  73.527  1.00  0.00     0.000 HD 
HETATM   23  C   UNL     1     -11.288   5.595  72.408  1.00  0.00    -0.327 A  
ENDBRANCH   4  12
ENDBRANCH   3   4
ENDBRANCH   2   3
TORSDOF 6
ENDMDL
MODEL       62
REMARK 921   NORMALIZED FREE ENERGY PREDICTED BY IDOCK:   -4.53 KCAL/MOL
REMARK 922        TOTAL FREE ENERGY PREDICTED BY IDOCK:   -7.51 KCAL/MOL
REMARK 923 INTER-LIGAND FREE ENERGY PREDICTED BY IDOCK:   -6.90 KCAL/MOL
REMARK 924 INTRA-LIGAND FREE ENERGY PREDICTED BY IDOCK:   -0.61 KCAL/MOL
REMARK 927      BINDING AFFINITY PREDICTED BY RF-SCORE:    0.00 PKD
ROOT
HETATM    1  C   UNL     1     -12.901  15.568  71.444  1.00  0.00    -0.531 C  
HETATM    2  C   UNL     1     -12.487  14.676  70.280  1.00  0.00    -0.401 C  
ENDROOT
BRANCH   2   3
HETATM    3  C   UNL     1     -11.287  15.264  69.519  1.00  0.00    -0.288 C  
BRANCH   3   4
HETATM    4  N   UNL     1     -10.633  14.371  68.536  1.00  0.00    -0.248 NA 
BRANCH   4   5
HETATM    5  C   UNL     1     -10.820  12.944  68.866  1.00  0.00    -0.200 C  
BRANCH   5   6
HETATM    6  C   UNL     1     -11.256  12.083  67.662  1.00  0.00    -0.343 C  
BRANCH   6   7
HETATM    7  C   UNL     1     -10.086  11.332  67.090  1.00  0.00    -0.192 A  
HETATM    8  S   UNL     1     -10.267  10.437  65.640  1.00  0.00    -0.199 SA 
HETATM    9  C   UNL     1      -8.803  11.238  67.590  1.00  0.00    -0.138 A  
HETATM   10  C   UNL     1      -7.972  10.405  66.786  1.00  0.00    -0.117 A  
HETATM   11  C   UNL     1      -8.646   9.903  65.696  1.00  0.00    -0.145 A  
ENDBRANCH   6   7
ENDBRANCH   5   6
ENDBRANCH   4   5
BRANCH   4  12
HETATM   12  C   UNL     1      -9.223  14.743  68.224  1.00  0.00    -0.187 C  
HETATM   13  C   UNL     1      -8.890  14.775  66.714  1.00  0.00    -0.281 C  
HETATM   14  C   UNL     1      -8.824  16.160  68.729  1.00  0.00    -0.233 C  
HETATM   15  C   UNL     1      -9.786  15.760  65.957  1.00  0.00    -0.366 C  
HETATM   16  C   UNL     1      -9.492  17.284  67.962  1.00  0.00    -0.271 A  
HETATM   17  C   UNL     1      -9.619  18.542  68.573  1.00  0.00    -0.388 A  
HETATM   18  C   UNL     1      -9.933  17.102  66.634  1.00  0.00    -0.298 A  
HETATM   19  C   UNL     1     -10.211  19.606  67.893  1.00  0.00    -0.574 A  
HETATM   20  C   UNL     1     -10.548  18.181  65.978  1.00  0.00    -0.264 A  
HETATM   21  O   UNL     1     -11.056  18.089  64.712  1.00  0.00    -0.708 OA 
HETATM   22  H   UNL     1     -11.471  18.819  64.268  1.00  0.00     0.000 HD 
HETATM   23  C   UNL     1     -10.680  19.423  66.597  1.00  0.00    -0.529 A  
ENDBRANCH   4  12
ENDBRANCH   3   4
ENDBRANCH   2   3
TORSDOF 6
ENDMDL
MODEL       63
REMARK 921   NORMALIZED FREE ENERGY PREDICTED BY IDOCK:   -4.51 KCAL/MOL
REMARK 922        TOTAL FREE ENERGY PREDICTED BY IDOCK:   -7.49 KCAL/MOL
REMARK 923 INTER-LIGAND FREE ENERGY PREDICTED BY IDOCK:   -6.21 KCAL/MOL
REMARK 924 INTRA-LIGAND FREE ENERGY PREDICTED BY IDOCK:   -1.28 KCAL/MOL
REMARK 927      BINDING AFFINITY PREDICTED BY RF-SCORE:    0.00 PKD
ROOT
HETATM    1  C   UNL     1      -7.380  15.129  69.578  1.00  0.00    -0.210 C  
HETATM    2  C   UNL     1      -7.443  14.089  68.467  1.00  0.00    -0.124 C  
ENDROOT
BRANCH   2   3
HETATM    3  C   UNL     1      -8.803  14.112  67.749  1.00  0.00    -0.185 C  
BRANCH   3   4
HETATM    4  N   UNL     1      -9.759  15.153  68.187  1.00  0.00    -0.214 NA 
BRANCH   4   5
HETATM    5  C   UNL     1     -10.878  14.590  68.971  1.00  0.00    -0.254 C  
BRANCH   5   6
HETATM    6  C   UNL     1     -11.157  13.104  68.669  1.00  0.00    -0.304 C  
BRANCH   6   7
HETATM    7  C   UNL     1     -11.906  12.459  69.801  1.00  0.00    -0.317 A  
HETATM    8  S   UNL     1     -12.644  13.431  71.006  1.00  0.00    -0.290 SA 
HETATM    9  C   UNL     1     -12.100  11.114  70.043  1.00  0.00    -0.437 A  
HETATM   10  C   UNL     1     -12.840  10.883  71.238  1.00  0.00    -0.536 A  
HETATM   11  C   UNL     1     -13.194  12.058  71.861  1.00  0.00    -0.364 A  
ENDBRANCH   6   7
ENDBRANCH   5   6
ENDBRANCH   4   5
BRANCH   4  12
HETATM   12  C   UNL     1     -10.185  16.082  67.101  1.00  0.00    -0.278 C  
HETATM   13  C   UNL     1     -10.751  17.432  67.600  1.00  0.00    -0.310 C  
HETATM   14  C   UNL     1      -9.032  16.488  66.139  1.00  0.00    -0.344 C  
HETATM   15  C   UNL     1      -9.734  18.189  68.458  1.00  0.00    -0.372 C  
HETATM   16  C   UNL     1      -8.005  17.401  66.780  1.00  0.00    -0.278 A  
HETATM   17  C   UNL     1      -6.713  17.460  66.233  1.00  0.00    -0.295 A  
HETATM   18  C   UNL     1      -8.343  18.229  67.872  1.00  0.00    -0.259 A  
HETATM   19  C   UNL     1      -5.747  18.303  66.783  1.00  0.00    -0.165 A  
HETATM   20  C   UNL     1      -7.346  19.050  68.424  1.00  0.00    -0.295 A  
HETATM   21  O   UNL     1      -7.561  19.846  69.515  1.00  0.00    -0.161 OA 
HETATM   22  H   UNL     1      -6.887  20.403  69.888  1.00  0.00     0.000 HD 
HETATM   23  C   UNL     1      -6.064  19.094  67.882  1.00  0.00    -0.218 A  
ENDBRANCH   4  12
ENDBRANCH   3   4
ENDBRANCH   2   3
TORSDOF 6
ENDMDL
MODEL       64
REMARK 921   NORMALIZED FREE ENERGY PREDICTED BY IDOCK:   -4.45 KCAL/MOL
REMARK 922        TOTAL FREE ENERGY PREDICTED BY IDOCK:   -7.40 KCAL/MOL
REMARK 923 INTER-LIGAND FREE ENERGY PREDICTED BY IDOCK:   -6.05 KCAL/MOL
REMARK 924 INTRA-LIGAND FREE ENERGY PREDICTED BY IDOCK:   -1.35 KCAL/MOL
REMARK 927      BINDING AFFINITY PREDICTED BY RF-SCORE:    0.00 PKD
ROOT
HETATM    1  C   UNL     1      -9.575   6.689  67.904  1.00  0.00    -0.121 C  
HETATM    2  C   UNL     1      -9.674   7.613  66.698  1.00  0.00    -0.283 C  
ENDROOT
BRANCH   2   3
HETATM    3  C   UNL     1     -10.590   8.816  66.981  1.00  0.00    -0.213 C  
BRANCH   3   4
HETATM    4  N   UNL     1      -9.983  10.156  66.815  1.00  0.00    -0.202 NA 
BRANCH   4   5
HETATM    5  C   UNL     1      -9.430  10.354  65.460  1.00  0.00    -0.215 C  
BRANCH   5   6
HETATM    6  C   UNL     1     -10.482  10.797  64.422  1.00  0.00    -0.344 C  
BRANCH   6   7
HETATM    7  C   UNL     1     -10.894  12.224  64.652  1.00  0.00    -0.308 A  
HETATM    8  S   UNL     1     -12.530  12.599  65.001  1.00  0.00    -0.397 SA 
HETATM    9  C   UNL     1     -10.108  13.358  64.615  1.00  0.00    -0.256 A  
HETATM   10  C   UNL     1     -10.861  14.543  64.852  1.00  0.00    -0.436 A  
HETATM   11  C   UNL     1     -12.192  14.272  65.073  1.00  0.00    -0.433 A  
ENDBRANCH   6   7
ENDBRANCH   5   6
ENDBRANCH   4   5
BRANCH   4  12
HETATM   12  C   UNL     1      -9.052  10.540  67.915  1.00  0.00    -0.136 C  
HETATM   13  C   UNL     1      -8.810  12.062  68.044  1.00  0.00    -0.179 C  
HETATM   14  C   UNL     1      -9.544  10.115  69.328  1.00  0.00    -0.239 C  
HETATM   15  C   UNL     1     -10.116  12.825  68.281  1.00  0.00    -0.237 C  
HETATM   16  C   UNL     1     -10.747  10.903  69.811  1.00  0.00    -0.193 A  
HETATM   17  C   UNL     1     -11.574  10.344  70.797  1.00  0.00    -0.450 A  
HETATM   18  C   UNL     1     -11.010  12.203  69.329  1.00  0.00    -0.168 A  
HETATM   19  C   UNL     1     -12.678  11.046  71.280  1.00  0.00    -0.537 A  
HETATM   20  C   UNL     1     -12.141  12.881  69.812  1.00  0.00    -0.245 A  
HETATM   21  O   UNL     1     -12.510  14.121  69.369  1.00  0.00    -0.489 OA 
HETATM   22  H   UNL     1     -13.274  14.580  69.696  1.00  0.00     0.000 HD 
HETATM   23  C   UNL     1     -12.963  12.313  70.783  1.00  0.00     0.030 A  
ENDBRANCH   4  12
ENDBRANCH   3   4
ENDBRANCH   2   3
TORSDOF 6
ENDMDL
MODEL       65
REMARK 921   NORMALIZED FREE ENERGY PREDICTED BY IDOCK:   -4.44 KCAL/MOL
REMARK 922        TOTAL FREE ENERGY PREDICTED BY IDOCK:   -7.39 KCAL/MOL
REMARK 923 INTER-LIGAND FREE ENERGY PREDICTED BY IDOCK:   -7.02 KCAL/MOL
REMARK 924 INTRA-LIGAND FREE ENERGY PREDICTED BY IDOCK:   -0.38 KCAL/MOL
REMARK 927      BINDING AFFINITY PREDICTED BY RF-SCORE:    0.00 PKD
ROOT
HETATM    1  C   UNL     1     -10.771  11.060  66.764  1.00  0.00    -0.319 C  
HETATM    2  C   UNL     1     -10.438  12.540  66.628  1.00  0.00    -0.252 C  
ENDROOT
BRANCH   2   3
HETATM    3  C   UNL     1     -10.372  13.231  68.000  1.00  0.00    -0.241 C  
BRANCH   3   4
HETATM    4  N   UNL     1     -10.448  14.710  67.994  1.00  0.00    -0.234 NA 
BRANCH   4   5
HETATM    5  C   UNL     1     -11.661  15.210  68.672  1.00  0.00    -0.341 C  
BRANCH   5   6
HETATM    6  C   UNL     1     -12.277  14.200  69.661  1.00  0.00    -0.376 C  
BRANCH   6   7
HETATM    7  C   UNL     1     -12.510  14.837  71.002  1.00  0.00    -0.330 A  
HETATM    8  S   UNL     1     -14.105  15.006  71.607  1.00  0.00    -0.573 SA 
HETATM    9  C   UNL     1     -11.576  15.351  71.879  1.00  0.00    -0.521 A  
HETATM   10  C   UNL     1     -12.180  15.907  73.043  1.00  0.00    -0.609 A  
HETATM   11  C   UNL     1     -13.550  15.788  73.020  1.00  0.00    -0.555 A  
ENDBRANCH   6   7
ENDBRANCH   5   6
ENDBRANCH   4   5
BRANCH   4  12
HETATM   12  C   UNL     1     -10.201  15.324  66.658  1.00  0.00    -0.271 C  
HETATM   13  C   UNL     1     -10.827  16.725  66.473  1.00  0.00     0.006 C  
HETATM   14  C   UNL     1      -8.694  15.538  66.338  1.00  0.00    -0.333 C  
HETATM   15  C   UNL     1     -10.312  17.718  67.519  1.00  0.00    -0.371 C  
HETATM   16  C   UNL     1      -8.049  16.628  67.171  1.00  0.00    -0.211 A  
HETATM   17  C   UNL     1      -6.656  16.614  67.348  1.00  0.00    -0.199 A  
HETATM   18  C   UNL     1      -8.815  17.680  67.718  1.00  0.00    -0.240 A  
HETATM   19  C   UNL     1      -6.025  17.611  68.092  1.00  0.00    -0.163 A  
HETATM   20  C   UNL     1      -8.160  18.659  68.484  1.00  0.00    -0.341 A  
HETATM   21  O   UNL     1      -8.821  19.685  69.098  1.00  0.00    -0.259 OA 
HETATM   22  H   UNL     1      -8.378  20.348  69.616  1.00  0.00     0.000 HD 
HETATM   23  C   UNL     1      -6.779  18.630  68.664  1.00  0.00    -0.283 A  
ENDBRANCH   4  12
ENDBRANCH   3   4
ENDBRANCH   2   3
TORSDOF 6
ENDMDL
MODEL       66
REMARK 921   NORMALIZED FREE ENERGY PREDICTED BY IDOCK:   -4.43 KCAL/MOL
REMARK 922        TOTAL FREE ENERGY PREDICTED BY IDOCK:   -7.38 KCAL/MOL
REMARK 923 INTER-LIGAND FREE ENERGY PREDICTED BY IDOCK:   -6.26 KCAL/MOL
REMARK 924 INTRA-LIGAND FREE ENERGY PREDICTED BY IDOCK:   -1.12 KCAL/MOL
REMARK 927      BINDING AFFINITY PREDICTED BY RF-SCORE:    0.00 PKD
ROOT
HETATM    1  C   UNL     1     -13.499   9.676  71.611  1.00  0.00    -0.455 C  
HETATM    2  C   UNL     1     -12.327  10.549  71.180  1.00  0.00    -0.510 C  
ENDROOT
BRANCH   2   3
HETATM    3  C   UNL     1     -11.892  10.238  69.738  1.00  0.00    -0.147 C  
BRANCH   3   4
HETATM    4  N   UNL     1     -10.453  10.406  69.436  1.00  0.00    -0.224 NA 
BRANCH   4   5
HETATM    5  C   UNL     1     -10.200  11.560  68.550  1.00  0.00    -0.213 C  
BRANCH   5   6
HETATM    6  C   UNL     1     -11.485  12.199  67.984  1.00  0.00    -0.380 C  
BRANCH   6   7
HETATM    7  C   UNL     1     -11.510  13.678  68.251  1.00  0.00    -0.313 A  
HETATM    8  S   UNL     1     -11.944  14.264  69.802  1.00  0.00    -0.356 SA 
HETATM    9  C   UNL     1     -11.226  14.709  67.378  1.00  0.00    -0.351 A  
HETATM   10  C   UNL     1     -11.390  15.988  67.985  1.00  0.00    -0.266 A  
HETATM   11  C   UNL     1     -11.781  15.888  69.300  1.00  0.00    -0.353 A  
ENDBRANCH   6   7
ENDBRANCH   5   6
ENDBRANCH   4   5
BRANCH   4  12
HETATM   12  C   UNL     1      -9.772   9.150  69.009  1.00  0.00    -0.166 C  
HETATM   13  C   UNL     1      -8.283   9.060  69.416  1.00  0.00    -0.117 C  
HETATM   14  C   UNL     1     -10.406   7.861  69.606  1.00  0.00    -0.216 C  
HETATM   15  C   UNL     1      -8.104   9.168  70.933  1.00  0.00    -0.201 C  
HETATM   16  C   UNL     1     -10.172   7.708  71.096  1.00  0.00    -0.207 A  
HETATM   17  C   UNL     1     -11.046   6.902  71.842  1.00  0.00    -0.278 A  
HETATM   18  C   UNL     1      -9.064   8.313  71.728  1.00  0.00    -0.255 A  
HETATM   19  C   UNL     1     -10.851   6.722  73.212  1.00  0.00    -0.302 A  
HETATM   20  C   UNL     1      -8.903   8.137  73.112  1.00  0.00    -0.257 A  
HETATM   21  O   UNL     1      -7.893   8.724  73.823  1.00  0.00    -0.409 OA 
HETATM   22  H   UNL     1      -7.784   8.605  74.759  1.00  0.00     0.000 HD 
HETATM   23  C   UNL     1      -9.782   7.344  73.846  1.00  0.00    -0.287 A  
ENDBRANCH   4  12
ENDBRANCH   3   4
ENDBRANCH   2   3
TORSDOF 6
ENDMDL
MODEL       67
REMARK 921   NORMALIZED FREE ENERGY PREDICTED BY IDOCK:   -4.43 KCAL/MOL
REMARK 922        TOTAL FREE ENERGY PREDICTED BY IDOCK:   -7.37 KCAL/MOL
REMARK 923 INTER-LIGAND FREE ENERGY PREDICTED BY IDOCK:   -6.60 KCAL/MOL
REMARK 924 INTRA-LIGAND FREE ENERGY PREDICTED BY IDOCK:   -0.78 KCAL/MOL
REMARK 927      BINDING AFFINITY PREDICTED BY RF-SCORE:    0.00 PKD
ROOT
HETATM    1  C   UNL     1      -8.209  16.390  66.564  1.00  0.00    -0.341 C  
HETATM    2  C   UNL     1      -8.878  15.099  66.112  1.00  0.00    -0.104 C  
ENDROOT
BRANCH   2   3
HETATM    3  C   UNL     1      -8.843  14.029  67.216  1.00  0.00    -0.218 C  
BRANCH   3   4
HETATM    4  N   UNL     1     -10.147  13.655  67.808  1.00  0.00    -0.237 NA 
BRANCH   4   5
HETATM    5  C   UNL     1     -10.511  14.521  68.948  1.00  0.00    -0.246 C  
BRANCH   5   6
HETATM    6  C   UNL     1     -12.015  14.856  69.013  1.00  0.00    -0.307 C  
BRANCH   6   7
HETATM    7  C   UNL     1     -12.635  14.296  70.262  1.00  0.00    -0.319 A  
HETATM    8  S   UNL     1     -13.660  15.276  71.226  1.00  0.00    -0.481 SA 
HETATM    9  C   UNL     1     -12.492  13.030  70.795  1.00  0.00    -0.384 A  
HETATM   10  C   UNL     1     -13.211  12.876  72.015  1.00  0.00    -0.549 A  
HETATM   11  C   UNL     1     -13.886  14.023  72.364  1.00  0.00    -0.551 A  
ENDBRANCH   6   7
ENDBRANCH   5   6
ENDBRANCH   4   5
BRANCH   4  12
HETATM   12  C   UNL     1     -10.292  12.196  68.082  1.00  0.00    -0.207 C  
HETATM   13  C   UNL     1     -11.652  11.598  67.651  1.00  0.00    -0.349 C  
HETATM   14  C   UNL     1      -9.242  11.315  67.347  1.00  0.00    -0.164 C  
HETATM   15  C   UNL     1     -11.909  11.796  66.155  1.00  0.00     0.033 C  
HETATM   16  C   UNL     1      -9.452  11.250  65.847  1.00  0.00    -0.247 A  
HETATM   17  C   UNL     1      -8.365  10.919  65.022  1.00  0.00     0.034 A  
HETATM   18  C   UNL     1     -10.727  11.458  65.278  1.00  0.00    -0.326 A  
HETATM   19  C   UNL     1      -8.524  10.831  63.639  1.00  0.00    -0.005 A  
HETATM   20  C   UNL     1     -10.857  11.388  63.881  1.00  0.00    -0.393 A  
HETATM   21  O   UNL     1     -12.036  11.627  63.232  1.00  0.00    -0.851 OA 
HETATM   22  H   UNL     1     -12.125  11.580  62.287  1.00  0.00     0.000 HD 
HETATM   23  C   UNL     1      -9.770  11.071  63.069  1.00  0.00    -0.381 A  
ENDBRANCH   4  12
ENDBRANCH   3   4
ENDBRANCH   2   3
TORSDOF 6
ENDMDL
MODEL       68
REMARK 921   NORMALIZED FREE ENERGY PREDICTED BY IDOCK:   -4.43 KCAL/MOL
REMARK 922        TOTAL FREE ENERGY PREDICTED BY IDOCK:   -7.37 KCAL/MOL
REMARK 923 INTER-LIGAND FREE ENERGY PREDICTED BY IDOCK:   -6.12 KCAL/MOL
REMARK 924 INTRA-LIGAND FREE ENERGY PREDICTED BY IDOCK:   -1.25 KCAL/MOL
REMARK 927      BINDING AFFINITY PREDICTED BY RF-SCORE:    0.00 PKD
ROOT
HETATM    1  C   UNL     1     -14.394   8.047  71.745  1.00  0.00    -0.583 C  
HETATM    2  C   UNL     1     -13.525   6.979  71.093  1.00  0.00    -0.169 C  
ENDROOT
BRANCH   2   3
HETATM    3  C   UNL     1     -12.280   6.668  71.942  1.00  0.00    -0.335 C  
BRANCH   3   4
HETATM    4  N   UNL     1     -10.991   7.183  71.428  1.00  0.00    -0.232 NA 
BRANCH   4   5
HETATM    5  C   UNL     1      -9.967   6.123  71.326  1.00  0.00    -0.182 C  
BRANCH   5   6
HETATM    6  C   UNL     1     -10.325   5.013  70.317  1.00  0.00    -0.299 C  
BRANCH   6   7
HETATM    7  C   UNL     1     -10.255   5.529  68.907  1.00  0.00    -0.214 A  
HETATM    8  S   UNL     1      -9.043   4.951  67.841  1.00  0.00    -0.118 SA 
HETATM    9  C   UNL     1     -11.065   6.465  68.297  1.00  0.00    -0.359 A  
HETATM   10  C   UNL     1     -10.671   6.725  66.953  1.00  0.00    -0.394 A  
HETATM   11  C   UNL     1      -9.582   5.970  66.581  1.00  0.00    -0.154 A  
ENDBRANCH   6   7
ENDBRANCH   5   6
ENDBRANCH   4   5
BRANCH   4  12
HETATM   12  C   UNL     1     -10.518   8.422  72.110  1.00  0.00    -0.326 C  
HETATM   13  C   UNL     1      -9.040   8.780  71.831  1.00  0.00    -0.291 C  
HETATM   14  C   UNL     1     -11.301   9.701  71.695  1.00  0.00    -0.336 C  
HETATM   15  C   UNL     1      -8.775   8.968  70.334  1.00  0.00    -0.224 C  
HETATM   16  C   UNL     1     -11.020  10.146  70.273  1.00  0.00    -0.380 A  
HETATM   17  C   UNL     1     -11.964  10.949  69.613  1.00  0.00    -0.414 A  
HETATM   18  C   UNL     1      -9.808   9.816  69.630  1.00  0.00    -0.241 A  
HETATM   19  C   UNL     1     -11.732  11.394  68.312  1.00  0.00    -0.359 A  
HETATM   20  C   UNL     1      -9.608  10.255  68.310  1.00  0.00    -0.142 A  
HETATM   21  O   UNL     1      -8.492   9.942  67.585  1.00  0.00    -0.115 OA 
HETATM   22  H   UNL     1      -8.356  10.239  66.693  1.00  0.00     0.000 HD 
HETATM   23  C   UNL     1     -10.556  11.041  67.659  1.00  0.00    -0.255 A  
ENDBRANCH   4  12
ENDBRANCH   3   4
ENDBRANCH   2   3
TORSDOF 6
ENDMDL
MODEL       69
REMARK 921   NORMALIZED FREE ENERGY PREDICTED BY IDOCK:   -4.38 KCAL/MOL
REMARK 922        TOTAL FREE ENERGY PREDICTED BY IDOCK:   -7.31 KCAL/MOL
REMARK 923 INTER-LIGAND FREE ENERGY PREDICTED BY IDOCK:   -6.25 KCAL/MOL
REMARK 924 INTRA-LIGAND FREE ENERGY PREDICTED BY IDOCK:   -1.06 KCAL/MOL
REMARK 927      BINDING AFFINITY PREDICTED BY RF-SCORE:    0.00 PKD
ROOT
HETATM    1  C   UNL     1     -11.632  12.377  69.581  1.00  0.00    -0.330 C  
HETATM    2  C   UNL     1     -11.878  11.213  68.631  1.00  0.00    -0.357 C  
ENDROOT
BRANCH   2   3
HETATM    3  C   UNL     1     -10.579  10.446  68.330  1.00  0.00    -0.212 C  
BRANCH   3   4
HETATM    4  N   UNL     1     -10.481   9.821  66.992  1.00  0.00    -0.239 NA 
BRANCH   4   5
HETATM    5  C   UNL     1     -10.633   8.353  67.049  1.00  0.00    -0.246 C  
BRANCH   5   6
HETATM    6  C   UNL     1      -9.295   7.598  67.186  1.00  0.00    -0.180 C  
BRANCH   6   7
HETATM    7  C   UNL     1      -9.315   6.324  66.389  1.00  0.00    -0.151 A  
HETATM    8  S   UNL     1      -7.932   5.849  65.494  1.00  0.00    -0.123 SA 
HETATM    9  C   UNL     1     -10.348   5.418  66.249  1.00  0.00    -0.251 A  
HETATM   10  C   UNL     1     -10.005   4.341  65.383  1.00  0.00    -0.233 A  
HETATM   11  C   UNL     1      -8.721   4.455  64.901  1.00  0.00    -0.135 A  
ENDBRANCH   6   7
ENDBRANCH   5   6
ENDBRANCH   4   5
BRANCH   4  12
HETATM   12  C   UNL     1      -9.310  10.281  66.192  1.00  0.00    -0.170 C  
HETATM   13  C   UNL     1      -9.474  10.111  64.663  1.00  0.00    -0.357 C  
HETATM   14  C   UNL     1      -8.984  11.791  66.371  1.00  0.00    -0.201 C  
HETATM   15  C   UNL     1     -10.695  10.870  64.137  1.00  0.00    -0.231 C  
HETATM   16  C   UNL     1     -10.016  12.709  65.745  1.00  0.00    -0.266 A  
HETATM   17  C   UNL     1     -10.127  14.027  66.215  1.00  0.00    -0.307 A  
HETATM   18  C   UNL     1     -10.818  12.279  64.666  1.00  0.00    -0.349 A  
HETATM   19  C   UNL     1     -11.051  14.907  65.651  1.00  0.00    -0.348 A  
HETATM   20  C   UNL     1     -11.758  13.175  64.131  1.00  0.00    -0.418 A  
HETATM   21  O   UNL     1     -12.616  12.836  63.122  1.00  0.00    -0.684 OA 
HETATM   22  H   UNL     1     -13.251  13.442  62.759  1.00  0.00     0.000 HD 
HETATM   23  C   UNL     1     -11.869  14.478  64.612  1.00  0.00    -0.462 A  
ENDBRANCH   4  12
ENDBRANCH   3   4
ENDBRANCH   2   3
TORSDOF 6
ENDMDL
MODEL       70
REMARK 921   NORMALIZED FREE ENERGY PREDICTED BY IDOCK:   -4.36 KCAL/MOL
REMARK 922        TOTAL FREE ENERGY PREDICTED BY IDOCK:   -7.28 KCAL/MOL
REMARK 923 INTER-LIGAND FREE ENERGY PREDICTED BY IDOCK:   -6.48 KCAL/MOL
REMARK 924 INTRA-LIGAND FREE ENERGY PREDICTED BY IDOCK:   -0.80 KCAL/MOL
REMARK 927      BINDING AFFINITY PREDICTED BY RF-SCORE:    0.00 PKD
ROOT
HETATM    1  C   UNL     1      -8.515  11.396  67.640  1.00  0.00    -0.130 C  
HETATM    2  C   UNL     1      -8.538  11.138  69.140  1.00  0.00     0.045 C  
ENDROOT
BRANCH   2   3
HETATM    3  C   UNL     1      -9.336   9.868  69.482  1.00  0.00    -0.220 C  
BRANCH   3   4
HETATM    4  N   UNL     1     -10.472  10.039  70.416  1.00  0.00    -0.279 NA 
BRANCH   4   5
HETATM    5  C   UNL     1     -10.413   9.093  71.547  1.00  0.00    -0.352 C  
BRANCH   5   6
HETATM    6  C   UNL     1      -9.959   7.675  71.144  1.00  0.00    -0.188 C  
BRANCH   6   7
HETATM    7  C   UNL     1     -10.324   6.674  72.205  1.00  0.00    -0.200 A  
HETATM    8  S   UNL     1      -9.790   6.900  73.818  1.00  0.00    -0.314 SA 
HETATM    9  C   UNL     1     -11.065   5.517  72.071  1.00  0.00    -0.249 A  
HETATM   10  C   UNL     1     -11.174   4.803  73.298  1.00  0.00    -0.421 A  
HETATM   11  C   UNL     1     -10.523   5.444  74.327  1.00  0.00    -0.262 A  
ENDBRANCH   6   7
ENDBRANCH   5   6
ENDBRANCH   4   5
BRANCH   4  12
HETATM   12  C   UNL     1     -11.803  10.103  69.745  1.00  0.00    -0.088 C  
HETATM   13  C   UNL     1     -13.001  10.234  70.714  1.00  0.00    -0.408 C  
HETATM   14  C   UNL     1     -11.960  11.316  68.783  1.00  0.00    -0.350 C  
HETATM   15  C   UNL     1     -12.886  11.484  71.591  1.00  0.00    -0.475 C  
HETATM   16  C   UNL     1     -12.044  12.648  69.502  1.00  0.00    -0.253 A  
HETATM   17  C   UNL     1     -11.711  13.819  68.802  1.00  0.00    -0.391 A  
HETATM   18  C   UNL     1     -12.505  12.733  70.833  1.00  0.00    -0.373 A  
HETATM   19  C   UNL     1     -11.794  15.065  69.424  1.00  0.00    -0.358 A  
HETATM   20  C   UNL     1     -12.557  13.997  71.445  1.00  0.00    -0.372 A  
HETATM   21  O   UNL     1     -12.938  14.177  72.746  1.00  0.00    -0.448 OA 
HETATM   22  H   UNL     1     -12.973  15.031  73.160  1.00  0.00     0.000 HD 
HETATM   23  C   UNL     1     -12.212  15.152  70.747  1.00  0.00    -0.392 A  
ENDBRANCH   4  12
ENDBRANCH   3   4
ENDBRANCH   2   3
TORSDOF 6
ENDMDL
MODEL       71
REMARK 921   NORMALIZED FREE ENERGY PREDICTED BY IDOCK:   -4.34 KCAL/MOL
REMARK 922        TOTAL FREE ENERGY PREDICTED BY IDOCK:   -7.26 KCAL/MOL
REMARK 923 INTER-LIGAND FREE ENERGY PREDICTED BY IDOCK:   -6.66 KCAL/MOL
REMARK 924 INTRA-LIGAND FREE ENERGY PREDICTED BY IDOCK:   -0.59 KCAL/MOL
REMARK 927      BINDING AFFINITY PREDICTED BY RF-SCORE:    0.00 PKD
ROOT
HETATM    1  C   UNL     1     -11.465  15.128  71.612  1.00  0.00    -0.445 C  
HETATM    2  C   UNL     1     -12.201  14.035  70.848  1.00  0.00    -0.436 C  
ENDROOT
BRANCH   2   3
HETATM    3  C   UNL     1     -11.962  14.145  69.333  1.00  0.00    -0.337 C  
BRANCH   3   4
HETATM    4  N   UNL     1     -10.847  13.340  68.784  1.00  0.00    -0.249 NA 
BRANCH   4   5
HETATM    5  C   UNL     1      -9.826  14.177  68.122  1.00  0.00    -0.229 C  
BRANCH   5   6
HETATM    6  C   UNL     1     -10.408  15.152  67.079  1.00  0.00    -0.271 C  
BRANCH   6   7
HETATM    7  C   UNL     1     -10.876  14.413  65.857  1.00  0.00    -0.304 A  
HETATM    8  S   UNL     1     -12.553  14.261  65.535  1.00  0.00    -0.335 SA 
HETATM    9  C   UNL     1     -10.114  13.786  64.891  1.00  0.00    -0.297 A  
HETATM   10  C   UNL     1     -10.916  13.159  63.895  1.00  0.00    -0.308 A  
HETATM   11  C   UNL     1     -12.260  13.338  64.128  1.00  0.00    -0.401 A  
ENDBRANCH   6   7
ENDBRANCH   5   6
ENDBRANCH   4   5
BRANCH   4  12
HETATM   12  C   UNL     1     -11.289  12.166  67.977  1.00  0.00    -0.295 C  
HETATM   13  C   UNL     1     -10.134  11.274  67.464  1.00  0.00    -0.207 C  
HETATM   14  C   UNL     1     -12.209  11.183  68.755  1.00  0.00    -0.080 C  
HETATM   15  C   UNL     1      -9.287  10.727  68.616  1.00  0.00    -0.184 C  
HETATM   16  C   UNL     1     -11.486  10.408  69.839  1.00  0.00    -0.368 A  
HETATM   17  C   UNL     1     -12.229   9.872  70.902  1.00  0.00    -0.420 A  
HETATM   18  C   UNL     1     -10.097  10.172  69.765  1.00  0.00    -0.269 A  
HETATM   19  C   UNL     1     -11.602   9.137  71.908  1.00  0.00    -0.430 A  
HETATM   20  C   UNL     1      -9.483   9.450  70.802  1.00  0.00    -0.241 A  
HETATM   21  O   UNL     1      -8.137   9.215  70.848  1.00  0.00    -0.158 OA 
HETATM   22  H   UNL     1      -7.722   8.726  71.549  1.00  0.00     0.000 HD 
HETATM   23  C   UNL     1     -10.227   8.931  71.859  1.00  0.00    -0.403 A  
ENDBRANCH   4  12
ENDBRANCH   3   4
ENDBRANCH   2   3
TORSDOF 6
ENDMDL
MODEL       72
REMARK 921   NORMALIZED FREE ENERGY PREDICTED BY IDOCK:   -4.33 KCAL/MOL
REMARK 922        TOTAL FREE ENERGY PREDICTED BY IDOCK:   -7.24 KCAL/MOL
REMARK 923 INTER-LIGAND FREE ENERGY PREDICTED BY IDOCK:   -7.53 KCAL/MOL
REMARK 924 INTRA-LIGAND FREE ENERGY PREDICTED BY IDOCK:    0.29 KCAL/MOL
REMARK 927      BINDING AFFINITY PREDICTED BY RF-SCORE:    0.00 PKD
ROOT
HETATM    1  C   UNL     1     -10.071   8.492  69.631  1.00  0.00    -0.202 C  
HETATM    2  C   UNL     1     -10.366   8.316  68.147  1.00  0.00    -0.253 C  
ENDROOT
BRANCH   2   3
HETATM    3  C   UNL     1     -10.790   9.643  67.495  1.00  0.00    -0.198 C  
BRANCH   3   4
HETATM    4  N   UNL     1     -10.362  10.880  68.186  1.00  0.00    -0.171 NA 
BRANCH   4   5
HETATM    5  C   UNL     1     -11.495  11.788  68.458  1.00  0.00    -0.296 C  
BRANCH   5   6
HETATM    6  C   UNL     1     -12.016  11.708  69.908  1.00  0.00    -0.414 C  
BRANCH   6   7
HETATM    7  C   UNL     1     -12.339  13.077  70.437  1.00  0.00    -0.277 A  
HETATM    8  S   UNL     1     -11.922  14.470  69.527  1.00  0.00    -0.315 SA 
HETATM    9  C   UNL     1     -12.955  13.412  71.626  1.00  0.00    -0.445 A  
HETATM   10  C   UNL     1     -13.062  14.822  71.799  1.00  0.00    -0.421 A  
HETATM   11  C   UNL     1     -12.536  15.513  70.732  1.00  0.00    -0.440 A  
ENDBRANCH   6   7
ENDBRANCH   5   6
ENDBRANCH   4   5
BRANCH   4  12
HETATM   12  C   UNL     1      -9.184  11.547  67.560  1.00  0.00    -0.166 C  
HETATM   13  C   UNL     1      -8.668  10.858  66.276  1.00  0.00    -0.175 C  
HETATM   14  C   UNL     1      -9.458  13.013  67.118  1.00  0.00    -0.230 C  
HETATM   15  C   UNL     1      -9.755  10.777  65.201  1.00  0.00    -0.319 C  
HETATM   16  C   UNL     1     -10.393  13.120  65.929  1.00  0.00    -0.295 A  
HETATM   17  C   UNL     1     -11.096  14.318  65.723  1.00  0.00    -0.310 A  
HETATM   18  C   UNL     1     -10.520  12.064  65.002  1.00  0.00    -0.327 A  
HETATM   19  C   UNL     1     -11.950  14.461  64.630  1.00  0.00    -0.475 A  
HETATM   20  C   UNL     1     -11.405  12.222  63.922  1.00  0.00    -0.429 A  
HETATM   21  O   UNL     1     -11.637  11.238  63.002  1.00  0.00    -0.857 OA 
HETATM   22  H   UNL     1     -12.235  11.345  62.272  1.00  0.00     0.000 HD 
HETATM   23  C   UNL     1     -12.108  13.410  63.733  1.00  0.00    -0.516 A  
ENDBRANCH   4  12
ENDBRANCH   3   4
ENDBRANCH   2   3
TORSDOF 6
ENDMDL
MODEL       73
REMARK 921   NORMALIZED FREE ENERGY PREDICTED BY IDOCK:   -4.33 KCAL/MOL
REMARK 922        TOTAL FREE ENERGY PREDICTED BY IDOCK:   -7.24 KCAL/MOL
REMARK 923 INTER-LIGAND FREE ENERGY PREDICTED BY IDOCK:   -5.74 KCAL/MOL
REMARK 924 INTRA-LIGAND FREE ENERGY PREDICTED BY IDOCK:   -1.50 KCAL/MOL
REMARK 927      BINDING AFFINITY PREDICTED BY RF-SCORE:    0.00 PKD
ROOT
HETATM    1  C   UNL     1     -10.593  15.350  64.906  1.00  0.00    -0.380 C  
HETATM    2  C   UNL     1     -12.062  15.092  64.599  1.00  0.00    -0.262 C  
ENDROOT
BRANCH   2   3
HETATM    3  C   UNL     1     -12.694  14.137  65.625  1.00  0.00    -0.441 C  
BRANCH   3   4
HETATM    4  N   UNL     1     -11.773  13.196  66.300  1.00  0.00    -0.357 NA 
BRANCH   4   5
HETATM    5  C   UNL     1     -11.754  11.870  65.649  1.00  0.00    -0.145 C  
BRANCH   5   6
HETATM    6  C   UNL     1     -10.524  11.641  64.748  1.00  0.00    -0.346 C  
BRANCH   6   7
HETATM    7  C   UNL     1      -9.867  10.326  65.061  1.00  0.00    -0.329 A  
HETATM    8  S   UNL     1     -10.240   9.506  66.520  1.00  0.00    -0.206 SA 
HETATM    9  C   UNL     1      -8.941   9.632  64.310  1.00  0.00    -0.269 A  
HETATM   10  C   UNL     1      -8.520   8.431  64.950  1.00  0.00    -0.141 A  
HETATM   11  C   UNL     1      -9.147   8.245  66.160  1.00  0.00    -0.189 A  
ENDBRANCH   6   7
ENDBRANCH   5   6
ENDBRANCH   4   5
BRANCH   4  12
HETATM   12  C   UNL     1     -11.937  13.144  67.781  1.00  0.00    -0.307 C  
HETATM   13  C   UNL     1     -10.788  12.426  68.526  1.00  0.00    -0.270 C  
HETATM   14  C   UNL     1     -12.004  14.546  68.452  1.00  0.00    -0.309 C  
HETATM   15  C   UNL     1      -9.434  13.088  68.252  1.00  0.00    -0.208 C  
HETATM   16  C   UNL     1     -10.682  15.288  68.431  1.00  0.00    -0.250 A  
HETATM   17  C   UNL     1     -10.686  16.688  68.547  1.00  0.00    -0.351 A  
HETATM   18  C   UNL     1      -9.455  14.595  68.357  1.00  0.00    -0.209 A  
HETATM   19  C   UNL     1      -9.489  17.404  68.551  1.00  0.00    -0.297 A  
HETATM   20  C   UNL     1      -8.264  15.339  68.339  1.00  0.00    -0.146 A  
HETATM   21  O   UNL     1      -7.030  14.763  68.216  1.00  0.00    -0.102 OA 
HETATM   22  H   UNL     1      -6.224  15.266  68.204  1.00  0.00     0.000 HD 
HETATM   23  C   UNL     1      -8.279  16.729  68.442  1.00  0.00    -0.224 A  
ENDBRANCH   4  12
ENDBRANCH   3   4
ENDBRANCH   2   3
TORSDOF 6
ENDMDL
MODEL       74
REMARK 921   NORMALIZED FREE ENERGY PREDICTED BY IDOCK:   -4.32 KCAL/MOL
REMARK 922        TOTAL FREE ENERGY PREDICTED BY IDOCK:   -7.22 KCAL/MOL
REMARK 923 INTER-LIGAND FREE ENERGY PREDICTED BY IDOCK:   -6.08 KCAL/MOL
REMARK 924 INTRA-LIGAND FREE ENERGY PREDICTED BY IDOCK:   -1.14 KCAL/MOL
REMARK 927      BINDING AFFINITY PREDICTED BY RF-SCORE:    0.00 PKD
ROOT
HETATM    1  C   UNL     1     -10.487  12.864  65.122  1.00  0.00    -0.326 C  
HETATM    2  C   UNL     1     -10.499  12.155  66.470  1.00  0.00    -0.254 C  
ENDROOT
BRANCH   2   3
HETATM    3  C   UNL     1     -11.736  12.539  67.300  1.00  0.00    -0.362 C  
BRANCH   3   4
HETATM    4  N   UNL     1     -11.476  13.220  68.588  1.00  0.00    -0.280 NA 
BRANCH   4   5
HETATM    5  C   UNL     1     -11.841  12.381  69.747  1.00  0.00    -0.317 C  
BRANCH   5   6
HETATM    6  C   UNL     1     -11.967  10.882  69.409  1.00  0.00    -0.393 C  
BRANCH   6   7
HETATM    7  C   UNL     1     -10.956  10.074  70.174  1.00  0.00    -0.310 A  
HETATM    8  S   UNL     1      -9.309  10.090  69.699  1.00  0.00    -0.196 SA 
HETATM    9  C   UNL     1     -11.163   9.259  71.269  1.00  0.00    -0.425 A  
HETATM   10  C   UNL     1      -9.963   8.627  71.704  1.00  0.00    -0.353 A  
HETATM   11  C   UNL     1      -8.881   8.990  70.935  1.00  0.00    -0.240 A  
ENDBRANCH   6   7
ENDBRANCH   5   6
ENDBRANCH   4   5
BRANCH   4  12
HETATM   12  C   UNL     1     -12.005  14.613  68.654  1.00  0.00    -0.270 C  
HETATM   13  C   UNL     1     -11.572  15.402  69.912  1.00  0.00    -0.342 C  
HETATM   14  C   UNL     1     -11.548  15.512  67.469  1.00  0.00    -0.110 C  
HETATM   15  C   UNL     1     -10.048  15.500  70.022  1.00  0.00    -0.241 C  
HETATM   16  C   UNL     1     -10.074  15.865  67.512  1.00  0.00    -0.247 A  
HETATM   17  C   UNL     1      -9.429  16.237  66.322  1.00  0.00    -0.347 A  
HETATM   18  C   UNL     1      -9.362  15.880  68.731  1.00  0.00    -0.220 A  
HETATM   19  C   UNL     1      -8.079  16.587  66.326  1.00  0.00    -0.341 A  
HETATM   20  C   UNL     1      -7.997  16.212  68.705  1.00  0.00    -0.216 A  
HETATM   21  O   UNL     1      -7.210  16.203  69.823  1.00  0.00    -0.121 OA 
HETATM   22  H   UNL     1      -6.287  16.428  69.806  1.00  0.00     0.000 HD 
HETATM   23  C   UNL     1      -7.362  16.569  67.517  1.00  0.00    -0.167 A  
ENDBRANCH   4  12
ENDBRANCH   3   4
ENDBRANCH   2   3
TORSDOF 6
ENDMDL
MODEL       75
REMARK 921   NORMALIZED FREE ENERGY PREDICTED BY IDOCK:   -4.31 KCAL/MOL
REMARK 922        TOTAL FREE ENERGY PREDICTED BY IDOCK:   -7.22 KCAL/MOL
REMARK 923 INTER-LIGAND FREE ENERGY PREDICTED BY IDOCK:   -6.24 KCAL/MOL
REMARK 924 INTRA-LIGAND FREE ENERGY PREDICTED BY IDOCK:   -0.98 KCAL/MOL
REMARK 927      BINDING AFFINITY PREDICTED BY RF-SCORE:    0.00 PKD
ROOT
HETATM    1  C   UNL     1     -13.037   9.356  72.087  1.00  0.00    -0.526 C  
HETATM    2  C   UNL     1     -12.900   9.990  70.710  1.00  0.00    -0.341 C  
ENDROOT
BRANCH   2   3
HETATM    3  C   UNL     1     -11.437  10.345  70.394  1.00  0.00    -0.337 C  
BRANCH   3   4
HETATM    4  N   UNL     1     -11.202  11.121  69.156  1.00  0.00    -0.240 NA 
BRANCH   4   5
HETATM    5  C   UNL     1     -12.135  12.258  69.025  1.00  0.00    -0.145 C  
BRANCH   5   6
HETATM    6  C   UNL     1     -11.551  13.597  69.520  1.00  0.00    -0.361 C  
BRANCH   6   7
HETATM    7  C   UNL     1     -12.261  14.065  70.759  1.00  0.00    -0.367 A  
HETATM    8  S   UNL     1     -11.908  15.607  71.421  1.00  0.00    -0.468 SA 
HETATM    9  C   UNL     1     -13.213  13.397  71.504  1.00  0.00    -0.395 A  
HETATM   10  C   UNL     1     -13.635  14.151  72.637  1.00  0.00    -0.618 A  
HETATM   11  C   UNL     1     -13.001  15.370  72.711  1.00  0.00    -0.448 A  
ENDBRANCH   6   7
ENDBRANCH   5   6
ENDBRANCH   4   5
BRANCH   4  12
HETATM   12  C   UNL     1     -11.087  10.283  67.928  1.00  0.00    -0.276 C  
HETATM   13  C   UNL     1     -10.751  11.075  66.643  1.00  0.00    -0.305 C  
HETATM   14  C   UNL     1      -9.970   9.203  68.010  1.00  0.00    -0.213 C  
HETATM   15  C   UNL     1      -9.434  11.843  66.781  1.00  0.00    -0.207 C  
HETATM   16  C   UNL     1      -8.569   9.782  67.978  1.00  0.00    -0.122 A  
HETATM   17  C   UNL     1      -7.511   9.028  68.510  1.00  0.00    -0.085 A  
HETATM   18  C   UNL     1      -8.307  11.030  67.374  1.00  0.00    -0.126 A  
HETATM   19  C   UNL     1      -6.205   9.519  68.481  1.00  0.00    -0.048 A  
HETATM   20  C   UNL     1      -6.988  11.514  67.379  1.00  0.00    -0.111 A  
HETATM   21  O   UNL     1      -6.643  12.734  66.868  1.00  0.00    -0.458 OA 
HETATM   22  H   UNL     1      -5.751  13.062  66.871  1.00  0.00     0.000 HD 
HETATM   23  C   UNL     1      -5.946  10.765  67.920  1.00  0.00    -0.042 A  
ENDBRANCH   4  12
ENDBRANCH   3   4
ENDBRANCH   2   3
TORSDOF 6
ENDMDL
MODEL       76
REMARK 921   NORMALIZED FREE ENERGY PREDICTED BY IDOCK:   -4.26 KCAL/MOL
REMARK 922        TOTAL FREE ENERGY PREDICTED BY IDOCK:   -7.15 KCAL/MOL
REMARK 923 INTER-LIGAND FREE ENERGY PREDICTED BY IDOCK:   -6.25 KCAL/MOL
REMARK 924 INTRA-LIGAND FREE ENERGY PREDICTED BY IDOCK:   -0.89 KCAL/MOL
REMARK 927      BINDING AFFINITY PREDICTED BY RF-SCORE:    0.00 PKD
ROOT
HETATM    1  C   UNL     1      -6.804  17.953  68.052  1.00  0.00    -0.197 C  
HETATM    2  C   UNL     1      -6.544  16.717  67.202  1.00  0.00    -0.222 C  
ENDROOT
BRANCH   2   3
HETATM    3  C   UNL     1      -7.819  16.251  66.478  1.00  0.00    -0.263 C  
BRANCH   3   4
HETATM    4  N   UNL     1      -8.653  15.257  67.191  1.00  0.00    -0.195 NA 
BRANCH   4   5
HETATM    5  C   UNL     1      -8.106  13.889  67.081  1.00  0.00    -0.083 C  
BRANCH   5   6
HETATM    6  C   UNL     1      -8.197  13.081  68.392  1.00  0.00    -0.123 C  
BRANCH   6   7
HETATM    7  C   UNL     1      -9.240  12.004  68.285  1.00  0.00    -0.192 A  
HETATM    8  S   UNL     1      -8.803  10.436  67.746  1.00  0.00    -0.128 SA 
HETATM    9  C   UNL     1     -10.589  12.088  68.566  1.00  0.00    -0.252 A  
HETATM   10  C   UNL     1     -11.269  10.862  68.313  1.00  0.00    -0.347 A  
HETATM   11  C   UNL     1     -10.415   9.883  67.860  1.00  0.00    -0.236 A  
ENDBRANCH   6   7
ENDBRANCH   5   6
ENDBRANCH   4   5
BRANCH   4  12
HETATM   12  C   UNL     1     -10.109  15.357  66.886  1.00  0.00    -0.257 C  
HETATM   13  C   UNL     1     -11.009  15.554  68.127  1.00  0.00    -0.312 C  
HETATM   14  C   UNL     1     -10.473  16.554  65.961  1.00  0.00    -0.320 C  
HETATM   15  C   UNL     1     -10.632  16.817  68.906  1.00  0.00    -0.350 C  
HETATM   16  C   UNL     1     -10.326  17.904  66.635  1.00  0.00    -0.362 A  
HETATM   17  C   UNL     1     -10.149  19.046  65.838  1.00  0.00    -0.287 A  
HETATM   18  C   UNL     1     -10.422  18.035  68.037  1.00  0.00    -0.388 A  
HETATM   19  C   UNL     1     -10.029  20.307  66.421  1.00  0.00    -0.507 A  
HETATM   20  C   UNL     1     -10.274  19.312  68.602  1.00  0.00    -0.355 A  
HETATM   21  O   UNL     1     -10.297  19.535  69.951  1.00  0.00    -0.432 OA 
HETATM   22  H   UNL     1     -10.197  20.398  70.334  1.00  0.00     0.000 HD 
HETATM   23  C   UNL     1     -10.086  20.439  67.804  1.00  0.00    -0.444 A  
ENDBRANCH   4  12
ENDBRANCH   3   4
ENDBRANCH   2   3
TORSDOF 6
ENDMDL
MODEL       77
REMARK 921   NORMALIZED FREE ENERGY PREDICTED BY IDOCK:   -4.21 KCAL/MOL
REMARK 922        TOTAL FREE ENERGY PREDICTED BY IDOCK:   -7.09 KCAL/MOL
REMARK 923 INTER-LIGAND FREE ENERGY PREDICTED BY IDOCK:   -5.93 KCAL/MOL
REMARK 924 INTRA-LIGAND FREE ENERGY PREDICTED BY IDOCK:   -1.16 KCAL/MOL
REMARK 927      BINDING AFFINITY PREDICTED BY RF-SCORE:    0.00 PKD
ROOT
HETATM    1  C   UNL     1     -10.888   6.568  68.491  1.00  0.00    -0.353 C  
HETATM    2  C   UNL     1      -9.441   6.763  68.057  1.00  0.00    -0.119 C  
ENDROOT
BRANCH   2   3
HETATM    3  C   UNL     1      -9.059   8.253  68.021  1.00  0.00    -0.137 C  
BRANCH   3   4
HETATM    4  N   UNL     1     -10.144   9.216  68.314  1.00  0.00    -0.183 NA 
BRANCH   4   5
HETATM    5  C   UNL     1     -10.787   9.724  67.085  1.00  0.00    -0.136 C  
BRANCH   5   6
HETATM    6  C   UNL     1      -9.989  10.844  66.387  1.00  0.00    -0.266 C  
BRANCH   6   7
HETATM    7  C   UNL     1      -9.498  10.392  65.041  1.00  0.00    -0.253 A  
HETATM    8  S   UNL     1     -10.262  10.956  63.614  1.00  0.00    -0.279 SA 
HETATM    9  C   UNL     1      -8.460   9.527  64.755  1.00  0.00    -0.170 A  
HETATM   10  C   UNL     1      -8.310   9.311  63.355  1.00  0.00    -0.193 A  
HETATM   11  C   UNL     1      -9.229  10.026  62.622  1.00  0.00    -0.295 A  
ENDBRANCH   6   7
ENDBRANCH   5   6
ENDBRANCH   4   5
BRANCH   4  12
HETATM   12  C   UNL     1      -9.762  10.281  69.286  1.00  0.00    -0.225 C  
HETATM   13  C   UNL     1     -10.957  10.935  70.018  1.00  0.00    -0.221 C  
HETATM   14  C   UNL     1      -8.844   9.777  70.436  1.00  0.00    -0.125 C  
HETATM   15  C   UNL     1     -11.781   9.903  70.792  1.00  0.00    -0.424 C  
HETATM   16  C   UNL     1      -9.553   8.866  71.419  1.00  0.00    -0.359 A  
HETATM   17  C   UNL     1      -8.791   7.979  72.195  1.00  0.00    -0.215 A  
HETATM   18  C   UNL     1     -10.950   8.939  71.606  1.00  0.00    -0.415 A  
HETATM   19  C   UNL     1      -9.405   7.139  73.123  1.00  0.00    -0.193 A  
HETATM   20  C   UNL     1     -11.549   8.066  72.530  1.00  0.00    -0.403 A  
HETATM   21  O   UNL     1     -12.899   8.022  72.742  1.00  0.00    -0.562 OA 
HETATM   22  H   UNL     1     -13.305   7.432  73.367  1.00  0.00     0.000 HD 
HETATM   23  C   UNL     1     -10.785   7.180  73.286  1.00  0.00    -0.403 A  
ENDBRANCH   4  12
ENDBRANCH   3   4
ENDBRANCH   2   3
TORSDOF 6
ENDMDL
MODEL       78
REMARK 921   NORMALIZED FREE ENERGY PREDICTED BY IDOCK:   -4.21 KCAL/MOL
REMARK 922        TOTAL FREE ENERGY PREDICTED BY IDOCK:   -7.09 KCAL/MOL
REMARK 923 INTER-LIGAND FREE ENERGY PREDICTED BY IDOCK:   -5.95 KCAL/MOL
REMARK 924 INTRA-LIGAND FREE ENERGY PREDICTED BY IDOCK:   -1.13 KCAL/MOL
REMARK 927      BINDING AFFINITY PREDICTED BY RF-SCORE:    0.00 PKD
ROOT
HETATM    1  C   UNL     1      -8.192   8.372  63.918  1.00  0.00    -0.106 C  
HETATM    2  C   UNL     1      -7.181   8.524  65.047  1.00  0.00    -0.084 C  
ENDROOT
BRANCH   2   3
HETATM    3  C   UNL     1      -7.794   9.244  66.260  1.00  0.00    -0.103 C  
BRANCH   3   4
HETATM    4  N   UNL     1      -9.155   8.819  66.656  1.00  0.00    -0.149 NA 
BRANCH   4   5
HETATM    5  C   UNL     1     -10.106   9.949  66.686  1.00  0.00    -0.233 C  
BRANCH   5   6
HETATM    6  C   UNL     1      -9.556  11.237  66.040  1.00  0.00    -0.245 C  
BRANCH   6   7
HETATM    7  C   UNL     1     -10.644  11.980  65.316  1.00  0.00    -0.287 A  
HETATM    8  S   UNL     1     -10.509  12.273  63.633  1.00  0.00    -0.433 SA 
HETATM    9  C   UNL     1     -11.811  12.505  65.833  1.00  0.00    -0.489 A  
HETATM   10  C   UNL     1     -12.585  13.173  64.842  1.00  0.00    -0.468 A  
HETATM   11  C   UNL     1     -11.990  13.124  63.602  1.00  0.00    -0.514 A  
ENDBRANCH   6   7
ENDBRANCH   5   6
ENDBRANCH   4   5
BRANCH   4  12
HETATM   12  C   UNL     1      -9.191   7.961  67.875  1.00  0.00    -0.134 C  
HETATM   13  C   UNL     1     -10.563   7.301  68.151  1.00  0.00    -0.228 C  
HETATM   14  C   UNL     1      -8.199   6.764  67.827  1.00  0.00    -0.120 C  
HETATM   15  C   UNL     1     -11.015   6.426  66.978  1.00  0.00    -0.463 C  
HETATM   16  C   UNL     1      -8.592   5.694  66.827  1.00  0.00    -0.111 A  
HETATM   17  C   UNL     1      -7.602   4.831  66.331  1.00  0.00    -0.087 A  
HETATM   18  C   UNL     1      -9.937   5.517  66.437  1.00  0.00    -0.203 A  
HETATM   19  C   UNL     1      -7.929   3.822  65.425  1.00  0.00    -0.093 A  
HETATM   20  C   UNL     1     -10.238   4.510  65.505  1.00  0.00    -0.231 A  
HETATM   21  O   UNL     1     -11.500   4.295  65.025  1.00  0.00    -1.020 OA 
HETATM   22  H   UNL     1     -11.704   3.614  64.395  1.00  0.00     0.000 HD 
HETATM   23  C   UNL     1      -9.247   3.666  65.009  1.00  0.00    -0.149 A  
ENDBRANCH   4  12
ENDBRANCH   3   4
ENDBRANCH   2   3
TORSDOF 6
ENDMDL
MODEL       79
REMARK 921   NORMALIZED FREE ENERGY PREDICTED BY IDOCK:   -4.20 KCAL/MOL
REMARK 922        TOTAL FREE ENERGY PREDICTED BY IDOCK:   -7.07 KCAL/MOL
REMARK 923 INTER-LIGAND FREE ENERGY PREDICTED BY IDOCK:   -6.06 KCAL/MOL
REMARK 924 INTRA-LIGAND FREE ENERGY PREDICTED BY IDOCK:   -1.01 KCAL/MOL
REMARK 927      BINDING AFFINITY PREDICTED BY RF-SCORE:    0.00 PKD
ROOT
HETATM    1  C   UNL     1      -7.517  10.087  68.521  1.00  0.00    -0.086 C  
HETATM    2  C   UNL     1      -8.580  10.662  69.448  1.00  0.00    -0.046 C  
ENDROOT
BRANCH   2   3
HETATM    3  C   UNL     1      -9.998  10.308  68.969  1.00  0.00    -0.213 C  
BRANCH   3   4
HETATM    4  N   UNL     1     -10.857  11.443  68.564  1.00  0.00    -0.197 NA 
BRANCH   4   5
HETATM    5  C   UNL     1     -12.202  11.369  69.169  1.00  0.00    -0.175 C  
BRANCH   5   6
HETATM    6  C   UNL     1     -12.201  11.538  70.701  1.00  0.00    -0.473 C  
BRANCH   6   7
HETATM    7  C   UNL     1     -12.511  12.958  71.084  1.00  0.00    -0.249 A  
HETATM    8  S   UNL     1     -13.760  13.291  72.210  1.00  0.00    -0.521 SA 
HETATM    9  C   UNL     1     -11.911  14.116  70.632  1.00  0.00    -0.385 A  
HETATM   10  C   UNL     1     -12.499  15.283  71.199  1.00  0.00    -0.438 A  
HETATM   11  C   UNL     1     -13.518  14.976  72.071  1.00  0.00    -0.401 A  
ENDBRANCH   6   7
ENDBRANCH   5   6
ENDBRANCH   4   5
BRANCH   4  12
HETATM   12  C   UNL     1     -10.863  11.705  67.096  1.00  0.00    -0.261 C  
HETATM   13  C   UNL     1     -11.990  12.652  66.621  1.00  0.00    -0.382 C  
HETATM   14  C   UNL     1      -9.560  12.377  66.575  1.00  0.00    -0.242 C  
HETATM   15  C   UNL     1     -11.913  14.015  67.314  1.00  0.00    -0.448 C  
HETATM   16  C   UNL     1      -9.402  13.816  67.025  1.00  0.00    -0.250 A  
HETATM   17  C   UNL     1      -8.117  14.382  67.053  1.00  0.00    -0.095 A  
HETATM   18  C   UNL     1     -10.523  14.605  67.358  1.00  0.00    -0.255 A  
HETATM   19  C   UNL     1      -7.934  15.708  67.443  1.00  0.00    -0.204 A  
HETATM   20  C   UNL     1     -10.312  15.931  67.771  1.00  0.00    -0.278 A  
HETATM   21  O   UNL     1     -11.327  16.757  68.165  1.00  0.00    -0.255 OA 
HETATM   22  H   UNL     1     -11.184  17.654  68.444  1.00  0.00     0.000 HD 
HETATM   23  C   UNL     1      -9.032  16.480  67.807  1.00  0.00    -0.202 A  
ENDBRANCH   4  12
ENDBRANCH   3   4
ENDBRANCH   2   3
TORSDOF 6
ENDMDL
MODEL       80
REMARK 921   NORMALIZED FREE ENERGY PREDICTED BY IDOCK:   -4.18 KCAL/MOL
REMARK 922        TOTAL FREE ENERGY PREDICTED BY IDOCK:   -7.04 KCAL/MOL
REMARK 923 INTER-LIGAND FREE ENERGY PREDICTED BY IDOCK:   -6.70 KCAL/MOL
REMARK 924 INTRA-LIGAND FREE ENERGY PREDICTED BY IDOCK:   -0.33 KCAL/MOL
REMARK 927      BINDING AFFINITY PREDICTED BY RF-SCORE:    0.00 PKD
ROOT
HETATM    1  C   UNL     1      -6.076  11.269  69.233  1.00  0.00    -0.062 C  
HETATM    2  C   UNL     1      -6.850  11.390  67.927  1.00  0.00    -0.072 C  
ENDROOT
BRANCH   2   3
HETATM    3  C   UNL     1      -7.310  12.836  67.676  1.00  0.00    -0.144 C  
BRANCH   3   4
HETATM    4  N   UNL     1      -8.764  13.090  67.782  1.00  0.00    -0.176 NA 
BRANCH   4   5
HETATM    5  C   UNL     1      -9.071  14.213  68.690  1.00  0.00    -0.138 C  
BRANCH   5   6
HETATM    6  C   UNL     1      -8.084  15.392  68.569  1.00  0.00    -0.142 C  
BRANCH   6   7
HETATM    7  C   UNL     1      -8.791  16.637  68.110  1.00  0.00    -0.206 A  
HETATM    8  S   UNL     1     -10.442  16.881  68.503  1.00  0.00    -0.382 SA 
HETATM    9  C   UNL     1      -8.285  17.682  67.363  1.00  0.00    -0.221 A  
HETATM   10  C   UNL     1      -9.269  18.676  67.094  1.00  0.00    -0.294 A  
HETATM   11  C   UNL     1     -10.486  18.362  67.653  1.00  0.00    -0.419 A  
ENDBRANCH   6   7
ENDBRANCH   5   6
ENDBRANCH   4   5
BRANCH   4  12
HETATM   12  C   UNL     1      -9.576  11.864  68.034  1.00  0.00    -0.193 C  
HETATM   13  C   UNL     1     -11.049  12.142  68.417  1.00  0.00    -0.289 C  
HETATM   14  C   UNL     1      -9.678  10.917  66.804  1.00  0.00    -0.221 C  
HETATM   15  C   UNL     1     -11.776  12.939  67.330  1.00  0.00    -0.428 C  
HETATM   16  C   UNL     1     -10.524  11.479  65.678  1.00  0.00    -0.317 A  
HETATM   17  C   UNL     1     -10.326  10.998  64.374  1.00  0.00    -0.424 A  
HETATM   18  C   UNL     1     -11.538  12.427  65.929  1.00  0.00    -0.449 A  
HETATM   19  C   UNL     1     -11.098  11.477  63.316  1.00  0.00    -0.273 A  
HETATM   20  C   UNL     1     -12.286  12.912  64.844  1.00  0.00    -0.475 A  
HETATM   21  O   UNL     1     -13.253  13.870  64.977  1.00  0.00    -0.729 OA 
HETATM   22  H   UNL     1     -13.760  14.198  64.243  1.00  0.00     0.000 HD 
HETATM   23  C   UNL     1     -12.074  12.438  63.551  1.00  0.00    -0.651 A  
ENDBRANCH   4  12
ENDBRANCH   3   4
ENDBRANCH   2   3
TORSDOF 6
ENDMDL
MODEL       81
REMARK 921   NORMALIZED FREE ENERGY PREDICTED BY IDOCK:   -4.14 KCAL/MOL
REMARK 922        TOTAL FREE ENERGY PREDICTED BY IDOCK:   -6.99 KCAL/MOL
REMARK 923 INTER-LIGAND FREE ENERGY PREDICTED BY IDOCK:   -7.02 KCAL/MOL
REMARK 924 INTRA-LIGAND FREE ENERGY PREDICTED BY IDOCK:    0.04 KCAL/MOL
REMARK 927      BINDING AFFINITY PREDICTED BY RF-SCORE:    0.00 PKD
ROOT
HETATM    1  C   UNL     1     -10.579  17.611  67.125  1.00  0.00    -0.277 C  
HETATM    2  C   UNL     1     -10.441  17.017  65.729  1.00  0.00    -0.261 C  
ENDROOT
BRANCH   2   3
HETATM    3  C   UNL     1     -10.472  15.480  65.764  1.00  0.00    -0.361 C  
BRANCH   3   4
HETATM    4  N   UNL     1     -10.883  14.861  67.044  1.00  0.00    -0.308 NA 
BRANCH   4   5
HETATM    5  C   UNL     1      -9.770  14.144  67.700  1.00  0.00    -0.228 C  
BRANCH   5   6
HETATM    6  C   UNL     1      -8.413  14.331  66.992  1.00  0.00    -0.190 C  
BRANCH   6   7
HETATM    7  C   UNL     1      -7.648  15.476  67.595  1.00  0.00    -0.161 A  
HETATM    8  S   UNL     1      -7.636  15.701  69.294  1.00  0.00    -0.224 SA 
HETATM    9  C   UNL     1      -6.909  16.446  66.947  1.00  0.00    -0.231 A  
HETATM   10  C   UNL     1      -6.351  17.392  67.854  1.00  0.00    -0.160 A  
HETATM   11  C   UNL     1      -6.672  17.105  69.161  1.00  0.00    -0.238 A  
ENDBRANCH   6   7
ENDBRANCH   5   6
ENDBRANCH   4   5
BRANCH   4  12
HETATM   12  C   UNL     1     -12.147  14.075  66.960  1.00  0.00    -0.420 C  
HETATM   13  C   UNL     1     -12.760  14.002  65.542  1.00  0.00    -0.517 C  
HETATM   14  C   UNL     1     -11.987  12.586  67.379  1.00  0.00    -0.283 C  
HETATM   15  C   UNL     1     -11.785  13.384  64.535  1.00  0.00    -0.422 C  
HETATM   16  C   UNL     1     -11.184  11.763  66.390  1.00  0.00    -0.382 A  
HETATM   17  C   UNL     1     -10.560  10.586  66.833  1.00  0.00    -0.303 A  
HETATM   18  C   UNL     1     -11.103  12.130  65.030  1.00  0.00    -0.368 A  
HETATM   19  C   UNL     1      -9.829   9.794  65.948  1.00  0.00    -0.352 A  
HETATM   20  C   UNL     1     -10.341  11.330  64.163  1.00  0.00    -0.351 A  
HETATM   21  O   UNL     1     -10.159  11.630  62.842  1.00  0.00    -0.612 OA 
HETATM   22  H   UNL     1      -9.644  11.089  62.255  1.00  0.00     0.000 HD 
HETATM   23  C   UNL     1      -9.716  10.169  64.614  1.00  0.00    -0.377 A  
ENDBRANCH   4  12
ENDBRANCH   3   4
ENDBRANCH   2   3
TORSDOF 6
ENDMDL
MODEL       82
REMARK 921   NORMALIZED FREE ENERGY PREDICTED BY IDOCK:   -4.14 KCAL/MOL
REMARK 922        TOTAL FREE ENERGY PREDICTED BY IDOCK:   -6.98 KCAL/MOL
REMARK 923 INTER-LIGAND FREE ENERGY PREDICTED BY IDOCK:   -5.66 KCAL/MOL
REMARK 924 INTRA-LIGAND FREE ENERGY PREDICTED BY IDOCK:   -1.32 KCAL/MOL
REMARK 927      BINDING AFFINITY PREDICTED BY RF-SCORE:    0.00 PKD
ROOT
HETATM    1  C   UNL     1      -7.844  13.534  68.015  1.00  0.00    -0.147 C  
HETATM    2  C   UNL     1      -7.360  12.272  67.315  1.00  0.00    -0.140 C  
ENDROOT
BRANCH   2   3
HETATM    3  C   UNL     1      -8.537  11.390  66.865  1.00  0.00    -0.154 C  
BRANCH   3   4
HETATM    4  N   UNL     1      -9.478  10.960  67.924  1.00  0.00    -0.157 NA 
BRANCH   4   5
HETATM    5  C   UNL     1      -9.067   9.688  68.553  1.00  0.00    -0.131 C  
BRANCH   5   6
HETATM    6  C   UNL     1      -9.412   8.443  67.712  1.00  0.00    -0.171 C  
BRANCH   6   7
HETATM    7  C   UNL     1      -9.879   7.316  68.591  1.00  0.00    -0.161 A  
HETATM    8  S   UNL     1      -9.683   5.691  68.080  1.00  0.00    -0.133 SA 
HETATM    9  C   UNL     1     -10.490   7.392  69.827  1.00  0.00    -0.235 A  
HETATM   10  C   UNL     1     -10.819   6.106  70.343  1.00  0.00    -0.374 A  
HETATM   11  C   UNL     1     -10.438   5.095  69.492  1.00  0.00    -0.163 A  
ENDBRANCH   6   7
ENDBRANCH   5   6
ENDBRANCH   4   5
BRANCH   4  12
HETATM   12  C   UNL     1     -10.911  11.001  67.514  1.00  0.00    -0.281 C  
HETATM   13  C   UNL     1     -11.914  10.899  68.687  1.00  0.00    -0.185 C  
HETATM   14  C   UNL     1     -11.316  12.313  66.784  1.00  0.00    -0.395 C  
HETATM   15  C   UNL     1     -11.711  12.025  69.704  1.00  0.00    -0.405 C  
HETATM   16  C   UNL     1     -11.342  13.526  67.694  1.00  0.00    -0.326 A  
HETATM   17  C   UNL     1     -11.213  14.804  67.127  1.00  0.00    -0.346 A  
HETATM   18  C   UNL     1     -11.551  13.393  69.083  1.00  0.00    -0.365 A  
HETATM   19  C   UNL     1     -11.252  15.944  67.929  1.00  0.00    -0.297 A  
HETATM   20  C   UNL     1     -11.562  14.554  69.874  1.00  0.00    -0.287 A  
HETATM   21  O   UNL     1     -11.704  14.526  71.233  1.00  0.00    -0.440 OA 
HETATM   22  H   UNL     1     -11.712  15.310  71.768  1.00  0.00     0.000 HD 
HETATM   23  C   UNL     1     -11.421  15.818  69.303  1.00  0.00    -0.368 A  
ENDBRANCH   4  12
ENDBRANCH   3   4
ENDBRANCH   2   3
TORSDOF 6
ENDMDL
MODEL       83
REMARK 921   NORMALIZED FREE ENERGY PREDICTED BY IDOCK:   -4.14 KCAL/MOL
REMARK 922        TOTAL FREE ENERGY PREDICTED BY IDOCK:   -6.98 KCAL/MOL
REMARK 923 INTER-LIGAND FREE ENERGY PREDICTED BY IDOCK:   -5.86 KCAL/MOL
REMARK 924 INTRA-LIGAND FREE ENERGY PREDICTED BY IDOCK:   -1.12 KCAL/MOL
REMARK 927      BINDING AFFINITY PREDICTED BY RF-SCORE:    0.00 PKD
ROOT
HETATM    1  C   UNL     1      -7.401   8.310  74.213  1.00  0.00    -0.239 C  
HETATM    2  C   UNL     1      -8.589   8.556  73.292  1.00  0.00    -0.074 C  
ENDROOT
BRANCH   2   3
HETATM    3  C   UNL     1      -8.244   8.237  71.827  1.00  0.00    -0.145 C  
BRANCH   3   4
HETATM    4  N   UNL     1      -8.958   7.092  71.219  1.00  0.00    -0.146 NA 
BRANCH   4   5
HETATM    5  C   UNL     1      -8.141   5.862  71.216  1.00  0.00    -0.118 C  
BRANCH   5   6
HETATM    6  C   UNL     1      -8.051   5.177  72.595  1.00  0.00    -0.109 C  
BRANCH   6   7
HETATM    7  C   UNL     1      -9.163   4.183  72.773  1.00  0.00    -0.115 A  
HETATM    8  S   UNL     1     -10.353   4.433  73.982  1.00  0.00    -0.247 SA 
HETATM    9  C   UNL     1      -9.387   3.015  72.072  1.00  0.00    -0.189 A  
HETATM   10  C   UNL     1     -10.531   2.312  72.549  1.00  0.00    -0.187 A  
HETATM   11  C   UNL     1     -11.146   2.972  73.587  1.00  0.00    -0.226 A  
ENDBRANCH   6   7
ENDBRANCH   5   6
ENDBRANCH   4   5
BRANCH   4  12
HETATM   12  C   UNL     1      -9.593   7.404  69.906  1.00  0.00    -0.163 C  
HETATM   13  C   UNL     1     -10.706   6.415  69.485  1.00  0.00    -0.347 C  
HETATM   14  C   UNL     1     -10.287   8.795  69.862  1.00  0.00    -0.212 C  
HETATM   15  C   UNL     1     -11.832   6.356  70.520  1.00  0.00    -0.316 C  
HETATM   16  C   UNL     1     -11.545   8.869  70.705  1.00  0.00    -0.301 A  
HETATM   17  C   UNL     1     -11.996  10.124  71.145  1.00  0.00    -0.480 A  
HETATM   18  C   UNL     1     -12.295   7.711  71.003  1.00  0.00    -0.234 A  
HETATM   19  C   UNL     1     -13.159  10.234  71.907  1.00  0.00    -0.568 A  
HETATM   20  C   UNL     1     -13.449   7.844  71.792  1.00  0.00    -0.335 A  
HETATM   21  O   UNL     1     -14.211   6.777  72.179  1.00  0.00    -0.583 OA 
HETATM   22  H   UNL     1     -14.993   6.866  72.712  1.00  0.00     0.000 HD 
HETATM   23  C   UNL     1     -13.882   9.092  72.234  1.00  0.00    -0.527 A  
ENDBRANCH   4  12
ENDBRANCH   3   4
ENDBRANCH   2   3
TORSDOF 6
ENDMDL
MODEL       84
REMARK 921   NORMALIZED FREE ENERGY PREDICTED BY IDOCK:   -4.13 KCAL/MOL
REMARK 922        TOTAL FREE ENERGY PREDICTED BY IDOCK:   -6.98 KCAL/MOL
REMARK 923 INTER-LIGAND FREE ENERGY PREDICTED BY IDOCK:   -5.73 KCAL/MOL
REMARK 924 INTRA-LIGAND FREE ENERGY PREDICTED BY IDOCK:   -1.25 KCAL/MOL
REMARK 927      BINDING AFFINITY PREDICTED BY RF-SCORE:    0.00 PKD
ROOT
HETATM    1  C   UNL     1     -11.121   6.644  67.973  1.00  0.00    -0.296 C  
HETATM    2  C   UNL     1      -9.831   6.502  67.177  1.00  0.00    -0.187 C  
ENDROOT
BRANCH   2   3
HETATM    3  C   UNL     1      -8.951   7.758  67.299  1.00  0.00    -0.127 C  
BRANCH   3   4
HETATM    4  N   UNL     1      -9.171   8.600  68.496  1.00  0.00    -0.138 NA 
BRANCH   4   5
HETATM    5  C   UNL     1      -9.485   9.999  68.145  1.00  0.00    -0.138 C  
BRANCH   5   6
HETATM    6  C   UNL     1     -10.870  10.176  67.490  1.00  0.00    -0.349 C  
BRANCH   6   7
HETATM    7  C   UNL     1     -10.761  10.949  66.206  1.00  0.00    -0.176 A  
HETATM    8  S   UNL     1     -11.447  12.516  66.085  1.00  0.00    -0.397 SA 
HETATM    9  C   UNL     1     -10.159  10.565  65.024  1.00  0.00    -0.390 A  
HETATM   10  C   UNL     1     -10.285  11.556  64.009  1.00  0.00    -0.394 A  
HETATM   11  C   UNL     1     -10.966  12.666  64.453  1.00  0.00    -0.351 A  
ENDBRANCH   6   7
ENDBRANCH   5   6
ENDBRANCH   4   5
BRANCH   4  12
HETATM   12  C   UNL     1      -8.116   8.456  69.541  1.00  0.00    -0.113 C  
HETATM   13  C   UNL     1      -8.354   9.308  70.809  1.00  0.00    -0.230 C  
HETATM   14  C   UNL     1      -7.966   7.006  70.082  1.00  0.00    -0.114 C  
HETATM   15  C   UNL     1      -9.689   8.968  71.478  1.00  0.00    -0.365 C  
HETATM   16  C   UNL     1      -9.138   6.554  70.932  1.00  0.00    -0.154 A  
HETATM   17  C   UNL     1      -9.378   5.179  71.081  1.00  0.00    -0.194 A  
HETATM   18  C   UNL     1      -9.948   7.487  71.615  1.00  0.00    -0.200 A  
HETATM   19  C   UNL     1     -10.435   4.725  71.870  1.00  0.00    -0.201 A  
HETATM   20  C   UNL     1     -11.021   7.006  72.383  1.00  0.00    -0.248 A  
HETATM   21  O   UNL     1     -11.893   7.831  73.038  1.00  0.00    -0.617 OA 
HETATM   22  H   UNL     1     -12.619   7.506  73.558  1.00  0.00     0.000 HD 
HETATM   23  C   UNL     1     -11.259   5.640  72.516  1.00  0.00    -0.346 A  
ENDBRANCH   4  12
ENDBRANCH   3   4
ENDBRANCH   2   3
TORSDOF 6
ENDMDL
MODEL       85
REMARK 921   NORMALIZED FREE ENERGY PREDICTED BY IDOCK:   -4.13 KCAL/MOL
REMARK 922        TOTAL FREE ENERGY PREDICTED BY IDOCK:   -6.97 KCAL/MOL
REMARK 923 INTER-LIGAND FREE ENERGY PREDICTED BY IDOCK:   -6.01 KCAL/MOL
REMARK 924 INTRA-LIGAND FREE ENERGY PREDICTED BY IDOCK:   -0.96 KCAL/MOL
REMARK 927      BINDING AFFINITY PREDICTED BY RF-SCORE:    0.00 PKD
ROOT
HETATM    1  C   UNL     1      -9.599   4.736  68.067  1.00  0.00    -0.199 C  
HETATM    2  C   UNL     1     -10.464   5.976  67.883  1.00  0.00    -0.294 C  
ENDROOT
BRANCH   2   3
HETATM    3  C   UNL     1      -9.625   7.264  67.944  1.00  0.00    -0.139 C  
BRANCH   3   4
HETATM    4  N   UNL     1     -10.348   8.500  68.319  1.00  0.00    -0.209 NA 
BRANCH   4   5
HETATM    5  C   UNL     1     -10.560   9.395  67.163  1.00  0.00    -0.224 C  
BRANCH   5   6
HETATM    6  C   UNL     1      -9.555   9.171  66.015  1.00  0.00    -0.342 C  
BRANCH   6   7
HETATM    7  C   UNL     1      -9.763  10.177  64.918  1.00  0.00    -0.324 A  
HETATM    8  S   UNL     1     -10.635  11.620  65.229  1.00  0.00    -0.288 SA 
HETATM    9  C   UNL     1      -9.339  10.111  63.606  1.00  0.00    -0.336 A  
HETATM   10  C   UNL     1      -9.754  11.244  62.848  1.00  0.00    -0.351 A  
HETATM   11  C   UNL     1     -10.470  12.139  63.610  1.00  0.00    -0.460 A  
ENDBRANCH   6   7
ENDBRANCH   5   6
ENDBRANCH   4   5
BRANCH   4  12
HETATM   12  C   UNL     1      -9.795   9.183  69.524  1.00  0.00    -0.178 C  
HETATM   13  C   UNL     1     -10.864   9.808  70.450  1.00  0.00    -0.370 C  
HETATM   14  C   UNL     1      -8.987   8.241  70.461  1.00  0.00    -0.151 C  
HETATM   15  C   UNL     1     -11.860   8.760  70.953  1.00  0.00    -0.267 C  
HETATM   16  C   UNL     1      -9.851   7.232  71.193  1.00  0.00    -0.182 A  
HETATM   17  C   UNL     1      -9.259   6.053  71.673  1.00  0.00    -0.153 A  
HETATM   18  C   UNL     1     -11.215   7.486  71.447  1.00  0.00    -0.267 A  
HETATM   19  C   UNL     1     -10.017   5.110  72.367  1.00  0.00    -0.225 A  
HETATM   20  C   UNL     1     -11.964   6.511  72.127  1.00  0.00    -0.290 A  
HETATM   21  O   UNL     1     -13.302   6.640  72.373  1.00  0.00    -0.471 OA 
HETATM   22  H   UNL     1     -13.809   5.981  72.833  1.00  0.00     0.000 HD 
HETATM   23  C   UNL     1     -11.371   5.338  72.589  1.00  0.00    -0.296 A  
ENDBRANCH   4  12
ENDBRANCH   3   4
ENDBRANCH   2   3
TORSDOF 6
ENDMDL
MODEL       86
REMARK 921   NORMALIZED FREE ENERGY PREDICTED BY IDOCK:   -4.10 KCAL/MOL
REMARK 922        TOTAL FREE ENERGY PREDICTED BY IDOCK:   -6.94 KCAL/MOL
REMARK 923 INTER-LIGAND FREE ENERGY PREDICTED BY IDOCK:   -6.04 KCAL/MOL
REMARK 924 INTRA-LIGAND FREE ENERGY PREDICTED BY IDOCK:   -0.90 KCAL/MOL
REMARK 927      BINDING AFFINITY PREDICTED BY RF-SCORE:    0.00 PKD
ROOT
HETATM    1  C   UNL     1     -10.017  10.060  65.237  1.00  0.00    -0.368 C  
HETATM    2  C   UNL     1      -9.402   9.054  66.201  1.00  0.00    -0.294 C  
ENDROOT
BRANCH   2   3
HETATM    3  C   UNL     1     -10.371   8.702  67.343  1.00  0.00    -0.284 C  
BRANCH   3   4
HETATM    4  N   UNL     1     -10.052   9.271  68.672  1.00  0.00    -0.182 NA 
BRANCH   4   5
HETATM    5  C   UNL     1     -10.224  10.737  68.708  1.00  0.00    -0.193 C  
BRANCH   5   6
HETATM    6  C   UNL     1     -11.690  11.191  68.559  1.00  0.00    -0.368 C  
BRANCH   6   7
HETATM    7  C   UNL     1     -12.175  11.857  69.816  1.00  0.00    -0.174 A  
HETATM    8  S   UNL     1     -12.834  10.914  71.087  1.00  0.00    -0.389 SA 
HETATM    9  C   UNL     1     -12.180  13.203  70.124  1.00  0.00    -0.360 A  
HETATM   10  C   UNL     1     -12.751  13.459  71.404  1.00  0.00    -0.411 A  
HETATM   11  C   UNL     1     -13.150  12.302  72.032  1.00  0.00    -0.355 A  
ENDBRANCH   6   7
ENDBRANCH   5   6
ENDBRANCH   4   5
BRANCH   4  12
HETATM   12  C   UNL     1      -8.757   8.796  69.239  1.00  0.00    -0.135 C  
HETATM   13  C   UNL     1      -8.462   9.305  70.669  1.00  0.00    -0.258 C  
HETATM   14  C   UNL     1      -8.658   7.248  69.361  1.00  0.00    -0.134 C  
HETATM   15  C   UNL     1      -9.557   8.890  71.655  1.00  0.00    -0.363 C  
HETATM   16  C   UNL     1      -9.561   6.669  70.433  1.00  0.00    -0.173 A  
HETATM   17  C   UNL     1      -9.940   5.320  70.345  1.00  0.00    -0.303 A  
HETATM   18  C   UNL     1      -9.974   7.443  71.538  1.00  0.00    -0.193 A  
HETATM   19  C   UNL     1     -10.754   4.746  71.322  1.00  0.00     0.066 A  
HETATM   20  C   UNL     1     -10.813   6.850  72.496  1.00  0.00    -0.244 A  
HETATM   21  O   UNL     1     -11.309   7.531  73.573  1.00  0.00    -0.620 OA 
HETATM   22  H   UNL     1     -11.876   7.131  74.221  1.00  0.00     0.000 HD 
HETATM   23  C   UNL     1     -11.194   5.514  72.394  1.00  0.00    -0.305 A  
ENDBRANCH   4  12
ENDBRANCH   3   4
ENDBRANCH   2   3
TORSDOF 6
ENDMDL
MODEL       87
REMARK 921   NORMALIZED FREE ENERGY PREDICTED BY IDOCK:   -4.10 KCAL/MOL
REMARK 922        TOTAL FREE ENERGY PREDICTED BY IDOCK:   -6.93 KCAL/MOL
REMARK 923 INTER-LIGAND FREE ENERGY PREDICTED BY IDOCK:   -5.92 KCAL/MOL
REMARK 924 INTRA-LIGAND FREE ENERGY PREDICTED BY IDOCK:   -1.01 KCAL/MOL
REMARK 927      BINDING AFFINITY PREDICTED BY RF-SCORE:    0.00 PKD
ROOT
HETATM    1  C   UNL     1     -11.704  14.983  64.699  1.00  0.00    -0.383 C  
HETATM    2  C   UNL     1     -12.692  14.190  65.545  1.00  0.00    -0.468 C  
ENDROOT
BRANCH   2   3
HETATM    3  C   UNL     1     -12.255  12.723  65.695  1.00  0.00    -0.444 C  
BRANCH   3   4
HETATM    4  N   UNL     1     -10.798  12.476  65.762  1.00  0.00    -0.270 NA 
BRANCH   4   5
HETATM    5  C   UNL     1     -10.284  11.831  64.537  1.00  0.00    -0.284 C  
BRANCH   5   6
HETATM    6  C   UNL     1      -9.850  10.366  64.745  1.00  0.00    -0.406 C  
BRANCH   6   7
HETATM    7  C   UNL     1      -8.453  10.144  64.237  1.00  0.00    -0.176 A  
HETATM    8  S   UNL     1      -8.158  10.041  62.552  1.00  0.00    -0.142 SA 
HETATM    9  C   UNL     1      -7.291   9.991  64.968  1.00  0.00    -0.140 A  
HETATM   10  C   UNL     1      -6.158   9.765  64.135  1.00  0.00    -0.114 A  
HETATM   11  C   UNL     1      -6.491   9.765  62.800  1.00  0.00    -0.108 A  
ENDBRANCH   6   7
ENDBRANCH   5   6
ENDBRANCH   4   5
BRANCH   4  12
HETATM   12  C   UNL     1     -10.351  11.822  67.027  1.00  0.00    -0.214 C  
HETATM   13  C   UNL     1      -8.948  12.258  67.510  1.00  0.00    -0.180 C  
HETATM   14  C   UNL     1     -11.277  12.115  68.242  1.00  0.00    -0.319 C  
HETATM   15  C   UNL     1      -8.873  13.770  67.741  1.00  0.00    -0.188 C  
HETATM   16  C   UNL     1     -11.198  13.549  68.729  1.00  0.00    -0.311 A  
HETATM   17  C   UNL     1     -12.273  14.078  69.461  1.00  0.00    -0.355 A  
HETATM   18  C   UNL     1     -10.045  14.333  68.510  1.00  0.00    -0.246 A  
HETATM   19  C   UNL     1     -12.228  15.387  69.942  1.00  0.00    -0.363 A  
HETATM   20  C   UNL     1     -10.034  15.655  68.983  1.00  0.00    -0.233 A  
HETATM   21  O   UNL     1      -8.987  16.510  68.774  1.00  0.00    -0.232 OA 
HETATM   22  H   UNL     1      -8.978  17.404  69.094  1.00  0.00     0.000 HD 
HETATM   23  C   UNL     1     -11.110  16.176  69.698  1.00  0.00    -0.344 A  
ENDBRANCH   4  12
ENDBRANCH   3   4
ENDBRANCH   2   3
TORSDOF 6
ENDMDL
MODEL       88
REMARK 921   NORMALIZED FREE ENERGY PREDICTED BY IDOCK:   -4.10 KCAL/MOL
REMARK 922        TOTAL FREE ENERGY PREDICTED BY IDOCK:   -6.93 KCAL/MOL
REMARK 923 INTER-LIGAND FREE ENERGY PREDICTED BY IDOCK:   -5.87 KCAL/MOL
REMARK 924 INTRA-LIGAND FREE ENERGY PREDICTED BY IDOCK:   -1.06 KCAL/MOL
REMARK 927      BINDING AFFINITY PREDICTED BY RF-SCORE:    0.00 PKD
ROOT
HETATM    1  C   UNL     1     -10.897   8.743  71.297  1.00  0.00    -0.347 C  
HETATM    2  C   UNL     1     -10.344   9.812  70.363  1.00  0.00    -0.354 C  
ENDROOT
BRANCH   2   3
HETATM    3  C   UNL     1     -10.985   9.728  68.967  1.00  0.00    -0.163 C  
BRANCH   3   4
HETATM    4  N   UNL     1     -10.069   9.876  67.814  1.00  0.00    -0.170 NA 
BRANCH   4   5
HETATM    5  C   UNL     1     -10.048  11.257  67.291  1.00  0.00    -0.186 C  
BRANCH   5   6
HETATM    6  C   UNL     1     -11.430  11.943  67.302  1.00  0.00    -0.385 C  
BRANCH   6   7
HETATM    7  C   UNL     1     -11.727  12.570  65.969  1.00  0.00    -0.417 A  
HETATM    8  S   UNL     1     -11.124  11.857  64.531  1.00  0.00    -0.324 SA 
HETATM    9  C   UNL     1     -12.453  13.714  65.704  1.00  0.00    -0.540 A  
HETATM   10  C   UNL     1     -12.492  14.016  64.312  1.00  0.00    -0.303 A  
HETATM   11  C   UNL     1     -11.806  13.088  63.564  1.00  0.00    -0.516 A  
ENDBRANCH   6   7
ENDBRANCH   5   6
ENDBRANCH   4   5
BRANCH   4  12
HETATM   12  C   UNL     1     -10.241   8.830  66.765  1.00  0.00    -0.284 C  
HETATM   13  C   UNL     1      -8.916   8.275  66.193  1.00  0.00    -0.222 C  
HETATM   14  C   UNL     1     -10.999   7.566  67.261  1.00  0.00    -0.178 C  
HETATM   15  C   UNL     1      -8.040   7.663  67.290  1.00  0.00    -0.119 C  
HETATM   16  C   UNL     1     -10.198   6.727  68.237  1.00  0.00    -0.194 A  
HETATM   17  C   UNL     1     -10.879   5.866  69.112  1.00  0.00    -0.406 A  
HETATM   18  C   UNL     1      -8.787   6.755  68.239  1.00  0.00    -0.125 A  
HETATM   19  C   UNL     1     -10.176   5.065  70.011  1.00  0.00    -0.339 A  
HETATM   20  C   UNL     1      -8.101   5.957  69.170  1.00  0.00    -0.106 A  
HETATM   21  O   UNL     1      -6.739   5.956  69.286  1.00  0.00    -0.055 OA 
HETATM   22  H   UNL     1      -6.275   5.416  69.915  1.00  0.00     0.000 HD 
HETATM   23  C   UNL     1      -8.786   5.115  70.043  1.00  0.00    -0.135 A  
ENDBRANCH   4  12
ENDBRANCH   3   4
ENDBRANCH   2   3
TORSDOF 6
ENDMDL
MODEL       89
REMARK 921   NORMALIZED FREE ENERGY PREDICTED BY IDOCK:   -4.05 KCAL/MOL
REMARK 922        TOTAL FREE ENERGY PREDICTED BY IDOCK:   -6.87 KCAL/MOL
REMARK 923 INTER-LIGAND FREE ENERGY PREDICTED BY IDOCK:   -5.78 KCAL/MOL
REMARK 924 INTRA-LIGAND FREE ENERGY PREDICTED BY IDOCK:   -1.09 KCAL/MOL
REMARK 927      BINDING AFFINITY PREDICTED BY RF-SCORE:    0.00 PKD
ROOT
HETATM    1  C   UNL     1      -9.223  16.729  68.733  1.00  0.00    -0.260 C  
HETATM    2  C   UNL     1      -8.663  15.313  68.783  1.00  0.00    -0.195 C  
ENDROOT
BRANCH   2   3
HETATM    3  C   UNL     1      -8.691  14.646  67.398  1.00  0.00    -0.197 C  
BRANCH   3   4
HETATM    4  N   UNL     1      -9.419  13.361  67.303  1.00  0.00    -0.225 NA 
BRANCH   4   5
HETATM    5  C   UNL     1      -8.623  12.316  66.627  1.00  0.00    -0.099 C  
BRANCH   5   6
HETATM    6  C   UNL     1      -7.956  11.321  67.598  1.00  0.00    -0.118 C  
BRANCH   6   7
HETATM    7  C   UNL     1      -8.185   9.904  67.153  1.00  0.00    -0.121 A  
HETATM    8  S   UNL     1      -7.467   8.607  68.015  1.00  0.00    -0.098 SA 
HETATM    9  C   UNL     1      -8.927   9.453  66.079  1.00  0.00    -0.205 A  
HETATM   10  C   UNL     1      -8.884   8.035  65.954  1.00  0.00    -0.189 A  
HETATM   11  C   UNL     1      -8.122   7.453  66.940  1.00  0.00    -0.120 A  
ENDBRANCH   6   7
ENDBRANCH   5   6
ENDBRANCH   4   5
BRANCH   4  12
HETATM   12  C   UNL     1     -10.814  13.491  66.791  1.00  0.00    -0.282 C  
HETATM   13  C   UNL     1     -11.520  12.143  66.514  1.00  0.00    -0.430 C  
HETATM   14  C   UNL     1     -11.773  14.226  67.770  1.00  0.00    -0.408 C  
HETATM   15  C   UNL     1     -11.589  11.271  67.770  1.00  0.00    -0.307 C  
HETATM   16  C   UNL     1     -12.100  13.421  69.013  1.00  0.00    -0.299 A  
HETATM   17  C   UNL     1     -12.532  14.096  70.165  1.00  0.00    -0.391 A  
HETATM   18  C   UNL     1     -12.033  12.012  69.009  1.00  0.00    -0.321 A  
HETATM   19  C   UNL     1     -12.860  13.389  71.322  1.00  0.00    -0.407 A  
HETATM   20  C   UNL     1     -12.345  11.323  70.193  1.00  0.00    -0.276 A  
HETATM   21  O   UNL     1     -12.259   9.963  70.305  1.00  0.00    -0.454 OA 
HETATM   22  H   UNL     1     -12.470   9.496  71.106  1.00  0.00     0.000 HD 
HETATM   23  C   UNL     1     -12.761  12.002  71.336  1.00  0.00    -0.380 A  
ENDBRANCH   4  12
ENDBRANCH   3   4
ENDBRANCH   2   3
TORSDOF 6
ENDMDL
MODEL       90
REMARK 921   NORMALIZED FREE ENERGY PREDICTED BY IDOCK:   -4.05 KCAL/MOL
REMARK 922        TOTAL FREE ENERGY PREDICTED BY IDOCK:   -6.86 KCAL/MOL
REMARK 923 INTER-LIGAND FREE ENERGY PREDICTED BY IDOCK:   -5.71 KCAL/MOL
REMARK 924 INTRA-LIGAND FREE ENERGY PREDICTED BY IDOCK:   -1.15 KCAL/MOL
REMARK 927      BINDING AFFINITY PREDICTED BY RF-SCORE:    0.00 PKD
ROOT
HETATM    1  C   UNL     1     -11.937  14.097  69.528  1.00  0.00    -0.389 C  
HETATM    2  C   UNL     1     -11.877  12.610  69.206  1.00  0.00    -0.358 C  
ENDROOT
BRANCH   2   3
HETATM    3  C   UNL     1     -11.677  12.366  67.700  1.00  0.00    -0.346 C  
BRANCH   3   4
HETATM    4  N   UNL     1     -10.286  12.130  67.253  1.00  0.00    -0.201 NA 
BRANCH   4   5
HETATM    5  C   UNL     1      -9.789  13.212  66.379  1.00  0.00    -0.279 C  
BRANCH   5   6
HETATM    6  C   UNL     1      -8.854  14.207  67.096  1.00  0.00    -0.241 C  
BRANCH   6   7
HETATM    7  C   UNL     1      -9.362  15.614  66.959  1.00  0.00    -0.226 A  
HETATM    8  S   UNL     1      -9.108  16.746  68.222  1.00  0.00    -0.235 SA 
HETATM    9  C   UNL     1     -10.057  16.174  65.906  1.00  0.00    -0.379 A  
HETATM   10  C   UNL     1     -10.401  17.535  66.151  1.00  0.00    -0.330 A  
HETATM   11  C   UNL     1      -9.947  17.969  67.376  1.00  0.00    -0.326 A  
ENDBRANCH   6   7
ENDBRANCH   5   6
ENDBRANCH   4   5
BRANCH   4  12
HETATM   12  C   UNL     1     -10.045  10.759  66.720  1.00  0.00    -0.222 C  
HETATM   13  C   UNL     1      -8.559  10.328  66.713  1.00  0.00    -0.129 C  
HETATM   14  C   UNL     1     -10.759   9.639  67.530  1.00  0.00    -0.321 C  
HETATM   15  C   UNL     1      -7.951  10.371  68.117  1.00  0.00    -0.110 C  
HETATM   16  C   UNL     1     -10.163   9.417  68.906  1.00  0.00    -0.215 A  
HETATM   17  C   UNL     1     -10.954   8.819  69.901  1.00  0.00    -0.184 A  
HETATM   18  C   UNL     1      -8.819   9.745  69.183  1.00  0.00    -0.160 A  
HETATM   19  C   UNL     1     -10.434   8.581  71.173  1.00  0.00    -0.278 A  
HETATM   20  C   UNL     1      -8.326   9.519  70.478  1.00  0.00    -0.163 A  
HETATM   21  O   UNL     1      -7.056   9.852  70.859  1.00  0.00    -0.323 OA 
HETATM   22  H   UNL     1      -6.722   9.699  71.735  1.00  0.00     0.000 HD 
HETATM   23  C   UNL     1      -9.122   8.936  71.462  1.00  0.00    -0.299 A  
ENDBRANCH   4  12
ENDBRANCH   3   4
ENDBRANCH   2   3
TORSDOF 6
ENDMDL
MODEL       91
REMARK 921   NORMALIZED FREE ENERGY PREDICTED BY IDOCK:   -4.03 KCAL/MOL
REMARK 922        TOTAL FREE ENERGY PREDICTED BY IDOCK:   -6.83 KCAL/MOL
REMARK 923 INTER-LIGAND FREE ENERGY PREDICTED BY IDOCK:   -6.10 KCAL/MOL
REMARK 924 INTRA-LIGAND FREE ENERGY PREDICTED BY IDOCK:   -0.73 KCAL/MOL
REMARK 927      BINDING AFFINITY PREDICTED BY RF-SCORE:    0.00 PKD
ROOT
HETATM    1  C   UNL     1      -9.813  16.715  65.855  1.00  0.00    -0.301 C  
HETATM    2  C   UNL     1     -10.874  15.765  65.317  1.00  0.00    -0.409 C  
ENDROOT
BRANCH   2   3
HETATM    3  C   UNL     1     -10.291  14.369  65.036  1.00  0.00    -0.421 C  
BRANCH   3   4
HETATM    4  N   UNL     1     -10.746  13.277  65.926  1.00  0.00    -0.273 NA 
BRANCH   4   5
HETATM    5  C   UNL     1     -11.912  12.557  65.377  1.00  0.00    -0.437 C  
BRANCH   5   6
HETATM    6  C   UNL     1     -11.629  11.857  64.032  1.00  0.00    -0.476 C  
BRANCH   6   7
HETATM    7  C   UNL     1     -10.321  11.118  64.079  1.00  0.00    -0.376 A  
HETATM    8  S   UNL     1      -9.235  11.210  62.755  1.00  0.00    -0.304 SA 
HETATM    9  C   UNL     1      -9.828  10.314  65.087  1.00  0.00    -0.389 A  
HETATM   10  C   UNL     1      -8.560   9.754  64.757  1.00  0.00    -0.195 A  
HETATM   11  C   UNL     1      -8.125  10.158  63.516  1.00  0.00    -0.162 A  
ENDBRANCH   6   7
ENDBRANCH   5   6
ENDBRANCH   4   5
BRANCH   4  12
HETATM   12  C   UNL     1     -10.898  13.683  67.354  1.00  0.00    -0.273 C  
HETATM   13  C   UNL     1     -11.960  12.877  68.137  1.00  0.00    -0.306 C  
HETATM   14  C   UNL     1      -9.600  13.513  68.193  1.00  0.00    -0.215 C  
HETATM   15  C   UNL     1     -11.649  11.377  68.132  1.00  0.00    -0.364 C  
HETATM   16  C   UNL     1      -9.229  12.065  68.445  1.00  0.00    -0.160 A  
HETATM   17  C   UNL     1      -7.895  11.747  68.747  1.00  0.00    -0.076 A  
HETATM   18  C   UNL     1     -10.207  11.048  68.437  1.00  0.00    -0.198 A  
HETATM   19  C   UNL     1      -7.519  10.429  69.003  1.00  0.00    -0.106 A  
HETATM   20  C   UNL     1      -9.800   9.724  68.674  1.00  0.00    -0.157 A  
HETATM   21  O   UNL     1     -10.663   8.664  68.634  1.00  0.00    -0.377 OA 
HETATM   22  H   UNL     1     -10.388   7.769  68.795  1.00  0.00     0.000 HD 
HETATM   23  C   UNL     1      -8.472   9.417  68.961  1.00  0.00    -0.129 A  
ENDBRANCH   4  12
ENDBRANCH   3   4
ENDBRANCH   2   3
TORSDOF 6
ENDMDL
MODEL       92
REMARK 921   NORMALIZED FREE ENERGY PREDICTED BY IDOCK:   -4.02 KCAL/MOL
REMARK 922        TOTAL FREE ENERGY PREDICTED BY IDOCK:   -6.83 KCAL/MOL
REMARK 923 INTER-LIGAND FREE ENERGY PREDICTED BY IDOCK:   -7.29 KCAL/MOL
REMARK 924 INTRA-LIGAND FREE ENERGY PREDICTED BY IDOCK:    0.46 KCAL/MOL
REMARK 927      BINDING AFFINITY PREDICTED BY RF-SCORE:    0.00 PKD
ROOT
HETATM    1  C   UNL     1     -10.214  17.864  66.248  1.00  0.00    -0.363 C  
HETATM    2  C   UNL     1      -9.465  16.560  66.006  1.00  0.00    -0.317 C  
ENDROOT
BRANCH   2   3
HETATM    3  C   UNL     1     -10.427  15.416  65.640  1.00  0.00    -0.372 C  
BRANCH   3   4
HETATM    4  N   UNL     1     -11.117  14.753  66.769  1.00  0.00    -0.332 NA 
BRANCH   4   5
HETATM    5  C   UNL     1     -10.176  14.056  67.668  1.00  0.00    -0.241 C  
BRANCH   5   6
HETATM    6  C   UNL     1      -9.906  14.811  68.986  1.00  0.00    -0.206 C  
BRANCH   6   7
HETATM    7  C   UNL     1     -11.129  14.818  69.859  1.00  0.00    -0.233 A  
HETATM    8  S   UNL     1     -11.960  13.354  70.185  1.00  0.00    -0.283 SA 
HETATM    9  C   UNL     1     -11.735  15.895  70.476  1.00  0.00    -0.394 A  
HETATM   10  C   UNL     1     -12.901  15.515  71.200  1.00  0.00    -0.551 A  
HETATM   11  C   UNL     1     -13.138  14.162  71.121  1.00  0.00    -0.328 A  
ENDBRANCH   6   7
ENDBRANCH   5   6
ENDBRANCH   4   5
BRANCH   4  12
HETATM   12  C   UNL     1     -12.292  13.929  66.361  1.00  0.00    -0.426 C  
HETATM   13  C   UNL     1     -12.587  13.946  64.843  1.00  0.00    -0.380 C  
HETATM   14  C   UNL     1     -12.145  12.419  66.702  1.00  0.00    -0.148 C  
HETATM   15  C   UNL     1     -11.390  13.446  64.029  1.00  0.00    -0.356 C  
HETATM   16  C   UNL     1     -11.108  11.708  65.853  1.00  0.00    -0.320 A  
HETATM   17  C   UNL     1     -10.531  10.523  66.338  1.00  0.00    -0.258 A  
HETATM   18  C   UNL     1     -10.762  12.183  64.571  1.00  0.00    -0.353 A  
HETATM   19  C   UNL     1      -9.588   9.830  65.578  1.00  0.00    -0.348 A  
HETATM   20  C   UNL     1      -9.793  11.482  63.834  1.00  0.00    -0.296 A  
HETATM   21  O   UNL     1      -9.352  11.892  62.607  1.00  0.00    -0.487 OA 
HETATM   22  H   UNL     1      -8.697  11.418  62.109  1.00  0.00     0.000 HD 
HETATM   23  C   UNL     1      -9.216  10.314  64.328  1.00  0.00    -0.300 A  
ENDBRANCH   4  12
ENDBRANCH   3   4
ENDBRANCH   2   3
TORSDOF 6
ENDMDL
MODEL       93
REMARK 921   NORMALIZED FREE ENERGY PREDICTED BY IDOCK:   -4.00 KCAL/MOL
REMARK 922        TOTAL FREE ENERGY PREDICTED BY IDOCK:   -6.80 KCAL/MOL
REMARK 923 INTER-LIGAND FREE ENERGY PREDICTED BY IDOCK:   -6.13 KCAL/MOL
REMARK 924 INTRA-LIGAND FREE ENERGY PREDICTED BY IDOCK:   -0.67 KCAL/MOL
REMARK 927      BINDING AFFINITY PREDICTED BY RF-SCORE:    0.00 PKD
ROOT
HETATM    1  C   UNL     1      -7.461   8.131  70.911  1.00  0.00    -0.061 C  
HETATM    2  C   UNL     1      -8.355   7.751  72.084  1.00  0.00    -0.148 C  
ENDROOT
BRANCH   2   3
HETATM    3  C   UNL     1      -9.569   8.688  72.196  1.00  0.00    -0.307 C  
BRANCH   3   4
HETATM    4  N   UNL     1     -10.846   8.062  72.605  1.00  0.00    -0.346 NA 
BRANCH   4   5
HETATM    5  C   UNL     1     -10.639   6.890  73.479  1.00  0.00    -0.348 C  
BRANCH   5   6
HETATM    6  C   UNL     1     -11.106   5.561  72.852  1.00  0.00    -0.349 C  
BRANCH   6   7
HETATM    7  C   UNL     1     -10.212   4.428  73.272  1.00  0.00    -0.162 A  
HETATM    8  S   UNL     1     -10.891   2.998  73.932  1.00  0.00    -0.190 SA 
HETATM    9  C   UNL     1      -8.835   4.357  73.212  1.00  0.00    -0.106 A  
HETATM   10  C   UNL     1      -8.336   3.129  73.734  1.00  0.00    -0.074 A  
HETATM   11  C   UNL     1      -9.348   2.302  74.162  1.00  0.00    -0.076 A  
ENDBRANCH   6   7
ENDBRANCH   5   6
ENDBRANCH   4   5
BRANCH   4  12
HETATM   12  C   UNL     1     -11.790   7.820  71.476  1.00  0.00    -0.293 C  
HETATM   13  C   UNL     1     -13.272   8.110  71.810  1.00  0.00    -0.365 C  
HETATM   14  C   UNL     1     -11.507   8.698  70.224  1.00  0.00    -0.084 C  
HETATM   15  C   UNL     1     -13.479   9.559  72.258  1.00  0.00    -0.521 C  
HETATM   16  C   UNL     1     -11.828  10.166  70.431  1.00  0.00    -0.373 A  
HETATM   17  C   UNL     1     -11.202  11.120  69.614  1.00  0.00    -0.333 A  
HETATM   18  C   UNL     1     -12.783  10.577  71.385  1.00  0.00    -0.547 A  
HETATM   19  C   UNL     1     -11.486  12.478  69.761  1.00  0.00    -0.211 A  
HETATM   20  C   UNL     1     -13.035  11.951  71.532  1.00  0.00    -0.323 A  
HETATM   21  O   UNL     1     -13.901  12.452  72.463  1.00  0.00    -0.526 OA 
HETATM   22  H   UNL     1     -14.072  13.381  72.563  1.00  0.00     0.000 HD 
HETATM   23  C   UNL     1     -12.399  12.892  70.724  1.00  0.00    -0.385 A  
ENDBRANCH   4  12
ENDBRANCH   3   4
ENDBRANCH   2   3
TORSDOF 6
ENDMDL
MODEL       94
REMARK 921   NORMALIZED FREE ENERGY PREDICTED BY IDOCK:   -3.97 KCAL/MOL
REMARK 922        TOTAL FREE ENERGY PREDICTED BY IDOCK:   -6.76 KCAL/MOL
REMARK 923 INTER-LIGAND FREE ENERGY PREDICTED BY IDOCK:   -5.32 KCAL/MOL
REMARK 924 INTRA-LIGAND FREE ENERGY PREDICTED BY IDOCK:   -1.44 KCAL/MOL
REMARK 927      BINDING AFFINITY PREDICTED BY RF-SCORE:    0.00 PKD
ROOT
HETATM    1  C   UNL     1     -10.218  15.125  65.169  1.00  0.00    -0.386 C  
HETATM    2  C   UNL     1     -11.592  14.471  65.235  1.00  0.00    -0.359 C  
ENDROOT
BRANCH   2   3
HETATM    3  C   UNL     1     -12.016  14.195  66.687  1.00  0.00    -0.444 C  
BRANCH   3   4
HETATM    4  N   UNL     1     -10.929  14.142  67.690  1.00  0.00    -0.263 NA 
BRANCH   4   5
HETATM    5  C   UNL     1     -10.501  12.758  67.978  1.00  0.00    -0.226 C  
BRANCH   5   6
HETATM    6  C   UNL     1      -9.074  12.438  67.491  1.00  0.00    -0.185 C  
BRANCH   6   7
HETATM    7  C   UNL     1      -8.430  11.398  68.364  1.00  0.00    -0.155 A  
HETATM    8  S   UNL     1      -6.729  11.183  68.332  1.00  0.00    -0.063 SA 
HETATM    9  C   UNL     1      -9.037  10.523  69.243  1.00  0.00    -0.161 A  
HETATM   10  C   UNL     1      -8.099   9.657  69.874  1.00  0.00    -0.180 A  
HETATM   11  C   UNL     1      -6.810   9.908  69.465  1.00  0.00    -0.065 A  
ENDBRANCH   6   7
ENDBRANCH   5   6
ENDBRANCH   4   5
BRANCH   4  12
HETATM   12  C   UNL     1     -11.186  14.965  68.907  1.00  0.00    -0.269 C  
HETATM   13  C   UNL     1      -9.972  15.099  69.856  1.00  0.00    -0.107 C  
HETATM   14  C   UNL     1     -11.585  16.436  68.594  1.00  0.00    -0.127 C  
HETATM   15  C   UNL     1      -8.765  15.720  69.147  1.00  0.00    -0.253 C  
HETATM   16  C   UNL     1     -10.443  17.266  68.039  1.00  0.00    -0.375 A  
HETATM   17  C   UNL     1     -10.740  18.411  67.284  1.00  0.00    -0.389 A  
HETATM   18  C   UNL     1      -9.099  16.939  68.319  1.00  0.00    -0.235 A  
HETATM   19  C   UNL     1      -9.717  19.210  66.773  1.00  0.00    -0.396 A  
HETATM   20  C   UNL     1      -8.086  17.745  67.773  1.00  0.00    -0.226 A  
HETATM   21  O   UNL     1      -6.755  17.480  67.942  1.00  0.00    -0.172 OA 
HETATM   22  H   UNL     1      -6.070  18.025  67.574  1.00  0.00     0.000 HD 
HETATM   23  C   UNL     1      -8.390  18.873  67.014  1.00  0.00    -0.287 A  
ENDBRANCH   4  12
ENDBRANCH   3   4
ENDBRANCH   2   3
TORSDOF 6
ENDMDL
MODEL       95
REMARK 921   NORMALIZED FREE ENERGY PREDICTED BY IDOCK:   -3.97 KCAL/MOL
REMARK 922        TOTAL FREE ENERGY PREDICTED BY IDOCK:   -6.76 KCAL/MOL
REMARK 923 INTER-LIGAND FREE ENERGY PREDICTED BY IDOCK:   -5.67 KCAL/MOL
REMARK 924 INTRA-LIGAND FREE ENERGY PREDICTED BY IDOCK:   -1.09 KCAL/MOL
REMARK 927      BINDING AFFINITY PREDICTED BY RF-SCORE:    0.00 PKD
ROOT
HETATM    1  C   UNL     1     -10.396  11.285  63.572  1.00  0.00    -0.463 C  
HETATM    2  C   UNL     1      -9.301  10.784  64.505  1.00  0.00    -0.273 C  
ENDROOT
BRANCH   2   3
HETATM    3  C   UNL     1      -9.888  10.209  65.805  1.00  0.00    -0.266 C  
BRANCH   3   4
HETATM    4  N   UNL     1      -9.311  10.723  67.068  1.00  0.00    -0.155 NA 
BRANCH   4   5
HETATM    5  C   UNL     1      -9.066  12.178  67.020  1.00  0.00    -0.198 C  
BRANCH   5   6
HETATM    6  C   UNL     1     -10.288  13.024  67.433  1.00  0.00    -0.234 C  
BRANCH   6   7
HETATM    7  C   UNL     1     -10.808  13.820  66.269  1.00  0.00    -0.283 A  
HETATM    8  S   UNL     1     -12.391  13.537  65.674  1.00  0.00    -0.480 SA 
HETATM    9  C   UNL     1     -10.161  14.805  65.549  1.00  0.00    -0.400 A  
HETATM   10  C   UNL     1     -10.966  15.311  64.488  1.00  0.00    -0.212 A  
HETATM   11  C   UNL     1     -12.201  14.705  64.443  1.00  0.00    -0.452 A  
ENDBRANCH   6   7
ENDBRANCH   5   6
ENDBRANCH   4   5
BRANCH   4  12
HETATM   12  C   UNL     1      -8.154   9.928  67.573  1.00  0.00    -0.110 C  
HETATM   13  C   UNL     1      -7.950   9.999  69.104  1.00  0.00    -0.116 C  
HETATM   14  C   UNL     1      -8.265   8.405  67.277  1.00  0.00    -0.112 C  
HETATM   15  C   UNL     1      -9.187   9.513  69.863  1.00  0.00    -0.242 C  
HETATM   16  C   UNL     1      -9.342   7.710  68.087  1.00  0.00    -0.146 A  
HETATM   17  C   UNL     1      -9.878   6.503  67.611  1.00  0.00    -0.146 A  
HETATM   18  C   UNL     1      -9.769   8.225  69.330  1.00  0.00    -0.177 A  
HETATM   19  C   UNL     1     -10.857   5.825  68.337  1.00  0.00    -0.251 A  
HETATM   20  C   UNL     1     -10.773   7.537  70.032  1.00  0.00    -0.240 A  
HETATM   21  O   UNL     1     -11.290   7.983  71.216  1.00  0.00    -0.254 OA 
HETATM   22  H   UNL     1     -11.968   7.518  71.691  1.00  0.00     0.000 HD 
HETATM   23  C   UNL     1     -11.307   6.346  69.545  1.00  0.00    -0.460 A  
ENDBRANCH   4  12
ENDBRANCH   3   4
ENDBRANCH   2   3
TORSDOF 6
ENDMDL
MODEL       96
REMARK 921   NORMALIZED FREE ENERGY PREDICTED BY IDOCK:   -3.93 KCAL/MOL
REMARK 922        TOTAL FREE ENERGY PREDICTED BY IDOCK:   -6.70 KCAL/MOL
REMARK 923 INTER-LIGAND FREE ENERGY PREDICTED BY IDOCK:   -5.57 KCAL/MOL
REMARK 924 INTRA-LIGAND FREE ENERGY PREDICTED BY IDOCK:   -1.13 KCAL/MOL
REMARK 927      BINDING AFFINITY PREDICTED BY RF-SCORE:    0.00 PKD
ROOT
HETATM    1  C   UNL     1     -13.083  10.751  71.781  1.00  0.00    -0.573 C  
HETATM    2  C   UNL     1     -12.655  10.436  70.354  1.00  0.00    -0.329 C  
ENDROOT
BRANCH   2   3
HETATM    3  C   UNL     1     -11.165  10.743  70.130  1.00  0.00    -0.267 C  
BRANCH   3   4
HETATM    4  N   UNL     1     -10.811  11.366  68.835  1.00  0.00    -0.205 NA 
BRANCH   4   5
HETATM    5  C   UNL     1     -11.979  11.980  68.171  1.00  0.00    -0.163 C  
BRANCH   5   6
HETATM    6  C   UNL     1     -11.948  13.521  68.169  1.00  0.00    -0.376 C  
BRANCH   6   7
HETATM    7  C   UNL     1     -11.840  14.052  66.767  1.00  0.00    -0.424 A  
HETATM    8  S   UNL     1     -10.780  15.355  66.422  1.00  0.00    -0.301 SA 
HETATM    9  C   UNL     1     -12.513  13.630  65.638  1.00  0.00    -0.540 A  
HETATM   10  C   UNL     1     -12.171  14.400  64.489  1.00  0.00    -0.483 A  
HETATM   11  C   UNL     1     -11.242  15.373  64.777  1.00  0.00    -0.395 A  
ENDBRANCH   6   7
ENDBRANCH   5   6
ENDBRANCH   4   5
BRANCH   4  12
HETATM   12  C   UNL     1      -9.996  10.490  67.944  1.00  0.00    -0.169 C  
HETATM   13  C   UNL     1      -9.383  11.214  66.723  1.00  0.00    -0.193 C  
HETATM   14  C   UNL     1      -8.772   9.842  68.653  1.00  0.00    -0.124 C  
HETATM   15  C   UNL     1      -8.480  12.376  67.148  1.00  0.00    -0.185 C  
HETATM   16  C   UNL     1      -7.679  10.835  68.997  1.00  0.00    -0.133 A  
HETATM   17  C   UNL     1      -6.773  10.521  70.022  1.00  0.00    -0.151 A  
HETATM   18  C   UNL     1      -7.525  12.034  68.267  1.00  0.00    -0.106 A  
HETATM   19  C   UNL     1      -5.743  11.401  70.354  1.00  0.00    -0.151 A  
HETATM   20  C   UNL     1      -6.494  12.915  68.635  1.00  0.00    -0.087 A  
HETATM   21  O   UNL     1      -6.297  14.123  68.026  1.00  0.00    -0.119 OA 
HETATM   22  H   UNL     1      -5.600  14.719  68.274  1.00  0.00     0.000 HD 
HETATM   23  C   UNL     1      -5.608  12.600  69.663  1.00  0.00    -0.096 A  
ENDBRANCH   4  12
ENDBRANCH   3   4
ENDBRANCH   2   3
TORSDOF 6
ENDMDL
MODEL       97
REMARK 921   NORMALIZED FREE ENERGY PREDICTED BY IDOCK:   -3.93 KCAL/MOL
REMARK 922        TOTAL FREE ENERGY PREDICTED BY IDOCK:   -6.70 KCAL/MOL
REMARK 923 INTER-LIGAND FREE ENERGY PREDICTED BY IDOCK:   -6.35 KCAL/MOL
REMARK 924 INTRA-LIGAND FREE ENERGY PREDICTED BY IDOCK:   -0.35 KCAL/MOL
REMARK 927      BINDING AFFINITY PREDICTED BY RF-SCORE:    0.00 PKD
ROOT
HETATM    1  C   UNL     1      -5.425  13.159  69.252  1.00  0.00    -0.076 C  
HETATM    2  C   UNL     1      -5.923  14.462  69.863  1.00  0.00    -0.132 C  
ENDROOT
BRANCH   2   3
HETATM    3  C   UNL     1      -7.448  14.604  69.725  1.00  0.00     0.032 C  
BRANCH   3   4
HETATM    4  N   UNL     1      -7.933  15.358  68.548  1.00  0.00    -0.134 NA 
BRANCH   4   5
HETATM    5  C   UNL     1      -8.441  14.467  67.484  1.00  0.00    -0.190 C  
BRANCH   5   6
HETATM    6  C   UNL     1      -9.589  13.547  67.945  1.00  0.00    -0.218 C  
BRANCH   6   7
HETATM    7  C   UNL     1     -10.572  13.318  66.832  1.00  0.00    -0.264 A  
HETATM    8  S   UNL     1     -10.102  12.431  65.442  1.00  0.00    -0.246 SA 
HETATM    9  C   UNL     1     -11.881  13.747  66.744  1.00  0.00    -0.454 A  
HETATM   10  C   UNL     1     -12.492  13.362  65.516  1.00  0.00    -0.534 A  
HETATM   11  C   UNL     1     -11.633  12.645  64.715  1.00  0.00    -0.331 A  
ENDBRANCH   6   7
ENDBRANCH   5   6
ENDBRANCH   4   5
BRANCH   4  12
HETATM   12  C   UNL     1      -6.984  16.403  68.065  1.00  0.00    -0.140 C  
HETATM   13  C   UNL     1      -6.955  16.578  66.528  1.00  0.00    -0.096 C  
HETATM   14  C   UNL     1      -7.299  17.828  68.602  1.00  0.00    -0.269 C  
HETATM   15  C   UNL     1      -8.335  16.941  65.974  1.00  0.00    -0.180 C  
HETATM   16  C   UNL     1      -8.561  18.430  68.014  1.00  0.00    -0.287 A  
HETATM   17  C   UNL     1      -9.220  19.449  68.719  1.00  0.00    -0.422 A  
HETATM   18  C   UNL     1      -9.045  18.023  66.752  1.00  0.00    -0.280 A  
HETATM   19  C   UNL     1     -10.373  20.039  68.202  1.00  0.00    -0.503 A  
HETATM   20  C   UNL     1     -10.222  18.615  66.263  1.00  0.00    -0.427 A  
HETATM   21  O   UNL     1     -10.799  18.252  65.078  1.00  0.00    -0.679 OA 
HETATM   22  H   UNL     1     -11.594  18.652  64.747  1.00  0.00     0.000 HD 
HETATM   23  C   UNL     1     -10.876  19.618  66.976  1.00  0.00    -0.518 A  
ENDBRANCH   4  12
ENDBRANCH   3   4
ENDBRANCH   2   3
TORSDOF 6
ENDMDL
MODEL       98
REMARK 921   NORMALIZED FREE ENERGY PREDICTED BY IDOCK:   -3.92 KCAL/MOL
REMARK 922        TOTAL FREE ENERGY PREDICTED BY IDOCK:   -6.69 KCAL/MOL
REMARK 923 INTER-LIGAND FREE ENERGY PREDICTED BY IDOCK:   -5.97 KCAL/MOL
REMARK 924 INTRA-LIGAND FREE ENERGY PREDICTED BY IDOCK:   -0.73 KCAL/MOL
REMARK 927      BINDING AFFINITY PREDICTED BY RF-SCORE:    0.00 PKD
ROOT
HETATM    1  C   UNL     1      -7.601  14.508  68.806  1.00  0.00    -0.131 C  
HETATM    2  C   UNL     1      -7.774  13.014  68.563  1.00  0.00    -0.111 C  
ENDROOT
BRANCH   2   3
HETATM    3  C   UNL     1      -8.168  12.721  67.106  1.00  0.00    -0.146 C  
BRANCH   3   4
HETATM    4  N   UNL     1      -9.279  11.763  66.906  1.00  0.00    -0.183 NA 
BRANCH   4   5
HETATM    5  C   UNL     1      -8.798  10.374  66.758  1.00  0.00    -0.130 C  
BRANCH   5   6
HETATM    6  C   UNL     1      -9.755   9.472  65.952  1.00  0.00    -0.352 C  
BRANCH   6   7
HETATM    7  C   UNL     1      -9.742   8.067  66.485  1.00  0.00    -0.227 A  
HETATM    8  S   UNL     1      -8.300   7.141  66.431  1.00  0.00    -0.131 SA 
HETATM    9  C   UNL     1     -10.785   7.354  67.042  1.00  0.00    -0.389 A  
HETATM   10  C   UNL     1     -10.399   6.031  67.404  1.00  0.00    -0.268 A  
HETATM   11  C   UNL     1      -9.074   5.785  67.123  1.00  0.00    -0.112 A  
ENDBRANCH   6   7
ENDBRANCH   5   6
ENDBRANCH   4   5
BRANCH   4  12
HETATM   12  C   UNL     1     -10.261  12.182  65.865  1.00  0.00    -0.244 C  
HETATM   13  C   UNL     1     -11.736  12.142  66.326  1.00  0.00    -0.389 C  
HETATM   14  C   UNL     1     -10.059  13.642  65.367  1.00  0.00    -0.291 C  
HETATM   15  C   UNL     1     -11.973  13.038  67.545  1.00  0.00    -0.360 C  
HETATM   16  C   UNL     1     -10.422  14.688  66.403  1.00  0.00    -0.296 A  
HETATM   17  C   UNL     1      -9.863  15.971  66.297  1.00  0.00    -0.331 A  
HETATM   18  C   UNL     1     -11.349  14.409  67.430  1.00  0.00    -0.353 A  
HETATM   19  C   UNL     1     -10.187  16.966  67.220  1.00  0.00    -0.297 A  
HETATM   20  C   UNL     1     -11.641  15.419  68.362  1.00  0.00    -0.354 A  
HETATM   21  O   UNL     1     -12.484  15.230  69.421  1.00  0.00    -0.578 OA 
HETATM   22  H   UNL     1     -12.682  15.913  70.052  1.00  0.00     0.000 HD 
HETATM   23  C   UNL     1     -11.073  16.687  68.255  1.00  0.00    -0.295 A  
ENDBRANCH   4  12
ENDBRANCH   3   4
ENDBRANCH   2   3
TORSDOF 6
ENDMDL
MODEL       99
REMARK 921   NORMALIZED FREE ENERGY PREDICTED BY IDOCK:   -3.91 KCAL/MOL
REMARK 922        TOTAL FREE ENERGY PREDICTED BY IDOCK:   -6.67 KCAL/MOL
REMARK 923 INTER-LIGAND FREE ENERGY PREDICTED BY IDOCK:   -5.77 KCAL/MOL
REMARK 924 INTRA-LIGAND FREE ENERGY PREDICTED BY IDOCK:   -0.91 KCAL/MOL
REMARK 927      BINDING AFFINITY PREDICTED BY RF-SCORE:    0.00 PKD
ROOT
HETATM    1  C   UNL     1      -9.405   7.248  66.176  1.00  0.00    -0.101 C  
HETATM    2  C   UNL     1     -10.673   7.387  67.008  1.00  0.00    -0.389 C  
ENDROOT
BRANCH   2   3
HETATM    3  C   UNL     1     -10.698   8.715  67.782  1.00  0.00    -0.110 C  
BRANCH   3   4
HETATM    4  N   UNL     1      -9.487   9.038  68.570  1.00  0.00    -0.143 NA 
BRANCH   4   5
HETATM    5  C   UNL     1      -9.435   8.294  69.845  1.00  0.00    -0.167 C  
BRANCH   5   6
HETATM    6  C   UNL     1      -9.585   9.192  71.090  1.00  0.00    -0.347 C  
BRANCH   6   7
HETATM    7  C   UNL     1     -11.033   9.384  71.442  1.00  0.00    -0.373 A  
HETATM    8  S   UNL     1     -11.859   8.194  72.360  1.00  0.00    -0.367 SA 
HETATM    9  C   UNL     1     -11.862  10.437  71.110  1.00  0.00    -0.432 A  
HETATM   10  C   UNL     1     -13.188  10.252  71.595  1.00  0.00    -0.509 A  
HETATM   11  C   UNL     1     -13.323   9.071  72.289  1.00  0.00    -0.467 A  
ENDBRANCH   6   7
ENDBRANCH   5   6
ENDBRANCH   4   5
BRANCH   4  12
HETATM   12  C   UNL     1      -9.226  10.500  68.707  1.00  0.00    -0.177 C  
HETATM   13  C   UNL     1      -7.807  10.939  68.275  1.00  0.00    -0.118 C  
HETATM   14  C   UNL     1     -10.173  11.388  67.851  1.00  0.00    -0.201 C  
HETATM   15  C   UNL     1      -7.522  10.572  66.816  1.00  0.00    -0.115 C  
HETATM   16  C   UNL     1      -9.912  11.286  66.361  1.00  0.00    -0.252 A  
HETATM   17  C   UNL     1     -10.941  11.622  65.466  1.00  0.00    -0.327 A  
HETATM   18  C   UNL     1      -8.643  10.918  65.865  1.00  0.00    -0.179 A  
HETATM   19  C   UNL     1     -10.732  11.559  64.088  1.00  0.00    -0.428 A  
HETATM   20  C   UNL     1      -8.465  10.839  64.474  1.00  0.00    -0.005 A  
HETATM   21  O   UNL     1      -7.291  10.440  63.897  1.00  0.00    -0.281 OA 
HETATM   22  H   UNL     1      -7.169  10.387  62.957  1.00  0.00     0.000 HD 
HETATM   23  C   UNL     1      -9.495  11.162  63.593  1.00  0.00    -0.278 A  
ENDBRANCH   4  12
ENDBRANCH   3   4
ENDBRANCH   2   3
TORSDOF 6
ENDMDL
MODEL      100
REMARK 921   NORMALIZED FREE ENERGY PREDICTED BY IDOCK:   -3.89 KCAL/MOL
REMARK 922        TOTAL FREE ENERGY PREDICTED BY IDOCK:   -6.65 KCAL/MOL
REMARK 923 INTER-LIGAND FREE ENERGY PREDICTED BY IDOCK:   -6.76 KCAL/MOL
REMARK 924 INTRA-LIGAND FREE ENERGY PREDICTED BY IDOCK:    0.11 KCAL/MOL
REMARK 927      BINDING AFFINITY PREDICTED BY RF-SCORE:    0.00 PKD
ROOT
HETATM    1  C   UNL     1     -10.709  18.475  67.355  1.00  0.00    -0.424 C  
HETATM    2  C   UNL     1     -10.558  17.199  66.538  1.00  0.00    -0.172 C  
ENDROOT
BRANCH   2   3
HETATM    3  C   UNL     1     -10.811  15.947  67.395  1.00  0.00    -0.291 C  
BRANCH   3   4
HETATM    4  N   UNL     1      -9.611  15.208  67.847  1.00  0.00    -0.202 NA 
BRANCH   4   5
HETATM    5  C   UNL     1      -8.601  15.075  66.778  1.00  0.00    -0.244 C  
BRANCH   5   6
HETATM    6  C   UNL     1      -7.195  15.552  67.195  1.00  0.00    -0.208 C  
BRANCH   6   7
HETATM    7  C   UNL     1      -7.103  17.052  67.149  1.00  0.00    -0.176 A  
HETATM    8  S   UNL     1      -7.225  17.964  68.596  1.00  0.00    -0.277 SA 
HETATM    9  C   UNL     1      -6.932  17.866  66.047  1.00  0.00    -0.346 A  
HETATM   10  C   UNL     1      -6.925  19.247  66.395  1.00  0.00    -0.229 A  
HETATM   11  C   UNL     1      -7.079  19.439  67.749  1.00  0.00    -0.245 A  
ENDBRANCH   6   7
ENDBRANCH   5   6
ENDBRANCH   4   5
BRANCH   4  12
HETATM   12  C   UNL     1      -9.917  13.932  68.557  1.00  0.00    -0.221 C  
HETATM   13  C   UNL     1     -11.427  13.621  68.690  1.00  0.00    -0.342 C  
HETATM   14  C   UNL     1      -9.332  12.672  67.858  1.00  0.00    -0.204 C  
HETATM   15  C   UNL     1     -12.111  13.543  67.323  1.00  0.00    -0.367 C  
HETATM   16  C   UNL     1     -10.021  12.333  66.550  1.00  0.00    -0.234 A  
HETATM   17  C   UNL     1      -9.333  11.561  65.600  1.00  0.00    -0.221 A  
HETATM   18  C   UNL     1     -11.352  12.729  66.301  1.00  0.00    -0.365 A  
HETATM   19  C   UNL     1      -9.941  11.213  64.394  1.00  0.00    -0.354 A  
HETATM   20  C   UNL     1     -11.934  12.388  65.069  1.00  0.00    -0.402 A  
HETATM   21  O   UNL     1     -13.198  12.771  64.713  1.00  0.00    -0.812 OA 
HETATM   22  H   UNL     1     -13.592  12.540  63.880  1.00  0.00     0.000 HD 
HETATM   23  C   UNL     1     -11.240  11.632  64.127  1.00  0.00    -0.421 A  
ENDBRANCH   4  12
ENDBRANCH   3   4
ENDBRANCH   2   3
TORSDOF 6
ENDMDL
MODEL      101
REMARK 921   NORMALIZED FREE ENERGY PREDICTED BY IDOCK:   -3.89 KCAL/MOL
REMARK 922        TOTAL FREE ENERGY PREDICTED BY IDOCK:   -6.64 KCAL/MOL
REMARK 923 INTER-LIGAND FREE ENERGY PREDICTED BY IDOCK:   -5.82 KCAL/MOL
REMARK 924 INTRA-LIGAND FREE ENERGY PREDICTED BY IDOCK:   -0.82 KCAL/MOL
REMARK 927      BINDING AFFINITY PREDICTED BY RF-SCORE:    0.00 PKD
ROOT
HETATM    1  C   UNL     1     -12.690  12.970  64.897  1.00  0.00    -0.456 C  
HETATM    2  C   UNL     1     -11.909  14.059  65.621  1.00  0.00    -0.384 C  
ENDROOT
BRANCH   2   3
HETATM    3  C   UNL     1     -11.342  13.551  66.958  1.00  0.00    -0.324 C  
BRANCH   3   4
HETATM    4  N   UNL     1      -9.887  13.277  66.991  1.00  0.00    -0.236 NA 
BRANCH   4   5
HETATM    5  C   UNL     1      -9.574  11.878  66.636  1.00  0.00    -0.209 C  
BRANCH   5   6
HETATM    6  C   UNL     1     -10.031  10.855  67.695  1.00  0.00    -0.197 C  
BRANCH   6   7
HETATM    7  C   UNL     1      -9.480   9.489  67.392  1.00  0.00    -0.135 A  
HETATM    8  S   UNL     1      -7.835   9.135  67.725  1.00  0.00    -0.100 SA 
HETATM    9  C   UNL     1     -10.134   8.405  66.844  1.00  0.00    -0.364 A  
HETATM   10  C   UNL     1      -9.270   7.284  66.675  1.00  0.00    -0.193 A  
HETATM   11  C   UNL     1      -7.992   7.549  67.111  1.00  0.00    -0.117 A  
ENDBRANCH   6   7
ENDBRANCH   5   6
ENDBRANCH   4   5
BRANCH   4  12
HETATM   12  C   UNL     1      -9.209  13.757  68.230  1.00  0.00    -0.204 C  
HETATM   13  C   UNL     1      -7.739  14.193  68.024  1.00  0.00    -0.147 C  
HETATM   14  C   UNL     1      -9.886  15.001  68.872  1.00  0.00    -0.233 C  
HETATM   15  C   UNL     1      -7.621  15.317  66.991  1.00  0.00    -0.161 C  
HETATM   16  C   UNL     1      -9.716  16.269  68.057  1.00  0.00    -0.230 A  
HETATM   17  C   UNL     1     -10.632  17.318  68.233  1.00  0.00    -0.383 A  
HETATM   18  C   UNL     1      -8.626  16.430  67.175  1.00  0.00    -0.204 A  
HETATM   19  C   UNL     1     -10.496  18.507  67.516  1.00  0.00    -0.453 A  
HETATM   20  C   UNL     1      -8.524  17.626  66.446  1.00  0.00    -0.246 A  
HETATM   21  O   UNL     1      -7.536  17.855  65.529  1.00  0.00    -0.518 OA 
HETATM   22  H   UNL     1      -7.467  18.664  65.036  1.00  0.00     0.000 HD 
HETATM   23  C   UNL     1      -9.445  18.657  66.619  1.00  0.00    -0.328 A  
ENDBRANCH   4  12
ENDBRANCH   3   4
ENDBRANCH   2   3
TORSDOF 6
ENDMDL
MODEL      102
REMARK 921   NORMALIZED FREE ENERGY PREDICTED BY IDOCK:   -3.87 KCAL/MOL
REMARK 922        TOTAL FREE ENERGY PREDICTED BY IDOCK:   -6.62 KCAL/MOL
REMARK 923 INTER-LIGAND FREE ENERGY PREDICTED BY IDOCK:   -5.82 KCAL/MOL
REMARK 924 INTRA-LIGAND FREE ENERGY PREDICTED BY IDOCK:   -0.80 KCAL/MOL
REMARK 927      BINDING AFFINITY PREDICTED BY RF-SCORE:    0.00 PKD
ROOT
HETATM    1  C   UNL     1      -9.612   2.931  70.833  1.00  0.00    -0.208 C  
HETATM    2  C   UNL     1     -10.026   4.188  71.587  1.00  0.00    -0.240 C  
ENDROOT
BRANCH   2   3
HETATM    3  C   UNL     1     -10.505   5.290  70.627  1.00  0.00    -0.236 C  
BRANCH   3   4
HETATM    4  N   UNL     1      -9.595   6.442  70.443  1.00  0.00    -0.165 NA 
BRANCH   4   5
HETATM    5  C   UNL     1      -8.469   6.127  69.540  1.00  0.00    -0.120 C  
BRANCH   5   6
HETATM    6  C   UNL     1      -8.499   6.917  68.216  1.00  0.00    -0.125 C  
BRANCH   6   7
HETATM    7  C   UNL     1      -8.654   5.991  67.043  1.00  0.00    -0.107 A  
HETATM    8  S   UNL     1     -10.179   5.287  66.700  1.00  0.00    -0.277 SA 
HETATM    9  C   UNL     1      -7.691   5.584  66.141  1.00  0.00    -0.095 A  
HETATM   10  C   UNL     1      -8.208   4.671  65.178  1.00  0.00    -0.118 A  
HETATM   11  C   UNL     1      -9.547   4.421  65.371  1.00  0.00    -0.184 A  
ENDBRANCH   6   7
ENDBRANCH   5   6
ENDBRANCH   4   5
BRANCH   4  12
HETATM   12  C   UNL     1      -9.187   7.101  71.717  1.00  0.00    -0.139 C  
HETATM   13  C   UNL     1      -8.451   8.449  71.533  1.00  0.00    -0.202 C  
HETATM   14  C   UNL     1     -10.381   7.447  72.652  1.00  0.00    -0.292 C  
HETATM   15  C   UNL     1      -9.307   9.460  70.765  1.00  0.00    -0.292 C  
HETATM   16  C   UNL     1     -11.253   8.571  72.126  1.00  0.00    -0.432 A  
HETATM   17  C   UNL     1     -12.578   8.671  72.578  1.00  0.00    -0.367 A  
HETATM   18  C   UNL     1     -10.737   9.544  71.243  1.00  0.00    -0.386 A  
HETATM   19  C   UNL     1     -13.405   9.702  72.131  1.00  0.00    -0.545 A  
HETATM   20  C   UNL     1     -11.595  10.559  70.789  1.00  0.00    -0.338 A  
HETATM   21  O   UNL     1     -11.206  11.514  69.892  1.00  0.00    -0.440 OA 
HETATM   22  H   UNL     1     -11.786  12.201  69.584  1.00  0.00     0.000 HD 
HETATM   23  C   UNL     1     -12.913  10.643  71.233  1.00  0.00    -0.513 A  
ENDBRANCH   4  12
ENDBRANCH   3   4
ENDBRANCH   2   3
TORSDOF 6
ENDMDL
MODEL      103
REMARK 921   NORMALIZED FREE ENERGY PREDICTED BY IDOCK:   -3.86 KCAL/MOL
REMARK 922        TOTAL FREE ENERGY PREDICTED BY IDOCK:   -6.61 KCAL/MOL
REMARK 923 INTER-LIGAND FREE ENERGY PREDICTED BY IDOCK:   -6.01 KCAL/MOL
REMARK 924 INTRA-LIGAND FREE ENERGY PREDICTED BY IDOCK:   -0.60 KCAL/MOL
REMARK 927      BINDING AFFINITY PREDICTED BY RF-SCORE:    0.00 PKD
ROOT
HETATM    1  C   UNL     1      -8.640   7.074  67.023  1.00  0.00    -0.122 C  
HETATM    2  C   UNL     1      -8.984   8.478  66.545  1.00  0.00    -0.194 C  
ENDROOT
BRANCH   2   3
HETATM    3  C   UNL     1     -10.384   8.907  67.016  1.00  0.00    -0.269 C  
BRANCH   3   4
HETATM    4  N   UNL     1     -10.553  10.339  67.352  1.00  0.00    -0.251 NA 
BRANCH   4   5
HETATM    5  C   UNL     1     -10.553  11.198  66.150  1.00  0.00    -0.248 C  
BRANCH   5   6
HETATM    6  C   UNL     1     -11.680  12.251  66.144  1.00  0.00    -0.440 C  
BRANCH   6   7
HETATM    7  C   UNL     1     -11.113  13.643  66.144  1.00  0.00    -0.295 A  
HETATM    8  S   UNL     1     -11.583  14.761  67.355  1.00  0.00    -0.333 SA 
HETATM    9  C   UNL     1     -10.217  14.202  65.254  1.00  0.00    -0.400 A  
HETATM   10  C   UNL     1      -9.936  15.564  65.559  1.00  0.00    -0.377 A  
HETATM   11  C   UNL     1     -10.616  15.994  66.676  1.00  0.00    -0.297 A  
ENDBRANCH   6   7
ENDBRANCH   5   6
ENDBRANCH   4   5
BRANCH   4  12
HETATM   12  C   UNL     1      -9.653  10.816  68.441  1.00  0.00    -0.176 C  
HETATM   13  C   UNL     1     -10.205  12.016  69.245  1.00  0.00     0.245 C  
HETATM   14  C   UNL     1      -9.358   9.739  69.524  1.00  0.00    -0.226 C  
HETATM   15  C   UNL     1     -11.554  11.692  69.894  1.00  0.00    -0.366 C  
HETATM   16  C   UNL     1     -10.557   9.414  70.395  1.00  0.00    -0.316 A  
HETATM   17  C   UNL     1     -10.598   8.179  71.061  1.00  0.00    -0.242 A  
HETATM   18  C   UNL     1     -11.594  10.351  70.589  1.00  0.00    -0.440 A  
HETATM   19  C   UNL     1     -11.675   7.852  71.885  1.00  0.00    -0.342 A  
HETATM   20  C   UNL     1     -12.680   9.990  71.404  1.00  0.00    -0.415 A  
HETATM   21  O   UNL     1     -13.757  10.806  71.611  1.00  0.00    -0.066 OA 
HETATM   22  H   UNL     1     -14.491  10.562  72.162  1.00  0.00     0.000 HD 
HETATM   23  C   UNL     1     -12.718   8.757  72.052  1.00  0.00    -0.444 A  
ENDBRANCH   4  12
ENDBRANCH   3   4
ENDBRANCH   2   3
TORSDOF 6
ENDMDL
MODEL      104
REMARK 921   NORMALIZED FREE ENERGY PREDICTED BY IDOCK:   -3.82 KCAL/MOL
REMARK 922        TOTAL FREE ENERGY PREDICTED BY IDOCK:   -6.55 KCAL/MOL
REMARK 923 INTER-LIGAND FREE ENERGY PREDICTED BY IDOCK:   -5.79 KCAL/MOL
REMARK 924 INTRA-LIGAND FREE ENERGY PREDICTED BY IDOCK:   -0.77 KCAL/MOL
REMARK 927      BINDING AFFINITY PREDICTED BY RF-SCORE:    0.00 PKD
ROOT
HETATM    1  C   UNL     1     -12.076  13.284  63.509  1.00  0.00    -0.550 C  
HETATM    2  C   UNL     1     -11.335  12.857  64.769  1.00  0.00    -0.349 C  
ENDROOT
BRANCH   2   3
HETATM    3  C   UNL     1     -12.206  13.037  66.024  1.00  0.00    -0.399 C  
BRANCH   3   4
HETATM    4  N   UNL     1     -11.509  13.501  67.245  1.00  0.00    -0.321 NA 
BRANCH   4   5
HETATM    5  C   UNL     1     -11.739  12.603  68.395  1.00  0.00    -0.333 C  
BRANCH   5   6
HETATM    6  C   UNL     1     -11.485  11.115  68.077  1.00  0.00    -0.366 C  
BRANCH   6   7
HETATM    7  C   UNL     1     -10.073  10.901  67.610  1.00  0.00    -0.179 A  
HETATM    8  S   UNL     1      -9.737   9.737  66.397  1.00  0.00    -0.233 SA 
HETATM    9  C   UNL     1      -8.924  11.532  68.042  1.00  0.00    -0.170 A  
HETATM   10  C   UNL     1      -7.760  11.038  67.386  1.00  0.00    -0.114 A  
HETATM   11  C   UNL     1      -8.061  10.057  66.470  1.00  0.00    -0.119 A  
ENDBRANCH   6   7
ENDBRANCH   5   6
ENDBRANCH   4   5
BRANCH   4  12
HETATM   12  C   UNL     1     -11.718  14.946  67.550  1.00  0.00    -0.308 C  
HETATM   13  C   UNL     1     -11.553  15.314  69.043  1.00  0.00    -0.360 C  
HETATM   14  C   UNL     1     -10.723  15.890  66.816  1.00  0.00    -0.281 C  
HETATM   15  C   UNL     1     -10.162  14.946  69.566  1.00  0.00    -0.143 C  
HETATM   16  C   UNL     1      -9.301  15.789  67.335  1.00  0.00    -0.214 A  
HETATM   17  C   UNL     1      -8.244  16.186  66.501  1.00  0.00    -0.343 A  
HETATM   18  C   UNL     1      -9.033  15.359  68.652  1.00  0.00    -0.191 A  
HETATM   19  C   UNL     1      -6.924  16.126  66.950  1.00  0.00    -0.187 A  
HETATM   20  C   UNL     1      -7.695  15.283  69.073  1.00  0.00    -0.183 A  
HETATM   21  O   UNL     1      -7.330  14.829  70.310  1.00  0.00    -0.318 OA 
HETATM   22  H   UNL     1      -6.425  14.778  70.595  1.00  0.00     0.000 HD 
HETATM   23  C   UNL     1      -6.651  15.669  68.234  1.00  0.00    -0.126 A  
ENDBRANCH   4  12
ENDBRANCH   3   4
ENDBRANCH   2   3
TORSDOF 6
ENDMDL
MODEL      105
REMARK 921   NORMALIZED FREE ENERGY PREDICTED BY IDOCK:   -3.82 KCAL/MOL
REMARK 922        TOTAL FREE ENERGY PREDICTED BY IDOCK:   -6.55 KCAL/MOL
REMARK 923 INTER-LIGAND FREE ENERGY PREDICTED BY IDOCK:   -6.41 KCAL/MOL
REMARK 924 INTRA-LIGAND FREE ENERGY PREDICTED BY IDOCK:   -0.14 KCAL/MOL
REMARK 927      BINDING AFFINITY PREDICTED BY RF-SCORE:    0.00 PKD
ROOT
HETATM    1  C   UNL     1      -8.255  15.996  66.440  1.00  0.00    -0.309 C  
HETATM    2  C   UNL     1      -9.343  14.938  66.315  1.00  0.00    -0.329 C  
ENDROOT
BRANCH   2   3
HETATM    3  C   UNL     1      -9.160  13.814  67.348  1.00  0.00    -0.221 C  
BRANCH   3   4
HETATM    4  N   UNL     1     -10.394  13.292  67.976  1.00  0.00    -0.235 NA 
BRANCH   4   5
HETATM    5  C   UNL     1     -11.019  14.277  68.882  1.00  0.00    -0.257 C  
BRANCH   5   6
HETATM    6  C   UNL     1     -12.285  13.750  69.589  1.00  0.00    -0.359 C  
BRANCH   6   7
HETATM    7  C   UNL     1     -12.481  14.431  70.914  1.00  0.00    -0.354 A  
HETATM    8  S   UNL     1     -11.589  15.845  71.293  1.00  0.00    -0.460 SA 
HETATM    9  C   UNL     1     -13.319  14.065  71.949  1.00  0.00    -0.489 A  
HETATM   10  C   UNL     1     -13.208  14.941  73.067  1.00  0.00    -0.596 A  
HETATM   11  C   UNL     1     -12.299  15.950  72.843  1.00  0.00    -0.488 A  
ENDBRANCH   6   7
ENDBRANCH   5   6
ENDBRANCH   4   5
BRANCH   4  12
HETATM   12  C   UNL     1     -10.244  11.931  68.567  1.00  0.00    -0.215 C  
HETATM   13  C   UNL     1     -11.192  10.866  67.968  1.00  0.00    -0.378 C  
HETATM   14  C   UNL     1      -8.825  11.321  68.380  1.00  0.00    -0.159 C  
HETATM   15  C   UNL     1     -10.994  10.718  66.457  1.00  0.00    -0.143 C  
HETATM   16  C   UNL     1      -8.516  10.941  66.945  1.00  0.00    -0.135 A  
HETATM   17  C   UNL     1      -7.175  10.841  66.543  1.00  0.00    -0.139 A  
HETATM   18  C   UNL     1      -9.547  10.633  66.032  1.00  0.00    -0.244 A  
HETATM   19  C   UNL     1      -6.851  10.476  65.236  1.00  0.00    -0.050 A  
HETATM   20  C   UNL     1      -9.197  10.292  64.715  1.00  0.00    -0.241 A  
HETATM   21  O   UNL     1     -10.124  10.029  63.745  1.00  0.00    -0.471 OA 
HETATM   22  H   UNL     1      -9.887   9.798  62.855  1.00  0.00     0.000 HD 
HETATM   23  C   UNL     1      -7.863  10.207  64.322  1.00  0.00    -0.140 A  
ENDBRANCH   4  12
ENDBRANCH   3   4
ENDBRANCH   2   3
TORSDOF 6
ENDMDL
MODEL      106
REMARK 921   NORMALIZED FREE ENERGY PREDICTED BY IDOCK:   -3.81 KCAL/MOL
REMARK 922        TOTAL FREE ENERGY PREDICTED BY IDOCK:   -6.55 KCAL/MOL
REMARK 923 INTER-LIGAND FREE ENERGY PREDICTED BY IDOCK:   -5.51 KCAL/MOL
REMARK 924 INTRA-LIGAND FREE ENERGY PREDICTED BY IDOCK:   -1.03 KCAL/MOL
REMARK 927      BINDING AFFINITY PREDICTED BY RF-SCORE:    0.00 PKD
ROOT
HETATM    1  C   UNL     1     -11.602  15.605  64.343  1.00  0.00    -0.250 C  
HETATM    2  C   UNL     1     -11.002  14.626  65.344  1.00  0.00    -0.358 C  
ENDROOT
BRANCH   2   3
HETATM    3  C   UNL     1     -11.758  14.655  66.683  1.00  0.00    -0.333 C  
BRANCH   3   4
HETATM    4  N   UNL     1     -10.942  14.458  67.902  1.00  0.00    -0.257 NA 
BRANCH   4   5
HETATM    5  C   UNL     1     -11.261  13.191  68.590  1.00  0.00    -0.276 C  
BRANCH   5   6
HETATM    6  C   UNL     1     -11.836  12.108  67.655  1.00  0.00    -0.316 C  
BRANCH   6   7
HETATM    7  C   UNL     1     -10.989  10.866  67.691  1.00  0.00    -0.293 A  
HETATM    8  S   UNL     1     -10.740  10.039  69.171  1.00  0.00    -0.229 SA 
HETATM    9  C   UNL     1     -10.328  10.252  66.646  1.00  0.00    -0.283 A  
HETATM   10  C   UNL     1      -9.595   9.107  67.072  1.00  0.00    -0.223 A  
HETATM   11  C   UNL     1      -9.731   8.881  68.423  1.00  0.00    -0.161 A  
ENDBRANCH   6   7
ENDBRANCH   5   6
ENDBRANCH   4   5
BRANCH   4  12
HETATM   12  C   UNL     1     -10.901  15.647  68.802  1.00  0.00    -0.262 C  
HETATM   13  C   UNL     1      -9.816  15.579  69.901  1.00  0.00    -0.207 C  
HETATM   14  C   UNL     1     -10.606  16.982  68.061  1.00  0.00    -0.373 C  
HETATM   15  C   UNL     1      -8.414  15.427  69.304  1.00  0.00    -0.258 C  
HETATM   16  C   UNL     1      -9.183  17.084  67.546  1.00  0.00    -0.231 A  
HETATM   17  C   UNL     1      -8.906  17.961  66.485  1.00  0.00    -0.281 A  
HETATM   18  C   UNL     1      -8.133  16.360  68.150  1.00  0.00    -0.165 A  
HETATM   19  C   UNL     1      -7.606  18.096  65.997  1.00  0.00    -0.233 A  
HETATM   20  C   UNL     1      -6.837  16.494  67.625  1.00  0.00    -0.139 A  
HETATM   21  O   UNL     1      -5.765  15.795  68.105  1.00  0.00    -0.106 OA 
HETATM   22  H   UNL     1      -4.889  15.886  67.751  1.00  0.00     0.000 HD 
HETATM   23  C   UNL     1      -6.574  17.358  66.564  1.00  0.00    -0.282 A  
ENDBRANCH   4  12
ENDBRANCH   3   4
ENDBRANCH   2   3
TORSDOF 6
ENDMDL
MODEL      107
REMARK 921   NORMALIZED FREE ENERGY PREDICTED BY IDOCK:   -3.81 KCAL/MOL
REMARK 922        TOTAL FREE ENERGY PREDICTED BY IDOCK:   -6.54 KCAL/MOL
REMARK 923 INTER-LIGAND FREE ENERGY PREDICTED BY IDOCK:   -5.59 KCAL/MOL
REMARK 924 INTRA-LIGAND FREE ENERGY PREDICTED BY IDOCK:   -0.95 KCAL/MOL
REMARK 927      BINDING AFFINITY PREDICTED BY RF-SCORE:    0.00 PKD
ROOT
HETATM    1  C   UNL     1      -9.964   6.032  68.235  1.00  0.00    -0.173 C  
HETATM    2  C   UNL     1     -10.720   7.253  67.729  1.00  0.00    -0.267 C  
ENDROOT
BRANCH   2   3
HETATM    3  C   UNL     1      -9.976   8.556  68.064  1.00  0.00    -0.183 C  
BRANCH   3   4
HETATM    4  N   UNL     1     -10.816   9.704  68.476  1.00  0.00    -0.195 NA 
BRANCH   4   5
HETATM    5  C   UNL     1     -10.976  10.696  67.393  1.00  0.00    -0.298 C  
BRANCH   5   6
HETATM    6  C   UNL     1      -9.983  10.505  66.228  1.00  0.00    -0.276 C  
BRANCH   6   7
HETATM    7  C   UNL     1      -8.658  11.139  66.545  1.00  0.00    -0.169 A  
HETATM    8  S   UNL     1      -7.201  10.355  66.094  1.00  0.00    -0.136 SA 
HETATM    9  C   UNL     1      -8.413  12.332  67.194  1.00  0.00    -0.184 A  
HETATM   10  C   UNL     1      -7.020  12.590  67.341  1.00  0.00    -0.147 A  
HETATM   11  C   UNL     1      -6.250  11.592  66.789  1.00  0.00    -0.140 A  
ENDBRANCH   6   7
ENDBRANCH   5   6
ENDBRANCH   4   5
BRANCH   4  12
HETATM   12  C   UNL     1     -10.432  10.294  69.790  1.00  0.00    -0.259 C  
HETATM   13  C   UNL     1     -11.629  10.741  70.663  1.00  0.00    -0.388 C  
HETATM   14  C   UNL     1      -9.639   9.319  70.706  1.00  0.00    -0.341 C  
HETATM   15  C   UNL     1     -12.578   9.576  70.960  1.00  0.00    -0.331 C  
HETATM   16  C   UNL     1     -10.482   8.180  71.247  1.00  0.00    -0.254 A  
HETATM   17  C   UNL     1      -9.843   7.002  71.665  1.00  0.00    -0.169 A  
HETATM   18  C   UNL     1     -11.880   8.307  71.388  1.00  0.00    -0.330 A  
HETATM   19  C   UNL     1     -10.582   5.939  72.186  1.00  0.00    -0.264 A  
HETATM   20  C   UNL     1     -12.605   7.215  71.892  1.00  0.00    -0.293 A  
HETATM   21  O   UNL     1     -13.967   7.222  72.016  1.00  0.00    -0.537 OA 
HETATM   22  H   UNL     1     -14.458   6.484  72.357  1.00  0.00     0.000 HD 
HETATM   23  C   UNL     1     -11.964   6.046  72.294  1.00  0.00    -0.259 A  
ENDBRANCH   4  12
ENDBRANCH   3   4
ENDBRANCH   2   3
TORSDOF 6
ENDMDL
MODEL      108
REMARK 921   NORMALIZED FREE ENERGY PREDICTED BY IDOCK:   -3.78 KCAL/MOL
REMARK 922        TOTAL FREE ENERGY PREDICTED BY IDOCK:   -6.50 KCAL/MOL
REMARK 923 INTER-LIGAND FREE ENERGY PREDICTED BY IDOCK:   -5.52 KCAL/MOL
REMARK 924 INTRA-LIGAND FREE ENERGY PREDICTED BY IDOCK:   -0.98 KCAL/MOL
REMARK 927      BINDING AFFINITY PREDICTED BY RF-SCORE:    0.00 PKD
ROOT
HETATM    1  C   UNL     1      -7.627  13.856  68.842  1.00  0.00    -0.060 C  
HETATM    2  C   UNL     1      -7.587  13.668  67.331  1.00  0.00    -0.144 C  
ENDROOT
BRANCH   2   3
HETATM    3  C   UNL     1      -8.426  12.457  66.891  1.00  0.00    -0.147 C  
BRANCH   3   4
HETATM    4  N   UNL     1      -9.587  12.117  67.744  1.00  0.00    -0.189 NA 
BRANCH   4   5
HETATM    5  C   UNL     1      -9.504  10.743  68.279  1.00  0.00    -0.164 C  
BRANCH   5   6
HETATM    6  C   UNL     1      -8.368  10.546  69.302  1.00  0.00    -0.144 C  
BRANCH   6   7
HETATM    7  C   UNL     1      -8.778   9.580  70.378  1.00  0.00    -0.223 A  
HETATM    8  S   UNL     1     -10.423   9.462  70.845  1.00  0.00    -0.316 SA 
HETATM    9  C   UNL     1      -7.979   8.720  71.105  1.00  0.00    -0.170 A  
HETATM   10  C   UNL     1      -8.724   7.978  72.067  1.00  0.00    -0.197 A  
HETATM   11  C   UNL     1     -10.064   8.288  72.032  1.00  0.00    -0.261 A  
ENDBRANCH   6   7
ENDBRANCH   5   6
ENDBRANCH   4   5
BRANCH   4  12
HETATM   12  C   UNL     1     -10.906  12.455  67.135  1.00  0.00    -0.245 C  
HETATM   13  C   UNL     1     -12.008  12.817  68.158  1.00  0.00    -0.295 C  
HETATM   14  C   UNL     1     -10.858  13.682  66.181  1.00  0.00    -0.279 C  
HETATM   15  C   UNL     1     -11.602  14.010  69.028  1.00  0.00    -0.345 C  
HETATM   16  C   UNL     1     -10.638  14.998  66.902  1.00  0.00    -0.297 A  
HETATM   17  C   UNL     1     -10.106  16.083  66.187  1.00  0.00    -0.346 A  
HETATM   18  C   UNL     1     -11.011  15.163  68.253  1.00  0.00    -0.276 A  
HETATM   19  C   UNL     1      -9.907  17.315  66.811  1.00  0.00    -0.296 A  
HETATM   20  C   UNL     1     -10.778  16.405  68.866  1.00  0.00    -0.319 A  
HETATM   21  O   UNL     1     -11.055  16.647  70.183  1.00  0.00    -0.451 OA 
HETATM   22  H   UNL     1     -10.899  17.487  70.598  1.00  0.00     0.000 HD 
HETATM   23  C   UNL     1     -10.239  17.473  68.152  1.00  0.00    -0.359 A  
ENDBRANCH   4  12
ENDBRANCH   3   4
ENDBRANCH   2   3
TORSDOF 6
ENDMDL
MODEL      109
REMARK 921   NORMALIZED FREE ENERGY PREDICTED BY IDOCK:   -3.78 KCAL/MOL
REMARK 922        TOTAL FREE ENERGY PREDICTED BY IDOCK:   -6.50 KCAL/MOL
REMARK 923 INTER-LIGAND FREE ENERGY PREDICTED BY IDOCK:   -5.41 KCAL/MOL
REMARK 924 INTRA-LIGAND FREE ENERGY PREDICTED BY IDOCK:   -1.09 KCAL/MOL
REMARK 927      BINDING AFFINITY PREDICTED BY RF-SCORE:    0.00 PKD
ROOT
HETATM    1  C   UNL     1     -11.848   6.270  70.798  1.00  0.00    -0.205 C  
HETATM    2  C   UNL     1     -11.075   6.172  69.490  1.00  0.00    -0.490 C  
ENDROOT
BRANCH   2   3
HETATM    3  C   UNL     1      -9.569   6.394  69.706  1.00  0.00    -0.151 C  
BRANCH   3   4
HETATM    4  N   UNL     1      -8.953   7.504  68.946  1.00  0.00    -0.134 NA 
BRANCH   4   5
HETATM    5  C   UNL     1      -8.074   7.019  67.862  1.00  0.00    -0.115 C  
BRANCH   5   6
HETATM    6  C   UNL     1      -8.033   5.482  67.741  1.00  0.00    -0.101 C  
BRANCH   6   7
HETATM    7  C   UNL     1      -8.688   5.028  66.467  1.00  0.00    -0.109 A  
HETATM    8  S   UNL     1      -7.847   5.150  64.978  1.00  0.00    -0.096 SA 
HETATM    9  C   UNL     1      -9.952   4.499  66.296  1.00  0.00    -0.268 A  
HETATM   10  C   UNL     1     -10.236   4.215  64.929  1.00  0.00    -0.218 A  
HETATM   11  C   UNL     1      -9.177   4.525  64.107  1.00  0.00    -0.109 A  
ENDBRANCH   6   7
ENDBRANCH   5   6
ENDBRANCH   4   5
BRANCH   4  12
HETATM   12  C   UNL     1      -8.337   8.558  69.803  1.00  0.00    -0.124 C  
HETATM   13  C   UNL     1      -8.170   9.929  69.108  1.00  0.00    -0.128 C  
HETATM   14  C   UNL     1      -9.159   8.880  71.084  1.00  0.00    -0.315 C  
HETATM   15  C   UNL     1      -9.512  10.483  68.619  1.00  0.00    -0.172 C  
HETATM   16  C   UNL     1     -10.462   9.603  70.799  1.00  0.00    -0.375 A  
HETATM   17  C   UNL     1     -11.497   9.533  71.744  1.00  0.00    -0.349 A  
HETATM   18  C   UNL     1     -10.625  10.384  69.635  1.00  0.00    -0.289 A  
HETATM   19  C   UNL     1     -12.703  10.200  71.526  1.00  0.00    -0.541 A  
HETATM   20  C   UNL     1     -11.857  11.026  69.426  1.00  0.00    -0.335 A  
HETATM   21  O   UNL     1     -12.130  11.760  68.306  1.00  0.00    -0.525 OA 
HETATM   22  H   UNL     1     -12.963  12.195  68.164  1.00  0.00     0.000 HD 
HETATM   23  C   UNL     1     -12.883  10.942  70.364  1.00  0.00    -0.257 A  
ENDBRANCH   4  12
ENDBRANCH   3   4
ENDBRANCH   2   3
TORSDOF 6
ENDMDL
MODEL      110
REMARK 921   NORMALIZED FREE ENERGY PREDICTED BY IDOCK:   -3.77 KCAL/MOL
REMARK 922        TOTAL FREE ENERGY PREDICTED BY IDOCK:   -6.48 KCAL/MOL
REMARK 923 INTER-LIGAND FREE ENERGY PREDICTED BY IDOCK:   -5.52 KCAL/MOL
REMARK 924 INTRA-LIGAND FREE ENERGY PREDICTED BY IDOCK:   -0.97 KCAL/MOL
REMARK 927      BINDING AFFINITY PREDICTED BY RF-SCORE:    0.00 PKD
ROOT
HETATM    1  C   UNL     1     -10.481  11.506  63.512  1.00  0.00    -0.486 C  
HETATM    2  C   UNL     1      -9.579  10.646  64.387  1.00  0.00    -0.349 C  
ENDROOT
BRANCH   2   3
HETATM    3  C   UNL     1     -10.181  10.441  65.788  1.00  0.00    -0.235 C  
BRANCH   3   4
HETATM    4  N   UNL     1      -9.489  11.119  66.906  1.00  0.00    -0.183 NA 
BRANCH   4   5
HETATM    5  C   UNL     1      -8.468  10.257  67.536  1.00  0.00    -0.118 C  
BRANCH   5   6
HETATM    6  C   UNL     1      -7.193  10.087  66.686  1.00  0.00    -0.099 C  
BRANCH   6   7
HETATM    7  C   UNL     1      -6.945   8.637  66.377  1.00  0.00    -0.078 A  
HETATM    8  S   UNL     1      -5.723   8.195  65.258  1.00  0.00    -0.044 SA 
HETATM    9  C   UNL     1      -7.598   7.531  66.882  1.00  0.00    -0.102 A  
HETATM   10  C   UNL     1      -7.105   6.315  66.327  1.00  0.00    -0.068 A  
HETATM   11  C   UNL     1      -6.086   6.534  65.428  1.00  0.00    -0.034 A  
ENDBRANCH   6   7
ENDBRANCH   5   6
ENDBRANCH   4   5
BRANCH   4  12
HETATM   12  C   UNL     1     -10.408  11.782  67.876  1.00  0.00    -0.193 C  
HETATM   13  C   UNL     1      -9.819  13.038  68.558  1.00  0.00    -0.153 C  
HETATM   14  C   UNL     1     -11.733  12.286  67.236  1.00  0.00    -0.394 C  
HETATM   15  C   UNL     1      -9.413  14.101  67.533  1.00  0.00    -0.210 C  
HETATM   16  C   UNL     1     -11.543  13.472  66.311  1.00  0.00    -0.374 A  
HETATM   17  C   UNL     1     -12.509  13.726  65.324  1.00  0.00    -0.512 A  
HETATM   18  C   UNL     1     -10.450  14.351  66.464  1.00  0.00    -0.289 A  
HETATM   19  C   UNL     1     -12.379  14.818  64.467  1.00  0.00    -0.384 A  
HETATM   20  C   UNL     1     -10.327  15.430  65.573  1.00  0.00    -0.387 A  
HETATM   21  O   UNL     1      -9.277  16.304  65.606  1.00  0.00    -0.444 OA 
HETATM   22  H   UNL     1      -9.194  17.035  65.004  1.00  0.00     0.000 HD 
HETATM   23  C   UNL     1     -11.285  15.667  64.589  1.00  0.00    -0.380 A  
ENDBRANCH   4  12
ENDBRANCH   3   4
ENDBRANCH   2   3
TORSDOF 6
ENDMDL
MODEL      111
REMARK 921   NORMALIZED FREE ENERGY PREDICTED BY IDOCK:   -3.76 KCAL/MOL
REMARK 922        TOTAL FREE ENERGY PREDICTED BY IDOCK:   -6.48 KCAL/MOL
REMARK 923 INTER-LIGAND FREE ENERGY PREDICTED BY IDOCK:   -6.85 KCAL/MOL
REMARK 924 INTRA-LIGAND FREE ENERGY PREDICTED BY IDOCK:    0.38 KCAL/MOL
REMARK 927      BINDING AFFINITY PREDICTED BY RF-SCORE:    0.00 PKD
ROOT
HETATM    1  C   UNL     1      -9.644  16.572  68.090  1.00  0.00    -0.226 C  
HETATM    2  C   UNL     1     -11.079  16.080  67.954  1.00  0.00    -0.307 C  
ENDROOT
BRANCH   2   3
HETATM    3  C   UNL     1     -11.155  14.778  67.139  1.00  0.00    -0.333 C  
BRANCH   3   4
HETATM    4  N   UNL     1     -11.734  13.604  67.830  1.00  0.00    -0.340 NA 
BRANCH   4   5
HETATM    5  C   UNL     1     -11.181  13.425  69.188  1.00  0.00    -0.248 C  
BRANCH   5   6
HETATM    6  C   UNL     1     -12.247  13.093  70.251  1.00  0.00    -0.376 C  
BRANCH   6   7
HETATM    7  C   UNL     1     -12.344  14.191  71.274  1.00  0.00    -0.369 A  
HETATM    8  S   UNL     1     -13.569  14.142  72.472  1.00  0.00    -0.531 SA 
HETATM    9  C   UNL     1     -11.550  15.313  71.402  1.00  0.00    -0.446 A  
HETATM   10  C   UNL     1     -11.968  16.147  72.478  1.00  0.00    -0.660 A  
HETATM   11  C   UNL     1     -13.057  15.628  73.140  1.00  0.00    -0.558 A  
ENDBRANCH   6   7
ENDBRANCH   5   6
ENDBRANCH   4   5
BRANCH   4  12
HETATM   12  C   UNL     1     -11.742  12.360  67.008  1.00  0.00    -0.353 C  
HETATM   13  C   UNL     1     -10.862  12.428  65.738  1.00  0.00    -0.312 C  
HETATM   14  C   UNL     1     -11.217  11.106  67.765  1.00  0.00    -0.359 C  
HETATM   15  C   UNL     1      -9.399  12.725  66.079  1.00  0.00    -0.056 C  
HETATM   16  C   UNL     1      -9.726  11.146  68.037  1.00  0.00    -0.183 A  
HETATM   17  C   UNL     1      -9.205  10.371  69.084  1.00  0.00    -0.202 A  
HETATM   18  C   UNL     1      -8.854  11.900  67.222  1.00  0.00    -0.179 A  
HETATM   19  C   UNL     1      -7.836  10.367  69.353  1.00  0.00    -0.163 A  
HETATM   20  C   UNL     1      -7.483  11.900  67.527  1.00  0.00    -0.136 A  
HETATM   21  O   UNL     1      -6.567  12.639  66.831  1.00  0.00    -0.444 OA 
HETATM   22  H   UNL     1      -5.640  12.639  67.036  1.00  0.00     0.000 HD 
HETATM   23  C   UNL     1      -6.977  11.136  68.576  1.00  0.00    -0.072 A  
ENDBRANCH   4  12
ENDBRANCH   3   4
ENDBRANCH   2   3
TORSDOF 6
ENDMDL
MODEL      112
REMARK 921   NORMALIZED FREE ENERGY PREDICTED BY IDOCK:   -3.74 KCAL/MOL
REMARK 922        TOTAL FREE ENERGY PREDICTED BY IDOCK:   -6.44 KCAL/MOL
REMARK 923 INTER-LIGAND FREE ENERGY PREDICTED BY IDOCK:   -6.63 KCAL/MOL
REMARK 924 INTRA-LIGAND FREE ENERGY PREDICTED BY IDOCK:    0.19 KCAL/MOL
REMARK 927      BINDING AFFINITY PREDICTED BY RF-SCORE:    0.00 PKD
ROOT
HETATM    1  C   UNL     1     -13.156  11.704  71.931  1.00  0.00    -0.490 C  
HETATM    2  C   UNL     1     -13.333  10.197  71.798  1.00  0.00    -0.485 C  
ENDROOT
BRANCH   2   3
HETATM    3  C   UNL     1     -12.366   9.605  70.759  1.00  0.00    -0.201 C  
BRANCH   3   4
HETATM    4  N   UNL     1     -10.953  10.037  70.856  1.00  0.00    -0.321 NA 
BRANCH   4   5
HETATM    5  C   UNL     1     -10.520  10.801  69.669  1.00  0.00    -0.140 C  
BRANCH   5   6
HETATM    6  C   UNL     1     -11.528  10.756  68.503  1.00  0.00    -0.362 C  
BRANCH   6   7
HETATM    7  C   UNL     1     -11.631  12.097  67.832  1.00  0.00    -0.347 A  
HETATM    8  S   UNL     1     -11.586  13.532  68.769  1.00  0.00    -0.348 SA 
HETATM    9  C   UNL     1     -11.776  12.372  66.486  1.00  0.00    -0.443 A  
HETATM   10  C   UNL     1     -11.872  13.769  66.230  1.00  0.00    -0.426 A  
HETATM   11  C   UNL     1     -11.787  14.512  67.385  1.00  0.00    -0.388 A  
ENDBRANCH   6   7
ENDBRANCH   5   6
ENDBRANCH   4   5
BRANCH   4  12
HETATM   12  C   UNL     1     -10.013   8.951  71.257  1.00  0.00    -0.288 C  
HETATM   13  C   UNL     1     -10.615   7.528  71.185  1.00  0.00    -0.234 C  
HETATM   14  C   UNL     1      -8.739   8.867  70.369  1.00  0.00    -0.200 C  
HETATM   15  C   UNL     1     -11.106   7.191  69.774  1.00  0.00    -0.239 C  
HETATM   16  C   UNL     1      -9.015   8.373  68.962  1.00  0.00    -0.147 A  
HETATM   17  C   UNL     1      -8.106   8.690  67.940  1.00  0.00    -0.108 A  
HETATM   18  C   UNL     1     -10.131   7.556  68.680  1.00  0.00    -0.194 A  
HETATM   19  C   UNL     1      -8.316   8.237  66.638  1.00  0.00    -0.111 A  
HETATM   20  C   UNL     1     -10.334   7.132  67.356  1.00  0.00    -0.254 A  
HETATM   21  O   UNL     1     -11.413   6.385  66.974  1.00  0.00    -0.717 OA 
HETATM   22  H   UNL     1     -11.550   6.097  66.079  1.00  0.00     0.000 HD 
HETATM   23  C   UNL     1      -9.433   7.462  66.346  1.00  0.00    -0.194 A  
ENDBRANCH   4  12
ENDBRANCH   3   4
ENDBRANCH   2   3
TORSDOF 6
ENDMDL
MODEL      113
REMARK 921   NORMALIZED FREE ENERGY PREDICTED BY IDOCK:   -3.73 KCAL/MOL
REMARK 922        TOTAL FREE ENERGY PREDICTED BY IDOCK:   -6.43 KCAL/MOL
REMARK 923 INTER-LIGAND FREE ENERGY PREDICTED BY IDOCK:   -5.25 KCAL/MOL
REMARK 924 INTRA-LIGAND FREE ENERGY PREDICTED BY IDOCK:   -1.18 KCAL/MOL
REMARK 927      BINDING AFFINITY PREDICTED BY RF-SCORE:    0.00 PKD
ROOT
HETATM    1  C   UNL     1     -10.764   8.538  67.095  1.00  0.00    -0.209 C  
HETATM    2  C   UNL     1     -10.059   9.865  66.848  1.00  0.00    -0.285 C  
ENDROOT
BRANCH   2   3
HETATM    3  C   UNL     1      -9.917  10.679  68.146  1.00  0.00    -0.158 C  
BRANCH   3   4
HETATM    4  N   UNL     1     -10.104   9.934  69.411  1.00  0.00    -0.198 NA 
BRANCH   4   5
HETATM    5  C   UNL     1     -11.199  10.491  70.231  1.00  0.00    -0.313 C  
BRANCH   5   6
HETATM    6  C   UNL     1     -11.937  11.667  69.560  1.00  0.00    -0.383 C  
BRANCH   6   7
HETATM    7  C   UNL     1     -12.449  12.635  70.589  1.00  0.00    -0.239 A  
HETATM    8  S   UNL     1     -12.090  14.306  70.450  1.00  0.00    -0.359 SA 
HETATM    9  C   UNL     1     -13.210  12.369  71.710  1.00  0.00    -0.435 A  
HETATM   10  C   UNL     1     -13.478  13.544  72.470  1.00  0.00    -0.660 A  
HETATM   11  C   UNL     1     -12.923  14.666  71.897  1.00  0.00    -0.331 A  
ENDBRANCH   6   7
ENDBRANCH   5   6
ENDBRANCH   4   5
BRANCH   4  12
HETATM   12  C   UNL     1      -8.840   9.694  70.166  1.00  0.00    -0.231 C  
HETATM   13  C   UNL     1      -9.000   8.784  71.406  1.00  0.00    -0.307 C  
HETATM   14  C   UNL     1      -7.733   8.995  69.325  1.00  0.00    -0.090 C  
HETATM   15  C   UNL     1      -9.561   7.410  71.032  1.00  0.00    -0.161 C  
HETATM   16  C   UNL     1      -8.043   7.545  69.005  1.00  0.00    -0.127 A  
HETATM   17  C   UNL     1      -7.419   6.945  67.900  1.00  0.00    -0.099 A  
HETATM   18  C   UNL     1      -8.897   6.782  69.829  1.00  0.00    -0.141 A  
HETATM   19  C   UNL     1      -7.665   5.608  67.586  1.00  0.00    -0.097 A  
HETATM   20  C   UNL     1      -9.148   5.445  69.479  1.00  0.00    -0.112 A  
HETATM   21  O   UNL     1     -10.001   4.640  70.182  1.00  0.00    -0.220 OA 
HETATM   22  H   UNL     1     -10.171   3.736  69.945  1.00  0.00     0.000 HD 
HETATM   23  C   UNL     1      -8.533   4.861  68.373  1.00  0.00    -0.095 A  
ENDBRANCH   4  12
ENDBRANCH   3   4
ENDBRANCH   2   3
TORSDOF 6
ENDMDL
MODEL      114
REMARK 921   NORMALIZED FREE ENERGY PREDICTED BY IDOCK:   -3.71 KCAL/MOL
REMARK 922        TOTAL FREE ENERGY PREDICTED BY IDOCK:   -6.40 KCAL/MOL
REMARK 923 INTER-LIGAND FREE ENERGY PREDICTED BY IDOCK:   -5.80 KCAL/MOL
REMARK 924 INTRA-LIGAND FREE ENERGY PREDICTED BY IDOCK:   -0.60 KCAL/MOL
REMARK 927      BINDING AFFINITY PREDICTED BY RF-SCORE:    0.00 PKD
ROOT
HETATM    1  C   UNL     1      -9.674   9.624  65.640  1.00  0.00    -0.363 C  
HETATM    2  C   UNL     1      -9.423   9.128  67.058  1.00  0.00    -0.201 C  
ENDROOT
BRANCH   2   3
HETATM    3  C   UNL     1      -9.031  10.281  67.998  1.00  0.00    -0.132 C  
BRANCH   3   4
HETATM    4  N   UNL     1      -9.975  10.581  69.098  1.00  0.00    -0.214 NA 
BRANCH   4   5
HETATM    5  C   UNL     1      -9.710   9.763  70.299  1.00  0.00    -0.223 C  
BRANCH   5   6
HETATM    6  C   UNL     1      -8.216   9.448  70.516  1.00  0.00    -0.221 C  
BRANCH   6   7
HETATM    7  C   UNL     1      -8.044   8.267  71.429  1.00  0.00    -0.125 A  
HETATM    8  S   UNL     1      -9.383   7.260  71.792  1.00  0.00    -0.149 SA 
HETATM    9  C   UNL     1      -6.898   7.842  72.071  1.00  0.00    -0.062 A  
HETATM   10  C   UNL     1      -7.132   6.696  72.884  1.00  0.00    -0.076 A  
HETATM   11  C   UNL     1      -8.442   6.279  72.825  1.00  0.00    -0.122 A  
ENDBRANCH   6   7
ENDBRANCH   5   6
ENDBRANCH   4   5
BRANCH   4  12
HETATM   12  C   UNL     1     -11.406  10.602  68.680  1.00  0.00    -0.281 C  
HETATM   13  C   UNL     1     -12.411  10.730  69.849  1.00  0.00    -0.340 C  
HETATM   14  C   UNL     1     -11.765  11.789  67.741  1.00  0.00    -0.337 C  
HETATM   15  C   UNL     1     -12.169  12.002  70.666  1.00  0.00    -0.409 C  
HETATM   16  C   UNL     1     -11.749  13.136  68.437  1.00  0.00    -0.386 A  
HETATM   17  C   UNL     1     -11.576  14.297  67.667  1.00  0.00    -0.396 A  
HETATM   18  C   UNL     1     -11.962  13.242  69.828  1.00  0.00    -0.391 A  
HETATM   19  C   UNL     1     -11.575  15.555  68.270  1.00  0.00    -0.344 A  
HETATM   20  C   UNL     1     -11.933  14.517  70.416  1.00  0.00    -0.318 A  
HETATM   21  O   UNL     1     -12.075  14.719  71.761  1.00  0.00    -0.338 OA 
HETATM   22  H   UNL     1     -12.055  15.581  72.159  1.00  0.00     0.000 HD 
HETATM   23  C   UNL     1     -11.749  15.663  69.645  1.00  0.00    -0.373 A  
ENDBRANCH   4  12
ENDBRANCH   3   4
ENDBRANCH   2   3
TORSDOF 6
ENDMDL
MODEL      115
REMARK 921   NORMALIZED FREE ENERGY PREDICTED BY IDOCK:   -3.70 KCAL/MOL
REMARK 922        TOTAL FREE ENERGY PREDICTED BY IDOCK:   -6.40 KCAL/MOL
REMARK 923 INTER-LIGAND FREE ENERGY PREDICTED BY IDOCK:   -5.09 KCAL/MOL
REMARK 924 INTRA-LIGAND FREE ENERGY PREDICTED BY IDOCK:   -1.31 KCAL/MOL
REMARK 927      BINDING AFFINITY PREDICTED BY RF-SCORE:    0.00 PKD
ROOT
HETATM    1  C   UNL     1     -11.728  12.144  68.229  1.00  0.00    -0.401 C  
HETATM    2  C   UNL     1     -12.111  10.987  69.142  1.00  0.00    -0.333 C  
ENDROOT
BRANCH   2   3
HETATM    3  C   UNL     1     -11.057  10.760  70.238  1.00  0.00    -0.170 C  
BRANCH   3   4
HETATM    4  N   UNL     1     -10.376   9.446  70.231  1.00  0.00    -0.225 NA 
BRANCH   4   5
HETATM    5  C   UNL     1     -10.856   8.562  71.313  1.00  0.00    -0.251 C  
BRANCH   5   6
HETATM    6  C   UNL     1     -11.620   7.323  70.805  1.00  0.00    -0.334 C  
BRANCH   6   7
HETATM    7  C   UNL     1     -11.172   6.084  71.529  1.00  0.00    -0.264 A  
HETATM    8  S   UNL     1      -9.987   5.062  70.829  1.00  0.00    -0.230 SA 
HETATM    9  C   UNL     1     -11.603   5.603  72.749  1.00  0.00    -0.289 A  
HETATM   10  C   UNL     1     -10.970   4.376  73.098  1.00  0.00    -0.332 A  
HETATM   11  C   UNL     1     -10.071   3.969  72.139  1.00  0.00    -0.163 A  
ENDBRANCH   6   7
ENDBRANCH   5   6
ENDBRANCH   4   5
BRANCH   4  12
HETATM   12  C   UNL     1      -8.890   9.534  70.131  1.00  0.00    -0.235 C  
HETATM   13  C   UNL     1      -8.198   8.211  69.730  1.00  0.00    -0.122 C  
HETATM   14  C   UNL     1      -8.395  10.557  69.070  1.00  0.00    -0.154 C  
HETATM   15  C   UNL     1      -8.703   7.694  68.380  1.00  0.00    -0.127 C  
HETATM   16  C   UNL     1      -8.657  10.119  67.642  1.00  0.00    -0.118 A  
HETATM   17  C   UNL     1      -8.716  11.093  66.632  1.00  0.00    -0.166 A  
HETATM   18  C   UNL     1      -8.783   8.754  67.307  1.00  0.00    -0.133 A  
HETATM   19  C   UNL     1      -8.936  10.727  65.304  1.00  0.00    -0.211 A  
HETATM   20  C   UNL     1      -9.029   8.412  65.967  1.00  0.00    -0.184 A  
HETATM   21  O   UNL     1      -9.219   7.123  65.553  1.00  0.00    -0.375 OA 
HETATM   22  H   UNL     1      -9.384   6.891  64.647  1.00  0.00     0.000 HD 
HETATM   23  C   UNL     1      -9.097   9.387  64.974  1.00  0.00    -0.271 A  
ENDBRANCH   4  12
ENDBRANCH   3   4
ENDBRANCH   2   3
TORSDOF 6
ENDMDL
MODEL      116
REMARK 921   NORMALIZED FREE ENERGY PREDICTED BY IDOCK:   -3.70 KCAL/MOL
REMARK 922        TOTAL FREE ENERGY PREDICTED BY IDOCK:   -6.40 KCAL/MOL
REMARK 923 INTER-LIGAND FREE ENERGY PREDICTED BY IDOCK:   -5.67 KCAL/MOL
REMARK 924 INTRA-LIGAND FREE ENERGY PREDICTED BY IDOCK:   -0.72 KCAL/MOL
REMARK 927      BINDING AFFINITY PREDICTED BY RF-SCORE:    0.00 PKD
ROOT
HETATM    1  C   UNL     1     -10.291  11.484  63.343  1.00  0.00    -0.469 C  
HETATM    2  C   UNL     1      -9.604  11.207  64.674  1.00  0.00    -0.289 C  
ENDROOT
BRANCH   2   3
HETATM    3  C   UNL     1     -10.569  10.562  65.683  1.00  0.00    -0.062 C  
BRANCH   3   4
HETATM    4  N   UNL     1     -10.780  11.297  66.951  1.00  0.00    -0.261 NA 
BRANCH   4   5
HETATM    5  C   UNL     1     -10.817  10.396  68.120  1.00  0.00    -0.264 C  
BRANCH   5   6
HETATM    6  C   UNL     1      -9.444  10.203  68.796  1.00  0.00    -0.171 C  
BRANCH   6   7
HETATM    7  C   UNL     1      -9.583   9.436  70.081  1.00  0.00    -0.238 A  
HETATM    8  S   UNL     1     -11.078   9.431  70.921  1.00  0.00    -0.350 SA 
HETATM    9  C   UNL     1      -8.626   8.690  70.740  1.00  0.00    -0.197 A  
HETATM   10  C   UNL     1      -9.121   8.132  71.954  1.00  0.00    -0.230 A  
HETATM   11  C   UNL     1     -10.439   8.461  72.173  1.00  0.00    -0.326 A  
ENDBRANCH   6   7
ENDBRANCH   5   6
ENDBRANCH   4   5
BRANCH   4  12
HETATM   12  C   UNL     1     -11.902  12.278  66.903  1.00  0.00    -0.264 C  
HETATM   13  C   UNL     1     -12.247  12.921  68.266  1.00  0.00    -0.003 C  
HETATM   14  C   UNL     1     -11.630  13.494  65.970  1.00  0.00    -0.363 C  
HETATM   15  C   UNL     1     -11.044  13.652  68.869  1.00  0.00    -0.292 C  
HETATM   16  C   UNL     1     -10.572  14.439  66.505  1.00  0.00    -0.296 A  
HETATM   17  C   UNL     1      -9.891  15.275  65.606  1.00  0.00    -0.383 A  
HETATM   18  C   UNL     1     -10.306  14.532  67.888  1.00  0.00    -0.231 A  
HETATM   19  C   UNL     1      -8.925  16.172  66.062  1.00  0.00    -0.334 A  
HETATM   20  C   UNL     1      -9.311  15.425  68.321  1.00  0.00    -0.193 A  
HETATM   21  O   UNL     1      -8.944  15.548  69.632  1.00  0.00    -0.266 OA 
HETATM   22  H   UNL     1      -8.272  16.152  69.925  1.00  0.00     0.000 HD 
HETATM   23  C   UNL     1      -8.632  16.242  67.419  1.00  0.00    -0.194 A  
ENDBRANCH   4  12
ENDBRANCH   3   4
ENDBRANCH   2   3
TORSDOF 6
ENDMDL
MODEL      117
REMARK 921   NORMALIZED FREE ENERGY PREDICTED BY IDOCK:   -3.69 KCAL/MOL
REMARK 922        TOTAL FREE ENERGY PREDICTED BY IDOCK:   -6.38 KCAL/MOL
REMARK 923 INTER-LIGAND FREE ENERGY PREDICTED BY IDOCK:   -5.37 KCAL/MOL
REMARK 924 INTRA-LIGAND FREE ENERGY PREDICTED BY IDOCK:   -1.01 KCAL/MOL
REMARK 927      BINDING AFFINITY PREDICTED BY RF-SCORE:    0.00 PKD
ROOT
HETATM    1  C   UNL     1      -7.853  13.672  67.510  1.00  0.00    -0.185 C  
HETATM    2  C   UNL     1      -7.588  12.453  68.383  1.00  0.00    -0.129 C  
ENDROOT
BRANCH   2   3
HETATM    3  C   UNL     1      -8.495  11.273  67.996  1.00  0.00    -0.138 C  
BRANCH   3   4
HETATM    4  N   UNL     1      -9.491  10.851  69.007  1.00  0.00    -0.181 NA 
BRANCH   4   5
HETATM    5  C   UNL     1      -8.937   9.869  69.961  1.00  0.00    -0.169 C  
BRANCH   5   6
HETATM    6  C   UNL     1      -9.772   8.577  70.072  1.00  0.00    -0.172 C  
BRANCH   6   7
HETATM    7  C   UNL     1      -9.022   7.404  69.508  1.00  0.00    -0.144 A  
HETATM    8  S   UNL     1      -9.187   5.855  70.223  1.00  0.00    -0.155 SA 
HETATM    9  C   UNL     1      -8.153   7.379  68.435  1.00  0.00    -0.125 A  
HETATM   10  C   UNL     1      -7.605   6.083  68.216  1.00  0.00    -0.091 A  
HETATM   11  C   UNL     1      -8.082   5.162  69.121  1.00  0.00    -0.084 A  
ENDBRANCH   6   7
ENDBRANCH   5   6
ENDBRANCH   4   5
BRANCH   4  12
HETATM   12  C   UNL     1     -10.811  10.464  68.432  1.00  0.00    -0.245 C  
HETATM   13  C   UNL     1     -12.027  11.130  69.119  1.00  0.00    -0.413 C  
HETATM   14  C   UNL     1     -10.974  10.838  66.931  1.00  0.00    -0.255 C  
HETATM   15  C   UNL     1     -11.946  12.658  69.055  1.00  0.00    -0.282 C  
HETATM   16  C   UNL     1     -11.090  12.331  66.690  1.00  0.00    -0.344 A  
HETATM   17  C   UNL     1     -10.765  12.842  65.424  1.00  0.00    -0.309 A  
HETATM   18  C   UNL     1     -11.573  13.197  67.694  1.00  0.00    -0.392 A  
HETATM   19  C   UNL     1     -10.878  14.207  65.159  1.00  0.00    -0.380 A  
HETATM   20  C   UNL     1     -11.655  14.571  67.411  1.00  0.00    -0.385 A  
HETATM   21  O   UNL     1     -12.059  15.496  68.333  1.00  0.00    -0.520 OA 
HETATM   22  H   UNL     1     -12.115  16.425  68.142  1.00  0.00     0.000 HD 
HETATM   23  C   UNL     1     -11.318  15.071  66.155  1.00  0.00    -0.270 A  
ENDBRANCH   4  12
ENDBRANCH   3   4
ENDBRANCH   2   3
TORSDOF 6
ENDMDL
MODEL      118
REMARK 921   NORMALIZED FREE ENERGY PREDICTED BY IDOCK:   -3.65 KCAL/MOL
REMARK 922        TOTAL FREE ENERGY PREDICTED BY IDOCK:   -6.32 KCAL/MOL
REMARK 923 INTER-LIGAND FREE ENERGY PREDICTED BY IDOCK:   -5.65 KCAL/MOL
REMARK 924 INTRA-LIGAND FREE ENERGY PREDICTED BY IDOCK:   -0.68 KCAL/MOL
REMARK 927      BINDING AFFINITY PREDICTED BY RF-SCORE:    0.00 PKD
ROOT
HETATM    1  C   UNL     1      -6.519   9.569  70.090  1.00  0.00    -0.067 C  
HETATM    2  C   UNL     1      -6.907   8.388  70.970  1.00  0.00    -0.050 C  
ENDROOT
BRANCH   2   3
HETATM    3  C   UNL     1      -8.306   8.576  71.581  1.00  0.00    -0.165 C  
BRANCH   3   4
HETATM    4  N   UNL     1      -9.162   7.369  71.645  1.00  0.00    -0.142 NA 
BRANCH   4   5
HETATM    5  C   UNL     1      -8.402   6.166  72.039  1.00  0.00    -0.114 C  
BRANCH   5   6
HETATM    6  C   UNL     1      -9.069   5.358  73.171  1.00  0.00    -0.126 C  
BRANCH   6   7
HETATM    7  C   UNL     1      -8.299   4.098  73.455  1.00  0.00    -0.090 A  
HETATM    8  S   UNL     1      -9.062   2.571  73.296  1.00  0.00    -0.084 SA 
HETATM    9  C   UNL     1      -6.985   3.971  73.859  1.00  0.00    -0.060 A  
HETATM   10  C   UNL     1      -6.614   2.611  74.061  1.00  0.00    -0.022 A  
HETATM   11  C   UNL     1      -7.651   1.748  73.793  1.00  0.00    -0.036 A  
ENDBRANCH   6   7
ENDBRANCH   5   6
ENDBRANCH   4   5
BRANCH   4  12
HETATM   12  C   UNL     1     -10.028   7.177  70.446  1.00  0.00    -0.187 C  
HETATM   13  C   UNL     1     -11.378   6.482  70.738  1.00  0.00    -0.399 C  
HETATM   14  C   UNL     1     -10.430   8.507  69.746  1.00  0.00    -0.220 C  
HETATM   15  C   UNL     1     -12.206   7.263  71.762  1.00  0.00    -0.368 C  
HETATM   16  C   UNL     1     -11.405   9.342  70.553  1.00  0.00    -0.328 A  
HETATM   17  C   UNL     1     -11.483  10.722  70.306  1.00  0.00    -0.406 A  
HETATM   18  C   UNL     1     -12.267   8.749  71.500  1.00  0.00    -0.382 A  
HETATM   19  C   UNL     1     -12.381  11.521  71.015  1.00  0.00    -0.434 A  
HETATM   20  C   UNL     1     -13.145   9.577  72.218  1.00  0.00    -0.408 A  
HETATM   21  O   UNL     1     -13.980   9.105  73.193  1.00  0.00    -1.101 OA 
HETATM   22  H   UNL     1     -14.574   9.665  73.679  1.00  0.00     0.000 HD 
HETATM   23  C   UNL     1     -13.208  10.947  71.975  1.00  0.00    -0.456 A  
ENDBRANCH   4  12
ENDBRANCH   3   4
ENDBRANCH   2   3
TORSDOF 6
ENDMDL
MODEL      119
REMARK 921   NORMALIZED FREE ENERGY PREDICTED BY IDOCK:   -3.63 KCAL/MOL
REMARK 922        TOTAL FREE ENERGY PREDICTED BY IDOCK:   -6.30 KCAL/MOL
REMARK 923 INTER-LIGAND FREE ENERGY PREDICTED BY IDOCK:   -5.30 KCAL/MOL
REMARK 924 INTRA-LIGAND FREE ENERGY PREDICTED BY IDOCK:   -1.00 KCAL/MOL
REMARK 927      BINDING AFFINITY PREDICTED BY RF-SCORE:    0.00 PKD
ROOT
HETATM    1  C   UNL     1      -8.914   9.979  62.996  1.00  0.00    -0.272 C  
HETATM    2  C   UNL     1      -9.632  11.057  63.796  1.00  0.00    -0.321 C  
ENDROOT
BRANCH   2   3
HETATM    3  C   UNL     1     -10.308  10.475  65.049  1.00  0.00    -0.240 C  
BRANCH   3   4
HETATM    4  N   UNL     1     -10.000  11.145  66.332  1.00  0.00    -0.210 NA 
BRANCH   4   5
HETATM    5  C   UNL     1     -10.121  12.614  66.239  1.00  0.00    -0.253 C  
BRANCH   5   6
HETATM    6  C   UNL     1     -11.224  13.202  67.142  1.00  0.00    -0.326 C  
BRANCH   6   7
HETATM    7  C   UNL     1     -10.684  14.324  67.985  1.00  0.00    -0.238 A  
HETATM    8  S   UNL     1     -11.760  15.348  68.841  1.00  0.00    -0.342 SA 
HETATM    9  C   UNL     1      -9.367  14.687  68.184  1.00  0.00    -0.197 A  
HETATM   10  C   UNL     1      -9.246  15.829  69.027  1.00  0.00    -0.243 A  
HETATM   11  C   UNL     1     -10.472  16.289  69.451  1.00  0.00    -0.292 A  
ENDBRANCH   6   7
ENDBRANCH   5   6
ENDBRANCH   4   5
BRANCH   4  12
HETATM   12  C   UNL     1      -8.736  10.678  66.971  1.00  0.00    -0.128 C  
HETATM   13  C   UNL     1      -8.713  10.810  68.512  1.00  0.00    -0.149 C  
HETATM   14  C   UNL     1      -8.424   9.176  66.716  1.00  0.00    -0.125 C  
HETATM   15  C   UNL     1      -9.855  10.027  69.165  1.00  0.00    -0.213 C  
HETATM   16  C   UNL     1      -9.365   8.233  67.441  1.00  0.00    -0.171 A  
HETATM   17  C   UNL     1      -9.523   6.925  66.955  1.00  0.00    -0.183 A  
HETATM   18  C   UNL     1     -10.032   8.629  68.620  1.00  0.00    -0.197 A  
HETATM   19  C   UNL     1     -10.365   6.023  67.607  1.00  0.00    -0.258 A  
HETATM   20  C   UNL     1     -10.893   7.711  69.244  1.00  0.00    -0.099 A  
HETATM   21  O   UNL     1     -11.623   8.018  70.358  1.00  0.00    -0.435 OA 
HETATM   22  H   UNL     1     -12.205   7.397  70.781  1.00  0.00     0.000 HD 
HETATM   23  C   UNL     1     -11.053   6.419  68.748  1.00  0.00    -0.404 A  
ENDBRANCH   4  12
ENDBRANCH   3   4
ENDBRANCH   2   3
TORSDOF 6
ENDMDL
MODEL      120
REMARK 921   NORMALIZED FREE ENERGY PREDICTED BY IDOCK:   -3.62 KCAL/MOL
REMARK 922        TOTAL FREE ENERGY PREDICTED BY IDOCK:   -6.29 KCAL/MOL
REMARK 923 INTER-LIGAND FREE ENERGY PREDICTED BY IDOCK:   -5.79 KCAL/MOL
REMARK 924 INTRA-LIGAND FREE ENERGY PREDICTED BY IDOCK:   -0.50 KCAL/MOL
REMARK 927      BINDING AFFINITY PREDICTED BY RF-SCORE:    0.00 PKD
ROOT
HETATM    1  C   UNL     1      -7.189  10.094  69.691  1.00  0.00    -0.127 C  
HETATM    2  C   UNL     1      -7.329   8.802  70.484  1.00  0.00    -0.066 C  
ENDROOT
BRANCH   2   3
HETATM    3  C   UNL     1      -8.667   8.747  71.241  1.00  0.00    -0.215 C  
BRANCH   3   4
HETATM    4  N   UNL     1      -9.404   7.464  71.180  1.00  0.00    -0.155 NA 
BRANCH   4   5
HETATM    5  C   UNL     1      -8.509   6.298  71.323  1.00  0.00    -0.124 C  
BRANCH   5   6
HETATM    6  C   UNL     1      -9.033   5.028  70.623  1.00  0.00    -0.164 C  
BRANCH   6   7
HETATM    7  C   UNL     1      -8.118   4.616  69.504  1.00  0.00    -0.065 A  
HETATM    8  S   UNL     1      -8.212   3.031  68.857  1.00  0.00    -0.060 SA 
HETATM    9  C   UNL     1      -7.141   5.364  68.879  1.00  0.00    -0.061 A  
HETATM   10  C   UNL     1      -6.451   4.621  67.879  1.00  0.00    -0.041 A  
HETATM   11  C   UNL     1      -6.933   3.337  67.767  1.00  0.00    -0.050 A  
ENDBRANCH   6   7
ENDBRANCH   5   6
ENDBRANCH   4   5
BRANCH   4  12
HETATM   12  C   UNL     1     -10.353   7.366  70.034  1.00  0.00    -0.219 C  
HETATM   13  C   UNL     1     -11.685   6.655  70.367  1.00  0.00    -0.446 C  
HETATM   14  C   UNL     1     -10.794   8.746  69.466  1.00  0.00    -0.151 C  
HETATM   15  C   UNL     1     -12.433   7.357  71.504  1.00  0.00    -0.394 C  
HETATM   16  C   UNL     1     -11.702   9.520  70.402  1.00  0.00    -0.227 A  
HETATM   17  C   UNL     1     -11.787  10.915  70.265  1.00  0.00    -0.450 A  
HETATM   18  C   UNL     1     -12.500   8.859  71.359  1.00  0.00    -0.357 A  
HETATM   19  C   UNL     1     -12.626  11.660  71.094  1.00  0.00    -0.439 A  
HETATM   20  C   UNL     1     -13.319   9.632  72.199  1.00  0.00    -0.454 A  
HETATM   21  O   UNL     1     -14.087   9.090  73.192  1.00  0.00    -1.130 OA 
HETATM   22  H   UNL     1     -14.641   9.613  73.759  1.00  0.00     0.000 HD 
HETATM   23  C   UNL     1     -13.388  11.018  72.064  1.00  0.00    -0.393 A  
ENDBRANCH   4  12
ENDBRANCH   3   4
ENDBRANCH   2   3
TORSDOF 6
ENDMDL
MODEL      121
REMARK 921   NORMALIZED FREE ENERGY PREDICTED BY IDOCK:   -3.57 KCAL/MOL
REMARK 922        TOTAL FREE ENERGY PREDICTED BY IDOCK:   -6.22 KCAL/MOL
REMARK 923 INTER-LIGAND FREE ENERGY PREDICTED BY IDOCK:   -5.07 KCAL/MOL
REMARK 924 INTRA-LIGAND FREE ENERGY PREDICTED BY IDOCK:   -1.15 KCAL/MOL
REMARK 927      BINDING AFFINITY PREDICTED BY RF-SCORE:    0.00 PKD
ROOT
HETATM    1  C   UNL     1      -5.749  11.741  66.965  1.00  0.00    -0.134 C  
HETATM    2  C   UNL     1      -7.259  11.669  66.781  1.00  0.00    -0.082 C  
ENDROOT
BRANCH   2   3
HETATM    3  C   UNL     1      -8.003  11.962  68.095  1.00  0.00    -0.151 C  
BRANCH   3   4
HETATM    4  N   UNL     1      -9.380  11.430  68.203  1.00  0.00    -0.175 NA 
BRANCH   4   5
HETATM    5  C   UNL     1     -10.393  12.504  68.228  1.00  0.00    -0.236 C  
BRANCH   5   6
HETATM    6  C   UNL     1     -11.727  12.111  67.562  1.00  0.00    -0.385 C  
BRANCH   6   7
HETATM    7  C   UNL     1     -11.637  12.240  66.067  1.00  0.00    -0.393 A  
HETATM    8  S   UNL     1     -12.445  13.522  65.266  1.00  0.00    -0.475 SA 
HETATM    9  C   UNL     1     -10.966  11.426  65.177  1.00  0.00    -0.259 A  
HETATM   10  C   UNL     1     -11.138  11.848  63.827  1.00  0.00    -0.510 A  
HETATM   11  C   UNL     1     -11.923  12.974  63.735  1.00  0.00    -0.518 A  
ENDBRANCH   6   7
ENDBRANCH   5   6
ENDBRANCH   4   5
BRANCH   4  12
HETATM   12  C   UNL     1      -9.552  10.406  69.274  1.00  0.00    -0.209 C  
HETATM   13  C   UNL     1     -10.575   9.297  68.938  1.00  0.00    -0.222 C  
HETATM   14  C   UNL     1      -8.247   9.628  69.609  1.00  0.00    -0.148 C  
HETATM   15  C   UNL     1     -10.194   8.543  67.660  1.00  0.00    -0.297 C  
HETATM   16  C   UNL     1      -7.809   8.682  68.508  1.00  0.00    -0.108 A  
HETATM   17  C   UNL     1      -6.462   8.292  68.444  1.00  0.00    -0.059 A  
HETATM   18  C   UNL     1      -8.738   8.147  67.591  1.00  0.00    -0.130 A  
HETATM   19  C   UNL     1      -6.025   7.408  67.457  1.00  0.00    -0.038 A  
HETATM   20  C   UNL     1      -8.270   7.278  66.592  1.00  0.00    -0.118 A  
HETATM   21  O   UNL     1      -9.082   6.751  65.626  1.00  0.00    -0.357 OA 
HETATM   22  H   UNL     1      -8.766   6.163  64.950  1.00  0.00     0.000 HD 
HETATM   23  C   UNL     1      -6.929   6.906  66.528  1.00  0.00    -0.066 A  
ENDBRANCH   4  12
ENDBRANCH   3   4
ENDBRANCH   2   3
TORSDOF 6
ENDMDL
MODEL      122
REMARK 921   NORMALIZED FREE ENERGY PREDICTED BY IDOCK:   -3.57 KCAL/MOL
REMARK 922        TOTAL FREE ENERGY PREDICTED BY IDOCK:   -6.21 KCAL/MOL
REMARK 923 INTER-LIGAND FREE ENERGY PREDICTED BY IDOCK:   -5.36 KCAL/MOL
REMARK 924 INTRA-LIGAND FREE ENERGY PREDICTED BY IDOCK:   -0.86 KCAL/MOL
REMARK 927      BINDING AFFINITY PREDICTED BY RF-SCORE:    0.00 PKD
ROOT
HETATM    1  C   UNL     1     -10.870   2.744  73.289  1.00  0.00    -0.275 C  
HETATM    2  C   UNL     1      -9.844   3.827  72.981  1.00  0.00    -0.186 C  
ENDROOT
BRANCH   2   3
HETATM    3  C   UNL     1     -10.302   4.725  71.820  1.00  0.00    -0.160 C  
BRANCH   3   4
HETATM    4  N   UNL     1      -9.460   5.909  71.535  1.00  0.00    -0.152 NA 
BRANCH   4   5
HETATM    5  C   UNL     1      -8.230   5.556  70.798  1.00  0.00    -0.117 C  
BRANCH   5   6
HETATM    6  C   UNL     1      -8.404   5.564  69.265  1.00  0.00    -0.101 C  
BRANCH   6   7
HETATM    7  C   UNL     1      -8.138   4.202  68.689  1.00  0.00    -0.072 A  
HETATM    8  S   UNL     1      -6.740   3.932  67.733  1.00  0.00    -0.047 SA 
HETATM    9  C   UNL     1      -8.899   3.057  68.812  1.00  0.00    -0.168 A  
HETATM   10  C   UNL     1      -8.340   1.960  68.096  1.00  0.00    -0.077 A  
HETATM   11  C   UNL     1      -7.168   2.301  67.462  1.00  0.00    -0.052 A  
ENDBRANCH   6   7
ENDBRANCH   5   6
ENDBRANCH   4   5
BRANCH   4  12
HETATM   12  C   UNL     1      -9.230   6.788  72.718  1.00  0.00    -0.135 C  
HETATM   13  C   UNL     1      -8.321   8.008  72.440  1.00  0.00    -0.205 C  
HETATM   14  C   UNL     1     -10.533   7.411  73.297  1.00  0.00    -0.424 C  
HETATM   15  C   UNL     1      -8.891   8.897  71.332  1.00  0.00    -0.283 C  
HETATM   16  C   UNL     1     -11.151   8.462  72.396  1.00  0.00    -0.431 A  
HETATM   17  C   UNL     1     -12.518   8.753  72.530  1.00  0.00    -0.368 A  
HETATM   18  C   UNL     1     -10.367   9.186  71.473  1.00  0.00    -0.414 A  
HETATM   19  C   UNL     1     -13.118   9.727  71.732  1.00  0.00    -0.528 A  
HETATM   20  C   UNL     1     -10.998  10.145  70.664  1.00  0.00    -0.285 A  
HETATM   21  O   UNL     1     -10.336  10.860  69.704  1.00  0.00    -0.415 OA 
HETATM   22  H   UNL     1     -10.763  11.509  69.157  1.00  0.00     0.000 HD 
HETATM   23  C   UNL     1     -12.358  10.419  70.795  1.00  0.00    -0.463 A  
ENDBRANCH   4  12
ENDBRANCH   3   4
ENDBRANCH   2   3
TORSDOF 6
ENDMDL
MODEL      123
REMARK 921   NORMALIZED FREE ENERGY PREDICTED BY IDOCK:   -3.55 KCAL/MOL
REMARK 922        TOTAL FREE ENERGY PREDICTED BY IDOCK:   -6.20 KCAL/MOL
REMARK 923 INTER-LIGAND FREE ENERGY PREDICTED BY IDOCK:   -4.35 KCAL/MOL
REMARK 924 INTRA-LIGAND FREE ENERGY PREDICTED BY IDOCK:   -1.84 KCAL/MOL
REMARK 927      BINDING AFFINITY PREDICTED BY RF-SCORE:    0.00 PKD
ROOT
HETATM    1  C   UNL     1      -7.522   5.172  71.459  1.00  0.00    -0.095 C  
HETATM    2  C   UNL     1      -6.368   5.308  70.475  1.00  0.00    -0.023 C  
ENDROOT
BRANCH   2   3
HETATM    3  C   UNL     1      -5.840   6.752  70.419  1.00  0.00    -0.024 C  
BRANCH   3   4
HETATM    4  N   UNL     1      -6.734   7.754  69.796  1.00  0.00    -0.038 NA 
BRANCH   4   5
HETATM    5  C   UNL     1      -6.449   7.939  68.359  1.00  0.00    -0.053 C  
BRANCH   5   6
HETATM    6  C   UNL     1      -7.005   6.810  67.468  1.00  0.00    -0.083 C  
BRANCH   6   7
HETATM    7  C   UNL     1      -8.506   6.766  67.533  1.00  0.00    -0.121 A  
HETATM    8  S   UNL     1      -9.439   7.802  66.535  1.00  0.00    -0.185 SA 
HETATM    9  C   UNL     1      -9.305   5.973  68.331  1.00  0.00    -0.120 A  
HETATM   10  C   UNL     1     -10.691   6.237  68.137  1.00  0.00    -0.364 A  
HETATM   11  C   UNL     1     -10.902   7.213  67.189  1.00  0.00    -0.333 A  
ENDBRANCH   6   7
ENDBRANCH   5   6
ENDBRANCH   4   5
BRANCH   4  12
HETATM   12  C   UNL     1      -6.846   9.027  70.564  1.00  0.00    -0.061 C  
HETATM   13  C   UNL     1      -7.859  10.039  69.979  1.00  0.00    -0.172 C  
HETATM   14  C   UNL     1      -7.313   8.832  72.034  1.00  0.00    -0.022 C  
HETATM   15  C   UNL     1      -9.268   9.445  69.897  1.00  0.00    -0.226 C  
HETATM   16  C   UNL     1      -8.764   8.408  72.155  1.00  0.00    -0.272 A  
HETATM   17  C   UNL     1      -9.184   7.747  73.320  1.00  0.00    -0.318 A  
HETATM   18  C   UNL     1      -9.702   8.718  71.147  1.00  0.00    -0.315 A  
HETATM   19  C   UNL     1     -10.515   7.359  73.476  1.00  0.00    -0.396 A  
HETATM   20  C   UNL     1     -11.031   8.295  71.316  1.00  0.00    -0.243 A  
HETATM   21  O   UNL     1     -12.001   8.500  70.374  1.00  0.00    -0.484 OA 
HETATM   22  H   UNL     1     -12.899   8.214  70.487  1.00  0.00     0.000 HD 
HETATM   23  C   UNL     1     -11.436   7.629  72.471  1.00  0.00    -0.405 A  
ENDBRANCH   4  12
ENDBRANCH   3   4
ENDBRANCH   2   3
TORSDOF 6
ENDMDL
MODEL      124
REMARK 921   NORMALIZED FREE ENERGY PREDICTED BY IDOCK:   -3.55 KCAL/MOL
REMARK 922        TOTAL FREE ENERGY PREDICTED BY IDOCK:   -6.19 KCAL/MOL
REMARK 923 INTER-LIGAND FREE ENERGY PREDICTED BY IDOCK:   -5.05 KCAL/MOL
REMARK 924 INTRA-LIGAND FREE ENERGY PREDICTED BY IDOCK:   -1.15 KCAL/MOL
REMARK 927      BINDING AFFINITY PREDICTED BY RF-SCORE:    0.00 PKD
ROOT
HETATM    1  C   UNL     1      -7.619  14.490  68.745  1.00  0.00    -0.131 C  
HETATM    2  C   UNL     1      -7.940  13.068  68.304  1.00  0.00    -0.151 C  
ENDROOT
BRANCH   2   3
HETATM    3  C   UNL     1      -8.313  13.011  66.813  1.00  0.00     0.061 C  
BRANCH   3   4
HETATM    4  N   UNL     1      -9.551  12.272  66.475  1.00  0.00    -0.232 NA 
BRANCH   4   5
HETATM    5  C   UNL     1      -9.279  10.873  66.090  1.00  0.00    -0.184 C  
BRANCH   5   6
HETATM    6  C   UNL     1      -9.390   9.877  67.263  1.00  0.00    -0.167 C  
BRANCH   6   7
HETATM    7  C   UNL     1      -8.029   9.500  67.777  1.00  0.00    -0.099 A  
HETATM    8  S   UNL     1      -7.847   8.921  69.380  1.00  0.00    -0.101 SA 
HETATM    9  C   UNL     1      -6.819   9.560  67.117  1.00  0.00    -0.084 A  
HETATM   10  C   UNL     1      -5.734   9.149  67.943  1.00  0.00    -0.038 A  
HETATM   11  C   UNL     1      -6.155   8.779  69.200  1.00  0.00    -0.043 A  
ENDBRANCH   6   7
ENDBRANCH   5   6
ENDBRANCH   4   5
BRANCH   4  12
HETATM   12  C   UNL     1     -10.451  12.998  65.533  1.00  0.00    -0.285 C  
HETATM   13  C   UNL     1     -11.949  12.949  65.915  1.00  0.00    -0.504 C  
HETATM   14  C   UNL     1     -10.141  14.518  65.417  1.00  0.00    -0.394 C  
HETATM   15  C   UNL     1     -12.197  13.536  67.307  1.00  0.00    -0.305 C  
HETATM   16  C   UNL     1     -10.496  15.303  66.665  1.00  0.00    -0.290 A  
HETATM   17  C   UNL     1      -9.860  16.532  66.899  1.00  0.00    -0.262 A  
HETATM   18  C   UNL     1     -11.491  14.847  67.556  1.00  0.00    -0.361 A  
HETATM   19  C   UNL     1     -10.175  17.292  68.025  1.00  0.00    -0.332 A  
HETATM   20  C   UNL     1     -11.773  15.618  68.697  1.00  0.00    -0.352 A  
HETATM   21  O   UNL     1     -12.680  15.235  69.645  1.00  0.00    -0.602 OA 
HETATM   22  H   UNL     1     -12.872  15.756  70.416  1.00  0.00     0.000 HD 
HETATM   23  C   UNL     1     -11.128  16.831  68.926  1.00  0.00    -0.194 A  
ENDBRANCH   4  12
ENDBRANCH   3   4
ENDBRANCH   2   3
TORSDOF 6
ENDMDL
MODEL      125
REMARK 921   NORMALIZED FREE ENERGY PREDICTED BY IDOCK:   -3.52 KCAL/MOL
REMARK 922        TOTAL FREE ENERGY PREDICTED BY IDOCK:   -6.15 KCAL/MOL
REMARK 923 INTER-LIGAND FREE ENERGY PREDICTED BY IDOCK:   -5.59 KCAL/MOL
REMARK 924 INTRA-LIGAND FREE ENERGY PREDICTED BY IDOCK:   -0.56 KCAL/MOL
REMARK 927      BINDING AFFINITY PREDICTED BY RF-SCORE:    0.00 PKD
ROOT
HETATM    1  C   UNL     1      -8.557  15.784  67.382  1.00  0.00    -0.192 C  
HETATM    2  C   UNL     1      -8.501  14.900  68.621  1.00  0.00    -0.166 C  
ENDROOT
BRANCH   2   3
HETATM    3  C   UNL     1      -8.566  13.408  68.255  1.00  0.00    -0.169 C  
BRANCH   3   4
HETATM    4  N   UNL     1      -9.656  12.626  68.880  1.00  0.00     0.125 NA 
BRANCH   4   5
HETATM    5  C   UNL     1      -9.246  11.240  69.185  1.00  0.00     0.114 C  
BRANCH   5   6
HETATM    6  C   UNL     1      -8.882  10.415  67.934  1.00  0.00    -0.125 C  
BRANCH   6   7
HETATM    7  C   UNL     1      -9.482   9.038  68.008  1.00  0.00    -0.142 A  
HETATM    8  S   UNL     1      -9.450   8.013  66.634  1.00  0.00    -0.225 SA 
HETATM    9  C   UNL     1     -10.105   8.433  69.081  1.00  0.00    -0.206 A  
HETATM   10  C   UNL     1     -10.578   7.128  68.762  1.00  0.00    -0.219 A  
HETATM   11  C   UNL     1     -10.290   6.778  67.462  1.00  0.00    -0.210 A  
ENDBRANCH   6   7
ENDBRANCH   5   6
ENDBRANCH   4   5
BRANCH   4  12
HETATM   12  C   UNL     1     -10.963  12.731  68.168  1.00  0.00    -0.247 C  
HETATM   13  C   UNL     1     -11.997  11.654  68.569  1.00  0.00    -0.284 C  
HETATM   14  C   UNL     1     -11.703  14.077  68.416  1.00  0.00    -0.389 C  
HETATM   15  C   UNL     1     -12.305  11.695  70.069  1.00  0.00    -0.261 C  
HETATM   16  C   UNL     1     -12.242  14.218  69.826  1.00  0.00    -0.390 A  
HETATM   17  C   UNL     1     -12.490  15.504  70.333  1.00  0.00    -0.443 A  
HETATM   18  C   UNL     1     -12.549  13.085  70.609  1.00  0.00    -0.270 A  
HETATM   19  C   UNL     1     -13.004  15.674  71.618  1.00  0.00    -0.551 A  
HETATM   20  C   UNL     1     -13.042  13.281  71.909  1.00  0.00    -0.388 A  
HETATM   21  O   UNL     1     -13.319  12.249  72.762  1.00  0.00    -0.442 OA 
HETATM   22  H   UNL     1     -13.652  12.382  73.642  1.00  0.00     0.000 HD 
HETATM   23  C   UNL     1     -13.274  14.561  72.408  1.00  0.00    -0.508 A  
ENDBRANCH   4  12
ENDBRANCH   3   4
ENDBRANCH   2   3
TORSDOF 6
ENDMDL
MODEL      126
REMARK 921   NORMALIZED FREE ENERGY PREDICTED BY IDOCK:   -3.50 KCAL/MOL
REMARK 922        TOTAL FREE ENERGY PREDICTED BY IDOCK:   -6.12 KCAL/MOL
REMARK 923 INTER-LIGAND FREE ENERGY PREDICTED BY IDOCK:   -6.23 KCAL/MOL
REMARK 924 INTRA-LIGAND FREE ENERGY PREDICTED BY IDOCK:    0.11 KCAL/MOL
REMARK 927      BINDING AFFINITY PREDICTED BY RF-SCORE:    0.00 PKD
ROOT
HETATM    1  C   UNL     1      -8.278  17.066  68.725  1.00  0.00    -0.245 C  
HETATM    2  C   UNL     1      -8.150  15.589  69.074  1.00  0.00    -0.220 C  
ENDROOT
BRANCH   2   3
HETATM    3  C   UNL     1      -8.918  14.704  68.078  1.00  0.00    -0.174 C  
BRANCH   3   4
HETATM    4  N   UNL     1      -9.702  13.591  68.658  1.00  0.00    -0.157 NA 
BRANCH   4   5
HETATM    5  C   UNL     1      -9.429  12.305  67.984  1.00  0.00    -0.206 C  
BRANCH   5   6
HETATM    6  C   UNL     1      -8.308  12.387  66.929  1.00  0.00    -0.117 C  
BRANCH   6   7
HETATM    7  C   UNL     1      -8.183  11.090  66.179  1.00  0.00    -0.155 A  
HETATM    8  S   UNL     1      -6.633  10.440  65.840  1.00  0.00    -0.129 SA 
HETATM    9  C   UNL     1      -9.191  10.290  65.680  1.00  0.00    -0.225 A  
HETATM   10  C   UNL     1      -8.683   9.149  64.995  1.00  0.00    -0.222 A  
HETATM   11  C   UNL     1      -7.308   9.111  65.005  1.00  0.00    -0.100 A  
ENDBRANCH   6   7
ENDBRANCH   5   6
ENDBRANCH   4   5
BRANCH   4  12
HETATM   12  C   UNL     1     -11.153  13.894  68.825  1.00  0.00    -0.265 C  
HETATM   13  C   UNL     1     -11.544  15.351  68.482  1.00  0.00    -0.373 C  
HETATM   14  C   UNL     1     -12.080  13.031  67.922  1.00  0.00    -0.234 C  
HETATM   15  C   UNL     1     -11.180  15.710  67.039  1.00  0.00    -0.127 C  
HETATM   16  C   UNL     1     -11.981  13.378  66.449  1.00  0.00    -0.457 A  
HETATM   17  C   UNL     1     -12.360  12.418  65.498  1.00  0.00    -0.250 A  
HETATM   18  C   UNL     1     -11.572  14.661  66.026  1.00  0.00    -0.328 A  
HETATM   19  C   UNL     1     -12.300  12.706  64.134  1.00  0.00    -0.518 A  
HETATM   20  C   UNL     1     -11.497  14.920  64.648  1.00  0.00    -0.379 A  
HETATM   21  O   UNL     1     -11.062  16.112  64.139  1.00  0.00    -1.113 OA 
HETATM   22  H   UNL     1     -11.011  16.288  63.207  1.00  0.00     0.000 HD 
HETATM   23  C   UNL     1     -11.864  13.956  63.710  1.00  0.00    -0.234 A  
ENDBRANCH   4  12
ENDBRANCH   3   4
ENDBRANCH   2   3
TORSDOF 6
ENDMDL
MODEL      127
REMARK 921   NORMALIZED FREE ENERGY PREDICTED BY IDOCK:   -3.50 KCAL/MOL
REMARK 922        TOTAL FREE ENERGY PREDICTED BY IDOCK:   -6.12 KCAL/MOL
REMARK 923 INTER-LIGAND FREE ENERGY PREDICTED BY IDOCK:   -5.11 KCAL/MOL
REMARK 924 INTRA-LIGAND FREE ENERGY PREDICTED BY IDOCK:   -1.01 KCAL/MOL
REMARK 927      BINDING AFFINITY PREDICTED BY RF-SCORE:    0.00 PKD
ROOT
HETATM    1  C   UNL     1     -11.379   1.976  73.121  1.00  0.00    -0.178 C  
HETATM    2  C   UNL     1     -10.708   3.046  73.972  1.00  0.00    -0.278 C  
ENDROOT
BRANCH   2   3
HETATM    3  C   UNL     1      -9.342   3.453  73.395  1.00  0.00    -0.100 C  
BRANCH   3   4
HETATM    4  N   UNL     1      -9.212   4.856  72.942  1.00  0.00    -0.130 NA 
BRANCH   4   5
HETATM    5  C   UNL     1      -8.111   5.030  71.973  1.00  0.00    -0.112 C  
BRANCH   5   6
HETATM    6  C   UNL     1      -8.407   4.425  70.586  1.00  0.00    -0.086 C  
BRANCH   6   7
HETATM    7  C   UNL     1      -9.315   5.322  69.792  1.00  0.00    -0.134 A  
HETATM    8  S   UNL     1      -8.674   6.299  68.538  1.00  0.00    -0.111 SA 
HETATM    9  C   UNL     1     -10.677   5.499  69.931  1.00  0.00    -0.358 A  
HETATM   10  C   UNL     1     -11.190   6.462  69.015  1.00  0.00    -0.402 A  
HETATM   11  C   UNL     1     -10.206   6.976  68.202  1.00  0.00    -0.181 A  
ENDBRANCH   6   7
ENDBRANCH   5   6
ENDBRANCH   4   5
BRANCH   4  12
HETATM   12  C   UNL     1      -9.211   5.853  74.051  1.00  0.00    -0.129 C  
HETATM   13  C   UNL     1      -8.114   6.937  73.933  1.00  0.00    -0.135 C  
HETATM   14  C   UNL     1     -10.533   6.664  74.164  1.00  0.00    -0.251 C  
HETATM   15  C   UNL     1      -8.236   7.727  72.627  1.00  0.00    -0.171 C  
HETATM   16  C   UNL     1     -10.739   7.645  73.025  1.00  0.00    -0.449 A  
HETATM   17  C   UNL     1     -12.041   8.077  72.728  1.00  0.00    -0.188 A  
HETATM   18  C   UNL     1      -9.644   8.168  72.305  1.00  0.00    -0.319 A  
HETATM   19  C   UNL     1     -12.268   8.992  71.700  1.00  0.00    -0.418 A  
HETATM   20  C   UNL     1      -9.900   9.070  71.259  1.00  0.00    -0.306 A  
HETATM   21  O   UNL     1      -8.913   9.591  70.469  1.00  0.00    -0.242 OA 
HETATM   22  H   UNL     1      -9.085  10.201  69.762  1.00  0.00     0.000 HD 
HETATM   23  C   UNL     1     -11.197   9.484  70.963  1.00  0.00    -0.432 A  
ENDBRANCH   4  12
ENDBRANCH   3   4
ENDBRANCH   2   3
TORSDOF 6
ENDMDL
MODEL      128
REMARK 921   NORMALIZED FREE ENERGY PREDICTED BY IDOCK:   -3.47 KCAL/MOL
REMARK 922        TOTAL FREE ENERGY PREDICTED BY IDOCK:   -6.08 KCAL/MOL
REMARK 923 INTER-LIGAND FREE ENERGY PREDICTED BY IDOCK:   -4.72 KCAL/MOL
REMARK 924 INTRA-LIGAND FREE ENERGY PREDICTED BY IDOCK:   -1.37 KCAL/MOL
REMARK 927      BINDING AFFINITY PREDICTED BY RF-SCORE:    0.00 PKD
ROOT
HETATM    1  C   UNL     1      -9.612   7.877  66.402  1.00  0.00    -0.251 C  
HETATM    2  C   UNL     1      -8.297   8.249  65.730  1.00  0.00    -0.142 C  
ENDROOT
BRANCH   2   3
HETATM    3  C   UNL     1      -7.194   8.532  66.765  1.00  0.00    -0.075 C  
BRANCH   3   4
HETATM    4  N   UNL     1      -7.578   9.377  67.918  1.00  0.00    -0.087 NA 
BRANCH   4   5
HETATM    5  C   UNL     1      -7.277  10.804  67.689  1.00  0.00    -0.092 C  
BRANCH   5   6
HETATM    6  C   UNL     1      -7.995  11.398  66.460  1.00  0.00    -0.128 C  
BRANCH   6   7
HETATM    7  C   UNL     1      -9.361  11.905  66.831  1.00  0.00    -0.196 A  
HETATM    8  S   UNL     1     -10.641  11.835  65.693  1.00  0.00    -0.277 SA 
HETATM    9  C   UNL     1      -9.771  12.463  68.025  1.00  0.00    -0.210 A  
HETATM   10  C   UNL     1     -11.140  12.857  67.993  1.00  0.00    -0.283 A  
HETATM   11  C   UNL     1     -11.729  12.574  66.782  1.00  0.00    -0.384 A  
ENDBRANCH   6   7
ENDBRANCH   5   6
ENDBRANCH   4   5
BRANCH   4  12
HETATM   12  C   UNL     1      -7.103   8.858  69.234  1.00  0.00    -0.058 C  
HETATM   13  C   UNL     1      -7.729   9.561  70.461  1.00  0.00    -0.177 C  
HETATM   14  C   UNL     1      -7.416   7.351  69.461  1.00  0.00    -0.090 C  
HETATM   15  C   UNL     1      -9.255   9.444  70.463  1.00  0.00    -0.314 C  
HETATM   16  C   UNL     1      -8.891   7.066  69.664  1.00  0.00    -0.141 A  
HETATM   17  C   UNL     1      -9.375   5.773  69.405  1.00  0.00    -0.151 A  
HETATM   18  C   UNL     1      -9.766   8.055  70.161  1.00  0.00    -0.176 A  
HETATM   19  C   UNL     1     -10.722   5.467  69.598  1.00  0.00    -0.349 A  
HETATM   20  C   UNL     1     -11.123   7.730  70.324  1.00  0.00    -0.234 A  
HETATM   21  O   UNL     1     -12.057   8.634  70.748  1.00  0.00    -0.457 OA 
HETATM   22  H   UNL     1     -12.975   8.415  70.859  1.00  0.00     0.000 HD 
HETATM   23  C   UNL     1     -11.596   6.448  70.053  1.00  0.00    -0.446 A  
ENDBRANCH   4  12
ENDBRANCH   3   4
ENDBRANCH   2   3
TORSDOF 6
ENDMDL
MODEL      129
REMARK 921   NORMALIZED FREE ENERGY PREDICTED BY IDOCK:   -3.46 KCAL/MOL
REMARK 922        TOTAL FREE ENERGY PREDICTED BY IDOCK:   -6.07 KCAL/MOL
REMARK 923 INTER-LIGAND FREE ENERGY PREDICTED BY IDOCK:   -5.55 KCAL/MOL
REMARK 924 INTRA-LIGAND FREE ENERGY PREDICTED BY IDOCK:   -0.51 KCAL/MOL
REMARK 927      BINDING AFFINITY PREDICTED BY RF-SCORE:    0.00 PKD
ROOT
HETATM    1  C   UNL     1     -12.091  14.946  70.221  1.00  0.00    -0.379 C  
HETATM    2  C   UNL     1     -10.614  15.302  70.117  1.00  0.00    -0.279 C  
ENDROOT
BRANCH   2   3
HETATM    3  C   UNL     1      -9.976  14.700  68.854  1.00  0.00    -0.228 C  
BRANCH   3   4
HETATM    4  N   UNL     1      -9.710  15.639  67.741  1.00  0.00    -0.218 NA 
BRANCH   4   5
HETATM    5  C   UNL     1     -10.920  15.913  66.940  1.00  0.00    -0.172 C  
BRANCH   5   6
HETATM    6  C   UNL     1     -10.716  15.712  65.424  1.00  0.00    -0.424 C  
BRANCH   6   7
HETATM    7  C   UNL     1     -11.189  14.351  64.996  1.00  0.00    -0.375 A  
HETATM    8  S   UNL     1     -12.757  13.811  65.430  1.00  0.00    -0.402 SA 
HETATM    9  C   UNL     1     -10.507  13.400  64.264  1.00  0.00    -0.325 A  
HETATM   10  C   UNL     1     -11.272  12.212  64.081  1.00  0.00    -0.433 A  
HETATM   11  C   UNL     1     -12.513  12.303  64.668  1.00  0.00    -0.341 A  
ENDBRANCH   6   7
ENDBRANCH   5   6
ENDBRANCH   4   5
BRANCH   4  12
HETATM   12  C   UNL     1      -8.508  15.292  66.929  1.00  0.00    -0.252 C  
HETATM   13  C   UNL     1      -7.605  16.497  66.576  1.00  0.00    -0.304 C  
HETATM   14  C   UNL     1      -7.545  14.293  67.633  1.00  0.00    -0.191 C  
HETATM   15  C   UNL     1      -7.101  17.213  67.832  1.00  0.00    -0.170 C  
HETATM   16  C   UNL     1      -6.810  14.894  68.815  1.00  0.00    -0.102 A  
HETATM   17  C   UNL     1      -6.304  14.039  69.807  1.00  0.00    -0.134 A  
HETATM   18  C   UNL     1      -6.579  16.283  68.902  1.00  0.00    -0.150 A  
HETATM   19  C   UNL     1      -5.606  14.553  70.899  1.00  0.00    -0.171 A  
HETATM   20  C   UNL     1      -5.894  16.780  70.024  1.00  0.00    -0.210 A  
HETATM   21  O   UNL     1      -5.668  18.113  70.225  1.00  0.00    -0.247 OA 
HETATM   22  H   UNL     1      -5.205  18.450  70.983  1.00  0.00     0.000 HD 
HETATM   23  C   UNL     1      -5.406  15.925  71.009  1.00  0.00    -0.050 A  
ENDBRANCH   4  12
ENDBRANCH   3   4
ENDBRANCH   2   3
TORSDOF 6
ENDMDL
MODEL      130
REMARK 921   NORMALIZED FREE ENERGY PREDICTED BY IDOCK:   -3.44 KCAL/MOL
REMARK 922        TOTAL FREE ENERGY PREDICTED BY IDOCK:   -6.04 KCAL/MOL
REMARK 923 INTER-LIGAND FREE ENERGY PREDICTED BY IDOCK:   -5.46 KCAL/MOL
REMARK 924 INTRA-LIGAND FREE ENERGY PREDICTED BY IDOCK:   -0.59 KCAL/MOL
REMARK 927      BINDING AFFINITY PREDICTED BY RF-SCORE:    0.00 PKD
ROOT
HETATM    1  C   UNL     1      -8.852  10.023  64.643  1.00  0.00    -0.227 C  
HETATM    2  C   UNL     1      -8.495   9.751  66.098  1.00  0.00    -0.130 C  
ENDROOT
BRANCH   2   3
HETATM    3  C   UNL     1      -9.686   9.162  66.872  1.00  0.00    -0.194 C  
BRANCH   3   4
HETATM    4  N   UNL     1      -9.666   9.339  68.342  1.00  0.00    -0.151 NA 
BRANCH   4   5
HETATM    5  C   UNL     1     -10.065  10.703  68.745  1.00  0.00    -0.191 C  
BRANCH   5   6
HETATM    6  C   UNL     1     -11.519  11.058  68.373  1.00  0.00    -0.378 C  
BRANCH   6   7
HETATM    7  C   UNL     1     -11.581  12.378  67.657  1.00  0.00    -0.357 A  
HETATM    8  S   UNL     1     -11.937  12.429  65.981  1.00  0.00    -0.242 SA 
HETATM    9  C   UNL     1     -11.375  13.642  68.173  1.00  0.00    -0.321 A  
HETATM   10  C   UNL     1     -11.488  14.654  67.177  1.00  0.00    -0.380 A  
HETATM   11  C   UNL     1     -11.787  14.130  65.940  1.00  0.00    -0.384 A  
ENDBRANCH   6   7
ENDBRANCH   5   6
ENDBRANCH   4   5
BRANCH   4  12
HETATM   12  C   UNL     1      -8.417   8.852  68.994  1.00  0.00    -0.133 C  
HETATM   13  C   UNL     1      -8.191   9.393  70.425  1.00  0.00    -0.214 C  
HETATM   14  C   UNL     1      -8.361   7.307  69.161  1.00  0.00    -0.132 C  
HETATM   15  C   UNL     1      -9.349   9.029  71.358  1.00  0.00    -0.310 C  
HETATM   16  C   UNL     1      -9.336   6.776  70.195  1.00  0.00    -0.159 A  
HETATM   17  C   UNL     1      -9.740   5.434  70.120  1.00  0.00    -0.252 A  
HETATM   18  C   UNL     1      -9.792   7.588  71.254  1.00  0.00    -0.188 A  
HETATM   19  C   UNL     1     -10.621   4.904  71.064  1.00  0.00    -0.085 A  
HETATM   20  C   UNL     1     -10.697   7.040  72.178  1.00  0.00    -0.218 A  
HETATM   21  O   UNL     1     -11.236   7.761  73.207  1.00  0.00    -0.511 OA 
HETATM   22  H   UNL     1     -11.848   7.390  73.832  1.00  0.00     0.000 HD 
HETATM   23  C   UNL     1     -11.102   5.710  72.089  1.00  0.00    -0.300 A  
ENDBRANCH   4  12
ENDBRANCH   3   4
ENDBRANCH   2   3
TORSDOF 6
ENDMDL
MODEL      131
REMARK 921   NORMALIZED FREE ENERGY PREDICTED BY IDOCK:   -3.43 KCAL/MOL
REMARK 922        TOTAL FREE ENERGY PREDICTED BY IDOCK:   -6.03 KCAL/MOL
REMARK 923 INTER-LIGAND FREE ENERGY PREDICTED BY IDOCK:   -6.48 KCAL/MOL
REMARK 924 INTRA-LIGAND FREE ENERGY PREDICTED BY IDOCK:    0.45 KCAL/MOL
REMARK 927      BINDING AFFINITY PREDICTED BY RF-SCORE:    0.00 PKD
ROOT
HETATM    1  C   UNL     1     -10.328  17.877  66.910  1.00  0.00    -0.358 C  
HETATM    2  C   UNL     1      -9.652  16.515  66.994  1.00  0.00    -0.249 C  
ENDROOT
BRANCH   2   3
HETATM    3  C   UNL     1     -10.060  15.760  68.271  1.00  0.00    -0.222 C  
BRANCH   3   4
HETATM    4  N   UNL     1      -9.711  14.323  68.323  1.00  0.00    -0.215 NA 
BRANCH   4   5
HETATM    5  C   UNL     1      -8.905  13.901  67.160  1.00  0.00    -0.226 C  
BRANCH   5   6
HETATM    6  C   UNL     1      -7.552  13.267  67.542  1.00  0.00    -0.169 C  
BRANCH   6   7
HETATM    7  C   UNL     1      -6.769  14.180  68.443  1.00  0.00    -0.105 A  
HETATM    8  S   UNL     1      -6.037  15.594  67.807  1.00  0.00    -0.154 SA 
HETATM    9  C   UNL     1      -6.523  14.044  69.795  1.00  0.00    -0.115 A  
HETATM   10  C   UNL     1      -5.709  15.097  70.303  1.00  0.00    -0.144 A  
HETATM   11  C   UNL     1      -5.372  16.006  69.325  1.00  0.00    -0.112 A  
ENDBRANCH   6   7
ENDBRANCH   5   6
ENDBRANCH   4   5
BRANCH   4  12
HETATM   12  C   UNL     1     -10.867  13.429  68.619  1.00  0.00    -0.263 C  
HETATM   13  C   UNL     1     -12.238  13.989  68.171  1.00  0.00    -0.191 C  
HETATM   14  C   UNL     1     -10.780  12.042  67.920  1.00  0.00    -0.243 C  
HETATM   15  C   UNL     1     -12.270  14.273  66.667  1.00  0.00    -0.411 C  
HETATM   16  C   UNL     1     -10.970  12.110  66.417  1.00  0.00    -0.327 A  
HETATM   17  C   UNL     1     -10.459  11.074  65.620  1.00  0.00    -0.293 A  
HETATM   18  C   UNL     1     -11.698  13.161  65.819  1.00  0.00    -0.415 A  
HETATM   19  C   UNL     1     -10.630  11.092  64.235  1.00  0.00    -0.425 A  
HETATM   20  C   UNL     1     -11.837  13.171  64.422  1.00  0.00    -0.388 A  
HETATM   21  O   UNL     1     -12.476  14.172  63.746  1.00  0.00    -0.910 OA 
HETATM   22  H   UNL     1     -12.571  14.179  62.801  1.00  0.00     0.000 HD 
HETATM   23  C   UNL     1     -11.315  12.144  63.637  1.00  0.00    -0.545 A  
ENDBRANCH   4  12
ENDBRANCH   3   4
ENDBRANCH   2   3
TORSDOF 6
ENDMDL
MODEL      132
REMARK 921   NORMALIZED FREE ENERGY PREDICTED BY IDOCK:   -3.43 KCAL/MOL
REMARK 922        TOTAL FREE ENERGY PREDICTED BY IDOCK:   -6.02 KCAL/MOL
REMARK 923 INTER-LIGAND FREE ENERGY PREDICTED BY IDOCK:   -5.20 KCAL/MOL
REMARK 924 INTRA-LIGAND FREE ENERGY PREDICTED BY IDOCK:   -0.82 KCAL/MOL
REMARK 927      BINDING AFFINITY PREDICTED BY RF-SCORE:    0.00 PKD
ROOT
HETATM    1  C   UNL     1     -12.397  12.598  70.709  1.00  0.00    -0.372 C  
HETATM    2  C   UNL     1     -12.155  11.096  70.648  1.00  0.00    -0.477 C  
ENDROOT
BRANCH   2   3
HETATM    3  C   UNL     1     -11.891  10.625  69.208  1.00  0.00    -0.237 C  
BRANCH   3   4
HETATM    4  N   UNL     1     -10.482  10.335  68.859  1.00  0.00    -0.198 NA 
BRANCH   4   5
HETATM    5  C   UNL     1      -9.963  11.251  67.823  1.00  0.00    -0.176 C  
BRANCH   5   6
HETATM    6  C   UNL     1      -8.570  11.827  68.148  1.00  0.00    -0.160 C  
BRANCH   6   7
HETATM    7  C   UNL     1      -8.494  13.283  67.783  1.00  0.00    -0.181 A  
HETATM    8  S   UNL     1      -9.930  14.211  67.654  1.00  0.00    -0.236 SA 
HETATM    9  C   UNL     1      -7.372  14.038  67.508  1.00  0.00    -0.187 A  
HETATM   10  C   UNL     1      -7.699  15.382  67.167  1.00  0.00    -0.246 A  
HETATM   11  C   UNL     1      -9.056  15.609  67.206  1.00  0.00    -0.205 A  
ENDBRANCH   6   7
ENDBRANCH   5   6
ENDBRANCH   4   5
BRANCH   4  12
HETATM   12  C   UNL     1     -10.208   8.894  68.591  1.00  0.00    -0.200 C  
HETATM   13  C   UNL     1      -8.714   8.503  68.670  1.00  0.00    -0.139 C  
HETATM   14  C   UNL     1     -10.904   7.929  69.592  1.00  0.00    -0.177 C  
HETATM   15  C   UNL     1      -8.117   8.820  70.044  1.00  0.00    -0.111 C  
HETATM   16  C   UNL     1     -10.315   7.979  70.989  1.00  0.00    -0.228 A  
HETATM   17  C   UNL     1     -11.101   7.558  72.073  1.00  0.00    -0.288 A  
HETATM   18  C   UNL     1      -8.980   8.383  71.204  1.00  0.00    -0.207 A  
HETATM   19  C   UNL     1     -10.587   7.572  73.370  1.00  0.00    -0.409 A  
HETATM   20  C   UNL     1      -8.493   8.412  72.522  1.00  0.00    -0.162 A  
HETATM   21  O   UNL     1      -7.233   8.839  72.838  1.00  0.00    -0.337 OA 
HETATM   22  H   UNL     1      -6.903   8.858  73.729  1.00  0.00     0.000 HD 
HETATM   23  C   UNL     1      -9.284   8.004  73.593  1.00  0.00    -0.269 A  
ENDBRANCH   4  12
ENDBRANCH   3   4
ENDBRANCH   2   3
TORSDOF 6
ENDMDL
MODEL      133
REMARK 921   NORMALIZED FREE ENERGY PREDICTED BY IDOCK:   -3.40 KCAL/MOL
REMARK 922        TOTAL FREE ENERGY PREDICTED BY IDOCK:   -5.99 KCAL/MOL
REMARK 923 INTER-LIGAND FREE ENERGY PREDICTED BY IDOCK:   -5.29 KCAL/MOL
REMARK 924 INTRA-LIGAND FREE ENERGY PREDICTED BY IDOCK:   -0.70 KCAL/MOL
REMARK 927      BINDING AFFINITY PREDICTED BY RF-SCORE:    0.00 PKD
ROOT
HETATM    1  C   UNL     1      -6.855   9.814  70.451  1.00  0.00    -0.135 C  
HETATM    2  C   UNL     1      -6.600   8.968  69.211  1.00  0.00    -0.049 C  
ENDROOT
BRANCH   2   3
HETATM    3  C   UNL     1      -7.863   8.205  68.778  1.00  0.00    -0.113 C  
BRANCH   3   4
HETATM    4  N   UNL     1      -9.012   9.030  68.343  1.00  0.00    -0.134 NA 
BRANCH   4   5
HETATM    5  C   UNL     1     -10.307   8.418  68.702  1.00  0.00    -0.197 C  
BRANCH   5   6
HETATM    6  C   UNL     1     -10.394   7.974  70.176  1.00  0.00    -0.215 C  
BRANCH   6   7
HETATM    7  C   UNL     1     -11.494   8.705  70.892  1.00  0.00    -0.275 A  
HETATM    8  S   UNL     1     -11.763  10.370  70.581  1.00  0.00    -0.369 SA 
HETATM    9  C   UNL     1     -12.378   8.214  71.832  1.00  0.00    -0.371 A  
HETATM   10  C   UNL     1     -13.264   9.219  72.314  1.00  0.00    -0.535 A  
HETATM   11  C   UNL     1     -13.035  10.438  71.718  1.00  0.00    -0.475 A  
ENDBRANCH   6   7
ENDBRANCH   5   6
ENDBRANCH   4   5
BRANCH   4  12
HETATM   12  C   UNL     1      -8.927   9.489  66.927  1.00  0.00    -0.131 C  
HETATM   13  C   UNL     1     -10.286   9.875  66.298  1.00  0.00    -0.282 C  
HETATM   14  C   UNL     1      -8.046  10.756  66.732  1.00  0.00    -0.137 C  
HETATM   15  C   UNL     1     -10.976  10.993  67.085  1.00  0.00    -0.344 C  
HETATM   16  C   UNL     1      -8.667  12.016  67.303  1.00  0.00    -0.175 A  
HETATM   17  C   UNL     1      -7.832  13.095  67.633  1.00  0.00    -0.169 A  
HETATM   18  C   UNL     1     -10.064  12.139  67.453  1.00  0.00    -0.208 A  
HETATM   19  C   UNL     1      -8.368  14.278  68.143  1.00  0.00    -0.162 A  
HETATM   20  C   UNL     1     -10.579  13.330  67.992  1.00  0.00    -0.240 A  
HETATM   21  O   UNL     1     -11.912  13.525  68.225  1.00  0.00    -0.356 OA 
HETATM   22  H   UNL     1     -12.260  14.331  68.589  1.00  0.00     0.000 HD 
HETATM   23  C   UNL     1      -9.741  14.392  68.327  1.00  0.00    -0.222 A  
ENDBRANCH   4  12
ENDBRANCH   3   4
ENDBRANCH   2   3
TORSDOF 6
ENDMDL
MODEL      134
REMARK 921   NORMALIZED FREE ENERGY PREDICTED BY IDOCK:   -3.38 KCAL/MOL
REMARK 922        TOTAL FREE ENERGY PREDICTED BY IDOCK:   -5.96 KCAL/MOL
REMARK 923 INTER-LIGAND FREE ENERGY PREDICTED BY IDOCK:   -4.82 KCAL/MOL
REMARK 924 INTRA-LIGAND FREE ENERGY PREDICTED BY IDOCK:   -1.14 KCAL/MOL
REMARK 927      BINDING AFFINITY PREDICTED BY RF-SCORE:    0.00 PKD
ROOT
HETATM    1  C   UNL     1      -5.691   9.817  69.955  1.00  0.00    -0.042 C  
HETATM    2  C   UNL     1      -5.775   9.920  68.438  1.00  0.00    -0.042 C  
ENDROOT
BRANCH   2   3
HETATM    3  C   UNL     1      -6.373   8.645  67.819  1.00  0.00    -0.057 C  
BRANCH   3   4
HETATM    4  N   UNL     1      -7.847   8.523  67.861  1.00  0.00    -0.103 NA 
BRANCH   4   5
HETATM    5  C   UNL     1      -8.285   7.244  68.454  1.00  0.00    -0.125 C  
BRANCH   5   6
HETATM    6  C   UNL     1      -7.808   7.041  69.906  1.00  0.00    -0.114 C  
BRANCH   6   7
HETATM    7  C   UNL     1      -8.826   7.560  70.883  1.00  0.00    -0.144 A  
HETATM    8  S   UNL     1      -9.316   6.591  72.209  1.00  0.00    -0.135 SA 
HETATM    9  C   UNL     1      -9.479   8.776  70.872  1.00  0.00    -0.269 A  
HETATM   10  C   UNL     1     -10.404   8.900  71.948  1.00  0.00    -0.407 A  
HETATM   11  C   UNL     1     -10.416   7.781  72.749  1.00  0.00    -0.328 A  
ENDBRANCH   6   7
ENDBRANCH   5   6
ENDBRANCH   4   5
BRANCH   4  12
HETATM   12  C   UNL     1      -8.520   8.859  66.573  1.00  0.00    -0.119 C  
HETATM   13  C   UNL     1      -9.974   8.347  66.459  1.00  0.00    -0.335 C  
HETATM   14  C   UNL     1      -8.635  10.387  66.307  1.00  0.00    -0.147 C  
HETATM   15  C   UNL     1     -10.859   8.902  67.579  1.00  0.00    -0.108 C  
HETATM   16  C   UNL     1      -9.620  11.086  67.225  1.00  0.00    -0.183 A  
HETATM   17  C   UNL     1      -9.488  12.467  67.438  1.00  0.00    -0.184 A  
HETATM   18  C   UNL     1     -10.693  10.385  67.815  1.00  0.00    -0.327 A  
HETATM   19  C   UNL     1     -10.386  13.148  68.260  1.00  0.00    -0.256 A  
HETATM   20  C   UNL     1     -11.570  11.087  68.658  1.00  0.00    -0.316 A  
HETATM   21  O   UNL     1     -12.606  10.487  69.318  1.00  0.00    -0.726 OA 
HETATM   22  H   UNL     1     -13.199  10.961  69.888  1.00  0.00     0.000 HD 
HETATM   23  C   UNL     1     -11.423  12.456  68.874  1.00  0.00    -0.355 A  
ENDBRANCH   4  12
ENDBRANCH   3   4
ENDBRANCH   2   3
TORSDOF 6
ENDMDL
MODEL      135
REMARK 921   NORMALIZED FREE ENERGY PREDICTED BY IDOCK:   -3.37 KCAL/MOL
REMARK 922        TOTAL FREE ENERGY PREDICTED BY IDOCK:   -5.94 KCAL/MOL
REMARK 923 INTER-LIGAND FREE ENERGY PREDICTED BY IDOCK:   -5.61 KCAL/MOL
REMARK 924 INTRA-LIGAND FREE ENERGY PREDICTED BY IDOCK:   -0.33 KCAL/MOL
REMARK 927      BINDING AFFINITY PREDICTED BY RF-SCORE:    0.00 PKD
ROOT
HETATM    1  C   UNL     1      -7.633   9.414  65.350  1.00  0.00    -0.100 C  
HETATM    2  C   UNL     1      -8.037  10.807  65.813  1.00  0.00    -0.135 C  
ENDROOT
BRANCH   2   3
HETATM    3  C   UNL     1      -9.381  10.786  66.560  1.00  0.00    -0.168 C  
BRANCH   3   4
HETATM    4  N   UNL     1      -9.418  11.485  67.865  1.00  0.00    -0.172 NA 
BRANCH   4   5
HETATM    5  C   UNL     1      -8.698  10.741  68.918  1.00  0.00    -0.152 C  
BRANCH   5   6
HETATM    6  C   UNL     1      -8.981   9.225  68.907  1.00  0.00    -0.136 C  
BRANCH   6   7
HETATM    7  C   UNL     1     -10.028   8.868  69.924  1.00  0.00    -0.188 A  
HETATM    8  S   UNL     1     -10.741   7.309  69.912  1.00  0.00    -0.244 SA 
HETATM    9  C   UNL     1     -10.548   9.658  70.930  1.00  0.00    -0.386 A  
HETATM   10  C   UNL     1     -11.554   8.982  71.678  1.00  0.00    -0.426 A  
HETATM   11  C   UNL     1     -11.759   7.698  71.227  1.00  0.00    -0.284 A  
ENDBRANCH   6   7
ENDBRANCH   5   6
ENDBRANCH   4   5
BRANCH   4  12
HETATM   12  C   UNL     1     -10.779  11.945  68.267  1.00  0.00    -0.223 C  
HETATM   13  C   UNL     1     -10.909  13.476  68.440  1.00  0.00    -0.286 C  
HETATM   14  C   UNL     1     -11.890  11.585  67.240  1.00  0.00    -0.061 C  
HETATM   15  C   UNL     1     -10.550  14.224  67.153  1.00  0.00    -0.279 C  
HETATM   16  C   UNL     1     -11.795  12.373  65.948  1.00  0.00    -0.467 A  
HETATM   17  C   UNL     1     -12.389  11.850  64.788  1.00  0.00    -0.027 A  
HETATM   18  C   UNL     1     -11.176  13.641  65.908  1.00  0.00    -0.311 A  
HETATM   19  C   UNL     1     -12.339  12.555  63.585  1.00  0.00    -0.618 A  
HETATM   20  C   UNL     1     -11.118  14.320  64.681  1.00  0.00    -0.363 A  
HETATM   21  O   UNL     1     -10.493  15.527  64.529  1.00  0.00    -0.605 OA 
HETATM   22  H   UNL     1     -10.454  15.988  63.699  1.00  0.00     0.000 HD 
HETATM   23  C   UNL     1     -11.699  13.788  63.532  1.00  0.00     0.022 A  
ENDBRANCH   4  12
ENDBRANCH   3   4
ENDBRANCH   2   3
TORSDOF 6
ENDMDL
MODEL      136
REMARK 921   NORMALIZED FREE ENERGY PREDICTED BY IDOCK:   -3.36 KCAL/MOL
REMARK 922        TOTAL FREE ENERGY PREDICTED BY IDOCK:   -5.94 KCAL/MOL
REMARK 923 INTER-LIGAND FREE ENERGY PREDICTED BY IDOCK:   -4.59 KCAL/MOL
REMARK 924 INTRA-LIGAND FREE ENERGY PREDICTED BY IDOCK:   -1.35 KCAL/MOL
REMARK 927      BINDING AFFINITY PREDICTED BY RF-SCORE:    0.00 PKD
ROOT
HETATM    1  C   UNL     1      -9.873  15.171  64.901  1.00  0.00     0.116 C  
HETATM    2  C   UNL     1     -11.320  15.640  64.974  1.00  0.00    -0.255 C  
ENDROOT
BRANCH   2   3
HETATM    3  C   UNL     1     -11.721  16.015  66.410  1.00  0.00     0.815 C  
BRANCH   3   4
HETATM    4  N   UNL     1     -11.298  15.079  67.475  1.00  0.00    -0.331 NA 
BRANCH   4   5
HETATM    5  C   UNL     1     -12.285  14.004  67.699  1.00  0.00    -0.200 C  
BRANCH   5   6
HETATM    6  C   UNL     1     -11.684  12.586  67.615  1.00  0.00    -0.423 C  
BRANCH   6   7
HETATM    7  C   UNL     1     -11.410  12.204  66.187  1.00  0.00    -0.361 A  
HETATM    8  S   UNL     1     -12.514  12.647  64.953  1.00  0.00    -0.422 SA 
HETATM    9  C   UNL     1     -10.339  11.495  65.682  1.00  0.00    -0.308 A  
HETATM   10  C   UNL     1     -10.440  11.298  64.275  1.00  0.00    -0.419 A  
HETATM   11  C   UNL     1     -11.577  11.871  63.754  1.00  0.00    -0.462 A  
ENDBRANCH   6   7
ENDBRANCH   5   6
ENDBRANCH   4   5
BRANCH   4  12
HETATM   12  C   UNL     1     -10.836  15.750  68.725  1.00  0.00    -0.274 C  
HETATM   13  C   UNL     1      -9.818  14.931  69.551  1.00  0.00    -0.071 C  
HETATM   14  C   UNL     1     -10.117  17.107  68.476  1.00  0.00    -0.329 C  
HETATM   15  C   UNL     1      -8.564  14.600  68.737  1.00  0.00    -0.160 C  
HETATM   16  C   UNL     1      -8.756  16.958  67.825  1.00  0.00    -0.212 A  
HETATM   17  C   UNL     1      -8.217  18.046  67.121  1.00  0.00    -0.231 A  
HETATM   18  C   UNL     1      -8.005  15.772  67.966  1.00  0.00    -0.141 A  
HETATM   19  C   UNL     1      -6.959  17.954  66.525  1.00  0.00    -0.263 A  
HETATM   20  C   UNL     1      -6.751  15.694  67.336  1.00  0.00    -0.183 A  
HETATM   21  O   UNL     1      -5.973  14.570  67.369  1.00  0.00    -0.344 OA 
HETATM   22  H   UNL     1      -5.125  14.517  66.944  1.00  0.00     0.000 HD 
HETATM   23  C   UNL     1      -6.229  16.775  66.629  1.00  0.00    -0.130 A  
ENDBRANCH   4  12
ENDBRANCH   3   4
ENDBRANCH   2   3
TORSDOF 6
ENDMDL
MODEL      137
REMARK 921   NORMALIZED FREE ENERGY PREDICTED BY IDOCK:   -3.35 KCAL/MOL
REMARK 922        TOTAL FREE ENERGY PREDICTED BY IDOCK:   -5.92 KCAL/MOL
REMARK 923 INTER-LIGAND FREE ENERGY PREDICTED BY IDOCK:   -4.95 KCAL/MOL
REMARK 924 INTRA-LIGAND FREE ENERGY PREDICTED BY IDOCK:   -0.97 KCAL/MOL
REMARK 927      BINDING AFFINITY PREDICTED BY RF-SCORE:    0.00 PKD
ROOT
HETATM    1  C   UNL     1     -10.567  11.925  64.539  1.00  0.00    -0.358 C  
HETATM    2  C   UNL     1     -10.008  10.510  64.591  1.00  0.00    -0.415 C  
ENDROOT
BRANCH   2   3
HETATM    3  C   UNL     1     -10.145   9.900  65.996  1.00  0.00    -0.244 C  
BRANCH   3   4
HETATM    4  N   UNL     1      -8.897   9.781  66.784  1.00  0.00    -0.137 NA 
BRANCH   4   5
HETATM    5  C   UNL     1      -8.176   8.523  66.502  1.00  0.00    -0.108 C  
BRANCH   5   6
HETATM    6  C   UNL     1      -8.580   7.359  67.430  1.00  0.00    -0.118 C  
BRANCH   6   7
HETATM    7  C   UNL     1      -9.093   6.193  66.633  1.00  0.00    -0.139 A  
HETATM    8  S   UNL     1      -8.248   5.668  65.237  1.00  0.00    -0.139 SA 
HETATM    9  C   UNL     1     -10.222   5.431  66.861  1.00  0.00    -0.279 A  
HETATM   10  C   UNL     1     -10.403   4.426  65.868  1.00  0.00    -0.234 A  
HETATM   11  C   UNL     1      -9.402   4.448  64.924  1.00  0.00    -0.163 A  
ENDBRANCH   6   7
ENDBRANCH   5   6
ENDBRANCH   4   5
BRANCH   4  12
HETATM   12  C   UNL     1      -9.068  10.073  68.237  1.00  0.00    -0.122 C  
HETATM   13  C   UNL     1      -8.024  11.054  68.818  1.00  0.00    -0.144 C  
HETATM   14  C   UNL     1     -10.436  10.726  68.586  1.00  0.00    -0.213 C  
HETATM   15  C   UNL     1      -8.045  12.400  68.090  1.00  0.00    -0.163 C  
HETATM   16  C   UNL     1     -10.569  12.152  68.088  1.00  0.00    -0.236 A  
HETATM   17  C   UNL     1     -11.852  12.688  67.898  1.00  0.00    -0.388 A  
HETATM   18  C   UNL     1      -9.431  12.959  67.871  1.00  0.00    -0.208 A  
HETATM   19  C   UNL     1     -12.014  14.003  67.459  1.00  0.00    -0.430 A  
HETATM   20  C   UNL     1      -9.619  14.271  67.406  1.00  0.00    -0.214 A  
HETATM   21  O   UNL     1      -8.581  15.112  67.115  1.00  0.00    -0.192 OA 
HETATM   22  H   UNL     1      -8.708  15.999  66.801  1.00  0.00     0.000 HD 
HETATM   23  C   UNL     1     -10.897  14.791  67.209  1.00  0.00    -0.309 A  
ENDBRANCH   4  12
ENDBRANCH   3   4
ENDBRANCH   2   3
TORSDOF 6
ENDMDL
MODEL      138
REMARK 921   NORMALIZED FREE ENERGY PREDICTED BY IDOCK:   -3.35 KCAL/MOL
REMARK 922        TOTAL FREE ENERGY PREDICTED BY IDOCK:   -5.92 KCAL/MOL
REMARK 923 INTER-LIGAND FREE ENERGY PREDICTED BY IDOCK:   -6.14 KCAL/MOL
REMARK 924 INTRA-LIGAND FREE ENERGY PREDICTED BY IDOCK:    0.23 KCAL/MOL
REMARK 927      BINDING AFFINITY PREDICTED BY RF-SCORE:    0.00 PKD
ROOT
HETATM    1  C   UNL     1     -10.142   6.372  68.882  1.00  0.00    -0.187 C  
HETATM    2  C   UNL     1     -11.198   6.821  67.881  1.00  0.00    -0.169 C  
ENDROOT
BRANCH   2   3
HETATM    3  C   UNL     1     -10.771   8.102  67.146  1.00  0.00    -0.194 C  
BRANCH   3   4
HETATM    4  N   UNL     1     -10.076   9.125  67.959  1.00  0.00    -0.185 NA 
BRANCH   4   5
HETATM    5  C   UNL     1     -10.948  10.274  68.276  1.00  0.00    -0.264 C  
BRANCH   5   6
HETATM    6  C   UNL     1     -10.815  10.767  69.731  1.00  0.00    -0.284 C  
BRANCH   6   7
HETATM    7  C   UNL     1     -11.413   9.776  70.689  1.00  0.00    -0.324 A  
HETATM    8  S   UNL     1     -10.409   8.951  71.809  1.00  0.00    -0.337 SA 
HETATM    9  C   UNL     1     -12.734   9.393  70.812  1.00  0.00    -0.070 A  
HETATM   10  C   UNL     1     -12.915   8.400  71.816  1.00  0.00    -0.368 A  
HETATM   11  C   UNL     1     -11.731   8.067  72.433  1.00  0.00    -0.386 A  
ENDBRANCH   6   7
ENDBRANCH   5   6
ENDBRANCH   4   5
BRANCH   4  12
HETATM   12  C   UNL     1      -8.733   9.507  67.434  1.00  0.00    -0.125 C  
HETATM   13  C   UNL     1      -8.438   8.998  66.003  1.00  0.00    -0.138 C  
HETATM   14  C   UNL     1      -8.512  11.043  67.341  1.00  0.00    -0.132 C  
HETATM   15  C   UNL     1      -9.471   9.511  64.996  1.00  0.00    -0.273 C  
HETATM   16  C   UNL     1      -9.338  11.707  66.256  1.00  0.00    -0.228 A  
HETATM   17  C   UNL     1      -9.614  13.080  66.357  1.00  0.00    -0.258 A  
HETATM   18  C   UNL     1      -9.778  10.984  65.127  1.00  0.00    -0.302 A  
HETATM   19  C   UNL     1     -10.354  13.730  65.370  1.00  0.00    -0.347 A  
HETATM   20  C   UNL     1     -10.542  11.655  64.158  1.00  0.00    -0.357 A  
HETATM   21  O   UNL     1     -11.059  11.030  63.057  1.00  0.00    -0.782 OA 
HETATM   22  H   UNL     1     -11.576  11.483  62.401  1.00  0.00     0.000 HD 
HETATM   23  C   UNL     1     -10.822  13.015  64.273  1.00  0.00    -0.430 A  
ENDBRANCH   4  12
ENDBRANCH   3   4
ENDBRANCH   2   3
TORSDOF 6
ENDMDL
MODEL      139
REMARK 921   NORMALIZED FREE ENERGY PREDICTED BY IDOCK:   -3.34 KCAL/MOL
REMARK 922        TOTAL FREE ENERGY PREDICTED BY IDOCK:   -5.90 KCAL/MOL
REMARK 923 INTER-LIGAND FREE ENERGY PREDICTED BY IDOCK:   -6.74 KCAL/MOL
REMARK 924 INTRA-LIGAND FREE ENERGY PREDICTED BY IDOCK:    0.84 KCAL/MOL
REMARK 927      BINDING AFFINITY PREDICTED BY RF-SCORE:    0.00 PKD
ROOT
HETATM    1  C   UNL     1     -12.790  11.867  71.411  1.00  0.00    -0.411 C  
HETATM    2  C   UNL     1     -12.519  10.742  70.421  1.00  0.00    -0.430 C  
ENDROOT
BRANCH   2   3
HETATM    3  C   UNL     1     -11.013  10.573  70.157  1.00  0.00    -0.270 C  
BRANCH   3   4
HETATM    4  N   UNL     1     -10.493  11.178  68.911  1.00  0.00    -0.202 NA 
BRANCH   4   5
HETATM    5  C   UNL     1     -11.504  11.194  67.833  1.00  0.00    -0.284 C  
BRANCH   5   6
HETATM    6  C   UNL     1     -11.778  12.601  67.264  1.00  0.00    -0.435 C  
BRANCH   6   7
HETATM    7  C   UNL     1     -11.723  12.591  65.762  1.00  0.00    -0.426 A  
HETATM    8  S   UNL     1     -10.441  11.788  64.955  1.00  0.00    -0.297 SA 
HETATM    9  C   UNL     1     -12.600  13.174  64.870  1.00  0.00    -0.468 A  
HETATM   10  C   UNL     1     -12.200  12.978  63.517  1.00  0.00    -0.580 A  
HETATM   11  C   UNL     1     -11.041  12.243  63.423  1.00  0.00    -0.418 A  
ENDBRANCH   6   7
ENDBRANCH   5   6
ENDBRANCH   4   5
BRANCH   4  12
HETATM   12  C   UNL     1      -9.163  10.651  68.490  1.00  0.00    -0.170 C  
HETATM   13  C   UNL     1      -8.343  10.004  69.630  1.00  0.00    -0.188 C  
HETATM   14  C   UNL     1      -9.246   9.539  67.405  1.00  0.00    -0.152 C  
HETATM   15  C   UNL     1      -9.097   8.839  70.279  1.00  0.00    -0.185 C  
HETATM   16  C   UNL     1      -9.814   8.232  67.924  1.00  0.00    -0.207 A  
HETATM   17  C   UNL     1     -10.386   7.330  67.012  1.00  0.00    -0.376 A  
HETATM   18  C   UNL     1      -9.726   7.887  69.290  1.00  0.00    -0.159 A  
HETATM   19  C   UNL     1     -10.901   6.110  67.449  1.00  0.00    -0.431 A  
HETATM   20  C   UNL     1     -10.274   6.664  69.709  1.00  0.00    -0.187 A  
HETATM   21  O   UNL     1     -10.285   6.264  71.017  1.00  0.00    -0.185 OA 
HETATM   22  H   UNL     1     -10.655   5.437  71.301  1.00  0.00     0.000 HD 
HETATM   23  C   UNL     1     -10.850   5.780  68.799  1.00  0.00    -0.285 A  
ENDBRANCH   4  12
ENDBRANCH   3   4
ENDBRANCH   2   3
TORSDOF 6
ENDMDL
MODEL      140
REMARK 921   NORMALIZED FREE ENERGY PREDICTED BY IDOCK:   -3.33 KCAL/MOL
REMARK 922        TOTAL FREE ENERGY PREDICTED BY IDOCK:   -5.89 KCAL/MOL
REMARK 923 INTER-LIGAND FREE ENERGY PREDICTED BY IDOCK:   -4.51 KCAL/MOL
REMARK 924 INTRA-LIGAND FREE ENERGY PREDICTED BY IDOCK:   -1.38 KCAL/MOL
REMARK 927      BINDING AFFINITY PREDICTED BY RF-SCORE:    0.00 PKD
ROOT
HETATM    1  C   UNL     1     -11.127   6.011  68.620  1.00  0.00    -0.293 C  
HETATM    2  C   UNL     1      -9.857   5.624  67.874  1.00  0.00    -0.158 C  
ENDROOT
BRANCH   2   3
HETATM    3  C   UNL     1      -8.846   6.782  67.844  1.00  0.00    -0.118 C  
BRANCH   3   4
HETATM    4  N   UNL     1      -9.262   8.035  68.514  1.00  0.00    -0.136 NA 
BRANCH   4   5
HETATM    5  C   UNL     1      -9.579   9.106  67.549  1.00  0.00    -0.150 C  
BRANCH   5   6
HETATM    6  C   UNL     1      -8.333   9.819  66.984  1.00  0.00    -0.117 C  
BRANCH   6   7
HETATM    7  C   UNL     1      -8.302  11.260  67.408  1.00  0.00    -0.137 A  
HETATM    8  S   UNL     1      -9.760  12.069  67.807  1.00  0.00    -0.197 SA 
HETATM    9  C   UNL     1      -7.208  12.094  67.526  1.00  0.00    -0.133 A  
HETATM   10  C   UNL     1      -7.576  13.411  67.925  1.00  0.00    -0.151 A  
HETATM   11  C   UNL     1      -8.934  13.534  68.108  1.00  0.00    -0.187 A  
ENDBRANCH   6   7
ENDBRANCH   5   6
ENDBRANCH   4   5
BRANCH   4  12
HETATM   12  C   UNL     1      -8.355   8.460  69.620  1.00  0.00    -0.122 C  
HETATM   13  C   UNL     1      -8.938   9.562  70.535  1.00  0.00    -0.265 C  
HETATM   14  C   UNL     1      -7.984   7.311  70.600  1.00  0.00    -0.099 C  
HETATM   15  C   UNL     1     -10.253   9.122  71.184  1.00  0.00    -0.384 C  
HETATM   16  C   UNL     1      -9.143   6.859  71.467  1.00  0.00    -0.144 A  
HETATM   17  C   UNL     1      -9.112   5.572  72.027  1.00  0.00    -0.150 A  
HETATM   18  C   UNL     1     -10.216   7.727  71.764  1.00  0.00    -0.235 A  
HETATM   19  C   UNL     1     -10.151   5.128  72.845  1.00  0.00    -0.204 A  
HETATM   20  C   UNL     1     -11.262   7.249  72.570  1.00  0.00    -0.301 A  
HETATM   21  O   UNL     1     -12.369   7.994  72.870  1.00  0.00    -0.616 OA 
HETATM   22  H   UNL     1     -13.076   7.672  73.415  1.00  0.00     0.000 HD 
HETATM   23  C   UNL     1     -11.228   5.966  73.111  1.00  0.00    -0.214 A  
ENDBRANCH   4  12
ENDBRANCH   3   4
ENDBRANCH   2   3
TORSDOF 6
ENDMDL
MODEL      141
REMARK 921   NORMALIZED FREE ENERGY PREDICTED BY IDOCK:   -3.33 KCAL/MOL
REMARK 922        TOTAL FREE ENERGY PREDICTED BY IDOCK:   -5.89 KCAL/MOL
REMARK 923 INTER-LIGAND FREE ENERGY PREDICTED BY IDOCK:   -5.38 KCAL/MOL
REMARK 924 INTRA-LIGAND FREE ENERGY PREDICTED BY IDOCK:   -0.51 KCAL/MOL
REMARK 927      BINDING AFFINITY PREDICTED BY RF-SCORE:    0.00 PKD
ROOT
HETATM    1  C   UNL     1      -8.657   6.605  67.209  1.00  0.00    -0.119 C  
HETATM    2  C   UNL     1      -9.134   7.888  66.541  1.00  0.00    -0.209 C  
ENDROOT
BRANCH   2   3
HETATM    3  C   UNL     1     -10.423   8.418  67.192  1.00  0.00    -0.310 C  
BRANCH   3   4
HETATM    4  N   UNL     1     -10.565   9.889  67.264  1.00  0.00    -0.258 NA 
BRANCH   4   5
HETATM    5  C   UNL     1     -10.622  10.511  65.925  1.00  0.00    -0.078 C  
BRANCH   5   6
HETATM    6  C   UNL     1      -9.339  11.277  65.544  1.00  0.00    -0.243 C  
BRANCH   6   7
HETATM    7  C   UNL     1      -8.542  10.512  64.525  1.00  0.00    -0.159 A  
HETATM    8  S   UNL     1      -6.900  10.127  64.833  1.00  0.00    -0.108 SA 
HETATM    9  C   UNL     1      -8.951  10.047  63.292  1.00  0.00    -0.275 A  
HETATM   10  C   UNL     1      -7.901   9.391  62.588  1.00  0.00    -0.118 A  
HETATM   11  C   UNL     1      -6.731   9.368  63.313  1.00  0.00    -0.097 A  
ENDBRANCH   6   7
ENDBRANCH   5   6
ENDBRANCH   4   5
BRANCH   4  12
HETATM   12  C   UNL     1      -9.608  10.546  68.199  1.00  0.00    -0.154 C  
HETATM   13  C   UNL     1     -10.129  11.859  68.830  1.00  0.00    -0.133 C  
HETATM   14  C   UNL     1      -9.225   9.665  69.423  1.00  0.00    -0.196 C  
HETATM   15  C   UNL     1     -11.428  11.635  69.609  1.00  0.00    -0.359 C  
HETATM   16  C   UNL     1     -10.361   9.479  70.411  1.00  0.00    -0.334 A  
HETATM   17  C   UNL     1     -10.338   8.371  71.272  1.00  0.00    -0.272 A  
HETATM   18  C   UNL     1     -11.401  10.427  70.516  1.00  0.00    -0.424 A  
HETATM   19  C   UNL     1     -11.354   8.176  72.207  1.00  0.00    -0.429 A  
HETATM   20  C   UNL     1     -12.426  10.198  71.448  1.00  0.00    -0.423 A  
HETATM   21  O   UNL     1     -13.503  11.028  71.588  1.00  0.00    -0.278 OA 
HETATM   22  H   UNL     1     -14.196  10.874  72.218  1.00  0.00     0.000 HD 
HETATM   23  C   UNL     1     -12.401   9.088  72.290  1.00  0.00    -0.402 A  
ENDBRANCH   4  12
ENDBRANCH   3   4
ENDBRANCH   2   3
TORSDOF 6
ENDMDL
MODEL      142
REMARK 921   NORMALIZED FREE ENERGY PREDICTED BY IDOCK:   -3.31 KCAL/MOL
REMARK 922        TOTAL FREE ENERGY PREDICTED BY IDOCK:   -5.87 KCAL/MOL
REMARK 923 INTER-LIGAND FREE ENERGY PREDICTED BY IDOCK:   -4.99 KCAL/MOL
REMARK 924 INTRA-LIGAND FREE ENERGY PREDICTED BY IDOCK:   -0.88 KCAL/MOL
REMARK 927      BINDING AFFINITY PREDICTED BY RF-SCORE:    0.00 PKD
ROOT
HETATM    1  C   UNL     1      -6.058   8.012  66.426  1.00  0.00    -0.045 C  
HETATM    2  C   UNL     1      -7.546   8.311  66.555  1.00  0.00    -0.092 C  
ENDROOT
BRANCH   2   3
HETATM    3  C   UNL     1      -7.796   9.782  66.928  1.00  0.00    -0.102 C  
BRANCH   3   4
HETATM    4  N   UNL     1      -9.034  10.064  67.688  1.00  0.00    -0.131 NA 
BRANCH   4   5
HETATM    5  C   UNL     1      -9.906  11.034  66.994  1.00  0.00    -0.182 C  
BRANCH   5   6
HETATM    6  C   UNL     1      -9.661  11.108  65.473  1.00  0.00    -0.271 C  
BRANCH   6   7
HETATM    7  C   UNL     1     -10.630  12.053  64.820  1.00  0.00    -0.297 A  
HETATM    8  S   UNL     1     -10.928  13.592  65.515  1.00  0.00    -0.294 SA 
HETATM    9  C   UNL     1     -11.374  11.859  63.674  1.00  0.00    -0.536 A  
HETATM   10  C   UNL     1     -12.210  12.974  63.380  1.00  0.00    -0.552 A  
HETATM   11  C   UNL     1     -12.067  13.983  64.304  1.00  0.00    -0.445 A  
ENDBRANCH   6   7
ENDBRANCH   5   6
ENDBRANCH   4   5
BRANCH   4  12
HETATM   12  C   UNL     1      -8.804  10.375  69.128  1.00  0.00    -0.172 C  
HETATM   13  C   UNL     1     -10.091  10.437  69.982  1.00  0.00    -0.078 C  
HETATM   14  C   UNL     1      -7.915   9.328  69.859  1.00  0.00    -0.113 C  
HETATM   15  C   UNL     1     -10.868   9.118  69.932  1.00  0.00    -0.242 C  
HETATM   16  C   UNL     1      -8.600   7.990  70.060  1.00  0.00    -0.134 A  
HETATM   17  C   UNL     1      -7.811   6.845  70.250  1.00  0.00    -0.109 A  
HETATM   18  C   UNL     1     -10.007   7.891  70.116  1.00  0.00    -0.190 A  
HETATM   19  C   UNL     1      -8.405   5.600  70.456  1.00  0.00    -0.117 A  
HETATM   20  C   UNL     1     -10.582   6.623  70.300  1.00  0.00    -0.222 A  
HETATM   21  O   UNL     1     -11.934   6.415  70.315  1.00  0.00    -0.410 OA 
HETATM   22  H   UNL     1     -12.323   5.558  70.441  1.00  0.00     0.000 HD 
HETATM   23  C   UNL     1      -9.791   5.489  70.476  1.00  0.00    -0.254 A  
ENDBRANCH   4  12
ENDBRANCH   3   4
ENDBRANCH   2   3
TORSDOF 6
ENDMDL
MODEL      143
REMARK 921   NORMALIZED FREE ENERGY PREDICTED BY IDOCK:   -3.31 KCAL/MOL
REMARK 922        TOTAL FREE ENERGY PREDICTED BY IDOCK:   -5.86 KCAL/MOL
REMARK 923 INTER-LIGAND FREE ENERGY PREDICTED BY IDOCK:   -4.68 KCAL/MOL
REMARK 924 INTRA-LIGAND FREE ENERGY PREDICTED BY IDOCK:   -1.18 KCAL/MOL
REMARK 927      BINDING AFFINITY PREDICTED BY RF-SCORE:    0.00 PKD
ROOT
HETATM    1  C   UNL     1      -7.377  14.651  69.360  1.00  0.00    -0.135 C  
HETATM    2  C   UNL     1      -6.939  14.472  67.913  1.00  0.00    -0.173 C  
ENDROOT
BRANCH   2   3
HETATM    3  C   UNL     1      -7.358  13.098  67.362  1.00  0.00    -0.111 C  
BRANCH   3   4
HETATM    4  N   UNL     1      -8.620  12.536  67.893  1.00  0.00    -0.169 NA 
BRANCH   4   5
HETATM    5  C   UNL     1      -8.414  11.232  68.557  1.00  0.00    -0.156 C  
BRANCH   5   6
HETATM    6  C   UNL     1      -7.146  10.492  68.086  1.00  0.00    -0.082 C  
BRANCH   6   7
HETATM    7  C   UNL     1      -7.412   9.723  66.823  1.00  0.00    -0.095 A  
HETATM    8  S   UNL     1      -8.751   8.656  66.734  1.00  0.00    -0.128 SA 
HETATM    9  C   UNL     1      -6.692   9.737  65.645  1.00  0.00    -0.092 A  
HETATM   10  C   UNL     1      -7.233   8.847  64.674  1.00  0.00    -0.096 A  
HETATM   11  C   UNL     1      -8.352   8.194  65.138  1.00  0.00    -0.143 A  
ENDBRANCH   6   7
ENDBRANCH   5   6
ENDBRANCH   4   5
BRANCH   4  12
HETATM   12  C   UNL     1      -9.748  12.551  66.918  1.00  0.00    -0.232 C  
HETATM   13  C   UNL     1     -11.152  12.495  67.565  1.00  0.00    -0.311 C  
HETATM   14  C   UNL     1      -9.791  13.828  66.031  1.00  0.00    -0.298 C  
HETATM   15  C   UNL     1     -11.379  13.666  68.525  1.00  0.00    -0.325 C  
HETATM   16  C   UNL     1     -10.180  15.079  66.794  1.00  0.00    -0.260 A  
HETATM   17  C   UNL     1      -9.808  16.332  66.281  1.00  0.00    -0.334 A  
HETATM   18  C   UNL     1     -10.955  15.006  67.971  1.00  0.00    -0.285 A  
HETATM   19  C   UNL     1     -10.164  17.506  66.944  1.00  0.00    -0.329 A  
HETATM   20  C   UNL     1     -11.281  16.201  68.635  1.00  0.00    -0.369 A  
HETATM   21  O   UNL     1     -11.981  16.231  69.809  1.00  0.00    -0.288 OA 
HETATM   22  H   UNL     1     -12.202  17.039  70.257  1.00  0.00     0.000 HD 
HETATM   23  C   UNL     1     -10.897  17.439  68.124  1.00  0.00    -0.273 A  
ENDBRANCH   4  12
ENDBRANCH   3   4
ENDBRANCH   2   3
TORSDOF 6
ENDMDL
MODEL      144
REMARK 921   NORMALIZED FREE ENERGY PREDICTED BY IDOCK:   -3.29 KCAL/MOL
REMARK 922        TOTAL FREE ENERGY PREDICTED BY IDOCK:   -5.84 KCAL/MOL
REMARK 923 INTER-LIGAND FREE ENERGY PREDICTED BY IDOCK:   -4.73 KCAL/MOL
REMARK 924 INTRA-LIGAND FREE ENERGY PREDICTED BY IDOCK:   -1.11 KCAL/MOL
REMARK 927      BINDING AFFINITY PREDICTED BY RF-SCORE:    0.00 PKD
ROOT
HETATM    1  C   UNL     1      -6.281   8.476  65.026  1.00  0.00    -0.060 C  
HETATM    2  C   UNL     1      -7.506   8.107  65.853  1.00  0.00    -0.080 C  
ENDROOT
BRANCH   2   3
HETATM    3  C   UNL     1      -7.131   7.813  67.316  1.00  0.00    -0.086 C  
BRANCH   3   4
HETATM    4  N   UNL     1      -8.254   7.727  68.276  1.00  0.00    -0.123 NA 
BRANCH   4   5
HETATM    5  C   UNL     1      -8.354   8.930  69.128  1.00  0.00    -0.124 C  
BRANCH   5   6
HETATM    6  C   UNL     1      -9.479   9.895  68.705  1.00  0.00    -0.153 C  
BRANCH   6   7
HETATM    7  C   UNL     1     -10.576   9.922  69.731  1.00  0.00    -0.264 A  
HETATM    8  S   UNL     1     -11.963  10.899  69.481  1.00  0.00    -0.309 SA 
HETATM    9  C   UNL     1     -10.642   9.242  70.931  1.00  0.00    -0.366 A  
HETATM   10  C   UNL     1     -11.830   9.546  71.657  1.00  0.00    -0.468 A  
HETATM   11  C   UNL     1     -12.633  10.436  70.982  1.00  0.00    -0.393 A  
ENDBRANCH   6   7
ENDBRANCH   5   6
ENDBRANCH   4   5
BRANCH   4  12
HETATM   12  C   UNL     1      -8.310   6.441  69.029  1.00  0.00    -0.118 C  
HETATM   13  C   UNL     1      -9.742   5.933  69.319  1.00  0.00    -0.182 C  
HETATM   14  C   UNL     1      -7.630   5.254  68.290  1.00  0.00    -0.080 C  
HETATM   15  C   UNL     1     -10.542   5.727  68.030  1.00  0.00    -0.295 C  
HETATM   16  C   UNL     1      -8.393   4.790  67.064  1.00  0.00    -0.106 A  
HETATM   17  C   UNL     1      -7.704   4.094  66.058  1.00  0.00    -0.090 A  
HETATM   18  C   UNL     1      -9.784   4.996  66.947  1.00  0.00    -0.182 A  
HETATM   19  C   UNL     1      -8.375   3.635  64.924  1.00  0.00    -0.097 A  
HETATM   20  C   UNL     1     -10.433   4.547  65.785  1.00  0.00    -0.233 A  
HETATM   21  O   UNL     1     -11.766   4.746  65.555  1.00  0.00    -0.732 OA 
HETATM   22  H   UNL     1     -12.205   4.442  64.770  1.00  0.00     0.000 HD 
HETATM   23  C   UNL     1      -9.739   3.867  64.787  1.00  0.00    -0.187 A  
ENDBRANCH   4  12
ENDBRANCH   3   4
ENDBRANCH   2   3
TORSDOF 6
ENDMDL
MODEL      145
REMARK 921   NORMALIZED FREE ENERGY PREDICTED BY IDOCK:   -3.28 KCAL/MOL
REMARK 922        TOTAL FREE ENERGY PREDICTED BY IDOCK:   -5.82 KCAL/MOL
REMARK 923 INTER-LIGAND FREE ENERGY PREDICTED BY IDOCK:   -4.65 KCAL/MOL
REMARK 924 INTRA-LIGAND FREE ENERGY PREDICTED BY IDOCK:   -1.17 KCAL/MOL
REMARK 927      BINDING AFFINITY PREDICTED BY RF-SCORE:    0.00 PKD
ROOT
HETATM    1  C   UNL     1     -11.967  12.046  68.485  1.00  0.00    -0.273 C  
HETATM    2  C   UNL     1     -11.300  10.726  68.846  1.00  0.00    -0.349 C  
ENDROOT
BRANCH   2   3
HETATM    3  C   UNL     1      -9.811  10.918  69.180  1.00  0.00    -0.145 C  
BRANCH   3   4
HETATM    4  N   UNL     1      -8.843  10.305  68.243  1.00  0.00    -0.123 NA 
BRANCH   4   5
HETATM    5  C   UNL     1      -8.171   9.126  68.825  1.00  0.00    -0.109 C  
BRANCH   5   6
HETATM    6  C   UNL     1      -8.768   7.782  68.360  1.00  0.00    -0.127 C  
BRANCH   6   7
HETATM    7  C   UNL     1      -8.515   6.703  69.376  1.00  0.00    -0.131 A  
HETATM    8  S   UNL     1      -7.199   5.624  69.172  1.00  0.00    -0.071 SA 
HETATM    9  C   UNL     1      -9.232   6.422  70.521  1.00  0.00    -0.162 A  
HETATM   10  C   UNL     1      -8.708   5.298  71.221  1.00  0.00    -0.136 A  
HETATM   11  C   UNL     1      -7.604   4.768  70.594  1.00  0.00    -0.058 A  
ENDBRANCH   6   7
ENDBRANCH   5   6
ENDBRANCH   4   5
BRANCH   4  12
HETATM   12  C   UNL     1      -7.913  11.283  67.607  1.00  0.00    -0.118 C  
HETATM   13  C   UNL     1      -7.060  10.697  66.458  1.00  0.00    -0.133 C  
HETATM   14  C   UNL     1      -8.633  12.500  66.960  1.00  0.00    -0.188 C  
HETATM   15  C   UNL     1      -7.934  10.124  65.339  1.00  0.00    -0.144 C  
HETATM   16  C   UNL     1      -9.419  12.144  65.713  1.00  0.00    -0.156 A  
HETATM   17  C   UNL     1     -10.470  12.983  65.310  1.00  0.00    -0.318 A  
HETATM   18  C   UNL     1      -9.075  11.024  64.927  1.00  0.00    -0.164 A  
HETATM   19  C   UNL     1     -11.203  12.699  64.158  1.00  0.00    -0.437 A  
HETATM   20  C   UNL     1      -9.843  10.745  63.785  1.00  0.00    -0.339 A  
HETATM   21  O   UNL     1      -9.622   9.655  62.990  1.00  0.00    -0.541 OA 
HETATM   22  H   UNL     1     -10.141   9.465  62.217  1.00  0.00     0.000 HD 
HETATM   23  C   UNL     1     -10.892  11.576  63.399  1.00  0.00    -0.423 A  
ENDBRANCH   4  12
ENDBRANCH   3   4
ENDBRANCH   2   3
TORSDOF 6
ENDMDL
MODEL      146
REMARK 921   NORMALIZED FREE ENERGY PREDICTED BY IDOCK:   -3.27 KCAL/MOL
REMARK 922        TOTAL FREE ENERGY PREDICTED BY IDOCK:   -5.81 KCAL/MOL
REMARK 923 INTER-LIGAND FREE ENERGY PREDICTED BY IDOCK:   -4.91 KCAL/MOL
REMARK 924 INTRA-LIGAND FREE ENERGY PREDICTED BY IDOCK:   -0.90 KCAL/MOL
REMARK 927      BINDING AFFINITY PREDICTED BY RF-SCORE:    0.00 PKD
ROOT
HETATM    1  C   UNL     1      -9.057   6.997  74.392  1.00  0.00    -0.239 C  
HETATM    2  C   UNL     1      -9.285   8.190  73.474  1.00  0.00    -0.257 C  
ENDROOT
BRANCH   2   3
HETATM    3  C   UNL     1      -8.540   8.024  72.138  1.00  0.00    -0.155 C  
BRANCH   3   4
HETATM    4  N   UNL     1      -8.964   6.890  71.287  1.00  0.00    -0.142 NA 
BRANCH   4   5
HETATM    5  C   UNL     1      -7.905   5.870  71.148  1.00  0.00    -0.111 C  
BRANCH   5   6
HETATM    6  C   UNL     1      -8.311   4.480  71.680  1.00  0.00    -0.105 C  
BRANCH   6   7
HETATM    7  C   UNL     1      -7.246   3.462  71.387  1.00  0.00    -0.033 A  
HETATM    8  S   UNL     1      -7.490   2.295  70.154  1.00  0.00    -0.043 SA 
HETATM    9  C   UNL     1      -6.020   3.303  72.002  1.00  0.00    -0.013 A  
HETATM   10  C   UNL     1      -5.290   2.201  71.472  1.00  0.00    -0.004 A  
HETATM   11  C   UNL     1      -5.977   1.565  70.463  1.00  0.00    -0.018 A  
ENDBRANCH   6   7
ENDBRANCH   5   6
ENDBRANCH   4   5
BRANCH   4  12
HETATM   12  C   UNL     1      -9.587   7.300  69.995  1.00  0.00    -0.167 C  
HETATM   13  C   UNL     1     -10.704   6.355  69.496  1.00  0.00    -0.347 C  
HETATM   14  C   UNL     1     -10.269   8.697  70.047  1.00  0.00    -0.201 C  
HETATM   15  C   UNL     1     -11.839   6.231  70.516  1.00  0.00    -0.191 C  
HETATM   16  C   UNL     1     -11.533   8.721  70.885  1.00  0.00    -0.330 A  
HETATM   17  C   UNL     1     -11.977   9.944  71.411  1.00  0.00    -0.489 A  
HETATM   18  C   UNL     1     -12.294   7.550  71.093  1.00  0.00    -0.321 A  
HETATM   19  C   UNL     1     -13.145  10.008  72.171  1.00  0.00    -0.482 A  
HETATM   20  C   UNL     1     -13.454   7.636  71.881  1.00  0.00    -0.252 A  
HETATM   21  O   UNL     1     -14.228   6.550  72.183  1.00  0.00    -0.493 OA 
HETATM   22  H   UNL     1     -15.012   6.607  72.716  1.00  0.00     0.000 HD 
HETATM   23  C   UNL     1     -13.880   8.852  72.409  1.00  0.00    -0.518 A  
ENDBRANCH   4  12
ENDBRANCH   3   4
ENDBRANCH   2   3
TORSDOF 6
ENDMDL
MODEL      147
REMARK 921   NORMALIZED FREE ENERGY PREDICTED BY IDOCK:   -3.27 KCAL/MOL
REMARK 922        TOTAL FREE ENERGY PREDICTED BY IDOCK:   -5.81 KCAL/MOL
REMARK 923 INTER-LIGAND FREE ENERGY PREDICTED BY IDOCK:   -6.77 KCAL/MOL
REMARK 924 INTRA-LIGAND FREE ENERGY PREDICTED BY IDOCK:    0.96 KCAL/MOL
REMARK 927      BINDING AFFINITY PREDICTED BY RF-SCORE:    0.00 PKD
ROOT
HETATM    1  C   UNL     1     -10.953   6.772  66.938  1.00  0.00    -0.370 C  
HETATM    2  C   UNL     1      -9.941   7.906  67.031  1.00  0.00    -0.322 C  
ENDROOT
BRANCH   2   3
HETATM    3  C   UNL     1     -10.632   9.262  67.254  1.00  0.00    -0.233 C  
BRANCH   3   4
HETATM    4  N   UNL     1      -9.742  10.427  67.457  1.00  0.00    -0.167 NA 
BRANCH   4   5
HETATM    5  C   UNL     1      -9.873  11.002  68.811  1.00  0.00    -0.198 C  
BRANCH   5   6
HETATM    6  C   UNL     1      -9.990   9.941  69.924  1.00  0.00    -0.292 C  
BRANCH   6   7
HETATM    7  C   UNL     1     -11.262  10.120  70.703  1.00  0.00    -0.340 A  
HETATM    8  S   UNL     1     -11.860   8.842  71.676  1.00  0.00    -0.356 SA 
HETATM    9  C   UNL     1     -12.086  11.227  70.754  1.00  0.00    -0.450 A  
HETATM   10  C   UNL     1     -13.226  11.012  71.581  1.00  0.00    -0.461 A  
HETATM   11  C   UNL     1     -13.227   9.755  72.140  1.00  0.00    -0.436 A  
ENDBRANCH   6   7
ENDBRANCH   5   6
ENDBRANCH   4   5
BRANCH   4  12
HETATM   12  C   UNL     1      -9.803  11.435  66.359  1.00  0.00    -0.211 C  
HETATM   13  C   UNL     1     -11.216  12.006  66.094  1.00  0.00    -0.394 C  
HETATM   14  C   UNL     1      -8.929  12.695  66.617  1.00  0.00    -0.164 C  
HETATM   15  C   UNL     1     -11.799  12.673  67.342  1.00  0.00    -0.393 C  
HETATM   16  C   UNL     1      -9.464  13.584  67.723  1.00  0.00    -0.216 A  
HETATM   17  C   UNL     1      -8.581  14.455  68.382  1.00  0.00    -0.174 A  
HETATM   18  C   UNL     1     -10.835  13.591  68.056  1.00  0.00    -0.266 A  
HETATM   19  C   UNL     1      -9.040  15.301  69.391  1.00  0.00    -0.228 A  
HETATM   20  C   UNL     1     -11.269  14.434  69.092  1.00  0.00    -0.272 A  
HETATM   21  O   UNL     1     -12.566  14.474  69.524  1.00  0.00    -0.558 OA 
HETATM   22  H   UNL     1     -12.860  15.044  70.224  1.00  0.00     0.000 HD 
HETATM   23  C   UNL     1     -10.384  15.286  69.749  1.00  0.00    -0.266 A  
ENDBRANCH   4  12
ENDBRANCH   3   4
ENDBRANCH   2   3
TORSDOF 6
ENDMDL
MODEL      148
REMARK 921   NORMALIZED FREE ENERGY PREDICTED BY IDOCK:   -3.27 KCAL/MOL
REMARK 922        TOTAL FREE ENERGY PREDICTED BY IDOCK:   -5.81 KCAL/MOL
REMARK 923 INTER-LIGAND FREE ENERGY PREDICTED BY IDOCK:   -4.77 KCAL/MOL
REMARK 924 INTRA-LIGAND FREE ENERGY PREDICTED BY IDOCK:   -1.04 KCAL/MOL
REMARK 927      BINDING AFFINITY PREDICTED BY RF-SCORE:    0.00 PKD
ROOT
HETATM    1  C   UNL     1      -7.835  13.436  67.464  1.00  0.00    -0.181 C  
HETATM    2  C   UNL     1      -7.649  12.275  68.432  1.00  0.00    -0.128 C  
ENDROOT
BRANCH   2   3
HETATM    3  C   UNL     1      -8.214  10.965  67.858  1.00  0.00    -0.114 C  
BRANCH   3   4
HETATM    4  N   UNL     1      -8.855  10.047  68.826  1.00  0.00    -0.130 NA 
BRANCH   4   5
HETATM    5  C   UNL     1      -7.960   8.943  69.227  1.00  0.00    -0.104 C  
BRANCH   5   6
HETATM    6  C   UNL     1      -8.526   7.543  68.914  1.00  0.00    -0.129 C  
BRANCH   6   7
HETATM    7  C   UNL     1      -7.828   6.934  67.731  1.00  0.00    -0.113 A  
HETATM    8  S   UNL     1      -7.502   5.251  67.698  1.00  0.00    -0.084 SA 
HETATM    9  C   UNL     1      -7.368   7.564  66.592  1.00  0.00    -0.091 A  
HETATM   10  C   UNL     1      -6.725   6.659  65.699  1.00  0.00    -0.051 A  
HETATM   11  C   UNL     1      -6.726   5.371  66.182  1.00  0.00    -0.057 A  
ENDBRANCH   6   7
ENDBRANCH   5   6
ENDBRANCH   4   5
BRANCH   4  12
HETATM   12  C   UNL     1     -10.224   9.607  68.428  1.00  0.00    -0.188 C  
HETATM   13  C   UNL     1     -11.229   9.511  69.599  1.00  0.00    -0.138 C  
HETATM   14  C   UNL     1     -10.916  10.559  67.412  1.00  0.00    -0.352 C  
HETATM   15  C   UNL     1     -11.387  10.853  70.320  1.00  0.00    -0.342 C  
HETATM   16  C   UNL     1     -11.311  11.895  68.010  1.00  0.00    -0.352 A  
HETATM   17  C   UNL     1     -11.490  12.996  67.157  1.00  0.00    -0.379 A  
HETATM   18  C   UNL     1     -11.557  12.033  69.393  1.00  0.00    -0.393 A  
HETATM   19  C   UNL     1     -11.872  14.236  67.668  1.00  0.00    -0.420 A  
HETATM   20  C   UNL     1     -11.917  13.297  69.887  1.00  0.00    -0.330 A  
HETATM   21  O   UNL     1     -12.124  13.544  71.216  1.00  0.00    -0.393 OA 
HETATM   22  H   UNL     1     -12.368  14.399  71.551  1.00  0.00     0.000 HD 
HETATM   23  C   UNL     1     -12.081  14.387  69.034  1.00  0.00    -0.298 A  
ENDBRANCH   4  12
ENDBRANCH   3   4
ENDBRANCH   2   3
TORSDOF 6
ENDMDL
MODEL      149
REMARK 921   NORMALIZED FREE ENERGY PREDICTED BY IDOCK:   -3.26 KCAL/MOL
REMARK 922        TOTAL FREE ENERGY PREDICTED BY IDOCK:   -5.80 KCAL/MOL
REMARK 923 INTER-LIGAND FREE ENERGY PREDICTED BY IDOCK:   -5.55 KCAL/MOL
REMARK 924 INTRA-LIGAND FREE ENERGY PREDICTED BY IDOCK:   -0.24 KCAL/MOL
REMARK 927      BINDING AFFINITY PREDICTED BY RF-SCORE:    0.00 PKD
ROOT
HETATM    1  C   UNL     1     -12.818  11.038  71.345  1.00  0.00    -0.548 C  
HETATM    2  C   UNL     1     -12.530   9.564  71.597  1.00  0.00    -0.476 C  
ENDROOT
BRANCH   2   3
HETATM    3  C   UNL     1     -11.598   8.979  70.522  1.00  0.00    -0.175 C  
BRANCH   3   4
HETATM    4  N   UNL     1     -10.232   8.617  70.963  1.00  0.00    -0.206 NA 
BRANCH   4   5
HETATM    5  C   UNL     1      -9.194   9.131  70.047  1.00  0.00    -0.192 C  
BRANCH   5   6
HETATM    6  C   UNL     1      -9.572  10.465  69.372  1.00  0.00    -0.213 C  
BRANCH   6   7
HETATM    7  C   UNL     1      -9.573  10.326  67.875  1.00  0.00    -0.145 A  
HETATM    8  S   UNL     1     -10.752  11.145  66.938  1.00  0.00    -0.276 SA 
HETATM    9  C   UNL     1      -8.718   9.585  67.084  1.00  0.00    -0.137 A  
HETATM   10  C   UNL     1      -9.051   9.674  65.702  1.00  0.00    -0.236 A  
HETATM   11  C   UNL     1     -10.139  10.488  65.485  1.00  0.00    -0.283 A  
ENDBRANCH   6   7
ENDBRANCH   5   6
ENDBRANCH   4   5
BRANCH   4  12
HETATM   12  C   UNL     1     -10.072   7.177  71.319  1.00  0.00    -0.189 C  
HETATM   13  C   UNL     1     -11.256   6.279  70.893  1.00  0.00    -0.386 C  
HETATM   14  C   UNL     1      -8.832   6.506  70.661  1.00  0.00    -0.144 C  
HETATM   15  C   UNL     1     -11.497   6.339  69.382  1.00  0.00    -0.348 C  
HETATM   16  C   UNL     1      -8.971   6.319  69.163  1.00  0.00    -0.127 A  
HETATM   17  C   UNL     1      -7.810   6.187  68.384  1.00  0.00    -0.104 A  
HETATM   18  C   UNL     1     -10.240   6.218  68.553  1.00  0.00    -0.205 A  
HETATM   19  C   UNL     1      -7.898   5.995  67.005  1.00  0.00    -0.102 A  
HETATM   20  C   UNL     1     -10.303   6.048  67.160  1.00  0.00    -0.230 A  
HETATM   21  O   UNL     1     -11.482   5.994  66.472  1.00  0.00    -0.674 OA 
HETATM   22  H   UNL     1     -11.526   5.878  65.530  1.00  0.00     0.000 HD 
HETATM   23  C   UNL     1      -9.145   5.931  66.394  1.00  0.00    -0.156 A  
ENDBRANCH   4  12
ENDBRANCH   3   4
ENDBRANCH   2   3
TORSDOF 6
ENDMDL
MODEL      150
REMARK 921   NORMALIZED FREE ENERGY PREDICTED BY IDOCK:   -3.24 KCAL/MOL
REMARK 922        TOTAL FREE ENERGY PREDICTED BY IDOCK:   -5.77 KCAL/MOL
REMARK 923 INTER-LIGAND FREE ENERGY PREDICTED BY IDOCK:   -5.18 KCAL/MOL
REMARK 924 INTRA-LIGAND FREE ENERGY PREDICTED BY IDOCK:   -0.59 KCAL/MOL
REMARK 927      BINDING AFFINITY PREDICTED BY RF-SCORE:    0.00 PKD
ROOT
HETATM    1  C   UNL     1     -10.591  11.217  64.691  1.00  0.00    -0.386 C  
HETATM    2  C   UNL     1     -10.016   9.927  65.260  1.00  0.00    -0.320 C  
ENDROOT
BRANCH   2   3
HETATM    3  C   UNL     1     -10.287   9.806  66.769  1.00  0.00    -0.218 C  
BRANCH   3   4
HETATM    4  N   UNL     1      -9.097   9.760  67.648  1.00  0.00    -0.131 NA 
BRANCH   4   5
HETATM    5  C   UNL     1      -8.622   8.380  67.875  1.00  0.00    -0.131 C  
BRANCH   5   6
HETATM    6  C   UNL     1      -9.753   7.331  67.881  1.00  0.00    -0.161 C  
BRANCH   6   7
HETATM    7  C   UNL     1      -9.924   6.736  69.250  1.00  0.00    -0.160 A  
HETATM    8  S   UNL     1      -8.551   6.241  70.149  1.00  0.00    -0.135 SA 
HETATM    9  C   UNL     1     -11.096   6.502  69.941  1.00  0.00    -0.430 A  
HETATM   10  C   UNL     1     -10.862   5.891  71.206  1.00  0.00    -0.333 A  
HETATM   11  C   UNL     1      -9.521   5.691  71.442  1.00  0.00    -0.147 A  
ENDBRANCH   6   7
ENDBRANCH   5   6
ENDBRANCH   4   5
BRANCH   4  12
HETATM   12  C   UNL     1      -9.232  10.569  68.894  1.00  0.00    -0.183 C  
HETATM   13  C   UNL     1      -8.201  11.714  69.026  1.00  0.00     0.107 C  
HETATM   14  C   UNL     1     -10.608  11.282  69.029  1.00  0.00    -0.241 C  
HETATM   15  C   UNL     1      -8.286  12.692  67.851  1.00  0.00    -0.172 C  
HETATM   16  C   UNL     1     -10.800  12.417  68.042  1.00  0.00    -0.251 A  
HETATM   17  C   UNL     1     -12.104  12.822  67.717  1.00  0.00    -0.191 A  
HETATM   18  C   UNL     1      -9.695  13.104  67.495  1.00  0.00    -0.213 A  
HETATM   19  C   UNL     1     -12.320  13.874  66.828  1.00  0.00    -0.370 A  
HETATM   20  C   UNL     1      -9.938  14.145  66.583  1.00  0.00    -0.277 A  
HETATM   21  O   UNL     1      -8.935  14.834  65.959  1.00  0.00    -0.492 OA 
HETATM   22  H   UNL     1      -9.099  15.538  65.343  1.00  0.00     0.000 HD 
HETATM   23  C   UNL     1     -11.236  14.532  66.257  1.00  0.00    -0.342 A  
ENDBRANCH   4  12
ENDBRANCH   3   4
ENDBRANCH   2   3
TORSDOF 6
ENDMDL
MODEL      151
REMARK 921   NORMALIZED FREE ENERGY PREDICTED BY IDOCK:   -3.23 KCAL/MOL
REMARK 922        TOTAL FREE ENERGY PREDICTED BY IDOCK:   -5.76 KCAL/MOL
REMARK 923 INTER-LIGAND FREE ENERGY PREDICTED BY IDOCK:   -4.37 KCAL/MOL
REMARK 924 INTRA-LIGAND FREE ENERGY PREDICTED BY IDOCK:   -1.39 KCAL/MOL
REMARK 927      BINDING AFFINITY PREDICTED BY RF-SCORE:    0.00 PKD
ROOT
HETATM    1  C   UNL     1     -12.021   6.475  71.744  1.00  0.00    -0.394 C  
HETATM    2  C   UNL     1     -11.696   5.969  70.345  1.00  0.00     0.030 C  
ENDROOT
BRANCH   2   3
HETATM    3  C   UNL     1     -10.179   5.827  70.134  1.00  0.00    -0.236 C  
BRANCH   3   4
HETATM    4  N   UNL     1      -9.632   6.415  68.891  1.00  0.00    -0.127 NA 
BRANCH   4   5
HETATM    5  C   UNL     1      -9.286   5.385  67.891  1.00  0.00    -0.110 C  
BRANCH   5   6
HETATM    6  C   UNL     1     -10.316   5.261  66.750  1.00  0.00    -0.320 C  
BRANCH   6   7
HETATM    7  C   UNL     1      -9.630   5.184  65.415  1.00  0.00     0.004 A  
HETATM    8  S   UNL     1     -10.176   4.070  64.232  1.00  0.00    -0.148 SA 
HETATM    9  C   UNL     1      -8.550   5.916  64.964  1.00  0.00    -0.065 A  
HETATM   10  C   UNL     1      -8.156   5.540  63.648  1.00  0.00    -0.121 A  
HETATM   11  C   UNL     1      -8.956   4.544  63.136  1.00  0.00    -0.130 A  
ENDBRANCH   6   7
ENDBRANCH   5   6
ENDBRANCH   4   5
BRANCH   4  12
HETATM   12  C   UNL     1      -8.559   7.426  69.121  1.00  0.00    -0.136 C  
HETATM   13  C   UNL     1      -8.258   8.325  67.899  1.00  0.00    -0.128 C  
HETATM   14  C   UNL     1      -8.882   8.432  70.261  1.00  0.00    -0.142 C  
HETATM   15  C   UNL     1      -9.500   9.094  67.442  1.00  0.00    -0.177 C  
HETATM   16  C   UNL     1      -9.990   9.406  69.910  1.00  0.00    -0.237 A  
HETATM   17  C   UNL     1     -10.704  10.027  70.948  1.00  0.00    -0.203 A  
HETATM   18  C   UNL     1     -10.273   9.739  68.569  1.00  0.00    -0.209 A  
HETATM   19  C   UNL     1     -11.717  10.943  70.665  1.00  0.00    -0.418 A  
HETATM   20  C   UNL     1     -11.314  10.646  68.308  1.00  0.00    -0.289 A  
HETATM   21  O   UNL     1     -11.698  10.990  67.042  1.00  0.00    -0.399 OA 
HETATM   22  H   UNL     1     -12.402  11.604  66.865  1.00  0.00     0.000 HD 
HETATM   23  C   UNL     1     -12.024  11.247  69.344  1.00  0.00    -0.410 A  
ENDBRANCH   4  12
ENDBRANCH   3   4
ENDBRANCH   2   3
TORSDOF 6
ENDMDL
MODEL      152
REMARK 921   NORMALIZED FREE ENERGY PREDICTED BY IDOCK:   -3.20 KCAL/MOL
REMARK 922        TOTAL FREE ENERGY PREDICTED BY IDOCK:   -5.71 KCAL/MOL
REMARK 923 INTER-LIGAND FREE ENERGY PREDICTED BY IDOCK:   -4.39 KCAL/MOL
REMARK 924 INTRA-LIGAND FREE ENERGY PREDICTED BY IDOCK:   -1.32 KCAL/MOL
REMARK 927      BINDING AFFINITY PREDICTED BY RF-SCORE:    0.00 PKD
ROOT
HETATM    1  C   UNL     1     -12.342   6.810  71.081  1.00  0.00    -0.386 C  
HETATM    2  C   UNL     1     -11.614   6.375  69.816  1.00  0.00    -0.397 C  
ENDROOT
BRANCH   2   3
HETATM    3  C   UNL     1     -10.090   6.351  70.023  1.00  0.00    -0.172 C  
BRANCH   3   4
HETATM    4  N   UNL     1      -9.290   7.192  69.105  1.00  0.00    -0.142 NA 
BRANCH   4   5
HETATM    5  C   UNL     1      -8.548   6.388  68.113  1.00  0.00    -0.117 C  
BRANCH   5   6
HETATM    6  C   UNL     1      -9.066   6.555  66.670  1.00  0.00    -0.159 C  
BRANCH   6   7
HETATM    7  C   UNL     1      -7.946   6.927  65.739  1.00  0.00    -0.116 A  
HETATM    8  S   UNL     1      -7.805   6.157  64.214  1.00  0.00    -0.113 SA 
HETATM    9  C   UNL     1      -6.939   7.850  65.938  1.00  0.00    -0.057 A  
HETATM   10  C   UNL     1      -6.035   7.906  64.838  1.00  0.00    -0.045 A  
HETATM   11  C   UNL     1      -6.389   7.033  63.835  1.00  0.00    -0.043 A  
ENDBRANCH   6   7
ENDBRANCH   5   6
ENDBRANCH   4   5
BRANCH   4  12
HETATM   12  C   UNL     1      -8.461   8.223  69.795  1.00  0.00    -0.128 C  
HETATM   13  C   UNL     1      -8.043   9.411  68.898  1.00  0.00    -0.103 C  
HETATM   14  C   UNL     1      -9.176   8.894  71.002  1.00  0.00    -0.307 C  
HETATM   15  C   UNL     1      -9.259  10.137  68.316  1.00  0.00    -0.130 C  
HETATM   16  C   UNL     1     -10.318   9.806  70.597  1.00  0.00    -0.330 A  
HETATM   17  C   UNL     1     -11.327  10.088  71.531  1.00  0.00    -0.124 A  
HETATM   18  C   UNL     1     -10.349  10.416  69.325  1.00  0.00    -0.250 A  
HETATM   19  C   UNL     1     -12.382  10.938  71.201  1.00  0.00    -0.479 A  
HETATM   20  C   UNL     1     -11.434  11.249  69.007  1.00  0.00    -0.302 A  
HETATM   21  O   UNL     1     -11.582  11.842  67.784  1.00  0.00    -0.337 OA 
HETATM   22  H   UNL     1     -12.316  12.406  67.569  1.00  0.00     0.000 HD 
HETATM   23  C   UNL     1     -12.438  11.514  69.936  1.00  0.00    -0.159 A  
ENDBRANCH   4  12
ENDBRANCH   3   4
ENDBRANCH   2   3
TORSDOF 6
ENDMDL
MODEL      153
REMARK 921   NORMALIZED FREE ENERGY PREDICTED BY IDOCK:   -3.18 KCAL/MOL
REMARK 922        TOTAL FREE ENERGY PREDICTED BY IDOCK:   -5.69 KCAL/MOL
REMARK 923 INTER-LIGAND FREE ENERGY PREDICTED BY IDOCK:   -5.12 KCAL/MOL
REMARK 924 INTRA-LIGAND FREE ENERGY PREDICTED BY IDOCK:   -0.57 KCAL/MOL
REMARK 927      BINDING AFFINITY PREDICTED BY RF-SCORE:    0.00 PKD
ROOT
HETATM    1  C   UNL     1      -6.563  13.836  69.317  1.00  0.00    -0.113 C  
HETATM    2  C   UNL     1      -7.712  13.999  68.330  1.00  0.00    -0.138 C  
ENDROOT
BRANCH   2   3
HETATM    3  C   UNL     1      -9.070  13.713  68.992  1.00  0.00     0.322 C  
BRANCH   3   4
HETATM    4  N   UNL     1     -10.269  13.934  68.153  1.00  0.00    -0.242 NA 
BRANCH   4   5
HETATM    5  C   UNL     1     -11.048  15.110  68.591  1.00  0.00    -0.271 C  
BRANCH   5   6
HETATM    6  C   UNL     1     -10.607  15.669  69.959  1.00  0.00    -0.342 C  
BRANCH   6   7
HETATM    7  C   UNL     1     -11.746  15.645  70.939  1.00  0.00    -0.387 A  
HETATM    8  S   UNL     1     -13.281  15.055  70.457  1.00  0.00    -0.123 SA 
HETATM    9  C   UNL     1     -11.751  16.061  72.256  1.00  0.00    -0.581 A  
HETATM   10  C   UNL     1     -13.031  15.914  72.862  1.00  0.00    -0.595 A  
HETATM   11  C   UNL     1     -13.955  15.381  71.992  1.00  0.00    -0.539 A  
ENDBRANCH   6   7
ENDBRANCH   5   6
ENDBRANCH   4   5
BRANCH   4  12
HETATM   12  C   UNL     1     -11.089  12.708  67.933  1.00  0.00    -0.247 C  
HETATM   13  C   UNL     1     -11.277  12.324  66.447  1.00  0.00    -0.370 C  
HETATM   14  C   UNL     1     -10.488  11.429  68.581  1.00  0.00    -0.224 C  
HETATM   15  C   UNL     1      -9.935  12.091  65.748  1.00  0.00    -0.266 C  
HETATM   16  C   UNL     1      -9.227  10.941  67.894  1.00  0.00    -0.152 A  
HETATM   17  C   UNL     1      -8.332  10.132  68.613  1.00  0.00    -0.116 A  
HETATM   18  C   UNL     1      -8.971  11.237  66.539  1.00  0.00    -0.189 A  
HETATM   19  C   UNL     1      -7.171   9.648  68.009  1.00  0.00    -0.081 A  
HETATM   20  C   UNL     1      -7.784  10.759  65.960  1.00  0.00    -0.139 A  
HETATM   21  O   UNL     1      -7.421  11.037  64.671  1.00  0.00    -0.243 OA 
HETATM   22  H   UNL     1      -6.619  10.713  64.280  1.00  0.00     0.000 HD 
HETATM   23  C   UNL     1      -6.896   9.966  66.684  1.00  0.00    -0.084 A  
ENDBRANCH   4  12
ENDBRANCH   3   4
ENDBRANCH   2   3
TORSDOF 6
ENDMDL
MODEL      154
REMARK 921   NORMALIZED FREE ENERGY PREDICTED BY IDOCK:   -3.18 KCAL/MOL
REMARK 922        TOTAL FREE ENERGY PREDICTED BY IDOCK:   -5.68 KCAL/MOL
REMARK 923 INTER-LIGAND FREE ENERGY PREDICTED BY IDOCK:   -4.27 KCAL/MOL
REMARK 924 INTRA-LIGAND FREE ENERGY PREDICTED BY IDOCK:   -1.41 KCAL/MOL
REMARK 927      BINDING AFFINITY PREDICTED BY RF-SCORE:    0.00 PKD
ROOT
HETATM    1  C   UNL     1     -10.074   5.999  69.125  1.00  0.00    -0.229 C  
HETATM    2  C   UNL     1     -11.124   6.300  68.065  1.00  0.00    -0.365 C  
ENDROOT
BRANCH   2   3
HETATM    3  C   UNL     1     -10.713   7.492  67.184  1.00  0.00    -0.309 C  
BRANCH   3   4
HETATM    4  N   UNL     1      -9.836   8.503  67.816  1.00  0.00    -0.166 NA 
BRANCH   4   5
HETATM    5  C   UNL     1     -10.607   9.584  68.463  1.00  0.00    -0.212 C  
BRANCH   5   6
HETATM    6  C   UNL     1     -10.001  10.062  69.799  1.00  0.00    -0.276 C  
BRANCH   6   7
HETATM    7  C   UNL     1     -10.480   9.209  70.940  1.00  0.00    -0.278 A  
HETATM    8  S   UNL     1      -9.349   8.490  72.008  1.00  0.00    -0.297 SA 
HETATM    9  C   UNL     1     -11.779   8.886  71.280  1.00  0.00    -0.370 A  
HETATM   10  C   UNL     1     -11.839   8.024  72.412  1.00  0.00    -0.429 A  
HETATM   11  C   UNL     1     -10.588   7.728  72.903  1.00  0.00    -0.366 A  
ENDBRANCH   6   7
ENDBRANCH   5   6
ENDBRANCH   4   5
BRANCH   4  12
HETATM   12  C   UNL     1      -8.734   8.985  66.935  1.00  0.00    -0.123 C  
HETATM   13  C   UNL     1      -7.344   9.018  67.612  1.00  0.00    -0.084 C  
HETATM   14  C   UNL     1      -8.517   8.109  65.669  1.00  0.00    -0.170 C  
HETATM   15  C   UNL     1      -6.930   7.635  68.123  1.00  0.00    -0.075 C  
HETATM   16  C   UNL     1      -7.935   6.742  65.973  1.00  0.00    -0.109 A  
HETATM   17  C   UNL     1      -8.127   5.702  65.050  1.00  0.00    -0.122 A  
HETATM   18  C   UNL     1      -7.161   6.519  67.131  1.00  0.00    -0.076 A  
HETATM   19  C   UNL     1      -7.590   4.436  65.286  1.00  0.00    -0.085 A  
HETATM   20  C   UNL     1      -6.652   5.230  67.359  1.00  0.00    -0.053 A  
HETATM   21  O   UNL     1      -5.936   4.901  68.477  1.00  0.00    -0.023 OA 
HETATM   22  H   UNL     1      -5.591   4.029  68.631  1.00  0.00     0.000 HD 
HETATM   23  C   UNL     1      -6.857   4.200  66.444  1.00  0.00    -0.055 A  
ENDBRANCH   4  12
ENDBRANCH   3   4
ENDBRANCH   2   3
TORSDOF 6
ENDMDL
MODEL      155
REMARK 921   NORMALIZED FREE ENERGY PREDICTED BY IDOCK:   -3.17 KCAL/MOL
REMARK 922        TOTAL FREE ENERGY PREDICTED BY IDOCK:   -5.68 KCAL/MOL
REMARK 923 INTER-LIGAND FREE ENERGY PREDICTED BY IDOCK:   -5.31 KCAL/MOL
REMARK 924 INTRA-LIGAND FREE ENERGY PREDICTED BY IDOCK:   -0.37 KCAL/MOL
REMARK 927      BINDING AFFINITY PREDICTED BY RF-SCORE:    0.00 PKD
ROOT
HETATM    1  C   UNL     1     -11.984  15.697  69.137  1.00  0.00    -0.329 C  
HETATM    2  C   UNL     1     -11.929  14.669  68.016  1.00  0.00    -0.292 C  
ENDROOT
BRANCH   2   3
HETATM    3  C   UNL     1     -10.545  14.637  67.345  1.00  0.00    -0.265 C  
BRANCH   3   4
HETATM    4  N   UNL     1      -9.746  13.408  67.547  1.00  0.00    -0.219 NA 
BRANCH   4   5
HETATM    5  C   UNL     1      -8.298  13.651  67.387  1.00  0.00    -0.192 C  
BRANCH   5   6
HETATM    6  C   UNL     1      -7.932  15.144  67.254  1.00  0.00    -0.234 C  
BRANCH   6   7
HETATM    7  C   UNL     1      -7.029  15.576  68.374  1.00  0.00    -0.115 A  
HETATM    8  S   UNL     1      -6.806  17.244  68.703  1.00  0.00    -0.218 SA 
HETATM    9  C   UNL     1      -6.294  14.785  69.234  1.00  0.00    -0.115 A  
HETATM   10  C   UNL     1      -5.526  15.557  70.152  1.00  0.00    -0.138 A  
HETATM   11  C   UNL     1      -5.710  16.908  69.969  1.00  0.00    -0.224 A  
ENDBRANCH   6   7
ENDBRANCH   5   6
ENDBRANCH   4   5
BRANCH   4  12
HETATM   12  C   UNL     1     -10.251  12.226  66.792  1.00  0.00    -0.211 C  
HETATM   13  C   UNL     1      -9.245  11.056  66.688  1.00  0.00    -0.182 C  
HETATM   14  C   UNL     1     -11.519  11.578  67.420  1.00  0.00    -0.349 C  
HETATM   15  C   UNL     1      -8.819  10.551  68.069  1.00  0.00    -0.131 C  
HETATM   16  C   UNL     1     -11.246  10.866  68.731  1.00  0.00    -0.329 A  
HETATM   17  C   UNL     1     -12.307  10.663  69.627  1.00  0.00    -0.209 A  
HETATM   18  C   UNL     1      -9.965  10.357  69.033  1.00  0.00    -0.224 A  
HETATM   19  C   UNL     1     -12.099   9.996  70.834  1.00  0.00    -0.448 A  
HETATM   20  C   UNL     1      -9.775   9.710  70.265  1.00  0.00    -0.259 A  
HETATM   21  O   UNL     1      -8.561   9.231  70.672  1.00  0.00    -0.202 OA 
HETATM   22  H   UNL     1      -8.432   8.792  71.505  1.00  0.00     0.000 HD 
HETATM   23  C   UNL     1     -10.831   9.524  71.154  1.00  0.00    -0.425 A  
ENDBRANCH   4  12
ENDBRANCH   3   4
ENDBRANCH   2   3
TORSDOF 6
ENDMDL
MODEL      156
REMARK 921   NORMALIZED FREE ENERGY PREDICTED BY IDOCK:   -3.17 KCAL/MOL
REMARK 922        TOTAL FREE ENERGY PREDICTED BY IDOCK:   -5.68 KCAL/MOL
REMARK 923 INTER-LIGAND FREE ENERGY PREDICTED BY IDOCK:   -4.28 KCAL/MOL
REMARK 924 INTRA-LIGAND FREE ENERGY PREDICTED BY IDOCK:   -1.40 KCAL/MOL
REMARK 927      BINDING AFFINITY PREDICTED BY RF-SCORE:    0.00 PKD
ROOT
HETATM    1  C   UNL     1      -7.056   9.365  68.853  1.00  0.00    -0.068 C  
HETATM    2  C   UNL     1      -7.119   9.374  67.331  1.00  0.00    -0.086 C  
ENDROOT
BRANCH   2   3
HETATM    3  C   UNL     1      -7.532   8.000  66.775  1.00  0.00    -0.090 C  
BRANCH   3   4
HETATM    4  N   UNL     1      -8.557   7.262  67.546  1.00  0.00    -0.122 NA 
BRANCH   4   5
HETATM    5  C   UNL     1      -8.177   5.853  67.775  1.00  0.00    -0.105 C  
BRANCH   5   6
HETATM    6  C   UNL     1      -7.248   5.653  68.989  1.00  0.00    -0.073 C  
BRANCH   6   7
HETATM    7  C   UNL     1      -7.985   5.004  70.127  1.00  0.00    -0.077 A  
HETATM    8  S   UNL     1      -8.639   3.431  69.939  1.00  0.00    -0.068 SA 
HETATM    9  C   UNL     1      -8.242   5.517  71.383  1.00  0.00    -0.118 A  
HETATM   10  C   UNL     1      -9.002   4.618  72.185  1.00  0.00    -0.143 A  
HETATM   11  C   UNL     1      -9.287   3.448  71.519  1.00  0.00    -0.140 A  
ENDBRANCH   6   7
ENDBRANCH   5   6
ENDBRANCH   4   5
BRANCH   4  12
HETATM   12  C   UNL     1      -9.946   7.442  67.033  1.00  0.00    -0.231 C  
HETATM   13  C   UNL     1     -10.959   6.395  67.553  1.00  0.00    -0.454 C  
HETATM   14  C   UNL     1     -10.583   8.807  67.418  1.00  0.00    -0.304 C  
HETATM   15  C   UNL     1     -11.046   6.402  69.081  1.00  0.00    -0.428 C  
HETATM   16  C   UNL     1     -10.907   8.927  68.895  1.00  0.00    -0.052 A  
HETATM   17  C   UNL     1     -11.023  10.205  69.464  1.00  0.00    -0.295 A  
HETATM   18  C   UNL     1     -11.149   7.783  69.685  1.00  0.00    -0.052 A  
HETATM   19  C   UNL     1     -11.339  10.355  70.814  1.00  0.00    -0.370 A  
HETATM   20  C   UNL     1     -11.442   7.958  71.048  1.00  0.00    -0.280 A  
HETATM   21  O   UNL     1     -11.638   6.912  71.906  1.00  0.00    -0.262 OA 
HETATM   22  H   UNL     1     -11.836   7.031  72.827  1.00  0.00     0.000 HD 
HETATM   23  C   UNL     1     -11.543   9.231  71.606  1.00  0.00    -0.463 A  
ENDBRANCH   4  12
ENDBRANCH   3   4
ENDBRANCH   2   3
TORSDOF 6
ENDMDL
MODEL      157
REMARK 921   NORMALIZED FREE ENERGY PREDICTED BY IDOCK:   -3.17 KCAL/MOL
REMARK 922        TOTAL FREE ENERGY PREDICTED BY IDOCK:   -5.67 KCAL/MOL
REMARK 923 INTER-LIGAND FREE ENERGY PREDICTED BY IDOCK:   -4.64 KCAL/MOL
REMARK 924 INTRA-LIGAND FREE ENERGY PREDICTED BY IDOCK:   -1.03 KCAL/MOL
REMARK 927      BINDING AFFINITY PREDICTED BY RF-SCORE:    0.00 PKD
ROOT
HETATM    1  C   UNL     1      -7.408  15.548  68.897  1.00  0.00    -0.150 C  
HETATM    2  C   UNL     1      -8.864  15.108  68.824  1.00  0.00    -0.196 C  
ENDROOT
BRANCH   2   3
HETATM    3  C   UNL     1      -9.112  14.177  67.626  1.00  0.00    -0.194 C  
BRANCH   3   4
HETATM    4  N   UNL     1      -9.499  12.784  67.946  1.00  0.00    -0.201 NA 
BRANCH   4   5
HETATM    5  C   UNL     1     -10.837  12.704  68.566  1.00  0.00    -0.252 C  
BRANCH   5   6
HETATM    6  C   UNL     1     -11.862  11.919  67.723  1.00  0.00    -0.289 C  
BRANCH   6   7
HETATM    7  C   UNL     1     -11.878  12.411  66.303  1.00  0.00    -0.364 A  
HETATM    8  S   UNL     1     -12.553  13.943  65.933  1.00  0.00    -0.391 SA 
HETATM    9  C   UNL     1     -11.409  11.774  65.171  1.00  0.00    -0.281 A  
HETATM   10  C   UNL     1     -11.628  12.543  63.992  1.00  0.00    -0.485 A  
HETATM   11  C   UNL     1     -12.245  13.742  64.265  1.00  0.00    -0.400 A  
ENDBRANCH   6   7
ENDBRANCH   5   6
ENDBRANCH   4   5
BRANCH   4  12
HETATM   12  C   UNL     1      -8.446  12.015  68.670  1.00  0.00    -0.022 C  
HETATM   13  C   UNL     1      -8.863  10.578  69.064  1.00  0.00    -0.174 C  
HETATM   14  C   UNL     1      -7.140  11.818  67.849  1.00  0.00    -0.087 C  
HETATM   15  C   UNL     1      -9.257   9.747  67.840  1.00  0.00    -0.133 C  
HETATM   16  C   UNL     1      -7.300  10.867  66.679  1.00  0.00    -0.139 A  
HETATM   17  C   UNL     1      -6.402  10.955  65.604  1.00  0.00     0.001 A  
HETATM   18  C   UNL     1      -8.295   9.866  66.681  1.00  0.00    -0.125 A  
HETATM   19  C   UNL     1      -6.506  10.086  64.518  1.00  0.00    -0.130 A  
HETATM   20  C   UNL     1      -8.396   9.018  65.566  1.00  0.00    -0.133 A  
HETATM   21  O   UNL     1      -9.358   8.054  65.450  1.00  0.00    -0.397 OA 
HETATM   22  H   UNL     1      -9.426   7.480  64.697  1.00  0.00     0.000 HD 
HETATM   23  C   UNL     1      -7.507   9.121  64.498  1.00  0.00    -0.101 A  
ENDBRANCH   4  12
ENDBRANCH   3   4
ENDBRANCH   2   3
TORSDOF 6
ENDMDL
MODEL      158
REMARK 921   NORMALIZED FREE ENERGY PREDICTED BY IDOCK:   -3.16 KCAL/MOL
REMARK 922        TOTAL FREE ENERGY PREDICTED BY IDOCK:   -5.67 KCAL/MOL
REMARK 923 INTER-LIGAND FREE ENERGY PREDICTED BY IDOCK:   -6.07 KCAL/MOL
REMARK 924 INTRA-LIGAND FREE ENERGY PREDICTED BY IDOCK:    0.40 KCAL/MOL
REMARK 927      BINDING AFFINITY PREDICTED BY RF-SCORE:    0.00 PKD
ROOT
HETATM    1  C   UNL     1     -13.337  10.384  72.002  1.00  0.00    -0.440 C  
HETATM    2  C   UNL     1     -12.534   9.599  70.974  1.00  0.00    -0.382 C  
ENDROOT
BRANCH   2   3
HETATM    3  C   UNL     1     -11.065  10.052  70.940  1.00  0.00    -0.314 C  
BRANCH   3   4
HETATM    4  N   UNL     1     -10.643  10.821  69.748  1.00  0.00    -0.193 NA 
BRANCH   4   5
HETATM    5  C   UNL     1     -11.694  10.867  68.711  1.00  0.00    -0.286 C  
BRANCH   5   6
HETATM    6  C   UNL     1     -11.854  12.253  68.054  1.00  0.00    -0.368 C  
BRANCH   6   7
HETATM    7  C   UNL     1     -11.722  13.348  69.074  1.00  0.00    -0.323 A  
HETATM    8  S   UNL     1     -10.536  14.570  68.874  1.00  0.00    -0.239 SA 
HETATM    9  C   UNL     1     -12.451  13.532  70.232  1.00  0.00    -0.309 A  
HETATM   10  C   UNL     1     -12.015  14.671  70.968  1.00  0.00    -0.399 A  
HETATM   11  C   UNL     1     -10.978  15.323  70.342  1.00  0.00    -0.290 A  
ENDBRANCH   6   7
ENDBRANCH   5   6
ENDBRANCH   4   5
BRANCH   4  12
HETATM   12  C   UNL     1      -9.295  10.447  69.231  1.00  0.00    -0.187 C  
HETATM   13  C   UNL     1      -8.483   9.526  70.172  1.00  0.00    -0.227 C  
HETATM   14  C   UNL     1      -9.335   9.671  67.884  1.00  0.00    -0.141 C  
HETATM   15  C   UNL     1      -9.225   8.219  70.462  1.00  0.00    -0.160 C  
HETATM   16  C   UNL     1      -9.886   8.264  68.015  1.00  0.00    -0.201 A  
HETATM   17  C   UNL     1     -10.422   7.637  66.879  1.00  0.00    -0.388 A  
HETATM   18  C   UNL     1      -9.816   7.562  69.237  1.00  0.00    -0.170 A  
HETATM   19  C   UNL     1     -10.921   6.336  66.955  1.00  0.00    -0.442 A  
HETATM   20  C   UNL     1     -10.348   6.263  69.295  1.00  0.00    -0.218 A  
HETATM   21  O   UNL     1     -10.376   5.524  70.444  1.00  0.00    -0.234 OA 
HETATM   22  H   UNL     1     -10.734   4.645  70.484  1.00  0.00     0.000 HD 
HETATM   23  C   UNL     1     -10.888   5.653  68.165  1.00  0.00    -0.161 A  
ENDBRANCH   4  12
ENDBRANCH   3   4
ENDBRANCH   2   3
TORSDOF 6
ENDMDL
MODEL      159
REMARK 921   NORMALIZED FREE ENERGY PREDICTED BY IDOCK:   -3.15 KCAL/MOL
REMARK 922        TOTAL FREE ENERGY PREDICTED BY IDOCK:   -5.65 KCAL/MOL
REMARK 923 INTER-LIGAND FREE ENERGY PREDICTED BY IDOCK:   -4.89 KCAL/MOL
REMARK 924 INTRA-LIGAND FREE ENERGY PREDICTED BY IDOCK:   -0.76 KCAL/MOL
REMARK 927      BINDING AFFINITY PREDICTED BY RF-SCORE:    0.00 PKD
ROOT
HETATM    1  C   UNL     1     -10.727   7.723  73.161  1.00  0.00    -0.414 C  
HETATM    2  C   UNL     1     -10.875   8.473  71.844  1.00  0.00    -0.392 C  
ENDROOT
BRANCH   2   3
HETATM    3  C   UNL     1      -9.901   7.943  70.779  1.00  0.00    -0.180 C  
BRANCH   3   4
HETATM    4  N   UNL     1     -10.055   8.497  69.415  1.00  0.00    -0.199 NA 
BRANCH   4   5
HETATM    5  C   UNL     1     -10.325   9.948  69.428  1.00  0.00    -0.222 C  
BRANCH   5   6
HETATM    6  C   UNL     1      -9.384  10.761  68.515  1.00  0.00    -0.174 C  
BRANCH   6   7
HETATM    7  C   UNL     1     -10.163  11.728  67.669  1.00  0.00    -0.199 A  
HETATM    8  S   UNL     1      -9.519  13.279  67.323  1.00  0.00    -0.242 SA 
HETATM    9  C   UNL     1     -11.406  11.553  67.093  1.00  0.00    -0.354 A  
HETATM   10  C   UNL     1     -11.838  12.710  66.384  1.00  0.00    -0.466 A  
HETATM   11  C   UNL     1     -10.907  13.723  66.433  1.00  0.00    -0.287 A  
ENDBRANCH   6   7
ENDBRANCH   5   6
ENDBRANCH   4   5
BRANCH   4  12
HETATM   12  C   UNL     1     -10.978   7.713  68.544  1.00  0.00     0.158 C  
HETATM   13  C   UNL     1     -10.539   7.626  67.064  1.00  0.00    -0.406 C  
HETATM   14  C   UNL     1     -11.139   6.229  68.979  1.00  0.00    -0.446 C  
HETATM   15  C   UNL     1      -9.151   6.993  66.921  1.00  0.00    -0.156 C  
HETATM   16  C   UNL     1      -9.896   5.392  68.741  1.00  0.00    -0.208 A  
HETATM   17  C   UNL     1      -9.714   4.218  69.489  1.00  0.00    -0.272 A  
HETATM   18  C   UNL     1      -8.958   5.743  67.747  1.00  0.00    -0.107 A  
HETATM   19  C   UNL     1      -8.593   3.413  69.285  1.00  0.00    -0.112 A  
HETATM   20  C   UNL     1      -7.826   4.930  67.577  1.00  0.00    -0.094 A  
HETATM   21  O   UNL     1      -6.835   5.215  66.678  1.00  0.00    -0.059 OA 
HETATM   22  H   UNL     1      -6.069   4.665  66.563  1.00  0.00     0.000 HD 
HETATM   23  C   UNL     1      -7.647   3.773  68.332  1.00  0.00    -0.061 A  
ENDBRANCH   4  12
ENDBRANCH   3   4
ENDBRANCH   2   3
TORSDOF 6
ENDMDL
MODEL      160
REMARK 921   NORMALIZED FREE ENERGY PREDICTED BY IDOCK:   -3.13 KCAL/MOL
REMARK 922        TOTAL FREE ENERGY PREDICTED BY IDOCK:   -5.62 KCAL/MOL
REMARK 923 INTER-LIGAND FREE ENERGY PREDICTED BY IDOCK:   -5.23 KCAL/MOL
REMARK 924 INTRA-LIGAND FREE ENERGY PREDICTED BY IDOCK:   -0.39 KCAL/MOL
REMARK 927      BINDING AFFINITY PREDICTED BY RF-SCORE:    0.00 PKD
ROOT
HETATM    1  C   UNL     1      -5.352   6.830  69.223  1.00  0.00    -0.014 C  
HETATM    2  C   UNL     1      -6.501   6.385  70.118  1.00  0.00    -0.040 C  
ENDROOT
BRANCH   2   3
HETATM    3  C   UNL     1      -7.831   6.337  69.347  1.00  0.00    -0.104 C  
BRANCH   3   4
HETATM    4  N   UNL     1      -8.573   7.613  69.238  1.00  0.00    -0.135 NA 
BRANCH   4   5
HETATM    5  C   UNL     1      -8.553   8.155  67.864  1.00  0.00    -0.132 C  
BRANCH   5   6
HETATM    6  C   UNL     1      -9.803   7.789  67.037  1.00  0.00    -0.286 C  
BRANCH   6   7
HETATM    7  C   UNL     1      -9.659   6.424  66.426  1.00  0.00    -0.113 A  
HETATM    8  S   UNL     1      -8.292   6.055  65.459  1.00  0.00    -0.148 SA 
HETATM    9  C   UNL     1     -10.520   5.349  66.521  1.00  0.00    -0.352 A  
HETATM   10  C   UNL     1     -10.063   4.225  65.775  1.00  0.00    -0.229 A  
HETATM   11  C   UNL     1      -8.865   4.476  65.147  1.00  0.00    -0.143 A  
ENDBRANCH   6   7
ENDBRANCH   5   6
ENDBRANCH   4   5
BRANCH   4  12
HETATM   12  C   UNL     1      -8.223   8.609  70.291  1.00  0.00    -0.119 C  
HETATM   13  C   UNL     1      -8.445  10.082  69.875  1.00  0.00    -0.171 C  
HETATM   14  C   UNL     1      -9.053   8.457  71.597  1.00  0.00    -0.268 C  
HETATM   15  C   UNL     1      -9.901  10.346  69.481  1.00  0.00    -0.211 C  
HETATM   16  C   UNL     1     -10.509   8.851  71.437  1.00  0.00    -0.375 A  
HETATM   17  C   UNL     1     -11.456   8.335  72.335  1.00  0.00    -0.463 A  
HETATM   18  C   UNL     1     -10.912   9.768  70.442  1.00  0.00    -0.371 A  
HETATM   19  C   UNL     1     -12.800   8.690  72.231  1.00  0.00    -0.438 A  
HETATM   20  C   UNL     1     -12.275  10.091  70.342  1.00  0.00    -0.170 A  
HETATM   21  O   UNL     1     -12.771  10.926  69.380  1.00  0.00    -0.554 OA 
HETATM   22  H   UNL     1     -13.693  11.145  69.312  1.00  0.00     0.000 HD 
HETATM   23  C   UNL     1     -13.210   9.564  71.231  1.00  0.00    -0.400 A  
ENDBRANCH   4  12
ENDBRANCH   3   4
ENDBRANCH   2   3
TORSDOF 6
ENDMDL
MODEL      161
REMARK 921   NORMALIZED FREE ENERGY PREDICTED BY IDOCK:   -3.13 KCAL/MOL
REMARK 922        TOTAL FREE ENERGY PREDICTED BY IDOCK:   -5.62 KCAL/MOL
REMARK 923 INTER-LIGAND FREE ENERGY PREDICTED BY IDOCK:   -4.56 KCAL/MOL
REMARK 924 INTRA-LIGAND FREE ENERGY PREDICTED BY IDOCK:   -1.05 KCAL/MOL
REMARK 927      BINDING AFFINITY PREDICTED BY RF-SCORE:    0.00 PKD
ROOT
HETATM    1  C   UNL     1     -10.416  11.209  64.328  1.00  0.00    -0.427 C  
HETATM    2  C   UNL     1      -9.584  10.012  64.768  1.00  0.00    -0.374 C  
ENDROOT
BRANCH   2   3
HETATM    3  C   UNL     1      -9.718   9.755  66.278  1.00  0.00    -0.234 C  
BRANCH   3   4
HETATM    4  N   UNL     1      -8.478   9.872  67.077  1.00  0.00    -0.121 NA 
BRANCH   4   5
HETATM    5  C   UNL     1      -7.696   8.619  67.083  1.00  0.00    -0.096 C  
BRANCH   5   6
HETATM    6  C   UNL     1      -6.360   8.720  66.319  1.00  0.00    -0.061 C  
BRANCH   6   7
HETATM    7  C   UNL     1      -6.370   7.835  65.105  1.00  0.00    -0.038 A  
HETATM    8  S   UNL     1      -7.421   6.482  65.036  1.00  0.00    -0.091 SA 
HETATM    9  C   UNL     1      -5.606   7.945  63.960  1.00  0.00    -0.048 A  
HETATM   10  C   UNL     1      -5.872   6.896  63.033  1.00  0.00    -0.039 A  
HETATM   11  C   UNL     1      -6.835   6.031  63.497  1.00  0.00    -0.037 A  
ENDBRANCH   6   7
ENDBRANCH   5   6
ENDBRANCH   4   5
BRANCH   4  12
HETATM   12  C   UNL     1      -8.682  10.469  68.429  1.00  0.00    -0.137 C  
HETATM   13  C   UNL     1      -7.740  11.651  68.754  1.00  0.00    -0.111 C  
HETATM   14  C   UNL     1     -10.108  11.051  68.646  1.00  0.00    -0.207 C  
HETATM   15  C   UNL     1      -7.888  12.789  67.740  1.00  0.00    -0.156 C  
HETATM   16  C   UNL     1     -10.376  12.308  67.840  1.00  0.00    -0.216 A  
HETATM   17  C   UNL     1     -11.704  12.662  67.557  1.00  0.00    -0.429 A  
HETATM   18  C   UNL     1      -9.321  13.148  67.425  1.00  0.00    -0.213 A  
HETATM   19  C   UNL     1     -11.991  13.821  66.835  1.00  0.00    -0.460 A  
HETATM   20  C   UNL     1      -9.634  14.297  66.678  1.00  0.00    -0.289 A  
HETATM   21  O   UNL     1      -8.681  15.144  66.186  1.00  0.00    -0.455 OA 
HETATM   22  H   UNL     1      -8.891  15.921  65.681  1.00  0.00     0.000 HD 
HETATM   23  C   UNL     1     -10.955  14.634  66.391  1.00  0.00    -0.325 A  
ENDBRANCH   4  12
ENDBRANCH   3   4
ENDBRANCH   2   3
TORSDOF 6
ENDMDL
MODEL      162
REMARK 921   NORMALIZED FREE ENERGY PREDICTED BY IDOCK:   -3.10 KCAL/MOL
REMARK 922        TOTAL FREE ENERGY PREDICTED BY IDOCK:   -5.59 KCAL/MOL
REMARK 923 INTER-LIGAND FREE ENERGY PREDICTED BY IDOCK:   -6.04 KCAL/MOL
REMARK 924 INTRA-LIGAND FREE ENERGY PREDICTED BY IDOCK:    0.45 KCAL/MOL
REMARK 927      BINDING AFFINITY PREDICTED BY RF-SCORE:    0.00 PKD
ROOT
HETATM    1  C   UNL     1     -10.043   8.155  68.923  1.00  0.00    -0.211 C  
HETATM    2  C   UNL     1     -10.423   8.281  67.454  1.00  0.00    -0.353 C  
ENDROOT
BRANCH   2   3
HETATM    3  C   UNL     1     -10.773   9.732  67.083  1.00  0.00    -0.202 C  
BRANCH   3   4
HETATM    4  N   UNL     1      -9.939  10.787  67.702  1.00  0.00    -0.170 NA 
BRANCH   4   5
HETATM    5  C   UNL     1     -10.753  11.840  68.341  1.00  0.00    -0.219 C  
BRANCH   5   6
HETATM    6  C   UNL     1     -11.893  11.291  69.223  1.00  0.00    -0.423 C  
BRANCH   6   7
HETATM    7  C   UNL     1     -12.330  12.315  70.233  1.00  0.00    -0.189 A  
HETATM    8  S   UNL     1     -13.053  11.815  71.704  1.00  0.00    -0.209 SA 
HETATM    9  C   UNL     1     -12.240  13.690  70.151  1.00  0.00    -0.413 A  
HETATM   10  C   UNL     1     -12.791  14.334  71.295  1.00  0.00    -0.422 A  
HETATM   11  C   UNL     1     -13.271  13.430  72.215  1.00  0.00    -0.472 A  
ENDBRANCH   6   7
ENDBRANCH   5   6
ENDBRANCH   4   5
BRANCH   4  12
HETATM   12  C   UNL     1      -8.861  11.307  66.812  1.00  0.00    -0.170 C  
HETATM   13  C   UNL     1      -9.233  11.338  65.311  1.00  0.00    -0.191 C  
HETATM   14  C   UNL     1      -8.441  12.771  67.128  1.00  0.00    -0.181 C  
HETATM   15  C   UNL     1     -10.474  12.197  65.053  1.00  0.00    -0.326 C  
HETATM   16  C   UNL     1      -9.500  13.794  66.764  1.00  0.00    -0.281 A  
HETATM   17  C   UNL     1      -9.483  15.044  67.403  1.00  0.00    -0.202 A  
HETATM   18  C   UNL     1     -10.457  13.531  65.761  1.00  0.00    -0.293 A  
HETATM   19  C   UNL     1     -10.429  16.018  67.081  1.00  0.00    -0.308 A  
HETATM   20  C   UNL     1     -11.413  14.518  65.472  1.00  0.00    -0.343 A  
HETATM   21  O   UNL     1     -12.412  14.338  64.556  1.00  0.00    -0.607 OA 
HETATM   22  H   UNL     1     -13.059  15.006  64.360  1.00  0.00     0.000 HD 
HETATM   23  C   UNL     1     -11.397  15.752  66.119  1.00  0.00     0.143 A  
ENDBRANCH   4  12
ENDBRANCH   3   4
ENDBRANCH   2   3
TORSDOF 6
ENDMDL
MODEL      163
REMARK 921   NORMALIZED FREE ENERGY PREDICTED BY IDOCK:   -3.09 KCAL/MOL
REMARK 922        TOTAL FREE ENERGY PREDICTED BY IDOCK:   -5.57 KCAL/MOL
REMARK 923 INTER-LIGAND FREE ENERGY PREDICTED BY IDOCK:   -5.95 KCAL/MOL
REMARK 924 INTRA-LIGAND FREE ENERGY PREDICTED BY IDOCK:    0.38 KCAL/MOL
REMARK 927      BINDING AFFINITY PREDICTED BY RF-SCORE:    0.00 PKD
ROOT
HETATM    1  C   UNL     1     -10.143  17.462  67.564  1.00  0.00    -0.322 C  
HETATM    2  C   UNL     1      -9.875  16.000  67.233  1.00  0.00    -0.236 C  
ENDROOT
BRANCH   2   3
HETATM    3  C   UNL     1     -10.005  15.106  68.478  1.00  0.00    -0.223 C  
BRANCH   3   4
HETATM    4  N   UNL     1      -9.632  13.684  68.307  1.00  0.00    -0.214 NA 
BRANCH   4   5
HETATM    5  C   UNL     1      -8.812  13.463  67.098  1.00  0.00    -0.222 C  
BRANCH   5   6
HETATM    6  C   UNL     1      -7.310  13.284  67.394  1.00  0.00    -0.125 C  
BRANCH   6   7
HETATM    7  C   UNL     1      -6.929  11.830  67.369  1.00  0.00    -0.121 A  
HETATM    8  S   UNL     1      -6.982  10.903  68.810  1.00  0.00    -0.086 SA 
HETATM    9  C   UNL     1      -6.505  11.075  66.293  1.00  0.00    -0.112 A  
HETATM   10  C   UNL     1      -6.202   9.734  66.664  1.00  0.00    -0.064 A  
HETATM   11  C   UNL     1      -6.415   9.508  68.004  1.00  0.00    -0.061 A  
ENDBRANCH   6   7
ENDBRANCH   5   6
ENDBRANCH   4   5
BRANCH   4  12
HETATM   12  C   UNL     1     -10.775  12.736  68.449  1.00  0.00    -0.250 C  
HETATM   13  C   UNL     1     -12.106  13.247  67.851  1.00  0.00    -0.270 C  
HETATM   14  C   UNL     1     -10.544  11.369  67.745  1.00  0.00    -0.231 C  
HETATM   15  C   UNL     1     -11.972  13.560  66.358  1.00  0.00    -0.459 C  
HETATM   16  C   UNL     1     -10.558  11.459  66.231  1.00  0.00    -0.312 A  
HETATM   17  C   UNL     1      -9.911  10.462  65.485  1.00  0.00    -0.332 A  
HETATM   18  C   UNL     1     -11.256  12.491  65.567  1.00  0.00    -0.349 A  
HETATM   19  C   UNL     1      -9.918  10.501  64.091  1.00  0.00    -0.385 A  
HETATM   20  C   UNL     1     -11.229  12.523  64.163  1.00  0.00    -0.382 A  
HETATM   21  O   UNL     1     -11.828  13.510  63.431  1.00  0.00    -0.736 OA 
HETATM   22  H   UNL     1     -11.810  13.531  62.482  1.00  0.00     0.000 HD 
HETATM   23  C   UNL     1     -10.574  11.535  63.431  1.00  0.00    -0.460 A  
ENDBRANCH   4  12
ENDBRANCH   3   4
ENDBRANCH   2   3
TORSDOF 6
ENDMDL
MODEL      164
REMARK 921   NORMALIZED FREE ENERGY PREDICTED BY IDOCK:   -3.08 KCAL/MOL
REMARK 922        TOTAL FREE ENERGY PREDICTED BY IDOCK:   -5.56 KCAL/MOL
REMARK 923 INTER-LIGAND FREE ENERGY PREDICTED BY IDOCK:   -4.78 KCAL/MOL
REMARK 924 INTRA-LIGAND FREE ENERGY PREDICTED BY IDOCK:   -0.78 KCAL/MOL
REMARK 927      BINDING AFFINITY PREDICTED BY RF-SCORE:    0.00 PKD
ROOT
HETATM    1  C   UNL     1      -7.123  14.057  68.916  1.00  0.00    -0.111 C  
HETATM    2  C   UNL     1      -6.926  12.557  68.739  1.00  0.00    -0.094 C  
ENDROOT
BRANCH   2   3
HETATM    3  C   UNL     1      -7.769  12.010  67.575  1.00  0.00    -0.155 C  
BRANCH   3   4
HETATM    4  N   UNL     1      -8.939  11.182  67.944  1.00  0.00    -0.139 NA 
BRANCH   4   5
HETATM    5  C   UNL     1     -10.187  11.969  67.995  1.00  0.00    -0.198 C  
BRANCH   5   6
HETATM    6  C   UNL     1     -10.358  12.935  66.805  1.00  0.00    -0.250 C  
BRANCH   6   7
HETATM    7  C   UNL     1     -10.510  14.352  67.284  1.00  0.00    -0.269 A  
HETATM    8  S   UNL     1      -9.878  15.645  66.352  1.00  0.00    -0.298 SA 
HETATM    9  C   UNL     1     -11.113  14.805  68.440  1.00  0.00    -0.274 A  
HETATM   10  C   UNL     1     -11.033  16.221  68.570  1.00  0.00    -0.345 A  
HETATM   11  C   UNL     1     -10.384  16.800  67.504  1.00  0.00    -0.301 A  
ENDBRANCH   6   7
ENDBRANCH   5   6
ENDBRANCH   4   5
BRANCH   4  12
HETATM   12  C   UNL     1      -8.716  10.316  69.138  1.00  0.00    -0.172 C  
HETATM   13  C   UNL     1      -9.990   9.617  69.667  1.00  0.00    -0.239 C  
HETATM   14  C   UNL     1      -7.721   9.147  68.885  1.00  0.00    -0.083 C  
HETATM   15  C   UNL     1     -10.639   8.736  68.595  1.00  0.00    -0.174 C  
HETATM   16  C   UNL     1      -8.273   8.072  67.970  1.00  0.00    -0.129 A  
HETATM   17  C   UNL     1      -7.377   7.239  67.282  1.00  0.00    -0.098 A  
HETATM   18  C   UNL     1      -9.663   7.860  67.846  1.00  0.00    -0.184 A  
HETATM   19  C   UNL     1      -7.847   6.226  66.446  1.00  0.00    -0.104 A  
HETATM   20  C   UNL     1     -10.113   6.850  66.979  1.00  0.00    -0.221 A  
HETATM   21  O   UNL     1     -11.438   6.604  66.751  1.00  0.00    -0.776 OA 
HETATM   22  H   UNL     1     -11.743   5.921  66.165  1.00  0.00     0.000 HD 
HETATM   23  C   UNL     1      -9.216   6.036  66.291  1.00  0.00    -0.168 A  
ENDBRANCH   4  12
ENDBRANCH   3   4
ENDBRANCH   2   3
TORSDOF 6
ENDMDL
MODEL      165
REMARK 921   NORMALIZED FREE ENERGY PREDICTED BY IDOCK:   -3.07 KCAL/MOL
REMARK 922        TOTAL FREE ENERGY PREDICTED BY IDOCK:   -5.54 KCAL/MOL
REMARK 923 INTER-LIGAND FREE ENERGY PREDICTED BY IDOCK:   -4.89 KCAL/MOL
REMARK 924 INTRA-LIGAND FREE ENERGY PREDICTED BY IDOCK:   -0.65 KCAL/MOL
REMARK 927      BINDING AFFINITY PREDICTED BY RF-SCORE:    0.00 PKD
ROOT
HETATM    1  C   UNL     1     -10.547   7.624  67.079  1.00  0.00    -0.406 C  
HETATM    2  C   UNL     1     -11.125   8.105  68.404  1.00  0.00     0.338 C  
ENDROOT
BRANCH   2   3
HETATM    3  C   UNL     1     -10.694   9.548  68.716  1.00  0.00    -0.190 C  
BRANCH   3   4
HETATM    4  N   UNL     1      -9.334   9.936  68.280  1.00  0.00    -0.132 NA 
BRANCH   4   5
HETATM    5  C   UNL     1      -8.292   9.059  68.853  1.00  0.00    -0.125 C  
BRANCH   5   6
HETATM    6  C   UNL     1      -7.929   9.402  70.312  1.00  0.00    -0.172 C  
BRANCH   6   7
HETATM    7  C   UNL     1      -8.558   8.423  71.264  1.00  0.00    -0.161 A  
HETATM    8  S   UNL     1      -8.388   6.738  70.998  1.00  0.00    -0.128 SA 
HETATM    9  C   UNL     1      -9.308   8.688  72.392  1.00  0.00    -0.284 A  
HETATM   10  C   UNL     1      -9.765   7.497  73.026  1.00  0.00    -0.278 A  
HETATM   11  C   UNL     1      -9.338   6.366  72.369  1.00  0.00    -0.140 A  
ENDBRANCH   6   7
ENDBRANCH   5   6
ENDBRANCH   4   5
BRANCH   4  12
HETATM   12  C   UNL     1      -9.046  11.393  68.418  1.00  0.00    -0.179 C  
HETATM   13  C   UNL     1      -7.985  11.930  67.429  1.00  0.00    -0.162 C  
HETATM   14  C   UNL     1     -10.285  12.301  68.173  1.00  0.00    -0.212 C  
HETATM   15  C   UNL     1      -8.397  11.695  65.974  1.00  0.00     0.110 C  
HETATM   16  C   UNL     1     -10.734  12.331  66.725  1.00  0.00    -0.272 A  
HETATM   17  C   UNL     1     -12.060  12.689  66.432  1.00  0.00    -0.330 A  
HETATM   18  C   UNL     1      -9.831  12.063  65.674  1.00  0.00    -0.265 A  
HETATM   19  C   UNL     1     -12.505  12.746  65.111  1.00  0.00    -0.565 A  
HETATM   20  C   UNL     1     -10.309  12.103  64.353  1.00  0.00    -0.319 A  
HETATM   21  O   UNL     1      -9.527  11.807  63.272  1.00  0.00    -0.529 OA 
HETATM   22  H   UNL     1      -9.849  11.835  62.379  1.00  0.00     0.000 HD 
HETATM   23  C   UNL     1     -11.629  12.448  64.073  1.00  0.00    -0.488 A  
ENDBRANCH   4  12
ENDBRANCH   3   4
ENDBRANCH   2   3
TORSDOF 6
ENDMDL
MODEL      166
REMARK 921   NORMALIZED FREE ENERGY PREDICTED BY IDOCK:   -3.06 KCAL/MOL
REMARK 922        TOTAL FREE ENERGY PREDICTED BY IDOCK:   -5.53 KCAL/MOL
REMARK 923 INTER-LIGAND FREE ENERGY PREDICTED BY IDOCK:   -4.47 KCAL/MOL
REMARK 924 INTRA-LIGAND FREE ENERGY PREDICTED BY IDOCK:   -1.06 KCAL/MOL
REMARK 927      BINDING AFFINITY PREDICTED BY RF-SCORE:    0.00 PKD
ROOT
HETATM    1  C   UNL     1     -11.053   6.700  66.907  1.00  0.00    -0.319 C  
HETATM    2  C   UNL     1     -10.175   7.927  67.115  1.00  0.00    -0.360 C  
ENDROOT
BRANCH   2   3
HETATM    3  C   UNL     1     -11.019   9.196  67.324  1.00  0.00     0.110 C  
BRANCH   3   4
HETATM    4  N   UNL     1     -10.423  10.247  68.179  1.00  0.00    -0.177 NA 
BRANCH   4   5
HETATM    5  C   UNL     1     -11.042  10.293  69.520  1.00  0.00    -0.262 C  
BRANCH   5   6
HETATM    6  C   UNL     1     -10.216   9.574  70.606  1.00  0.00    -0.364 C  
BRANCH   6   7
HETATM    7  C   UNL     1     -10.864   8.276  70.999  1.00  0.00    -0.233 A  
HETATM    8  S   UNL     1      -9.988   6.808  70.879  1.00  0.00    -0.186 SA 
HETATM    9  C   UNL     1     -12.146   8.068  71.468  1.00  0.00    -0.330 A  
HETATM   10  C   UNL     1     -12.414   6.689  71.705  1.00  0.00    -0.360 A  
HETATM   11  C   UNL     1     -11.326   5.896  71.423  1.00  0.00    -0.178 A  
ENDBRANCH   6   7
ENDBRANCH   5   6
ENDBRANCH   4   5
BRANCH   4  12
HETATM   12  C   UNL     1     -10.311  11.578  67.515  1.00  0.00    -0.194 C  
HETATM   13  C   UNL     1      -9.052  12.385  67.910  1.00  0.00    -0.191 C  
HETATM   14  C   UNL     1     -10.237  11.498  65.963  1.00  0.00    -0.283 C  
HETATM   15  C   UNL     1      -7.766  11.619  67.590  1.00  0.00    -0.133 C  
HETATM   16  C   UNL     1      -8.933  10.918  65.451  1.00  0.00    -0.209 A  
HETATM   17  C   UNL     1      -8.900  10.349  64.168  1.00  0.00    -0.228 A  
HETATM   18  C   UNL     1      -7.749  10.993  66.215  1.00  0.00    -0.132 A  
HETATM   19  C   UNL     1      -7.714   9.822  63.655  1.00  0.00    -0.137 A  
HETATM   20  C   UNL     1      -6.573  10.434  65.687  1.00  0.00    -0.129 A  
HETATM   21  O   UNL     1      -5.390  10.410  66.372  1.00  0.00    -0.047 OA 
HETATM   22  H   UNL     1      -4.595  10.032  66.016  1.00  0.00     0.000 HD 
HETATM   23  C   UNL     1      -6.553   9.861  64.418  1.00  0.00    -0.125 A  
ENDBRANCH   4  12
ENDBRANCH   3   4
ENDBRANCH   2   3
TORSDOF 6
ENDMDL
MODEL      167
REMARK 921   NORMALIZED FREE ENERGY PREDICTED BY IDOCK:   -3.06 KCAL/MOL
REMARK 922        TOTAL FREE ENERGY PREDICTED BY IDOCK:   -5.53 KCAL/MOL
REMARK 923 INTER-LIGAND FREE ENERGY PREDICTED BY IDOCK:   -3.67 KCAL/MOL
REMARK 924 INTRA-LIGAND FREE ENERGY PREDICTED BY IDOCK:   -1.86 KCAL/MOL
REMARK 927      BINDING AFFINITY PREDICTED BY RF-SCORE:    0.00 PKD
ROOT
HETATM    1  C   UNL     1     -10.623   7.032  67.381  1.00  0.00    -0.372 C  
HETATM    2  C   UNL     1     -10.598   8.522  67.069  1.00  0.00    -0.305 C  
ENDROOT
BRANCH   2   3
HETATM    3  C   UNL     1     -10.660   9.369  68.352  1.00  0.00    -0.204 C  
BRANCH   3   4
HETATM    4  N   UNL     1     -10.032   8.781  69.556  1.00  0.00    -0.190 NA 
BRANCH   4   5
HETATM    5  C   UNL     1     -10.972   8.696  70.692  1.00  0.00    -0.240 C  
BRANCH   5   6
HETATM    6  C   UNL     1     -11.844   7.424  70.678  1.00  0.00    -0.245 C  
BRANCH   6   7
HETATM    7  C   UNL     1     -11.083   6.247  71.221  1.00  0.00    -0.289 A  
HETATM    8  S   UNL     1     -10.697   6.170  72.889  1.00  0.00    -0.260 SA 
HETATM    9  C   UNL     1     -10.606   5.147  70.536  1.00  0.00    -0.221 A  
HETATM   10  C   UNL     1      -9.900   4.249  71.387  1.00  0.00    -0.260 A  
HETATM   11  C   UNL     1      -9.873   4.687  72.691  1.00  0.00    -0.150 A  
ENDBRANCH   6   7
ENDBRANCH   5   6
ENDBRANCH   4   5
BRANCH   4  12
HETATM   12  C   UNL     1      -8.711   9.380  69.904  1.00  0.00    -0.197 C  
HETATM   13  C   UNL     1      -7.966   8.660  71.053  1.00  0.00    -0.153 C  
HETATM   14  C   UNL     1      -7.691   9.371  68.729  1.00  0.00    -0.080 C  
HETATM   15  C   UNL     1      -7.713   7.186  70.728  1.00  0.00    -0.094 C  
HETATM   16  C   UNL     1      -7.187   7.984  68.379  1.00  0.00    -0.089 A  
HETATM   17  C   UNL     1      -6.669   7.754  67.095  1.00  0.00    -0.068 A  
HETATM   18  C   UNL     1      -7.176   6.947  69.336  1.00  0.00    -0.089 A  
HETATM   19  C   UNL     1      -6.178   6.497  66.742  1.00  0.00    -0.040 A  
HETATM   20  C   UNL     1      -6.699   5.683  68.950  1.00  0.00    -0.053 A  
HETATM   21  O   UNL     1      -6.699   4.602  69.787  1.00  0.00    -0.035 OA 
HETATM   22  H   UNL     1      -6.376   3.748  69.526  1.00  0.00     0.000 HD 
HETATM   23  C   UNL     1      -6.198   5.461  67.669  1.00  0.00    -0.034 A  
ENDBRANCH   4  12
ENDBRANCH   3   4
ENDBRANCH   2   3
TORSDOF 6
ENDMDL
MODEL      168
REMARK 921   NORMALIZED FREE ENERGY PREDICTED BY IDOCK:   -3.04 KCAL/MOL
REMARK 922        TOTAL FREE ENERGY PREDICTED BY IDOCK:   -5.50 KCAL/MOL
REMARK 923 INTER-LIGAND FREE ENERGY PREDICTED BY IDOCK:   -4.41 KCAL/MOL
REMARK 924 INTRA-LIGAND FREE ENERGY PREDICTED BY IDOCK:   -1.09 KCAL/MOL
REMARK 927      BINDING AFFINITY PREDICTED BY RF-SCORE:    0.00 PKD
ROOT
HETATM    1  C   UNL     1      -8.506   6.226  65.408  1.00  0.00    -0.131 C  
HETATM    2  C   UNL     1      -8.352   5.674  66.819  1.00  0.00    -0.108 C  
ENDROOT
BRANCH   2   3
HETATM    3  C   UNL     1      -9.554   6.046  67.704  1.00  0.00    -0.112 C  
BRANCH   3   4
HETATM    4  N   UNL     1      -9.241   6.706  68.992  1.00  0.00    -0.132 NA 
BRANCH   4   5
HETATM    5  C   UNL     1      -9.174   8.176  68.864  1.00  0.00    -0.147 C  
BRANCH   5   6
HETATM    6  C   UNL     1     -10.527   8.828  68.512  1.00  0.00    -0.212 C  
BRANCH   6   7
HETATM    7  C   UNL     1     -11.258   9.249  69.756  1.00  0.00    -0.085 A  
HETATM    8  S   UNL     1     -11.558  10.910  70.054  1.00  0.00    -0.362 SA 
HETATM    9  C   UNL     1     -11.752   8.452  70.769  1.00  0.00    -0.219 A  
HETATM   10  C   UNL     1     -12.360   9.216  71.807  1.00  0.00    -0.444 A  
HETATM   11  C   UNL     1     -12.319  10.566  71.544  1.00  0.00    -0.341 A  
ENDBRANCH   6   7
ENDBRANCH   5   6
ENDBRANCH   4   5
BRANCH   4  12
HETATM   12  C   UNL     1      -8.083   6.105  69.715  1.00  0.00    -0.119 C  
HETATM   13  C   UNL     1      -7.568   6.947  70.906  1.00  0.00    -0.087 C  
HETATM   14  C   UNL     1      -8.391   4.715  70.340  1.00  0.00    -0.082 C  
HETATM   15  C   UNL     1      -8.665   7.187  71.946  1.00  0.00    -0.126 C  
HETATM   16  C   UNL     1      -9.341   4.781  71.521  1.00  0.00    -0.197 A  
HETATM   17  C   UNL     1     -10.070   3.633  71.871  1.00  0.00    -0.182 A  
HETATM   18  C   UNL     1      -9.458   5.951  72.300  1.00  0.00    -0.158 A  
HETATM   19  C   UNL     1     -10.939   3.649  72.962  1.00  0.00    -0.162 A  
HETATM   20  C   UNL     1     -10.357   5.951  73.379  1.00  0.00    -0.231 A  
HETATM   21  O   UNL     1     -10.581   7.051  74.160  1.00  0.00    -0.450 OA 
HETATM   22  H   UNL     1     -11.189   7.051  74.890  1.00  0.00     0.000 HD 
HETATM   23  C   UNL     1     -11.085   4.811  73.712  1.00  0.00    -0.321 A  
ENDBRANCH   4  12
ENDBRANCH   3   4
ENDBRANCH   2   3
TORSDOF 6
ENDMDL
MODEL      169
REMARK 921   NORMALIZED FREE ENERGY PREDICTED BY IDOCK:   -3.03 KCAL/MOL
REMARK 922        TOTAL FREE ENERGY PREDICTED BY IDOCK:   -5.49 KCAL/MOL
REMARK 923 INTER-LIGAND FREE ENERGY PREDICTED BY IDOCK:   -5.56 KCAL/MOL
REMARK 924 INTRA-LIGAND FREE ENERGY PREDICTED BY IDOCK:    0.07 KCAL/MOL
REMARK 927      BINDING AFFINITY PREDICTED BY RF-SCORE:    0.00 PKD
ROOT
HETATM    1  C   UNL     1      -7.911  12.854  68.317  1.00  0.00    -0.142 C  
HETATM    2  C   UNL     1      -7.719  11.416  67.851  1.00  0.00    -0.114 C  
ENDROOT
BRANCH   2   3
HETATM    3  C   UNL     1      -8.563  10.436  68.684  1.00  0.00    -0.133 C  
BRANCH   3   4
HETATM    4  N   UNL     1      -9.526   9.599  67.934  1.00  0.00    -0.131 NA 
BRANCH   4   5
HETATM    5  C   UNL     1     -10.928   9.961  68.228  1.00  0.00    -0.196 C  
BRANCH   5   6
HETATM    6  C   UNL     1     -11.072  11.031  69.329  1.00  0.00    -0.312 C  
BRANCH   6   7
HETATM    7  C   UNL     1     -11.399  12.371  68.733  1.00  0.00    -0.293 A  
HETATM    8  S   UNL     1     -11.506  12.551  67.031  1.00  0.00    -0.374 SA 
HETATM    9  C   UNL     1     -11.637  13.564  69.387  1.00  0.00    -0.369 A  
HETATM   10  C   UNL     1     -11.884  14.634  68.481  1.00  0.00    -0.346 A  
HETATM   11  C   UNL     1     -11.839  14.221  67.169  1.00  0.00    -0.425 A  
ENDBRANCH   6   7
ENDBRANCH   5   6
ENDBRANCH   4   5
BRANCH   4  12
HETATM   12  C   UNL     1      -9.246   8.136  68.011  1.00  0.00    -0.132 C  
HETATM   13  C   UNL     1      -7.995   7.769  68.843  1.00  0.00    -0.124 C  
HETATM   14  C   UNL     1     -10.391   7.314  68.668  1.00  0.00    -0.208 C  
HETATM   15  C   UNL     1      -8.104   8.276  70.284  1.00  0.00    -0.104 C  
HETATM   16  C   UNL     1     -10.533   7.561  70.158  1.00  0.00    -0.226 A  
HETATM   17  C   UNL     1     -11.764   7.290  70.777  1.00  0.00    -0.333 A  
HETATM   18  C   UNL     1      -9.439   7.999  70.934  1.00  0.00    -0.178 A  
HETATM   19  C   UNL     1     -11.927   7.486  72.148  1.00  0.00    -0.323 A  
HETATM   20  C   UNL     1      -9.635   8.213  72.308  1.00  0.00    -0.251 A  
HETATM   21  O   UNL     1      -8.653   8.687  73.133  1.00  0.00    -0.393 OA 
HETATM   22  H   UNL     1      -8.784   8.831  74.063  1.00  0.00     0.000 HD 
HETATM   23  C   UNL     1     -10.863   7.952  72.912  1.00  0.00    -0.451 A  
ENDBRANCH   4  12
ENDBRANCH   3   4
ENDBRANCH   2   3
TORSDOF 6
ENDMDL
MODEL      170
REMARK 921   NORMALIZED FREE ENERGY PREDICTED BY IDOCK:   -3.03 KCAL/MOL
REMARK 922        TOTAL FREE ENERGY PREDICTED BY IDOCK:   -5.49 KCAL/MOL
REMARK 923 INTER-LIGAND FREE ENERGY PREDICTED BY IDOCK:   -4.01 KCAL/MOL
REMARK 924 INTRA-LIGAND FREE ENERGY PREDICTED BY IDOCK:   -1.47 KCAL/MOL
REMARK 927      BINDING AFFINITY PREDICTED BY RF-SCORE:    0.00 PKD
ROOT
HETATM    1  C   UNL     1     -11.130   6.682  67.311  1.00  0.00    -0.418 C  
HETATM    2  C   UNL     1     -10.392   7.933  66.855  1.00  0.00    -0.400 C  
ENDROOT
BRANCH   2   3
HETATM    3  C   UNL     1     -10.721   9.140  67.750  1.00  0.00    -0.179 C  
BRANCH   3   4
HETATM    4  N   UNL     1      -9.577   9.777  68.440  1.00  0.00    -0.146 NA 
BRANCH   4   5
HETATM    5  C   UNL     1      -9.591   9.523  69.895  1.00  0.00    -0.223 C  
BRANCH   5   6
HETATM    6  C   UNL     1      -8.899   8.206  70.299  1.00  0.00    -0.141 C  
BRANCH   6   7
HETATM    7  C   UNL     1      -7.583   8.052  69.589  1.00  0.00    -0.096 A  
HETATM    8  S   UNL     1      -6.235   8.998  70.065  1.00  0.00    -0.039 SA 
HETATM    9  C   UNL     1      -7.272   7.216  68.535  1.00  0.00    -0.094 A  
HETATM   10  C   UNL     1      -5.923   7.374  68.104  1.00  0.00    -0.034 A  
HETATM   11  C   UNL     1      -5.250   8.313  68.850  1.00  0.00    -0.031 A  
ENDBRANCH   6   7
ENDBRANCH   5   6
ENDBRANCH   4   5
BRANCH   4  12
HETATM   12  C   UNL     1      -9.369  11.208  68.074  1.00  0.00    -0.166 C  
HETATM   13  C   UNL     1      -7.890  11.602  67.852  1.00  0.00    -0.129 C  
HETATM   14  C   UNL     1     -10.073  11.623  66.750  1.00  0.00    -0.242 C  
HETATM   15  C   UNL     1      -7.240  10.762  66.749  1.00  0.00    -0.128 C  
HETATM   16  C   UNL     1      -9.440  11.015  65.514  1.00  0.00    -0.250 A  
HETATM   17  C   UNL     1     -10.209  10.897  64.345  1.00  0.00    -0.423 A  
HETATM   18  C   UNL     1      -8.084  10.623  65.504  1.00  0.00    -0.129 A  
HETATM   19  C   UNL     1      -9.656  10.360  63.182  1.00  0.00    -0.346 A  
HETATM   20  C   UNL     1      -7.557  10.063  64.329  1.00  0.00    -0.141 A  
HETATM   21  O   UNL     1      -6.272   9.605  64.237  1.00  0.00    -0.091 OA 
HETATM   22  H   UNL     1      -5.915   9.226  63.442  1.00  0.00     0.000 HD 
HETATM   23  C   UNL     1      -8.331   9.939  63.177  1.00  0.00    -0.166 A  
ENDBRANCH   4  12
ENDBRANCH   3   4
ENDBRANCH   2   3
TORSDOF 6
ENDMDL
MODEL      171
REMARK 921   NORMALIZED FREE ENERGY PREDICTED BY IDOCK:   -3.03 KCAL/MOL
REMARK 922        TOTAL FREE ENERGY PREDICTED BY IDOCK:   -5.48 KCAL/MOL
REMARK 923 INTER-LIGAND FREE ENERGY PREDICTED BY IDOCK:   -4.67 KCAL/MOL
REMARK 924 INTRA-LIGAND FREE ENERGY PREDICTED BY IDOCK:   -0.81 KCAL/MOL
REMARK 927      BINDING AFFINITY PREDICTED BY RF-SCORE:    0.00 PKD
ROOT
HETATM    1  C   UNL     1      -7.895  12.646  68.191  1.00  0.00    -0.145 C  
HETATM    2  C   UNL     1      -7.669  11.513  67.199  1.00  0.00    -0.160 C  
ENDROOT
BRANCH   2   3
HETATM    3  C   UNL     1      -8.304  10.200  67.687  1.00  0.00    -0.114 C  
BRANCH   3   4
HETATM    4  N   UNL     1      -9.326  10.321  68.751  1.00  0.00    -0.158 NA 
BRANCH   4   5
HETATM    5  C   UNL     1      -8.862   9.759  70.036  1.00  0.00    -0.215 C  
BRANCH   5   6
HETATM    6  C   UNL     1      -7.327   9.691  70.163  1.00  0.00    -0.141 C  
BRANCH   6   7
HETATM    7  C   UNL     1      -6.923   8.850  71.342  1.00  0.00    -0.087 A  
HETATM    8  S   UNL     1      -8.122   8.172  72.362  1.00  0.00    -0.151 SA 
HETATM    9  C   UNL     1      -5.650   8.524  71.765  1.00  0.00    -0.042 A  
HETATM   10  C   UNL     1      -5.663   7.731  72.948  1.00  0.00    -0.044 A  
HETATM   11  C   UNL     1      -6.943   7.470  73.380  1.00  0.00    -0.072 A  
ENDBRANCH   6   7
ENDBRANCH   5   6
ENDBRANCH   4   5
BRANCH   4  12
HETATM   12  C   UNL     1     -10.685   9.863  68.342  1.00  0.00    -0.232 C  
HETATM   13  C   UNL     1     -11.832  10.810  68.765  1.00  0.00    -0.250 C  
HETATM   14  C   UNL     1     -10.859   9.722  66.802  1.00  0.00    -0.071 C  
HETATM   15  C   UNL     1     -11.646  12.217  68.191  1.00  0.00    -0.397 C  
HETATM   16  C   UNL     1     -10.878  11.052  66.073  1.00  0.00    -0.189 A  
HETATM   17  C   UNL     1     -10.550  11.083  64.709  1.00  0.00    -0.350 A  
HETATM   18  C   UNL     1     -11.272  12.239  66.727  1.00  0.00    -0.371 A  
HETATM   19  C   UNL     1     -10.574  12.284  64.000  1.00  0.00    -0.434 A  
HETATM   20  C   UNL     1     -11.266  13.440  65.999  1.00  0.00    -0.296 A  
HETATM   21  O   UNL     1     -11.580  14.648  66.556  1.00  0.00    -0.361 OA 
HETATM   22  H   UNL     1     -11.576  15.460  66.064  1.00  0.00     0.000 HD 
HETATM   23  C   UNL     1     -10.927  13.463  64.647  1.00  0.00    -0.388 A  
ENDBRANCH   4  12
ENDBRANCH   3   4
ENDBRANCH   2   3
TORSDOF 6
ENDMDL
MODEL      172
REMARK 921   NORMALIZED FREE ENERGY PREDICTED BY IDOCK:   -3.01 KCAL/MOL
REMARK 922        TOTAL FREE ENERGY PREDICTED BY IDOCK:   -5.45 KCAL/MOL
REMARK 923 INTER-LIGAND FREE ENERGY PREDICTED BY IDOCK:   -5.76 KCAL/MOL
REMARK 924 INTRA-LIGAND FREE ENERGY PREDICTED BY IDOCK:    0.30 KCAL/MOL
REMARK 927      BINDING AFFINITY PREDICTED BY RF-SCORE:    0.00 PKD
ROOT
HETATM    1  C   UNL     1      -8.909  14.250  68.124  1.00  0.00    -0.183 C  
HETATM    2  C   UNL     1      -7.915  13.125  67.865  1.00  0.00    -0.158 C  
ENDROOT
BRANCH   2   3
HETATM    3  C   UNL     1      -8.566  11.744  68.045  1.00  0.00    -0.158 C  
BRANCH   3   4
HETATM    4  N   UNL     1      -9.291  11.202  66.874  1.00  0.00    -0.173 NA 
BRANCH   4   5
HETATM    5  C   UNL     1     -10.667  10.786  67.213  1.00  0.00    -0.274 C  
BRANCH   5   6
HETATM    6  C   UNL     1     -11.662  11.961  67.311  1.00  0.00    -0.319 C  
BRANCH   6   7
HETATM    7  C   UNL     1     -11.805  12.654  65.985  1.00  0.00    -0.436 A  
HETATM    8  S   UNL     1     -12.023  14.353  65.924  1.00  0.00    -0.327 SA 
HETATM    9  C   UNL     1     -11.795  12.095  64.723  1.00  0.00    -0.385 A  
HETATM   10  C   UNL     1     -11.992  13.070  63.702  1.00  0.00    -0.608 A  
HETATM   11  C   UNL     1     -12.132  14.337  64.219  1.00  0.00    -0.441 A  
ENDBRANCH   6   7
ENDBRANCH   5   6
ENDBRANCH   4   5
BRANCH   4  12
HETATM   12  C   UNL     1      -8.521  10.185  66.102  1.00  0.00    -0.130 C  
HETATM   13  C   UNL     1      -7.257   9.660  66.821  1.00  0.00    -0.090 C  
HETATM   14  C   UNL     1      -9.333   8.899  65.778  1.00  0.00    -0.286 C  
HETATM   15  C   UNL     1      -7.596   9.026  68.173  1.00  0.00    -0.092 C  
HETATM   16  C   UNL     1      -9.615   8.040  66.996  1.00  0.00    -0.252 A  
HETATM   17  C   UNL     1     -10.698   7.147  66.963  1.00  0.00    -0.420 A  
HETATM   18  C   UNL     1      -8.776   8.084  68.131  1.00  0.00    -0.126 A  
HETATM   19  C   UNL     1     -10.976   6.328  68.057  1.00  0.00    -0.418 A  
HETATM   20  C   UNL     1      -9.091   7.267  69.229  1.00  0.00    -0.138 A  
HETATM   21  O   UNL     1      -8.373   7.277  70.392  1.00  0.00    -0.127 OA 
HETATM   22  H   UNL     1      -8.585   6.724  71.135  1.00  0.00     0.000 HD 
HETATM   23  C   UNL     1     -10.175   6.392  69.191  1.00  0.00    -0.217 A  
ENDBRANCH   4  12
ENDBRANCH   3   4
ENDBRANCH   2   3
TORSDOF 6
ENDMDL
MODEL      173
REMARK 921   NORMALIZED FREE ENERGY PREDICTED BY IDOCK:   -2.96 KCAL/MOL
REMARK 922        TOTAL FREE ENERGY PREDICTED BY IDOCK:   -5.40 KCAL/MOL
REMARK 923 INTER-LIGAND FREE ENERGY PREDICTED BY IDOCK:   -4.39 KCAL/MOL
REMARK 924 INTRA-LIGAND FREE ENERGY PREDICTED BY IDOCK:   -1.00 KCAL/MOL
REMARK 927      BINDING AFFINITY PREDICTED BY RF-SCORE:    0.00 PKD
ROOT
HETATM    1  C   UNL     1     -12.444  13.652  67.912  1.00  0.00     0.259 C  
HETATM    2  C   UNL     1     -11.561  13.451  69.137  1.00  0.00    -0.365 C  
ENDROOT
BRANCH   2   3
HETATM    3  C   UNL     1     -10.361  12.540  68.824  1.00  0.00    -0.117 C  
BRANCH   3   4
HETATM    4  N   UNL     1     -10.546  11.566  67.725  1.00  0.00    -0.186 NA 
BRANCH   4   5
HETATM    5  C   UNL     1     -10.811  10.202  68.225  1.00  0.00    -0.252 C  
BRANCH   5   6
HETATM    6  C   UNL     1      -9.585   9.269  68.154  1.00  0.00    -0.159 C  
BRANCH   6   7
HETATM    7  C   UNL     1      -8.813   9.300  69.443  1.00  0.00    -0.149 A  
HETATM    8  S   UNL     1      -7.151   9.720  69.439  1.00  0.00    -0.074 SA 
HETATM    9  C   UNL     1      -9.263   9.016  70.717  1.00  0.00    -0.299 A  
HETATM   10  C   UNL     1      -8.228   9.122  71.689  1.00  0.00     0.156 A  
HETATM   11  C   UNL     1      -7.028   9.495  71.127  1.00  0.00     0.047 A  
ENDBRANCH   6   7
ENDBRANCH   5   6
ENDBRANCH   4   5
BRANCH   4  12
HETATM   12  C   UNL     1      -9.492  11.635  66.672  1.00  0.00    -0.201 C  
HETATM   13  C   UNL     1      -9.943  11.128  65.282  1.00  0.00    -0.311 C  
HETATM   14  C   UNL     1      -8.973  13.076  66.399  1.00  0.00    -0.002 C  
HETATM   15  C   UNL     1     -11.147  11.916  64.756  1.00  0.00    -0.367 C  
HETATM   16  C   UNL     1      -9.991  13.962  65.708  1.00  0.00    -0.304 A  
HETATM   17  C   UNL     1      -9.869  15.356  65.826  1.00  0.00    -0.399 A  
HETATM   18  C   UNL     1     -11.015  13.413  64.908  1.00  0.00    -0.353 A  
HETATM   19  C   UNL     1     -10.775  16.204  65.189  1.00  0.00    -0.391 A  
HETATM   20  C   UNL     1     -11.930  14.287  64.296  1.00  0.00    -0.425 A  
HETATM   21  O   UNL     1     -12.986  13.850  63.547  1.00  0.00    -0.319 OA 
HETATM   22  H   UNL     1     -13.605  14.440  63.133  1.00  0.00     0.000 HD 
HETATM   23  C   UNL     1     -11.808  15.668  64.429  1.00  0.00    -0.183 A  
ENDBRANCH   4  12
ENDBRANCH   3   4
ENDBRANCH   2   3
TORSDOF 6
ENDMDL
MODEL      174
REMARK 921   NORMALIZED FREE ENERGY PREDICTED BY IDOCK:   -2.96 KCAL/MOL
REMARK 922        TOTAL FREE ENERGY PREDICTED BY IDOCK:   -5.39 KCAL/MOL
REMARK 923 INTER-LIGAND FREE ENERGY PREDICTED BY IDOCK:   -4.05 KCAL/MOL
REMARK 924 INTRA-LIGAND FREE ENERGY PREDICTED BY IDOCK:   -1.34 KCAL/MOL
REMARK 927      BINDING AFFINITY PREDICTED BY RF-SCORE:    0.00 PKD
ROOT
HETATM    1  C   UNL     1      -7.237   8.788  68.810  1.00  0.00    -0.075 C  
HETATM    2  C   UNL     1      -8.331   8.024  69.545  1.00  0.00    -0.127 C  
ENDROOT
BRANCH   2   3
HETATM    3  C   UNL     1      -7.742   6.959  70.485  1.00  0.00    -0.096 C  
BRANCH   3   4
HETATM    4  N   UNL     1      -8.537   5.722  70.655  1.00  0.00    -0.130 NA 
BRANCH   4   5
HETATM    5  C   UNL     1      -9.124   5.617  72.006  1.00  0.00    -0.137 C  
BRANCH   5   6
HETATM    6  C   UNL     1     -10.646   5.366  72.000  1.00  0.00    -0.284 C  
BRANCH   6   7
HETATM    7  C   UNL     1     -11.402   6.662  71.912  1.00  0.00    -0.279 A  
HETATM    8  S   UNL     1     -10.748   8.086  72.607  1.00  0.00    -0.358 SA 
HETATM    9  C   UNL     1     -12.629   6.898  71.325  1.00  0.00    -0.394 A  
HETATM   10  C   UNL     1     -13.042   8.254  71.469  1.00  0.00    -0.313 A  
HETATM   11  C   UNL     1     -12.112   9.006  72.150  1.00  0.00    -0.342 A  
ENDBRANCH   6   7
ENDBRANCH   5   6
ENDBRANCH   4   5
BRANCH   4  12
HETATM   12  C   UNL     1      -7.839   4.485  70.197  1.00  0.00    -0.060 C  
HETATM   13  C   UNL     1      -8.785   3.348  69.746  1.00  0.00    -0.132 C  
HETATM   14  C   UNL     1      -6.908   4.711  68.971  1.00  0.00    -0.050 C  
HETATM   15  C   UNL     1      -9.699   3.793  68.600  1.00  0.00    -0.089 C  
HETATM   16  C   UNL     1      -7.661   4.993  67.685  1.00  0.00    -0.087 A  
HETATM   17  C   UNL     1      -7.002   5.670  66.647  1.00  0.00    -0.064 A  
HETATM   18  C   UNL     1      -8.984   4.539  67.498  1.00  0.00    -0.126 A  
HETATM   19  C   UNL     1      -7.656   5.931  65.442  1.00  0.00    -0.085 A  
HETATM   20  C   UNL     1      -9.629   4.835  66.286  1.00  0.00    -0.178 A  
HETATM   21  O   UNL     1     -10.926   4.485  66.031  1.00  0.00    -0.568 OA 
HETATM   22  H   UNL     1     -11.363   4.685  65.211  1.00  0.00     0.000 HD 
HETATM   23  C   UNL     1      -8.971   5.517  65.265  1.00  0.00    -0.074 A  
ENDBRANCH   4  12
ENDBRANCH   3   4
ENDBRANCH   2   3
TORSDOF 6
ENDMDL
MODEL      175
REMARK 921   NORMALIZED FREE ENERGY PREDICTED BY IDOCK:   -2.95 KCAL/MOL
REMARK 922        TOTAL FREE ENERGY PREDICTED BY IDOCK:   -5.37 KCAL/MOL
REMARK 923 INTER-LIGAND FREE ENERGY PREDICTED BY IDOCK:   -4.83 KCAL/MOL
REMARK 924 INTRA-LIGAND FREE ENERGY PREDICTED BY IDOCK:   -0.55 KCAL/MOL
REMARK 927      BINDING AFFINITY PREDICTED BY RF-SCORE:    0.00 PKD
ROOT
HETATM    1  C   UNL     1     -12.157  14.126  68.176  1.00  0.00    -0.297 C  
HETATM    2  C   UNL     1     -11.099  13.844  69.234  1.00  0.00    -0.261 C  
ENDROOT
BRANCH   2   3
HETATM    3  C   UNL     1      -9.953  14.868  69.173  1.00  0.00    -0.211 C  
BRANCH   3   4
HETATM    4  N   UNL     1      -9.104  14.832  67.961  1.00  0.00    -0.175 NA 
BRANCH   4   5
HETATM    5  C   UNL     1      -8.931  13.460  67.441  1.00  0.00    -0.215 C  
BRANCH   5   6
HETATM    6  C   UNL     1      -7.879  12.636  68.212  1.00  0.00    -0.144 C  
BRANCH   6   7
HETATM    7  C   UNL     1      -8.356  11.227  68.426  1.00  0.00    -0.152 A  
HETATM    8  S   UNL     1      -7.286   9.911  68.176  1.00  0.00    -0.079 SA 
HETATM    9  C   UNL     1      -9.610  10.797  68.812  1.00  0.00    -0.194 A  
HETATM   10  C   UNL     1      -9.695   9.377  68.879  1.00  0.00    -0.166 A  
HETATM   11  C   UNL     1      -8.502   8.773  68.554  1.00  0.00    -0.130 A  
ENDBRANCH   6   7
ENDBRANCH   5   6
ENDBRANCH   4   5
BRANCH   4  12
HETATM   12  C   UNL     1      -7.832  15.600  68.089  1.00  0.00    -0.128 C  
HETATM   13  C   UNL     1      -7.319  16.210  66.764  1.00  0.00    -0.220 C  
HETATM   14  C   UNL     1      -7.931  16.817  69.052  1.00  0.00    -0.188 C  
HETATM   15  C   UNL     1      -8.348  17.157  66.141  1.00  0.00    -0.258 C  
HETATM   16  C   UNL     1      -8.784  17.948  68.510  1.00  0.00    -0.297 A  
HETATM   17  C   UNL     1      -9.349  18.864  69.411  1.00  0.00     0.110 A  
HETATM   18  C   UNL     1      -8.967  18.124  67.122  1.00  0.00    -0.256 A  
HETATM   19  C   UNL     1     -10.124  19.928  68.949  1.00  0.00    -0.438 A  
HETATM   20  C   UNL     1      -9.771  19.189  66.682  1.00  0.00    -0.346 A  
HETATM   21  O   UNL     1     -10.051  19.412  65.363  1.00  0.00    -0.272 OA 
HETATM   22  H   UNL     1     -10.594  20.132  65.065  1.00  0.00     0.000 HD 
HETATM   23  C   UNL     1     -10.338  20.087  67.584  1.00  0.00    -0.510 A  
ENDBRANCH   4  12
ENDBRANCH   3   4
ENDBRANCH   2   3
TORSDOF 6
ENDMDL
MODEL      176
REMARK 921   NORMALIZED FREE ENERGY PREDICTED BY IDOCK:   -2.93 KCAL/MOL
REMARK 922        TOTAL FREE ENERGY PREDICTED BY IDOCK:   -5.36 KCAL/MOL
REMARK 923 INTER-LIGAND FREE ENERGY PREDICTED BY IDOCK:   -5.95 KCAL/MOL
REMARK 924 INTRA-LIGAND FREE ENERGY PREDICTED BY IDOCK:    0.59 KCAL/MOL
REMARK 927      BINDING AFFINITY PREDICTED BY RF-SCORE:    0.00 PKD
ROOT
HETATM    1  C   UNL     1     -10.783  16.406  67.313  1.00  0.00    -0.257 C  
HETATM    2  C   UNL     1     -11.388  15.497  68.375  1.00  0.00    -0.357 C  
ENDROOT
BRANCH   2   3
HETATM    3  C   UNL     1     -10.695  14.125  68.405  1.00  0.00    -0.256 C  
BRANCH   3   4
HETATM    4  N   UNL     1     -11.583  12.941  68.401  1.00  0.00    -0.311 NA 
BRANCH   4   5
HETATM    5  C   UNL     1     -11.328  12.048  69.550  1.00  0.00    -0.228 C  
BRANCH   5   6
HETATM    6  C   UNL     1     -12.502  11.098  69.865  1.00  0.00    -0.257 C  
BRANCH   6   7
HETATM    7  C   UNL     1     -12.079  10.029  70.835  1.00  0.00    -0.355 A  
HETATM    8  S   UNL     1     -13.255   9.217  71.782  1.00  0.00    -0.431 SA 
HETATM    9  C   UNL     1     -10.804   9.575  71.105  1.00  0.00    -0.425 A  
HETATM   10  C   UNL     1     -10.794   8.569  72.114  1.00  0.00    -0.427 A  
HETATM   11  C   UNL     1     -12.061   8.283  72.570  1.00  0.00    -0.337 A  
ENDBRANCH   6   7
ENDBRANCH   5   6
ENDBRANCH   4   5
BRANCH   4  12
HETATM   12  C   UNL     1     -11.650  12.238  67.087  1.00  0.00    -0.353 C  
HETATM   13  C   UNL     1     -10.872  12.938  65.949  1.00  0.00    -0.294 C  
HETATM   14  C   UNL     1     -11.063  10.798  67.117  1.00  0.00    -0.297 C  
HETATM   15  C   UNL     1      -9.388  13.096  66.292  1.00  0.00    -0.138 C  
HETATM   16  C   UNL     1      -9.555  10.765  67.275  1.00  0.00    -0.182 A  
HETATM   17  C   UNL     1      -8.951   9.606  67.788  1.00  0.00    -0.122 A  
HETATM   18  C   UNL     1      -8.753  11.850  66.863  1.00  0.00    -0.191 A  
HETATM   19  C   UNL     1      -7.565   9.530  67.930  1.00  0.00    -0.087 A  
HETATM   20  C   UNL     1      -7.362  11.760  67.038  1.00  0.00    -0.133 A  
HETATM   21  O   UNL     1      -6.506  12.778  66.720  1.00  0.00    -0.443 OA 
HETATM   22  H   UNL     1      -5.565  12.718  66.838  1.00  0.00     0.000 HD 
HETATM   23  C   UNL     1      -6.772  10.611  67.559  1.00  0.00    -0.070 A  
ENDBRANCH   4  12
ENDBRANCH   3   4
ENDBRANCH   2   3
TORSDOF 6
ENDMDL
MODEL      177
REMARK 921   NORMALIZED FREE ENERGY PREDICTED BY IDOCK:   -2.93 KCAL/MOL
REMARK 922        TOTAL FREE ENERGY PREDICTED BY IDOCK:   -5.35 KCAL/MOL
REMARK 923 INTER-LIGAND FREE ENERGY PREDICTED BY IDOCK:   -4.44 KCAL/MOL
REMARK 924 INTRA-LIGAND FREE ENERGY PREDICTED BY IDOCK:   -0.90 KCAL/MOL
REMARK 927      BINDING AFFINITY PREDICTED BY RF-SCORE:    0.00 PKD
ROOT
HETATM    1  C   UNL     1      -6.709   8.449  70.470  1.00  0.00    -0.037 C  
HETATM    2  C   UNL     1      -6.117   7.555  69.389  1.00  0.00    -0.031 C  
ENDROOT
BRANCH   2   3
HETATM    3  C   UNL     1      -6.971   6.295  69.169  1.00  0.00    -0.068 C  
BRANCH   3   4
HETATM    4  N   UNL     1      -8.359   6.516  68.707  1.00  0.00    -0.121 NA 
BRANCH   4   5
HETATM    5  C   UNL     1      -9.312   5.574  69.329  1.00  0.00    -0.118 C  
BRANCH   5   6
HETATM    6  C   UNL     1      -8.981   5.240  70.798  1.00  0.00    -0.160 C  
BRANCH   6   7
HETATM    7  C   UNL     1      -9.709   6.164  71.734  1.00  0.00    -0.153 A  
HETATM    8  S   UNL     1     -10.521   7.543  71.120  1.00  0.00    -0.205 SA 
HETATM    9  C   UNL     1      -9.826   6.073  73.106  1.00  0.00    -0.175 A  
HETATM   10  C   UNL     1     -10.569   7.156  73.656  1.00  0.00    -0.375 A  
HETATM   11  C   UNL     1     -11.002   8.029  72.685  1.00  0.00    -0.382 A  
ENDBRANCH   6   7
ENDBRANCH   5   6
ENDBRANCH   4   5
BRANCH   4  12
HETATM   12  C   UNL     1      -8.495   6.630  67.226  1.00  0.00    -0.120 C  
HETATM   13  C   UNL     1      -9.956   6.658  66.719  1.00  0.00    -0.238 C  
HETATM   14  C   UNL     1      -7.865   7.924  66.638  1.00  0.00    -0.102 C  
HETATM   15  C   UNL     1     -10.743   7.823  67.327  1.00  0.00    -0.326 C  
HETATM   16  C   UNL     1      -8.629   9.184  66.997  1.00  0.00    -0.127 A  
HETATM   17  C   UNL     1      -7.960  10.418  66.963  1.00  0.00    -0.116 A  
HETATM   18  C   UNL     1     -10.006   9.141  67.305  1.00  0.00    -0.270 A  
HETATM   19  C   UNL     1      -8.635  11.600  67.268  1.00  0.00    -0.154 A  
HETATM   20  C   UNL     1     -10.658  10.341  67.633  1.00  0.00    -0.263 A  
HETATM   21  O   UNL     1     -11.974  10.396  67.997  1.00  0.00    -0.706 OA 
HETATM   22  H   UNL     1     -12.415  11.208  68.218  1.00  0.00     0.000 HD 
HETATM   23  C   UNL     1      -9.982  11.560  67.608  1.00  0.00    -0.199 A  
ENDBRANCH   4  12
ENDBRANCH   3   4
ENDBRANCH   2   3
TORSDOF 6
ENDMDL
MODEL      178
REMARK 921   NORMALIZED FREE ENERGY PREDICTED BY IDOCK:   -2.93 KCAL/MOL
REMARK 922        TOTAL FREE ENERGY PREDICTED BY IDOCK:   -5.35 KCAL/MOL
REMARK 923 INTER-LIGAND FREE ENERGY PREDICTED BY IDOCK:   -5.02 KCAL/MOL
REMARK 924 INTRA-LIGAND FREE ENERGY PREDICTED BY IDOCK:   -0.33 KCAL/MOL
REMARK 927      BINDING AFFINITY PREDICTED BY RF-SCORE:    0.00 PKD
ROOT
HETATM    1  C   UNL     1     -10.982   7.373  67.159  1.00  0.00    -0.225 C  
HETATM    2  C   UNL     1     -10.298   8.312  68.143  1.00  0.00    -0.253 C  
ENDROOT
BRANCH   2   3
HETATM    3  C   UNL     1      -9.581   9.464  67.419  1.00  0.00    -0.145 C  
BRANCH   3   4
HETATM    4  N   UNL     1      -8.958   9.134  66.118  1.00  0.00    -0.162 NA 
BRANCH   4   5
HETATM    5  C   UNL     1      -8.147   7.901  66.183  1.00  0.00    -0.109 C  
BRANCH   5   6
HETATM    6  C   UNL     1      -6.697   8.140  66.651  1.00  0.00    -0.063 C  
BRANCH   6   7
HETATM    7  C   UNL     1      -6.384   7.313  67.867  1.00  0.00    -0.048 A  
HETATM    8  S   UNL     1      -7.264   5.875  68.176  1.00  0.00    -0.081 SA 
HETATM    9  C   UNL     1      -5.438   7.552  68.844  1.00  0.00    -0.022 A  
HETATM   10  C   UNL     1      -5.456   6.558  69.864  1.00  0.00    -0.014 A  
HETATM   11  C   UNL     1      -6.404   5.590  69.624  1.00  0.00    -0.033 A  
ENDBRANCH   6   7
ENDBRANCH   5   6
ENDBRANCH   4   5
BRANCH   4  12
HETATM   12  C   UNL     1      -8.265  10.285  65.469  1.00  0.00    -0.158 C  
HETATM   13  C   UNL     1      -8.434  10.348  63.933  1.00  0.00    -0.161 C  
HETATM   14  C   UNL     1      -8.763  11.673  65.961  1.00  0.00    -0.055 C  
HETATM   15  C   UNL     1      -9.908  10.433  63.529  1.00  0.00    -0.268 C  
HETATM   16  C   UNL     1     -10.167  12.009  65.497  1.00  0.00    -0.290 A  
HETATM   17  C   UNL     1     -10.914  12.953  66.220  1.00  0.00    -0.305 A  
HETATM   18  C   UNL     1     -10.708  11.436  64.327  1.00  0.00    -0.420 A  
HETATM   19  C   UNL     1     -12.202  13.303  65.814  1.00  0.00    -0.510 A  
HETATM   20  C   UNL     1     -12.015  11.785  63.951  1.00  0.00    -0.324 A  
HETATM   21  O   UNL     1     -12.645  11.243  62.865  1.00  0.00    -0.917 OA 
HETATM   22  H   UNL     1     -13.529  11.479  62.610  1.00  0.00     0.000 HD 
HETATM   23  C   UNL     1     -12.753  12.713  64.681  1.00  0.00    -0.458 A  
ENDBRANCH   4  12
ENDBRANCH   3   4
ENDBRANCH   2   3
TORSDOF 6
ENDMDL
MODEL      179
REMARK 921   NORMALIZED FREE ENERGY PREDICTED BY IDOCK:   -2.92 KCAL/MOL
REMARK 922        TOTAL FREE ENERGY PREDICTED BY IDOCK:   -5.34 KCAL/MOL
REMARK 923 INTER-LIGAND FREE ENERGY PREDICTED BY IDOCK:   -4.67 KCAL/MOL
REMARK 924 INTRA-LIGAND FREE ENERGY PREDICTED BY IDOCK:   -0.68 KCAL/MOL
REMARK 927      BINDING AFFINITY PREDICTED BY RF-SCORE:    0.00 PKD
ROOT
HETATM    1  C   UNL     1     -11.799  11.293  70.685  1.00  0.00    -0.368 C  
HETATM    2  C   UNL     1     -11.622  10.496  69.399  1.00  0.00    -0.318 C  
ENDROOT
BRANCH   2   3
HETATM    3  C   UNL     1     -11.571  11.415  68.168  1.00  0.00    -0.294 C  
BRANCH   3   4
HETATM    4  N   UNL     1     -10.331  12.204  67.989  1.00  0.00    -0.199 NA 
BRANCH   4   5
HETATM    5  C   UNL     1     -10.556  13.650  68.188  1.00  0.00    -0.247 C  
BRANCH   5   6
HETATM    6  C   UNL     1      -9.291  14.419  68.619  1.00  0.00    -0.188 C  
BRANCH   6   7
HETATM    7  C   UNL     1      -9.005  15.552  67.674  1.00  0.00    -0.184 A  
HETATM    8  S   UNL     1     -10.056  16.905  67.614  1.00  0.00    -0.287 SA 
HETATM    9  C   UNL     1      -7.961  15.679  66.780  1.00  0.00    -0.246 A  
HETATM   10  C   UNL     1      -8.040  16.885  66.027  1.00  0.00    -0.164 A  
HETATM   11  C   UNL     1      -9.134  17.641  66.379  1.00  0.00    -0.234 A  
ENDBRANCH   6   7
ENDBRANCH   5   6
ENDBRANCH   4   5
BRANCH   4  12
HETATM   12  C   UNL     1      -9.575  11.871  66.748  1.00  0.00    -0.204 C  
HETATM   13  C   UNL     1      -8.055  11.679  66.959  1.00  0.00    -0.164 C  
HETATM   14  C   UNL     1     -10.033  10.546  66.073  1.00  0.00    -0.295 C  
HETATM   15  C   UNL     1      -7.759  10.568  67.970  1.00  0.00    -0.092 C  
HETATM   16  C   UNL     1      -9.660   9.307  66.863  1.00  0.00    -0.229 A  
HETATM   17  C   UNL     1     -10.388   8.125  66.656  1.00  0.00    -0.284 A  
HETATM   18  C   UNL     1      -8.564   9.309  67.752  1.00  0.00    -0.117 A  
HETATM   19  C   UNL     1     -10.063   6.959  67.349  1.00  0.00    -0.237 A  
HETATM   20  C   UNL     1      -8.270   8.130  68.457  1.00  0.00    -0.125 A  
HETATM   21  O   UNL     1      -7.264   8.047  69.379  1.00  0.00    -0.068 OA 
HETATM   22  H   UNL     1      -7.065   7.250  69.855  1.00  0.00     0.000 HD 
HETATM   23  C   UNL     1      -9.006   6.964  68.254  1.00  0.00    -0.124 A  
ENDBRANCH   4  12
ENDBRANCH   3   4
ENDBRANCH   2   3
TORSDOF 6
ENDMDL
MODEL      180
REMARK 921   NORMALIZED FREE ENERGY PREDICTED BY IDOCK:   -2.92 KCAL/MOL
REMARK 922        TOTAL FREE ENERGY PREDICTED BY IDOCK:   -5.33 KCAL/MOL
REMARK 923 INTER-LIGAND FREE ENERGY PREDICTED BY IDOCK:   -6.74 KCAL/MOL
REMARK 924 INTRA-LIGAND FREE ENERGY PREDICTED BY IDOCK:    1.40 KCAL/MOL
REMARK 927      BINDING AFFINITY PREDICTED BY RF-SCORE:    0.00 PKD
ROOT
HETATM    1  C   UNL     1      -9.307  19.407  68.645  1.00  0.00    -0.448 C  
HETATM    2  C   UNL     1     -10.658  18.818  68.259  1.00  0.00    -0.214 C  
ENDROOT
BRANCH   2   3
HETATM    3  C   UNL     1     -10.500  17.477  67.523  1.00  0.00    -0.355 C  
BRANCH   3   4
HETATM    4  N   UNL     1     -10.829  16.260  68.298  1.00  0.00    -0.326 NA 
BRANCH   4   5
HETATM    5  C   UNL     1     -10.889  16.522  69.751  1.00  0.00    -0.302 C  
BRANCH   5   6
HETATM    6  C   UNL     1     -10.720  15.255  70.614  1.00  0.00    -0.214 C  
BRANCH   6   7
HETATM    7  C   UNL     1     -11.994  14.930  71.342  1.00  0.00    -0.345 A  
HETATM    8  S   UNL     1     -12.754  13.412  71.106  1.00  0.00    -0.273 SA 
HETATM    9  C   UNL     1     -12.700  15.721  72.227  1.00  0.00    -0.525 A  
HETATM   10  C   UNL     1     -13.884  15.082  72.693  1.00  0.00    -0.537 A  
HETATM   11  C   UNL     1     -14.035  13.823  72.158  1.00  0.00    -0.544 A  
ENDBRANCH   6   7
ENDBRANCH   5   6
ENDBRANCH   4   5
BRANCH   4  12
HETATM   12  C   UNL     1     -10.015  15.067  67.928  1.00  0.00    -0.222 C  
HETATM   13  C   UNL     1      -9.644  14.987  66.428  1.00  0.00    -0.314 C  
HETATM   14  C   UNL     1      -8.645  14.993  68.660  1.00  0.00    -0.174 C  
HETATM   15  C   UNL     1      -8.857  16.220  65.974  1.00  0.00    -0.308 C  
HETATM   16  C   UNL     1      -7.658  16.048  68.201  1.00  0.00    -0.139 A  
HETATM   17  C   UNL     1      -6.608  16.415  69.058  1.00  0.00    -0.181 A  
HETATM   18  C   UNL     1      -7.744  16.619  66.913  1.00  0.00    -0.263 A  
HETATM   19  C   UNL     1      -5.669  17.368  68.663  1.00  0.00    -0.157 A  
HETATM   20  C   UNL     1      -6.802  17.594  66.548  1.00  0.00    -0.242 A  
HETATM   21  O   UNL     1      -6.833  18.243  65.345  1.00  0.00    -0.496 OA 
HETATM   22  H   UNL     1      -6.196  18.903  65.097  1.00  0.00     0.000 HD 
HETATM   23  C   UNL     1      -5.770  17.961  67.409  1.00  0.00    -0.161 A  
ENDBRANCH   4  12
ENDBRANCH   3   4
ENDBRANCH   2   3
TORSDOF 6
ENDMDL
MODEL      181
REMARK 921   NORMALIZED FREE ENERGY PREDICTED BY IDOCK:   -2.91 KCAL/MOL
REMARK 922        TOTAL FREE ENERGY PREDICTED BY IDOCK:   -5.32 KCAL/MOL
REMARK 923 INTER-LIGAND FREE ENERGY PREDICTED BY IDOCK:   -4.24 KCAL/MOL
REMARK 924 INTRA-LIGAND FREE ENERGY PREDICTED BY IDOCK:   -1.08 KCAL/MOL
REMARK 927      BINDING AFFINITY PREDICTED BY RF-SCORE:    0.00 PKD
ROOT
HETATM    1  C   UNL     1     -11.145   6.494  68.662  1.00  0.00    -0.348 C  
HETATM    2  C   UNL     1     -11.249   6.654  67.151  1.00  0.00    -0.306 C  
ENDROOT
BRANCH   2   3
HETATM    3  C   UNL     1     -10.406   7.838  66.649  1.00  0.00    -0.192 C  
BRANCH   3   4
HETATM    4  N   UNL     1      -9.463   8.432  67.624  1.00  0.00    -0.146 NA 
BRANCH   4   5
HETATM    5  C   UNL     1      -9.755   9.855  67.888  1.00  0.00    -0.140 C  
BRANCH   5   6
HETATM    6  C   UNL     1      -9.154  10.814  66.840  1.00  0.00    -0.160 C  
BRANCH   6   7
HETATM    7  C   UNL     1     -10.223  11.355  65.933  1.00  0.00    -0.246 A  
HETATM    8  S   UNL     1     -11.466  12.350  66.568  1.00  0.00    -0.380 SA 
HETATM    9  C   UNL     1     -10.374  11.154  64.575  1.00  0.00    -0.400 A  
HETATM   10  C   UNL     1     -11.533  11.805  64.062  1.00  0.00    -0.444 A  
HETATM   11  C   UNL     1     -12.218  12.487  65.041  1.00  0.00    -0.456 A  
ENDBRANCH   6   7
ENDBRANCH   5   6
ENDBRANCH   4   5
BRANCH   4  12
HETATM   12  C   UNL     1      -8.029   8.149  67.329  1.00  0.00    -0.113 C  
HETATM   13  C   UNL     1      -7.084   8.308  68.543  1.00  0.00    -0.077 C  
HETATM   14  C   UNL     1      -7.766   6.699  66.833  1.00  0.00    -0.106 C  
HETATM   15  C   UNL     1      -7.489   7.388  69.699  1.00  0.00    -0.093 C  
HETATM   16  C   UNL     1      -7.950   5.649  67.912  1.00  0.00    -0.097 A  
HETATM   17  C   UNL     1      -8.219   4.325  67.533  1.00  0.00    -0.099 A  
HETATM   18  C   UNL     1      -7.797   5.971  69.278  1.00  0.00    -0.103 A  
HETATM   19  C   UNL     1      -8.375   3.328  68.497  1.00  0.00    -0.091 A  
HETATM   20  C   UNL     1      -7.983   4.956  70.231  1.00  0.00    -0.069 A  
HETATM   21  O   UNL     1      -7.910   5.179  71.577  1.00  0.00    -0.105 OA 
HETATM   22  H   UNL     1      -8.035   4.492  72.222  1.00  0.00     0.000 HD 
HETATM   23  C   UNL     1      -8.262   3.646  69.845  1.00  0.00    -0.070 A  
ENDBRANCH   4  12
ENDBRANCH   3   4
ENDBRANCH   2   3
TORSDOF 6
ENDMDL
MODEL      182
REMARK 921   NORMALIZED FREE ENERGY PREDICTED BY IDOCK:   -2.91 KCAL/MOL
REMARK 922        TOTAL FREE ENERGY PREDICTED BY IDOCK:   -5.32 KCAL/MOL
REMARK 923 INTER-LIGAND FREE ENERGY PREDICTED BY IDOCK:   -4.90 KCAL/MOL
REMARK 924 INTRA-LIGAND FREE ENERGY PREDICTED BY IDOCK:   -0.42 KCAL/MOL
REMARK 927      BINDING AFFINITY PREDICTED BY RF-SCORE:    0.00 PKD
ROOT
HETATM    1  C   UNL     1     -11.693  14.727  69.676  1.00  0.00    -0.354 C  
HETATM    2  C   UNL     1     -10.202  14.913  69.433  1.00  0.00    -0.180 C  
ENDROOT
BRANCH   2   3
HETATM    3  C   UNL     1      -9.775  14.335  68.073  1.00  0.00    -0.223 C  
BRANCH   3   4
HETATM    4  N   UNL     1     -10.681  14.602  66.933  1.00  0.00    -0.289 NA 
BRANCH   4   5
HETATM    5  C   UNL     1     -11.594  13.472  66.669  1.00  0.00    -0.363 C  
BRANCH   5   6
HETATM    6  C   UNL     1     -11.237  12.672  65.400  1.00  0.00    -0.334 C  
BRANCH   6   7
HETATM    7  C   UNL     1     -10.284  11.555  65.722  1.00  0.00    -0.249 A  
HETATM    8  S   UNL     1     -10.269  10.865  67.291  1.00  0.00    -0.215 SA 
HETATM    9  C   UNL     1      -9.348  10.964  64.897  1.00  0.00    -0.258 A  
HETATM   10  C   UNL     1      -8.601   9.954  65.568  1.00  0.00    -0.157 A  
HETATM   11  C   UNL     1      -8.999   9.801  66.876  1.00  0.00    -0.138 A  
ENDBRANCH   6   7
ENDBRANCH   5   6
ENDBRANCH   4   5
BRANCH   4  12
HETATM   12  C   UNL     1      -9.990  15.123  65.719  1.00  0.00    -0.345 C  
HETATM   13  C   UNL     1     -10.572  16.447  65.171  1.00  0.00    -0.287 C  
HETATM   14  C   UNL     1      -8.483  15.437  65.943  1.00  0.00     0.692 C  
HETATM   15  C   UNL     1     -10.526  17.562  66.219  1.00  0.00    -0.283 C  
HETATM   16  C   UNL     1      -8.244  16.643  66.831  1.00  0.00    -0.247 A  
HETATM   17  C   UNL     1      -7.015  16.761  67.499  1.00  0.00    -0.167 A  
HETATM   18  C   UNL     1      -9.207  17.667  66.948  1.00  0.00    -0.270 A  
HETATM   19  C   UNL     1      -6.751  17.866  68.310  1.00  0.00    -0.205 A  
HETATM   20  C   UNL     1      -8.928  18.757  67.788  1.00  0.00    -0.286 A  
HETATM   21  O   UNL     1      -9.818  19.772  68.009  1.00  0.00    -0.373 OA 
HETATM   22  H   UNL     1      -9.630  20.510  68.577  1.00  0.00     0.000 HD 
HETATM   23  C   UNL     1      -7.711  18.861  68.457  1.00  0.00    -0.365 A  
ENDBRANCH   4  12
ENDBRANCH   3   4
ENDBRANCH   2   3
TORSDOF 6
ENDMDL
MODEL      183
REMARK 921   NORMALIZED FREE ENERGY PREDICTED BY IDOCK:   -2.90 KCAL/MOL
REMARK 922        TOTAL FREE ENERGY PREDICTED BY IDOCK:   -5.32 KCAL/MOL
REMARK 923 INTER-LIGAND FREE ENERGY PREDICTED BY IDOCK:   -4.39 KCAL/MOL
REMARK 924 INTRA-LIGAND FREE ENERGY PREDICTED BY IDOCK:   -0.93 KCAL/MOL
REMARK 927      BINDING AFFINITY PREDICTED BY RF-SCORE:    0.00 PKD
ROOT
HETATM    1  C   UNL     1      -7.477  13.772  68.557  1.00  0.00    -0.119 C  
HETATM    2  C   UNL     1      -7.411  13.023  67.233  1.00  0.00    -0.083 C  
ENDROOT
BRANCH   2   3
HETATM    3  C   UNL     1      -8.742  12.319  66.916  1.00  0.00    -0.197 C  
BRANCH   3   4
HETATM    4  N   UNL     1      -8.710  10.840  66.883  1.00  0.00    -0.139 NA 
BRANCH   4   5
HETATM    5  C   UNL     1      -7.539  10.322  66.148  1.00  0.00    -0.124 C  
BRANCH   5   6
HETATM    6  C   UNL     1      -7.689  10.397  64.615  1.00  0.00    -0.063 C  
BRANCH   6   7
HETATM    7  C   UNL     1      -7.219   9.124  63.969  1.00  0.00    -0.096 A  
HETATM    8  S   UNL     1      -6.333   9.181  62.502  1.00  0.00    -0.093 SA 
HETATM    9  C   UNL     1      -7.411   7.825  64.397  1.00  0.00    -0.088 A  
HETATM   10  C   UNL     1      -6.845   6.874  63.501  1.00  0.00    -0.054 A  
HETATM   11  C   UNL     1      -6.231   7.478  62.427  1.00  0.00    -0.067 A  
ENDBRANCH   6   7
ENDBRANCH   5   6
ENDBRANCH   4   5
BRANCH   4  12
HETATM   12  C   UNL     1     -10.004  10.215  66.483  1.00  0.00    -0.224 C  
HETATM   13  C   UNL     1     -10.107   8.704  66.795  1.00  0.00    -0.366 C  
HETATM   14  C   UNL     1     -11.242  10.832  67.194  1.00  0.00    -0.222 C  
HETATM   15  C   UNL     1      -9.919   8.419  68.288  1.00  0.00    -0.214 C  
HETATM   16  C   UNL     1     -11.318  10.499  68.672  1.00  0.00    -0.315 A  
HETATM   17  C   UNL     1     -12.061  11.336  69.520  1.00  0.00    -0.386 A  
HETATM   18  C   UNL     1     -10.706   9.339  69.192  1.00  0.00    -0.202 A  
HETATM   19  C   UNL     1     -12.169  11.052  70.881  1.00  0.00    -0.471 A  
HETATM   20  C   UNL     1     -10.808   9.087  70.570  1.00  0.00    -0.251 A  
HETATM   21  O   UNL     1     -10.206   8.020  71.177  1.00  0.00    -0.191 OA 
HETATM   22  H   UNL     1     -10.276   7.849  72.109  1.00  0.00     0.000 HD 
HETATM   23  C   UNL     1     -11.538   9.930  71.406  1.00  0.00    -0.428 A  
ENDBRANCH   4  12
ENDBRANCH   3   4
ENDBRANCH   2   3
TORSDOF 6
ENDMDL
MODEL      184
REMARK 921   NORMALIZED FREE ENERGY PREDICTED BY IDOCK:   -2.89 KCAL/MOL
REMARK 922        TOTAL FREE ENERGY PREDICTED BY IDOCK:   -5.30 KCAL/MOL
REMARK 923 INTER-LIGAND FREE ENERGY PREDICTED BY IDOCK:   -5.52 KCAL/MOL
REMARK 924 INTRA-LIGAND FREE ENERGY PREDICTED BY IDOCK:    0.21 KCAL/MOL
REMARK 927      BINDING AFFINITY PREDICTED BY RF-SCORE:    0.00 PKD
ROOT
HETATM    1  C   UNL     1     -10.722  15.255  64.973  1.00  0.00    -0.461 C  
HETATM    2  C   UNL     1     -12.006  15.006  65.753  1.00  0.00     0.051 C  
ENDROOT
BRANCH   2   3
HETATM    3  C   UNL     1     -11.840  13.857  66.761  1.00  0.00    -0.424 C  
BRANCH   3   4
HETATM    4  N   UNL     1     -10.691  12.950  66.541  1.00  0.00    -0.267 NA 
BRANCH   4   5
HETATM    5  C   UNL     1     -11.117  11.557  66.299  1.00  0.00    -0.263 C  
BRANCH   5   6
HETATM    6  C   UNL     1     -10.637  10.989  64.948  1.00  0.00    -0.328 C  
BRANCH   6   7
HETATM    7  C   UNL     1      -9.765   9.782  65.154  1.00  0.00    -0.268 A  
HETATM    8  S   UNL     1      -8.660   9.304  63.934  1.00  0.00    -0.162 SA 
HETATM    9  C   UNL     1      -9.719   8.936  66.243  1.00  0.00    -0.345 A  
HETATM   10  C   UNL     1      -8.785   7.875  66.062  1.00  0.00    -0.182 A  
HETATM   11  C   UNL     1      -8.144   7.956  64.847  1.00  0.00    -0.144 A  
ENDBRANCH   6   7
ENDBRANCH   5   6
ENDBRANCH   4   5
BRANCH   4  12
HETATM   12  C   UNL     1      -9.607  13.088  67.555  1.00  0.00    -0.204 C  
HETATM   13  C   UNL     1      -9.825  14.234  68.571  1.00  0.00    -0.231 C  
HETATM   14  C   UNL     1      -9.418  11.826  68.444  1.00  0.00    -0.188 C  
HETATM   15  C   UNL     1     -11.136  14.063  69.343  1.00  0.00    -0.246 C  
HETATM   16  C   UNL     1     -10.560  11.595  69.415  1.00  0.00    -0.008 A  
HETATM   17  C   UNL     1     -10.773  10.302  69.917  1.00  0.00    -0.344 A  
HETATM   18  C   UNL     1     -11.367  12.663  69.861  1.00  0.00    -0.038 A  
HETATM   19  C   UNL     1     -11.802  10.054  70.826  1.00  0.00    -0.435 A  
HETATM   20  C   UNL     1     -12.411  12.385  70.758  1.00  0.00    -0.267 A  
HETATM   21  O   UNL     1     -13.280  13.341  71.206  1.00  0.00    -0.260 OA 
HETATM   22  H   UNL     1     -13.986  13.153  71.813  1.00  0.00     0.000 HD 
HETATM   23  C   UNL     1     -12.623  11.096  71.242  1.00  0.00    -0.503 A  
ENDBRANCH   4  12
ENDBRANCH   3   4
ENDBRANCH   2   3
TORSDOF 6
ENDMDL
MODEL      185
REMARK 921   NORMALIZED FREE ENERGY PREDICTED BY IDOCK:   -2.88 KCAL/MOL
REMARK 922        TOTAL FREE ENERGY PREDICTED BY IDOCK:   -5.29 KCAL/MOL
REMARK 923 INTER-LIGAND FREE ENERGY PREDICTED BY IDOCK:   -4.21 KCAL/MOL
REMARK 924 INTRA-LIGAND FREE ENERGY PREDICTED BY IDOCK:   -1.07 KCAL/MOL
REMARK 927      BINDING AFFINITY PREDICTED BY RF-SCORE:    0.00 PKD
ROOT
HETATM    1  C   UNL     1      -9.559   6.624  67.517  1.00  0.00    -0.142 C  
HETATM    2  C   UNL     1      -9.506   8.132  67.311  1.00  0.00    -0.196 C  
ENDROOT
BRANCH   2   3
HETATM    3  C   UNL     1      -8.531   8.802  68.293  1.00  0.00    -0.130 C  
BRANCH   3   4
HETATM    4  N   UNL     1      -9.098   9.228  69.593  1.00  0.00    -0.156 NA 
BRANCH   4   5
HETATM    5  C   UNL     1      -9.674  10.586  69.533  1.00  0.00    -0.119 C  
BRANCH   5   6
HETATM    6  C   UNL     1     -11.132  10.617  69.032  1.00  0.00    -0.307 C  
BRANCH   6   7
HETATM    7  C   UNL     1     -11.339  11.740  68.054  1.00  0.00    -0.288 A  
HETATM    8  S   UNL     1     -10.876  11.548  66.415  1.00  0.00    -0.274 SA 
HETATM    9  C   UNL     1     -11.872  12.992  68.289  1.00  0.00    -0.381 A  
HETATM   10  C   UNL     1     -11.878  13.803  67.118  1.00  0.00    -0.441 A  
HETATM   11  C   UNL     1     -11.361  13.139  66.029  1.00  0.00    -0.308 A  
ENDBRANCH   6   7
ENDBRANCH   5   6
ENDBRANCH   4   5
BRANCH   4  12
HETATM   12  C   UNL     1      -8.189   9.003  70.753  1.00  0.00    -0.181 C  
HETATM   13  C   UNL     1      -8.915   8.782  72.101  1.00  0.00    -0.184 C  
HETATM   14  C   UNL     1      -7.281   7.749  70.603  1.00  0.00    -0.061 C  
HETATM   15  C   UNL     1      -9.864   7.582  72.042  1.00  0.00    -0.200 C  
HETATM   16  C   UNL     1      -8.041   6.440  70.700  1.00  0.00    -0.113 A  
HETATM   17  C   UNL     1      -7.483   5.287  70.125  1.00  0.00    -0.068 A  
HETATM   18  C   UNL     1      -9.262   6.353  71.402  1.00  0.00    -0.150 A  
HETATM   19  C   UNL     1      -8.143   4.061  70.210  1.00  0.00    -0.058 A  
HETATM   20  C   UNL     1      -9.920   5.113  71.453  1.00  0.00    -0.189 A  
HETATM   21  O   UNL     1     -11.131   4.939  72.063  1.00  0.00    -0.043 OA 
HETATM   22  H   UNL     1     -11.576   4.101  72.098  1.00  0.00     0.000 HD 
HETATM   23  C   UNL     1      -9.364   3.976  70.870  1.00  0.00    -0.221 A  
ENDBRANCH   4  12
ENDBRANCH   3   4
ENDBRANCH   2   3
TORSDOF 6
ENDMDL
MODEL      186
REMARK 921   NORMALIZED FREE ENERGY PREDICTED BY IDOCK:   -2.88 KCAL/MOL
REMARK 922        TOTAL FREE ENERGY PREDICTED BY IDOCK:   -5.28 KCAL/MOL
REMARK 923 INTER-LIGAND FREE ENERGY PREDICTED BY IDOCK:   -3.54 KCAL/MOL
REMARK 924 INTRA-LIGAND FREE ENERGY PREDICTED BY IDOCK:   -1.75 KCAL/MOL
REMARK 927      BINDING AFFINITY PREDICTED BY RF-SCORE:    0.00 PKD
ROOT
HETATM    1  C   UNL     1     -10.059   5.705  69.380  1.00  0.00    -0.290 C  
HETATM    2  C   UNL     1     -11.227   6.282  68.592  1.00  0.00    -0.328 C  
ENDROOT
BRANCH   2   3
HETATM    3  C   UNL     1     -10.873   6.460  67.106  1.00  0.00    -0.393 C  
BRANCH   3   4
HETATM    4  N   UNL     1      -9.623   7.196  66.813  1.00  0.00    -0.170 NA 
BRANCH   4   5
HETATM    5  C   UNL     1      -9.853   8.646  66.652  1.00  0.00    -0.266 C  
BRANCH   5   6
HETATM    6  C   UNL     1      -8.964   9.518  67.562  1.00  0.00    -0.133 C  
BRANCH   6   7
HETATM    7  C   UNL     1      -9.334   9.334  69.007  1.00  0.00    -0.151 A  
HETATM    8  S   UNL     1     -10.879   9.822  69.567  1.00  0.00    -0.235 SA 
HETATM    9  C   UNL     1      -8.567   8.805  70.025  1.00  0.00    -0.136 A  
HETATM   10  C   UNL     1      -9.247   8.824  71.277  1.00  0.00    -0.309 A  
HETATM   11  C   UNL     1     -10.512   9.354  71.168  1.00  0.00    -0.322 A  
ENDBRANCH   6   7
ENDBRANCH   5   6
ENDBRANCH   4   5
BRANCH   4  12
HETATM   12  C   UNL     1      -8.801   6.587  65.728  1.00  0.00    -0.084 C  
HETATM   13  C   UNL     1      -7.287   6.886  65.830  1.00  0.00    -0.079 C  
HETATM   14  C   UNL     1      -8.877   5.034  65.684  1.00  0.00    -0.143 C  
HETATM   15  C   UNL     1      -6.701   6.398  67.158  1.00  0.00    -0.060 C  
HETATM   16  C   UNL     1      -8.181   4.362  66.852  1.00  0.00    -0.102 A  
HETATM   17  C   UNL     1      -8.558   3.057  67.208  1.00  0.00    -0.119 A  
HETATM   18  C   UNL     1      -7.130   5.001  67.543  1.00  0.00    -0.066 A  
HETATM   19  C   UNL     1      -7.928   2.399  68.264  1.00  0.00    -0.064 A  
HETATM   20  C   UNL     1      -6.528   4.328  68.618  1.00  0.00    -0.037 A  
HETATM   21  O   UNL     1      -5.539   4.884  69.382  1.00  0.00    -0.007 OA 
HETATM   22  H   UNL     1      -5.131   4.429  70.109  1.00  0.00     0.000 HD 
HETATM   23  C   UNL     1      -6.916   3.038  68.972  1.00  0.00    -0.044 A  
ENDBRANCH   4  12
ENDBRANCH   3   4
ENDBRANCH   2   3
TORSDOF 6
ENDMDL
MODEL      187
REMARK 921   NORMALIZED FREE ENERGY PREDICTED BY IDOCK:   -2.88 KCAL/MOL
REMARK 922        TOTAL FREE ENERGY PREDICTED BY IDOCK:   -5.28 KCAL/MOL
REMARK 923 INTER-LIGAND FREE ENERGY PREDICTED BY IDOCK:   -5.48 KCAL/MOL
REMARK 924 INTRA-LIGAND FREE ENERGY PREDICTED BY IDOCK:    0.20 KCAL/MOL
REMARK 927      BINDING AFFINITY PREDICTED BY RF-SCORE:    0.00 PKD
ROOT
HETATM    1  C   UNL     1      -8.894   5.749  71.059  1.00  0.00    -0.143 C  
HETATM    2  C   UNL     1      -9.474   5.742  69.652  1.00  0.00    -0.174 C  
ENDROOT
BRANCH   2   3
HETATM    3  C   UNL     1      -9.414   7.138  69.009  1.00  0.00    -0.143 C  
BRANCH   3   4
HETATM    4  N   UNL     1      -9.008   8.252  69.896  1.00  0.00    -0.139 NA 
BRANCH   4   5
HETATM    5  C   UNL     1     -10.130   9.166  70.194  1.00  0.00    -0.202 C  
BRANCH   5   6
HETATM    6  C   UNL     1     -10.627   9.079  71.652  1.00  0.00    -0.434 C  
BRANCH   6   7
HETATM    7  C   UNL     1     -12.071   8.667  71.702  1.00  0.00    -0.326 A  
HETATM    8  S   UNL     1     -12.527   7.081  71.237  1.00  0.00    -0.358 SA 
HETATM    9  C   UNL     1     -13.164   9.420  72.081  1.00  0.00    -0.541 A  
HETATM   10  C   UNL     1     -14.384   8.694  71.967  1.00  0.00    -0.512 A  
HETATM   11  C   UNL     1     -14.180   7.411  71.516  1.00  0.00    -0.427 A  
ENDBRANCH   6   7
ENDBRANCH   5   6
ENDBRANCH   4   5
BRANCH   4  12
HETATM   12  C   UNL     1      -7.758   8.942  69.469  1.00  0.00    -0.088 C  
HETATM   13  C   UNL     1      -7.181   8.443  68.123  1.00  0.00    -0.091 C  
HETATM   14  C   UNL     1      -7.929  10.474  69.262  1.00  0.00    -0.156 C  
HETATM   15  C   UNL     1      -8.189   8.604  66.981  1.00  0.00    -0.106 C  
HETATM   16  C   UNL     1      -8.768  10.829  68.049  1.00  0.00    -0.132 A  
HETATM   17  C   UNL     1      -9.397  12.084  68.002  1.00  0.00    -0.196 A  
HETATM   18  C   UNL     1      -8.876   9.948  66.952  1.00  0.00    -0.146 A  
HETATM   19  C   UNL     1     -10.161  12.454  66.895  1.00  0.00    -0.230 A  
HETATM   20  C   UNL     1      -9.671  10.333  65.859  1.00  0.00    -0.225 A  
HETATM   21  O   UNL     1      -9.881   9.528  64.775  1.00  0.00    -0.416 OA 
HETATM   22  H   UNL     1     -10.418   9.788  64.035  1.00  0.00     0.000 HD 
HETATM   23  C   UNL     1     -10.301  11.575  65.827  1.00  0.00    -0.295 A  
ENDBRANCH   4  12
ENDBRANCH   3   4
ENDBRANCH   2   3
TORSDOF 6
ENDMDL
MODEL      188
REMARK 921   NORMALIZED FREE ENERGY PREDICTED BY IDOCK:   -2.86 KCAL/MOL
REMARK 922        TOTAL FREE ENERGY PREDICTED BY IDOCK:   -5.26 KCAL/MOL
REMARK 923 INTER-LIGAND FREE ENERGY PREDICTED BY IDOCK:   -3.96 KCAL/MOL
REMARK 924 INTRA-LIGAND FREE ENERGY PREDICTED BY IDOCK:   -1.30 KCAL/MOL
REMARK 927      BINDING AFFINITY PREDICTED BY RF-SCORE:    0.00 PKD
ROOT
HETATM    1  C   UNL     1      -8.125   6.166  65.485  1.00  0.00    -0.131 C  
HETATM    2  C   UNL     1      -7.373   5.334  66.515  1.00  0.00    -0.086 C  
ENDROOT
BRANCH   2   3
HETATM    3  C   UNL     1      -8.321   4.778  67.592  1.00  0.00    -0.104 C  
BRANCH   3   4
HETATM    4  N   UNL     1      -8.950   5.774  68.489  1.00  0.00    -0.112 NA 
BRANCH   4   5
HETATM    5  C   UNL     1      -8.501   5.629  69.888  1.00  0.00    -0.121 C  
BRANCH   5   6
HETATM    6  C   UNL     1      -7.034   6.050  70.113  1.00  0.00    -0.069 C  
BRANCH   6   7
HETATM    7  C   UNL     1      -6.845   7.511  69.816  1.00  0.00    -0.047 A  
HETATM    8  S   UNL     1      -6.698   8.635  71.102  1.00  0.00    -0.075 SA 
HETATM    9  C   UNL     1      -6.774   8.132  68.586  1.00  0.00    -0.058 A  
HETATM   10  C   UNL     1      -6.622   9.544  68.703  1.00  0.00    -0.052 A  
HETATM   11  C   UNL     1      -6.570   9.949  70.017  1.00  0.00    -0.091 A  
ENDBRANCH   6   7
ENDBRANCH   5   6
ENDBRANCH   4   5
BRANCH   4  12
HETATM   12  C   UNL     1     -10.430   5.880  68.333  1.00  0.00    -0.237 C  
HETATM   13  C   UNL     1     -11.182   6.267  69.627  1.00  0.00    -0.506 C  
HETATM   14  C   UNL     1     -10.874   6.955  67.301  1.00  0.00    -0.426 C  
HETATM   15  C   UNL     1     -10.698   7.608  70.184  1.00  0.00    -0.245 C  
HETATM   16  C   UNL     1     -10.629   8.377  67.768  1.00  0.00    -0.238 A  
HETATM   17  C   UNL     1     -10.523   9.398  66.811  1.00  0.00    -0.265 A  
HETATM   18  C   UNL     1     -10.566   8.694  69.142  1.00  0.00    -0.193 A  
HETATM   19  C   UNL     1     -10.316  10.721  67.203  1.00  0.00    -0.269 A  
HETATM   20  C   UNL     1     -10.333  10.029  69.512  1.00  0.00    -0.235 A  
HETATM   21  O   UNL     1     -10.202  10.427  70.813  1.00  0.00    -0.199 OA 
HETATM   22  H   UNL     1     -10.045  11.330  71.064  1.00  0.00     0.000 HD 
HETATM   23  C   UNL     1     -10.217  11.034  68.554  1.00  0.00    -0.203 A  
ENDBRANCH   4  12
ENDBRANCH   3   4
ENDBRANCH   2   3
TORSDOF 6
ENDMDL
MODEL      189
REMARK 921   NORMALIZED FREE ENERGY PREDICTED BY IDOCK:   -2.86 KCAL/MOL
REMARK 922        TOTAL FREE ENERGY PREDICTED BY IDOCK:   -5.26 KCAL/MOL
REMARK 923 INTER-LIGAND FREE ENERGY PREDICTED BY IDOCK:   -4.33 KCAL/MOL
REMARK 924 INTRA-LIGAND FREE ENERGY PREDICTED BY IDOCK:   -0.93 KCAL/MOL
REMARK 927      BINDING AFFINITY PREDICTED BY RF-SCORE:    0.00 PKD
ROOT
HETATM    1  C   UNL     1     -12.513   8.706  71.332  1.00  0.00    -0.337 C  
HETATM    2  C   UNL     1     -11.510   9.550  70.558  1.00  0.00    -0.337 C  
ENDROOT
BRANCH   2   3
HETATM    3  C   UNL     1     -10.193   8.790  70.324  1.00  0.00    -0.196 C  
BRANCH   3   4
HETATM    4  N   UNL     1      -9.943   8.321  68.943  1.00  0.00    -0.181 NA 
BRANCH   4   5
HETATM    5  C   UNL     1     -10.329   6.909  68.754  1.00  0.00    -0.189 C  
BRANCH   5   6
HETATM    6  C   UNL     1     -10.400   6.106  70.069  1.00  0.00    -0.267 C  
BRANCH   6   7
HETATM    7  C   UNL     1      -9.215   5.191  70.202  1.00  0.00    -0.142 A  
HETATM    8  S   UNL     1      -7.987   5.538  71.346  1.00  0.00    -0.114 SA 
HETATM    9  C   UNL     1      -8.938   4.040  69.491  1.00  0.00    -0.163 A  
HETATM   10  C   UNL     1      -7.697   3.456  69.876  1.00  0.00    -0.047 A  
HETATM   11  C   UNL     1      -7.077   4.172  70.873  1.00  0.00    -0.033 A  
ENDBRANCH   6   7
ENDBRANCH   5   6
ENDBRANCH   4   5
BRANCH   4  12
HETATM   12  C   UNL     1      -8.583   8.655  68.427  1.00  0.00    -0.135 C  
HETATM   13  C   UNL     1      -8.362   8.304  66.937  1.00  0.00    -0.114 C  
HETATM   14  C   UNL     1      -8.235  10.168  68.514  1.00  0.00    -0.111 C  
HETATM   15  C   UNL     1      -9.368   9.020  66.031  1.00  0.00    -0.305 C  
HETATM   16  C   UNL     1      -9.024  11.026  67.544  1.00  0.00    -0.137 A  
HETATM   17  C   UNL     1      -9.182  12.393  67.819  1.00  0.00    -0.193 A  
HETATM   18  C   UNL     1      -9.547  10.485  66.349  1.00  0.00    -0.220 A  
HETATM   19  C   UNL     1      -9.884  13.218  66.940  1.00  0.00    -0.247 A  
HETATM   20  C   UNL     1     -10.271  11.330  65.492  1.00  0.00    -0.260 A  
HETATM   21  O   UNL     1     -10.861  10.890  64.340  1.00  0.00    -0.306 OA 
HETATM   22  H   UNL     1     -11.351  11.461  63.760  1.00  0.00     0.000 HD 
HETATM   23  C   UNL     1     -10.433  12.684  65.779  1.00  0.00    -0.299 A  
ENDBRANCH   4  12
ENDBRANCH   3   4
ENDBRANCH   2   3
TORSDOF 6
ENDMDL
MODEL      190
REMARK 921   NORMALIZED FREE ENERGY PREDICTED BY IDOCK:   -2.84 KCAL/MOL
REMARK 922        TOTAL FREE ENERGY PREDICTED BY IDOCK:   -5.23 KCAL/MOL
REMARK 923 INTER-LIGAND FREE ENERGY PREDICTED BY IDOCK:   -6.99 KCAL/MOL
REMARK 924 INTRA-LIGAND FREE ENERGY PREDICTED BY IDOCK:    1.77 KCAL/MOL
REMARK 927      BINDING AFFINITY PREDICTED BY RF-SCORE:    0.00 PKD
ROOT
HETATM    1  C   UNL     1      -7.707  11.059  66.479  1.00  0.00    -0.154 C  
HETATM    2  C   UNL     1      -7.861  12.335  67.295  1.00  0.00    -0.171 C  
ENDROOT
BRANCH   2   3
HETATM    3  C   UNL     1      -9.317  12.831  67.299  1.00  0.00    -0.200 C  
BRANCH   3   4
HETATM    4  N   UNL     1      -9.682  13.802  66.243  1.00  0.00    -0.293 NA 
BRANCH   4   5
HETATM    5  C   UNL     1      -9.059  15.123  66.458  1.00  0.00    -0.294 C  
BRANCH   5   6
HETATM    6  C   UNL     1      -9.789  16.275  65.739  1.00  0.00    -0.332 C  
BRANCH   6   7
HETATM    7  C   UNL     1      -9.651  17.559  66.508  1.00  0.00    -0.285 A  
HETATM    8  S   UNL     1      -8.689  17.612  67.926  1.00  0.00    -0.251 SA 
HETATM    9  C   UNL     1     -10.225  18.785  66.236  1.00  0.00    -0.466 A  
HETATM   10  C   UNL     1      -9.888  19.765  67.213  1.00  0.00    -0.513 A  
HETATM   11  C   UNL     1      -9.062  19.258  68.189  1.00  0.00    -0.331 A  
ENDBRANCH   6   7
ENDBRANCH   5   6
ENDBRANCH   4   5
BRANCH   4  12
HETATM   12  C   UNL     1     -11.144  13.858  65.951  1.00  0.00    -0.291 C  
HETATM   13  C   UNL     1     -11.909  12.552  66.266  1.00  0.00    -0.453 C  
HETATM   14  C   UNL     1     -11.902  14.946  66.765  1.00  0.00    -0.187 C  
HETATM   15  C   UNL     1     -11.765  12.152  67.738  1.00  0.00    -0.390 C  
HETATM   16  C   UNL     1     -12.013  14.625  68.243  1.00  0.00    -0.282 A  
HETATM   17  C   UNL     1     -12.222  15.674  69.152  1.00  0.00    -0.149 A  
HETATM   18  C   UNL     1     -11.970  13.293  68.707  1.00  0.00    -0.335 A  
HETATM   19  C   UNL     1     -12.349  15.415  70.517  1.00  0.00    -0.452 A  
HETATM   20  C   UNL     1     -12.076  13.060  70.088  1.00  0.00    -0.307 A  
HETATM   21  O   UNL     1     -11.991  11.811  70.639  1.00  0.00    -0.423 OA 
HETATM   22  H   UNL     1     -12.063  11.653  71.573  1.00  0.00     0.000 HD 
HETATM   23  C   UNL     1     -12.271  14.108  70.985  1.00  0.00    -0.432 A  
ENDBRANCH   4  12
ENDBRANCH   3   4
ENDBRANCH   2   3
TORSDOF 6
ENDMDL
MODEL      191
REMARK 921   NORMALIZED FREE ENERGY PREDICTED BY IDOCK:   -2.81 KCAL/MOL
REMARK 922        TOTAL FREE ENERGY PREDICTED BY IDOCK:   -5.19 KCAL/MOL
REMARK 923 INTER-LIGAND FREE ENERGY PREDICTED BY IDOCK:   -4.44 KCAL/MOL
REMARK 924 INTRA-LIGAND FREE ENERGY PREDICTED BY IDOCK:   -0.76 KCAL/MOL
REMARK 927      BINDING AFFINITY PREDICTED BY RF-SCORE:    0.00 PKD
ROOT
HETATM    1  C   UNL     1     -10.625   7.490  68.588  1.00  0.00    -0.171 C  
HETATM    2  C   UNL     1     -10.345   7.920  67.154  1.00  0.00    -0.398 C  
ENDROOT
BRANCH   2   3
HETATM    3  C   UNL     1     -10.520   9.437  66.975  1.00  0.00    -0.231 C  
BRANCH   3   4
HETATM    4  N   UNL     1      -9.568  10.300  67.710  1.00  0.00    -0.151 NA 
BRANCH   4   5
HETATM    5  C   UNL     1     -10.196  11.553  68.177  1.00  0.00    -0.194 C  
BRANCH   5   6
HETATM    6  C   UNL     1     -11.623  11.769  67.634  1.00  0.00    -0.364 C  
BRANCH   6   7
HETATM    7  C   UNL     1     -11.647  12.879  66.620  1.00  0.00    -0.372 A  
HETATM    8  S   UNL     1     -10.500  14.150  66.711  1.00  0.00    -0.280 SA 
HETATM    9  C   UNL     1     -12.514  13.050  65.560  1.00  0.00    -0.496 A  
HETATM   10  C   UNL     1     -12.246  14.246  64.833  1.00  0.00    -0.449 A  
HETATM   11  C   UNL     1     -11.178  14.939  65.356  1.00  0.00    -0.359 A  
ENDBRANCH   6   7
ENDBRANCH   5   6
ENDBRANCH   4   5
BRANCH   4  12
HETATM   12  C   UNL     1      -8.264  10.495  67.014  1.00  0.00    -0.125 C  
HETATM   13  C   UNL     1      -7.324  11.517  67.693  1.00  0.00    -0.105 C  
HETATM   14  C   UNL     1      -7.408   9.200  66.917  1.00  0.00    -0.090 C  
HETATM   15  C   UNL     1      -7.001  11.117  69.136  1.00  0.00    -0.108 C  
HETATM   16  C   UNL     1      -6.846   8.746  68.250  1.00  0.00    -0.066 A  
HETATM   17  C   UNL     1      -6.483   7.400  68.412  1.00  0.00    -0.045 A  
HETATM   18  C   UNL     1      -6.632   9.662  69.303  1.00  0.00    -0.048 A  
HETATM   19  C   UNL     1      -5.945   6.949  69.618  1.00  0.00    -0.023 A  
HETATM   20  C   UNL     1      -6.112   9.180  70.515  1.00  0.00    -0.043 A  
HETATM   21  O   UNL     1      -5.919   9.977  71.609  1.00  0.00    -0.291 OA 
HETATM   22  H   UNL     1      -5.567   9.652  72.429  1.00  0.00     0.000 HD 
HETATM   23  C   UNL     1      -5.765   7.840  70.670  1.00  0.00    -0.030 A  
ENDBRANCH   4  12
ENDBRANCH   3   4
ENDBRANCH   2   3
TORSDOF 6
ENDMDL
MODEL      192
REMARK 921   NORMALIZED FREE ENERGY PREDICTED BY IDOCK:   -2.81 KCAL/MOL
REMARK 922        TOTAL FREE ENERGY PREDICTED BY IDOCK:   -5.18 KCAL/MOL
REMARK 923 INTER-LIGAND FREE ENERGY PREDICTED BY IDOCK:   -4.26 KCAL/MOL
REMARK 924 INTRA-LIGAND FREE ENERGY PREDICTED BY IDOCK:   -0.92 KCAL/MOL
REMARK 927      BINDING AFFINITY PREDICTED BY RF-SCORE:    0.00 PKD
ROOT
HETATM    1  C   UNL     1     -10.567  11.925  64.538  1.00  0.00    -0.358 C  
HETATM    2  C   UNL     1     -10.009  10.510  64.602  1.00  0.00    -0.415 C  
ENDROOT
BRANCH   2   3
HETATM    3  C   UNL     1     -10.155   9.909  66.010  1.00  0.00    -0.244 C  
BRANCH   3   4
HETATM    4  N   UNL     1      -8.912   9.791  66.805  1.00  0.00    -0.137 NA 
BRANCH   4   5
HETATM    5  C   UNL     1      -8.194   8.529  66.536  1.00  0.00    -0.108 C  
BRANCH   5   6
HETATM    6  C   UNL     1      -8.607   7.372  67.468  1.00  0.00    -0.122 C  
BRANCH   6   7
HETATM    7  C   UNL     1      -7.414   6.816  68.193  1.00  0.00    -0.099 A  
HETATM    8  S   UNL     1      -6.277   7.876  68.915  1.00  0.00    -0.040 SA 
HETATM    9  C   UNL     1      -7.063   5.493  68.373  1.00  0.00    -0.070 A  
HETATM   10  C   UNL     1      -5.839   5.354  69.089  1.00  0.00    -0.023 A  
HETATM   11  C   UNL     1      -5.306   6.573  69.440  1.00  0.00    -0.013 A  
ENDBRANCH   6   7
ENDBRANCH   5   6
ENDBRANCH   4   5
BRANCH   4  12
HETATM   12  C   UNL     1      -9.089  10.094  68.255  1.00  0.00    -0.122 C  
HETATM   13  C   UNL     1      -8.042  11.073  68.836  1.00  0.00    -0.135 C  
HETATM   14  C   UNL     1     -10.455  10.756  68.593  1.00  0.00    -0.213 C  
HETATM   15  C   UNL     1      -8.052  12.415  68.099  1.00  0.00    -0.163 C  
HETATM   16  C   UNL     1     -10.577  12.180  68.085  1.00  0.00    -0.236 A  
HETATM   17  C   UNL     1     -11.856  12.722  67.884  1.00  0.00    -0.392 A  
HETATM   18  C   UNL     1      -9.434  12.979  67.869  1.00  0.00    -0.219 A  
HETATM   19  C   UNL     1     -12.009  14.034  67.436  1.00  0.00    -0.439 A  
HETATM   20  C   UNL     1      -9.613  14.289  67.394  1.00  0.00    -0.214 A  
HETATM   21  O   UNL     1      -8.568  15.122  67.103  1.00  0.00    -0.192 OA 
HETATM   22  H   UNL     1      -8.688  16.008  66.783  1.00  0.00     0.000 HD 
HETATM   23  C   UNL     1     -10.886  14.815  67.186  1.00  0.00    -0.311 A  
ENDBRANCH   4  12
ENDBRANCH   3   4
ENDBRANCH   2   3
TORSDOF 6
ENDMDL
MODEL      193
REMARK 921   NORMALIZED FREE ENERGY PREDICTED BY IDOCK:   -2.78 KCAL/MOL
REMARK 922        TOTAL FREE ENERGY PREDICTED BY IDOCK:   -5.14 KCAL/MOL
REMARK 923 INTER-LIGAND FREE ENERGY PREDICTED BY IDOCK:   -4.20 KCAL/MOL
REMARK 924 INTRA-LIGAND FREE ENERGY PREDICTED BY IDOCK:   -0.95 KCAL/MOL
REMARK 927      BINDING AFFINITY PREDICTED BY RF-SCORE:    0.00 PKD
ROOT
HETATM    1  C   UNL     1     -11.140   6.462  66.989  1.00  0.00    -0.405 C  
HETATM    2  C   UNL     1     -10.070   7.452  67.429  1.00  0.00    -0.274 C  
ENDROOT
BRANCH   2   3
HETATM    3  C   UNL     1     -10.672   8.605  68.250  1.00  0.00    -0.052 C  
BRANCH   3   4
HETATM    4  N   UNL     1      -9.724   9.392  69.069  1.00  0.00    -0.162 NA 
BRANCH   4   5
HETATM    5  C   UNL     1      -9.874   9.120  70.513  1.00  0.00    -0.233 C  
BRANCH   5   6
HETATM    6  C   UNL     1      -8.624   8.485  71.155  1.00  0.00    -0.207 C  
BRANCH   6   7
HETATM    7  C   UNL     1      -8.883   7.052  71.529  1.00  0.00    -0.128 A  
HETATM    8  S   UNL     1      -7.593   6.058  72.064  1.00  0.00    -0.097 SA 
HETATM    9  C   UNL     1     -10.079   6.364  71.499  1.00  0.00    -0.215 A  
HETATM   10  C   UNL     1      -9.927   5.004  71.896  1.00  0.00    -0.245 A  
HETATM   11  C   UNL     1      -8.624   4.706  72.226  1.00  0.00    -0.119 A  
ENDBRANCH   6   7
ENDBRANCH   5   6
ENDBRANCH   4   5
BRANCH   4  12
HETATM   12  C   UNL     1      -9.684  10.843  68.724  1.00  0.00    -0.189 C  
HETATM   13  C   UNL     1      -8.261  11.444  68.657  1.00  0.00    -0.142 C  
HETATM   14  C   UNL     1     -10.300  11.172  67.335  1.00  0.00    -0.231 C  
HETATM   15  C   UNL     1      -7.389  10.720  67.628  1.00  0.00    -0.094 C  
HETATM   16  C   UNL     1      -9.464  10.676  66.171  1.00  0.00    -0.218 A  
HETATM   17  C   UNL     1     -10.084  10.466  64.929  1.00  0.00    -0.382 A  
HETATM   18  C   UNL     1      -8.073  10.479  66.302  1.00  0.00    -0.142 A  
HETATM   19  C   UNL     1      -9.344  10.028  63.831  1.00  0.00    -0.315 A  
HETATM   20  C   UNL     1      -7.353  10.015  65.189  1.00  0.00    -0.139 A  
HETATM   21  O   UNL     1      -6.013   9.744  65.231  1.00  0.00    -0.064 OA 
HETATM   22  H   UNL     1      -5.526   9.430  64.478  1.00  0.00     0.000 HD 
HETATM   23  C   UNL     1      -7.979   9.798  63.964  1.00  0.00    -0.147 A  
ENDBRANCH   4  12
ENDBRANCH   3   4
ENDBRANCH   2   3
TORSDOF 6
ENDMDL
MODEL      194
REMARK 921   NORMALIZED FREE ENERGY PREDICTED BY IDOCK:   -2.77 KCAL/MOL
REMARK 922        TOTAL FREE ENERGY PREDICTED BY IDOCK:   -5.14 KCAL/MOL
REMARK 923 INTER-LIGAND FREE ENERGY PREDICTED BY IDOCK:   -4.43 KCAL/MOL
REMARK 924 INTRA-LIGAND FREE ENERGY PREDICTED BY IDOCK:   -0.71 KCAL/MOL
REMARK 927      BINDING AFFINITY PREDICTED BY RF-SCORE:    0.00 PKD
ROOT
HETATM    1  C   UNL     1      -6.968  11.561  67.327  1.00  0.00    -0.125 C  
HETATM    2  C   UNL     1      -7.143  12.858  68.106  1.00  0.00    -0.108 C  
ENDROOT
BRANCH   2   3
HETATM    3  C   UNL     1      -8.425  12.836  68.956  1.00  0.00     0.472 C  
BRANCH   3   4
HETATM    4  N   UNL     1      -9.658  13.321  68.297  1.00  0.00    -0.225 NA 
BRANCH   4   5
HETATM    5  C   UNL     1      -9.862  14.771  68.489  1.00  0.00    -0.218 C  
BRANCH   5   6
HETATM    6  C   UNL     1      -8.661  15.482  69.145  1.00  0.00    -0.246 C  
BRANCH   6   7
HETATM    7  C   UNL     1      -8.046  16.477  68.200  1.00  0.00    -0.172 A  
HETATM    8  S   UNL     1      -9.033  17.637  67.414  1.00  0.00    -0.234 SA 
HETATM    9  C   UNL     1      -6.721  16.605  67.835  1.00  0.00    -0.155 A  
HETATM   10  C   UNL     1      -6.522  17.648  66.886  1.00  0.00    -0.206 A  
HETATM   11  C   UNL     1      -7.699  18.288  66.569  1.00  0.00    -0.251 A  
ENDBRANCH   6   7
ENDBRANCH   5   6
ENDBRANCH   4   5
BRANCH   4  12
HETATM   12  C   UNL     1     -10.865  12.493  68.586  1.00  0.00    -0.248 C  
HETATM   13  C   UNL     1     -11.847  12.360  67.398  1.00  0.00    -0.360 C  
HETATM   14  C   UNL     1     -10.536  11.023  68.972  1.00  0.00    -0.258 C  
HETATM   15  C   UNL     1     -11.170  11.743  66.171  1.00  0.00    -0.363 C  
HETATM   16  C   UNL     1     -10.011  10.197  67.813  1.00  0.00    -0.198 A  
HETATM   17  C   UNL     1      -9.244   9.054  68.086  1.00  0.00    -0.141 A  
HETATM   18  C   UNL     1     -10.329  10.527  66.478  1.00  0.00    -0.294 A  
HETATM   19  C   UNL     1      -8.760   8.259  67.047  1.00  0.00    -0.132 A  
HETATM   20  C   UNL     1      -9.810   9.725  65.448  1.00  0.00    -0.295 A  
HETATM   21  O   UNL     1     -10.016   9.992  64.123  1.00  0.00    -0.433 OA 
HETATM   22  H   UNL     1      -9.666   9.450  63.426  1.00  0.00     0.000 HD 
HETATM   23  C   UNL     1      -9.039   8.599  65.728  1.00  0.00    -0.242 A  
ENDBRANCH   4  12
ENDBRANCH   3   4
ENDBRANCH   2   3
TORSDOF 6
ENDMDL
MODEL      195
REMARK 921   NORMALIZED FREE ENERGY PREDICTED BY IDOCK:   -2.75 KCAL/MOL
REMARK 922        TOTAL FREE ENERGY PREDICTED BY IDOCK:   -5.11 KCAL/MOL
REMARK 923 INTER-LIGAND FREE ENERGY PREDICTED BY IDOCK:   -4.16 KCAL/MOL
REMARK 924 INTRA-LIGAND FREE ENERGY PREDICTED BY IDOCK:   -0.95 KCAL/MOL
REMARK 927      BINDING AFFINITY PREDICTED BY RF-SCORE:    0.00 PKD
ROOT
HETATM    1  C   UNL     1      -6.099   7.818  66.096  1.00  0.00    -0.038 C  
HETATM    2  C   UNL     1      -7.310   7.143  66.726  1.00  0.00    -0.084 C  
ENDROOT
BRANCH   2   3
HETATM    3  C   UNL     1      -6.909   6.271  67.927  1.00  0.00    -0.067 C  
BRANCH   3   4
HETATM    4  N   UNL     1      -8.018   5.678  68.708  1.00  0.00    -0.096 NA 
BRANCH   4   5
HETATM    5  C   UNL     1      -8.134   6.274  70.054  1.00  0.00    -0.120 C  
BRANCH   5   6
HETATM    6  C   UNL     1      -8.710   7.705  70.049  1.00  0.00    -0.142 C  
BRANCH   6   7
HETATM    7  C   UNL     1     -10.055   7.743  70.718  1.00  0.00    -0.192 A  
HETATM    8  S   UNL     1     -11.294   6.669  70.216  1.00  0.00    -0.390 SA 
HETATM    9  C   UNL     1     -10.481   8.570  71.737  1.00  0.00    -0.370 A  
HETATM   10  C   UNL     1     -11.841   8.334  72.090  1.00  0.00    -0.431 A  
HETATM   11  C   UNL     1     -12.401   7.328  71.337  1.00  0.00    -0.368 A  
ENDBRANCH   6   7
ENDBRANCH   5   6
ENDBRANCH   4   5
BRANCH   4  12
HETATM   12  C   UNL     1      -8.037   4.187  68.699  1.00  0.00    -0.072 C  
HETATM   13  C   UNL     1      -9.453   3.566  68.691  1.00  0.00    -0.209 C  
HETATM   14  C   UNL     1      -7.343   3.561  67.456  1.00  0.00    -0.059 C  
HETATM   15  C   UNL     1     -10.266   4.027  67.479  1.00  0.00     0.353 C  
HETATM   16  C   UNL     1      -8.113   3.769  66.166  1.00  0.00    -0.100 A  
HETATM   17  C   UNL     1      -7.423   3.702  64.945  1.00  0.00    -0.073 A  
HETATM   18  C   UNL     1      -9.509   3.971  66.173  1.00  0.00    -0.192 A  
HETATM   19  C   UNL     1      -8.101   3.869  63.737  1.00  0.00    -0.089 A  
HETATM   20  C   UNL     1     -10.165   4.162  64.946  1.00  0.00    -0.204 A  
HETATM   21  O   UNL     1     -11.505   4.417  64.852  1.00  0.00    -1.070 OA 
HETATM   22  H   UNL     1     -11.949   4.545  64.022  1.00  0.00     0.000 HD 
HETATM   23  C   UNL     1      -9.471   4.105  63.739  1.00  0.00    -0.147 A  
ENDBRANCH   4  12
ENDBRANCH   3   4
ENDBRANCH   2   3
TORSDOF 6
ENDMDL
MODEL      196
REMARK 921   NORMALIZED FREE ENERGY PREDICTED BY IDOCK:   -2.75 KCAL/MOL
REMARK 922        TOTAL FREE ENERGY PREDICTED BY IDOCK:   -5.11 KCAL/MOL
REMARK 923 INTER-LIGAND FREE ENERGY PREDICTED BY IDOCK:   -4.22 KCAL/MOL
REMARK 924 INTRA-LIGAND FREE ENERGY PREDICTED BY IDOCK:   -0.89 KCAL/MOL
REMARK 927      BINDING AFFINITY PREDICTED BY RF-SCORE:    0.00 PKD
ROOT
HETATM    1  C   UNL     1     -10.356   2.985  72.600  1.00  0.00    -0.211 C  
HETATM    2  C   UNL     1      -9.825   3.707  71.369  1.00  0.00    -0.219 C  
ENDROOT
BRANCH   2   3
HETATM    3  C   UNL     1      -8.511   4.447  71.671  1.00  0.00    -0.105 C  
BRANCH   3   4
HETATM    4  N   UNL     1      -8.586   5.925  71.717  1.00  0.00    -0.131 NA 
BRANCH   4   5
HETATM    5  C   UNL     1      -7.407   6.563  71.099  1.00  0.00    -0.080 C  
BRANCH   5   6
HETATM    6  C   UNL     1      -7.515   6.710  69.568  1.00  0.00    -0.093 C  
BRANCH   6   7
HETATM    7  C   UNL     1      -7.624   8.157  69.175  1.00  0.00    -0.096 A  
HETATM    8  S   UNL     1      -8.994   8.709  68.303  1.00  0.00    -0.142 SA 
HETATM    9  C   UNL     1      -6.728   9.179  69.416  1.00  0.00    -0.048 A  
HETATM   10  C   UNL     1      -7.161  10.417  68.860  1.00  0.00    -0.082 A  
HETATM   11  C   UNL     1      -8.376  10.300  68.225  1.00  0.00    -0.116 A  
ENDBRANCH   6   7
ENDBRANCH   5   6
ENDBRANCH   4   5
BRANCH   4  12
HETATM   12  C   UNL     1      -8.941   6.472  73.059  1.00  0.00    -0.128 C  
HETATM   13  C   UNL     1      -8.529   7.947  73.276  1.00  0.00    -0.261 C  
HETATM   14  C   UNL     1     -10.468   6.459  73.355  1.00  0.00    -0.283 C  
HETATM   15  C   UNL     1      -9.166   8.872  72.236  1.00  0.00    -0.024 C  
HETATM   16  C   UNL     1     -11.252   7.459  72.527  1.00  0.00    -0.363 A  
HETATM   17  C   UNL     1     -12.625   7.246  72.324  1.00  0.00    -0.062 A  
HETATM   18  C   UNL     1     -10.639   8.620  72.010  1.00  0.00    -0.421 A  
HETATM   19  C   UNL     1     -13.383   8.153  71.584  1.00  0.00    -0.358 A  
HETATM   20  C   UNL     1     -11.417   9.507  71.248  1.00  0.00    -0.377 A  
HETATM   21  O   UNL     1     -10.903  10.630  70.661  1.00  0.00    -0.394 OA 
HETATM   22  H   UNL     1     -11.429  11.230  70.146  1.00  0.00     0.000 HD 
HETATM   23  C   UNL     1     -12.776   9.281  71.042  1.00  0.00    -0.226 A  
ENDBRANCH   4  12
ENDBRANCH   3   4
ENDBRANCH   2   3
TORSDOF 6
ENDMDL
MODEL      197
REMARK 921   NORMALIZED FREE ENERGY PREDICTED BY IDOCK:   -2.71 KCAL/MOL
REMARK 922        TOTAL FREE ENERGY PREDICTED BY IDOCK:   -5.05 KCAL/MOL
REMARK 923 INTER-LIGAND FREE ENERGY PREDICTED BY IDOCK:   -4.08 KCAL/MOL
REMARK 924 INTRA-LIGAND FREE ENERGY PREDICTED BY IDOCK:   -0.98 KCAL/MOL
REMARK 927      BINDING AFFINITY PREDICTED BY RF-SCORE:    0.00 PKD
ROOT
HETATM    1  C   UNL     1     -10.128   2.516  73.095  1.00  0.00    -0.196 C  
HETATM    2  C   UNL     1      -9.832   3.871  73.722  1.00  0.00    -0.149 C  
ENDROOT
BRANCH   2   3
HETATM    3  C   UNL     1      -8.785   4.652  72.910  1.00  0.00    -0.116 C  
BRANCH   3   4
HETATM    4  N   UNL     1      -9.075   6.084  72.670  1.00  0.00    -0.138 NA 
BRANCH   4   5
HETATM    5  C   UNL     1      -8.282   6.969  73.548  1.00  0.00    -0.112 C  
BRANCH   5   6
HETATM    6  C   UNL     1      -6.774   6.968  73.226  1.00  0.00    -0.066 C  
BRANCH   6   7
HETATM    7  C   UNL     1      -6.488   7.786  71.998  1.00  0.00    -0.044 A  
HETATM    8  S   UNL     1      -5.659   7.082  70.672  1.00  0.00    -0.024 SA 
HETATM    9  C   UNL     1      -6.803   9.108  71.758  1.00  0.00     0.078 A  
HETATM   10  C   UNL     1      -6.338   9.550  70.486  1.00  0.00    -0.080 A  
HETATM   11  C   UNL     1      -5.697   8.547  69.795  1.00  0.00    -0.029 A  
ENDBRANCH   6   7
ENDBRANCH   5   6
ENDBRANCH   4   5
BRANCH   4  12
HETATM   12  C   UNL     1     -10.529   6.409  72.631  1.00  0.00    -0.210 C  
HETATM   13  C   UNL     1     -10.846   7.923  72.650  1.00  0.00    -0.428 C  
HETATM   14  C   UNL     1     -11.253   5.888  71.357  1.00  0.00    -0.285 C  
HETATM   15  C   UNL     1     -10.197   8.651  71.469  1.00  0.00    -0.345 C  
HETATM   16  C   UNL     1     -10.858   6.627  70.093  1.00  0.00    -0.330 A  
HETATM   17  C   UNL     1     -11.035   5.994  68.853  1.00  0.00    -0.395 A  
HETATM   18  C   UNL     1     -10.374   7.951  70.143  1.00  0.00    -0.215 A  
HETATM   19  C   UNL     1     -10.701   6.649  67.668  1.00  0.00    -0.373 A  
HETATM   20  C   UNL     1     -10.022   8.582  68.938  1.00  0.00    -0.190 A  
HETATM   21  O   UNL     1      -9.494   9.842  68.885  1.00  0.00    -0.156 OA 
HETATM   22  H   UNL     1      -9.256  10.269  68.071  1.00  0.00     0.000 HD 
HETATM   23  C   UNL     1     -10.190   7.942  67.712  1.00  0.00    -0.276 A  
ENDBRANCH   4  12
ENDBRANCH   3   4
ENDBRANCH   2   3
TORSDOF 6
ENDMDL
MODEL      198
REMARK 921   NORMALIZED FREE ENERGY PREDICTED BY IDOCK:   -2.71 KCAL/MOL
REMARK 922        TOTAL FREE ENERGY PREDICTED BY IDOCK:   -5.05 KCAL/MOL
REMARK 923 INTER-LIGAND FREE ENERGY PREDICTED BY IDOCK:   -3.78 KCAL/MOL
REMARK 924 INTRA-LIGAND FREE ENERGY PREDICTED BY IDOCK:   -1.27 KCAL/MOL
REMARK 927      BINDING AFFINITY PREDICTED BY RF-SCORE:    0.00 PKD
ROOT
HETATM    1  C   UNL     1      -9.497   6.061  69.252  1.00  0.00    -0.152 C  
HETATM    2  C   UNL     1     -10.790   6.322  68.491  1.00  0.00    -0.394 C  
ENDROOT
BRANCH   2   3
HETATM    3  C   UNL     1     -10.611   7.428  67.437  1.00  0.00    -0.301 C  
BRANCH   3   4
HETATM    4  N   UNL     1      -9.995   8.689  67.907  1.00  0.00    -0.178 NA 
BRANCH   4   5
HETATM    5  C   UNL     1     -11.005   9.698  68.285  1.00  0.00    -0.121 C  
BRANCH   5   6
HETATM    6  C   UNL     1     -10.803  10.275  69.701  1.00  0.00    -0.311 C  
BRANCH   6   7
HETATM    7  C   UNL     1     -10.944   9.200  70.742  1.00  0.00    -0.270 A  
HETATM    8  S   UNL     1      -9.599   8.758  71.708  1.00  0.00    -0.286 SA 
HETATM    9  C   UNL     1     -12.064   8.457  71.058  1.00  0.00    -0.218 A  
HETATM   10  C   UNL     1     -11.805   7.503  72.083  1.00  0.00    -0.338 A  
HETATM   11  C   UNL     1     -10.502   7.559  72.523  1.00  0.00    -0.249 A  
ENDBRANCH   6   7
ENDBRANCH   5   6
ENDBRANCH   4   5
BRANCH   4  12
HETATM   12  C   UNL     1      -8.920   9.209  67.013  1.00  0.00    -0.123 C  
HETATM   13  C   UNL     1      -8.335  10.574  67.443  1.00  0.00    -0.121 C  
HETATM   14  C   UNL     1      -7.678   8.277  66.921  1.00  0.00    -0.095 C  
HETATM   15  C   UNL     1      -7.747  10.517  68.856  1.00  0.00    -0.117 C  
HETATM   16  C   UNL     1      -6.860   8.234  68.197  1.00  0.00    -0.069 A  
HETATM   17  C   UNL     1      -6.032   7.126  68.437  1.00  0.00    -0.026 A  
HETATM   18  C   UNL     1      -6.875   9.309  69.111  1.00  0.00    -0.050 A  
HETATM   19  C   UNL     1      -5.251   7.060  69.590  1.00  0.00    -0.015 A  
HETATM   20  C   UNL     1      -6.098   9.209  70.277  1.00  0.00    -0.040 A  
HETATM   21  O   UNL     1      -6.087  10.173  71.247  1.00  0.00    -0.284 OA 
HETATM   22  H   UNL     1      -5.561  10.106  72.035  1.00  0.00     0.000 HD 
HETATM   23  C   UNL     1      -5.288   8.100  70.512  1.00  0.00    -0.022 A  
ENDBRANCH   4  12
ENDBRANCH   3   4
ENDBRANCH   2   3
TORSDOF 6
ENDMDL
MODEL      199
REMARK 921   NORMALIZED FREE ENERGY PREDICTED BY IDOCK:   -2.70 KCAL/MOL
REMARK 922        TOTAL FREE ENERGY PREDICTED BY IDOCK:   -5.04 KCAL/MOL
REMARK 923 INTER-LIGAND FREE ENERGY PREDICTED BY IDOCK:   -5.75 KCAL/MOL
REMARK 924 INTRA-LIGAND FREE ENERGY PREDICTED BY IDOCK:    0.71 KCAL/MOL
REMARK 927      BINDING AFFINITY PREDICTED BY RF-SCORE:    0.00 PKD
ROOT
HETATM    1  C   UNL     1     -10.723   5.899  69.530  1.00  0.00    -0.414 C  
HETATM    2  C   UNL     1      -9.892   6.929  68.776  1.00  0.00    -0.149 C  
ENDROOT
BRANCH   2   3
HETATM    3  C   UNL     1     -10.732   8.157  68.387  1.00  0.00    -0.012 C  
BRANCH   3   4
HETATM    4  N   UNL     1     -10.351   9.440  69.019  1.00  0.00    -0.205 NA 
BRANCH   4   5
HETATM    5  C   UNL     1     -11.523  10.290  69.308  1.00  0.00    -0.160 C  
BRANCH   5   6
HETATM    6  C   UNL     1     -11.704  10.605  70.807  1.00  0.00    -0.435 C  
BRANCH   6   7
HETATM    7  C   UNL     1     -11.226   9.461  71.656  1.00  0.00    -0.361 A  
HETATM    8  S   UNL     1     -12.351   8.337  72.294  1.00  0.00    -0.335 SA 
HETATM    9  C   UNL     1      -9.933   9.159  72.036  1.00  0.00    -0.037 A  
HETATM   10  C   UNL     1      -9.873   8.010  72.875  1.00  0.00    -0.357 A  
HETATM   11  C   UNL     1     -11.119   7.468  73.096  1.00  0.00    -0.326 A  
ENDBRANCH   6   7
ENDBRANCH   5   6
ENDBRANCH   4   5
BRANCH   4  12
HETATM   12  C   UNL     1      -9.239  10.152  68.325  1.00  0.00    -0.130 C  
HETATM   13  C   UNL     1      -9.234   9.982  66.788  1.00  0.00    -0.173 C  
HETATM   14  C   UNL     1      -9.256  11.693  68.535  1.00  0.00    -0.163 C  
HETATM   15  C   UNL     1     -10.539  10.477  66.159  1.00  0.00    -0.182 C  
HETATM   16  C   UNL     1     -10.402  12.386  67.822  1.00  0.00    -0.222 A  
HETATM   17  C   UNL     1     -10.828  13.641  68.284  1.00  0.00    -0.268 A  
HETATM   18  C   UNL     1     -11.001  11.818  66.678  1.00  0.00    -0.342 A  
HETATM   19  C   UNL     1     -11.866  14.318  67.643  1.00  0.00    -0.420 A  
HETATM   20  C   UNL     1     -12.060  12.508  66.064  1.00  0.00    -0.321 A  
HETATM   21  O   UNL     1     -12.739  12.016  64.984  1.00  0.00    -0.381 OA 
HETATM   22  H   UNL     1     -13.455  12.482  64.569  1.00  0.00     0.000 HD 
HETATM   23  C   UNL     1     -12.485  13.748  66.536  1.00  0.00    -0.356 A  
ENDBRANCH   4  12
ENDBRANCH   3   4
ENDBRANCH   2   3
TORSDOF 6
ENDMDL
MODEL      200
REMARK 921   NORMALIZED FREE ENERGY PREDICTED BY IDOCK:   -2.69 KCAL/MOL
REMARK 922        TOTAL FREE ENERGY PREDICTED BY IDOCK:   -5.03 KCAL/MOL
REMARK 923 INTER-LIGAND FREE ENERGY PREDICTED BY IDOCK:   -5.27 KCAL/MOL
REMARK 924 INTRA-LIGAND FREE ENERGY PREDICTED BY IDOCK:    0.24 KCAL/MOL
REMARK 927      BINDING AFFINITY PREDICTED BY RF-SCORE:    0.00 PKD
ROOT
HETATM    1  C   UNL     1      -8.882   6.822  65.908  1.00  0.00    -0.127 C  
HETATM    2  C   UNL     1      -9.563   7.384  67.149  1.00  0.00    -0.204 C  
ENDROOT
BRANCH   2   3
HETATM    3  C   UNL     1      -8.548   7.685  68.263  1.00  0.00    -0.124 C  
BRANCH   3   4
HETATM    4  N   UNL     1      -8.922   7.250  69.628  1.00  0.00    -0.141 NA 
BRANCH   4   5
HETATM    5  C   UNL     1     -10.340   6.847  69.716  1.00  0.00    -0.206 C  
BRANCH   5   6
HETATM    6  C   UNL     1     -10.551   5.463  70.364  1.00  0.00    -0.322 C  
BRANCH   6   7
HETATM    7  C   UNL     1      -9.581   4.459  69.807  1.00  0.00    -0.205 A  
HETATM    8  S   UNL     1      -8.399   3.750  70.827  1.00  0.00    -0.070 SA 
HETATM    9  C   UNL     1      -9.482   3.992  68.512  1.00  0.00    -0.215 A  
HETATM   10  C   UNL     1      -8.413   3.064  68.355  1.00  0.00    -0.103 A  
HETATM   11  C   UNL     1      -7.741   2.846  69.536  1.00  0.00    -0.043 A  
ENDBRANCH   6   7
ENDBRANCH   5   6
ENDBRANCH   4   5
BRANCH   4  12
HETATM   12  C   UNL     1      -8.488   8.187  70.703  1.00  0.00    -0.128 C  
HETATM   13  C   UNL     1      -8.195   9.626  70.217  1.00  0.00    -0.217 C  
HETATM   14  C   UNL     1      -9.543   8.377  71.831  1.00  0.00    -0.324 C  
HETATM   15  C   UNL     1      -9.419  10.257  69.546  1.00  0.00    -0.207 C  
HETATM   16  C   UNL     1     -10.769   9.151  71.386  1.00  0.00    -0.414 A  
HETATM   17  C   UNL     1     -11.967   8.994  72.099  1.00  0.00    -0.395 A  
HETATM   18  C   UNL     1     -10.707  10.063  70.311  1.00  0.00    -0.367 A  
HETATM   19  C   UNL     1     -13.111   9.703  71.732  1.00  0.00    -0.514 A  
HETATM   20  C   UNL     1     -11.877  10.748  69.944  1.00  0.00    -0.335 A  
HETATM   21  O   UNL     1     -11.932  11.610  68.885  1.00  0.00    -0.328 OA 
HETATM   22  H   UNL     1     -12.723  12.074  68.637  1.00  0.00     0.000 HD 
HETATM   23  C   UNL     1     -13.066  10.576  70.651  1.00  0.00    -0.278 A  
ENDBRANCH   4  12
ENDBRANCH   3   4
ENDBRANCH   2   3
TORSDOF 6
ENDMDL
MODEL      201
REMARK 921   NORMALIZED FREE ENERGY PREDICTED BY IDOCK:   -2.69 KCAL/MOL
REMARK 922        TOTAL FREE ENERGY PREDICTED BY IDOCK:   -5.03 KCAL/MOL
REMARK 923 INTER-LIGAND FREE ENERGY PREDICTED BY IDOCK:   -4.56 KCAL/MOL
REMARK 924 INTRA-LIGAND FREE ENERGY PREDICTED BY IDOCK:   -0.47 KCAL/MOL
REMARK 927      BINDING AFFINITY PREDICTED BY RF-SCORE:    0.00 PKD
ROOT
HETATM    1  C   UNL     1      -7.746  13.094  67.785  1.00  0.00    -0.153 C  
HETATM    2  C   UNL     1      -7.956  11.597  67.600  1.00  0.00    -0.136 C  
ENDROOT
BRANCH   2   3
HETATM    3  C   UNL     1      -9.447  11.224  67.661  1.00  0.00    -0.167 C  
BRANCH   3   4
HETATM    4  N   UNL     1      -9.964  10.404  66.542  1.00  0.00    -0.209 NA 
BRANCH   4   5
HETATM    5  C   UNL     1     -10.534  11.232  65.460  1.00  0.00    -0.265 C  
BRANCH   5   6
HETATM    6  C   UNL     1     -11.681  12.153  65.924  1.00  0.00    -0.393 C  
BRANCH   6   7
HETATM    7  C   UNL     1     -11.214  13.578  66.029  1.00  0.00    -0.295 A  
HETATM    8  S   UNL     1     -11.627  14.517  67.402  1.00  0.00    -0.395 SA 
HETATM    9  C   UNL     1     -10.460  14.300  65.126  1.00  0.00    -0.432 A  
HETATM   10  C   UNL     1     -10.242  15.639  65.557  1.00  0.00    -0.414 A  
HETATM   11  C   UNL     1     -10.825  15.890  66.778  1.00  0.00    -0.228 A  
ENDBRANCH   6   7
ENDBRANCH   5   6
ENDBRANCH   4   5
BRANCH   4  12
HETATM   12  C   UNL     1     -10.841   9.277  66.973  1.00  0.00    -0.007 C  
HETATM   13  C   UNL     1     -10.290   7.873  66.632  1.00  0.00    -0.270 C  
HETATM   14  C   UNL     1     -11.084   9.225  68.508  1.00  0.00     0.071 C  
HETATM   15  C   UNL     1      -8.918   7.634  67.267  1.00  0.00    -0.134 C  
HETATM   16  C   UNL     1      -9.855   8.824  69.300  1.00  0.00    -0.180 A  
HETATM   17  C   UNL     1      -9.771   9.187  70.654  1.00  0.00    -0.314 A  
HETATM   18  C   UNL     1      -8.831   8.048  68.717  1.00  0.00    -0.138 A  
HETATM   19  C   UNL     1      -8.665   8.819  71.420  1.00  0.00    -0.278 A  
HETATM   20  C   UNL     1      -7.716   7.711  69.501  1.00  0.00    -0.103 A  
HETATM   21  O   UNL     1      -6.649   7.009  69.013  1.00  0.00    -0.044 OA 
HETATM   22  H   UNL     1      -5.895   6.780  69.543  1.00  0.00     0.000 HD 
HETATM   23  C   UNL     1      -7.635   8.085  70.841  1.00  0.00    -0.078 A  
ENDBRANCH   4  12
ENDBRANCH   3   4
ENDBRANCH   2   3
TORSDOF 6
ENDMDL
MODEL      202
REMARK 921   NORMALIZED FREE ENERGY PREDICTED BY IDOCK:   -2.69 KCAL/MOL
REMARK 922        TOTAL FREE ENERGY PREDICTED BY IDOCK:   -5.03 KCAL/MOL
REMARK 923 INTER-LIGAND FREE ENERGY PREDICTED BY IDOCK:   -3.97 KCAL/MOL
REMARK 924 INTRA-LIGAND FREE ENERGY PREDICTED BY IDOCK:   -1.06 KCAL/MOL
REMARK 927      BINDING AFFINITY PREDICTED BY RF-SCORE:    0.00 PKD
ROOT
HETATM    1  C   UNL     1      -5.489  12.076  67.264  1.00  0.00    -0.128 C  
HETATM    2  C   UNL     1      -6.812  11.448  66.845  1.00  0.00    -0.142 C  
ENDROOT
BRANCH   2   3
HETATM    3  C   UNL     1      -7.996  12.068  67.605  1.00  0.00    -0.150 C  
BRANCH   3   4
HETATM    4  N   UNL     1      -9.303  11.391  67.449  1.00  0.00    -0.166 NA 
BRANCH   4   5
HETATM    5  C   UNL     1     -10.264  12.201  66.674  1.00  0.00    -0.201 C  
BRANCH   5   6
HETATM    6  C   UNL     1     -11.017  11.401  65.593  1.00  0.00    -0.254 C  
BRANCH   6   7
HETATM    7  C   UNL     1     -10.113  11.083  64.435  1.00  0.00    -0.334 A  
HETATM    8  S   UNL     1      -9.139   9.673  64.468  1.00  0.00    -0.206 SA 
HETATM    9  C   UNL     1      -9.926  11.804  63.273  1.00  0.00    -0.435 A  
HETATM   10  C   UNL     1      -8.959  11.204  62.417  1.00  0.00    -0.321 A  
HETATM   11  C   UNL     1      -8.451  10.041  62.949  1.00  0.00    -0.175 A  
ENDBRANCH   6   7
ENDBRANCH   5   6
ENDBRANCH   4   5
BRANCH   4  12
HETATM   12  C   UNL     1      -9.856  10.841  68.720  1.00  0.00    -0.194 C  
HETATM   13  C   UNL     1     -10.882   9.700  68.530  1.00  0.00    -0.202 C  
HETATM   14  C   UNL     1      -8.777  10.227  69.657  1.00  0.00    -0.125 C  
HETATM   15  C   UNL     1     -10.280   8.520  67.762  1.00  0.00    -0.283 C  
HETATM   16  C   UNL     1      -8.186   8.933  69.131  1.00  0.00    -0.118 A  
HETATM   17  C   UNL     1      -6.921   8.530  69.585  1.00  0.00    -0.047 A  
HETATM   18  C   UNL     1      -8.909   8.107  68.243  1.00  0.00    -0.133 A  
HETATM   19  C   UNL     1      -6.353   7.336  69.138  1.00  0.00    -0.036 A  
HETATM   20  C   UNL     1      -8.307   6.923  67.788  1.00  0.00    -0.120 A  
HETATM   21  O   UNL     1      -8.904   6.085  66.888  1.00  0.00    -0.114 OA 
HETATM   22  H   UNL     1      -8.497   5.284  66.580  1.00  0.00     0.000 HD 
HETATM   23  C   UNL     1      -7.045   6.536  68.235  1.00  0.00    -0.083 A  
ENDBRANCH   4  12
ENDBRANCH   3   4
ENDBRANCH   2   3
TORSDOF 6
ENDMDL
MODEL      203
REMARK 921   NORMALIZED FREE ENERGY PREDICTED BY IDOCK:   -2.67 KCAL/MOL
REMARK 922        TOTAL FREE ENERGY PREDICTED BY IDOCK:   -5.00 KCAL/MOL
REMARK 923 INTER-LIGAND FREE ENERGY PREDICTED BY IDOCK:   -4.67 KCAL/MOL
REMARK 924 INTRA-LIGAND FREE ENERGY PREDICTED BY IDOCK:   -0.34 KCAL/MOL
REMARK 927      BINDING AFFINITY PREDICTED BY RF-SCORE:    0.00 PKD
ROOT
HETATM    1  C   UNL     1     -10.764   8.130  72.063  1.00  0.00    -0.343 C  
HETATM    2  C   UNL     1     -10.122   9.031  71.017  1.00  0.00    -0.352 C  
ENDROOT
BRANCH   2   3
HETATM    3  C   UNL     1     -10.812   8.889  69.650  1.00  0.00    -0.178 C  
BRANCH   3   4
HETATM    4  N   UNL     1     -10.082   9.440  68.486  1.00  0.00    -0.180 NA 
BRANCH   4   5
HETATM    5  C   UNL     1      -9.862  10.896  68.603  1.00  0.00    -0.190 C  
BRANCH   5   6
HETATM    6  C   UNL     1     -11.128  11.736  68.335  1.00  0.00    -0.286 C  
BRANCH   6   7
HETATM    7  C   UNL     1     -10.863  12.786  67.293  1.00  0.00    -0.251 A  
HETATM    8  S   UNL     1     -12.156  13.412  66.357  1.00  0.00    -0.388 SA 
HETATM    9  C   UNL     1      -9.657  13.359  66.943  1.00  0.00    -0.257 A  
HETATM   10  C   UNL     1      -9.796  14.300  65.883  1.00  0.00    -0.322 A  
HETATM   11  C   UNL     1     -11.103  14.422  65.470  1.00  0.00    -0.326 A  
ENDBRANCH   6   7
ENDBRANCH   5   6
ENDBRANCH   4   5
BRANCH   4  12
HETATM   12  C   UNL     1     -10.632   9.012  67.167  1.00  0.00    -0.220 C  
HETATM   13  C   UNL     1     -10.105   9.824  65.961  1.00  0.00    -0.322 C  
HETATM   14  C   UNL     1     -10.302   7.536  66.802  1.00  0.00    -0.332 C  
HETATM   15  C   UNL     1      -8.579   9.749  65.852  1.00  0.00    -0.149 C  
HETATM   16  C   UNL     1      -8.838   7.307  66.483  1.00  0.00    -0.156 A  
HETATM   17  C   UNL     1      -8.310   6.012  66.608  1.00  0.00    -0.111 A  
HETATM   18  C   UNL     1      -8.020   8.355  66.009  1.00  0.00    -0.101 A  
HETATM   19  C   UNL     1      -6.973   5.758  66.304  1.00  0.00    -0.060 A  
HETATM   20  C   UNL     1      -6.670   8.080  65.734  1.00  0.00    -0.048 A  
HETATM   21  O   UNL     1      -5.786   9.038  65.323  1.00  0.00    -0.053 OA 
HETATM   22  H   UNL     1      -4.873   8.852  65.136  1.00  0.00     0.000 HD 
HETATM   23  C   UNL     1      -6.152   6.794  65.872  1.00  0.00    -0.038 A  
ENDBRANCH   4  12
ENDBRANCH   3   4
ENDBRANCH   2   3
TORSDOF 6
ENDMDL
MODEL      204
REMARK 921   NORMALIZED FREE ENERGY PREDICTED BY IDOCK:   -2.66 KCAL/MOL
REMARK 922        TOTAL FREE ENERGY PREDICTED BY IDOCK:   -4.99 KCAL/MOL
REMARK 923 INTER-LIGAND FREE ENERGY PREDICTED BY IDOCK:   -4.71 KCAL/MOL
REMARK 924 INTRA-LIGAND FREE ENERGY PREDICTED BY IDOCK:   -0.28 KCAL/MOL
REMARK 927      BINDING AFFINITY PREDICTED BY RF-SCORE:    0.00 PKD
ROOT
HETATM    1  C   UNL     1      -7.629   4.673  73.004  1.00  0.00    -0.087 C  
HETATM    2  C   UNL     1      -7.832   4.398  71.520  1.00  0.00    -0.082 C  
ENDROOT
BRANCH   2   3
HETATM    3  C   UNL     1      -8.447   5.611  70.800  1.00  0.00    -0.124 C  
BRANCH   3   4
HETATM    4  N   UNL     1      -8.089   6.943  71.336  1.00  0.00    -0.109 NA 
BRANCH   4   5
HETATM    5  C   UNL     1      -9.280   7.740  71.692  1.00  0.00    -0.136 C  
BRANCH   5   6
HETATM    6  C   UNL     1     -10.614   7.032  71.380  1.00  0.00    -0.236 C  
BRANCH   6   7
HETATM    7  C   UNL     1     -11.771   7.979  71.529  1.00  0.00    -0.284 A  
HETATM    8  S   UNL     1     -13.377   7.381  71.520  1.00  0.00    -0.319 SA 
HETATM    9  C   UNL     1     -11.740   9.352  71.674  1.00  0.00    -0.468 A  
HETATM   10  C   UNL     1     -13.046   9.914  71.755  1.00  0.00    -0.553 A  
HETATM   11  C   UNL     1     -14.027   8.952  71.680  1.00  0.00    -0.362 A  
ENDBRANCH   6   7
ENDBRANCH   5   6
ENDBRANCH   4   5
BRANCH   4  12
HETATM   12  C   UNL     1      -7.088   7.679  70.511  1.00  0.00    -0.051 C  
HETATM   13  C   UNL     1      -6.871   7.093  69.097  1.00  0.00    -0.061 C  
HETATM   14  C   UNL     1      -7.464   9.166  70.251  1.00  0.00    -0.099 C  
HETATM   15  C   UNL     1      -8.172   7.062  68.291  1.00  0.00    -0.124 C  
HETATM   16  C   UNL     1      -8.645   9.334  69.314  1.00  0.00    -0.139 A  
HETATM   17  C   UNL     1      -9.384  10.526  69.360  1.00  0.00    -0.139 A  
HETATM   18  C   UNL     1      -8.972   8.342  68.365  1.00  0.00    -0.136 A  
HETATM   19  C   UNL     1     -10.465  10.725  68.500  1.00  0.00    -0.208 A  
HETATM   20  C   UNL     1     -10.079   8.554  67.527  1.00  0.00    -0.221 A  
HETATM   21  O   UNL     1     -10.507   7.631  66.614  1.00  0.00    -0.465 OA 
HETATM   22  H   UNL     1     -11.255   7.775  66.046  1.00  0.00     0.000 HD 
HETATM   23  C   UNL     1     -10.814   9.736  67.588  1.00  0.00    -0.301 A  
ENDBRANCH   4  12
ENDBRANCH   3   4
ENDBRANCH   2   3
TORSDOF 6
ENDMDL
MODEL      205
REMARK 921   NORMALIZED FREE ENERGY PREDICTED BY IDOCK:   -2.59 KCAL/MOL
REMARK 922        TOTAL FREE ENERGY PREDICTED BY IDOCK:   -4.89 KCAL/MOL
REMARK 923 INTER-LIGAND FREE ENERGY PREDICTED BY IDOCK:   -4.04 KCAL/MOL
REMARK 924 INTRA-LIGAND FREE ENERGY PREDICTED BY IDOCK:   -0.86 KCAL/MOL
REMARK 927      BINDING AFFINITY PREDICTED BY RF-SCORE:    0.00 PKD
ROOT
HETATM    1  C   UNL     1     -10.253   9.970  65.378  1.00  0.00    -0.226 C  
HETATM    2  C   UNL     1      -9.333   8.854  65.854  1.00  0.00    -0.301 C  
ENDROOT
BRANCH   2   3
HETATM    3  C   UNL     1      -9.941   8.089  67.042  1.00  0.00    -0.254 C  
BRANCH   3   4
HETATM    4  N   UNL     1      -9.099   7.983  68.254  1.00  0.00    -0.135 NA 
BRANCH   4   5
HETATM    5  C   UNL     1      -8.501   9.279  68.634  1.00  0.00    -0.123 C  
BRANCH   5   6
HETATM    6  C   UNL     1      -9.405  10.133  69.547  1.00  0.00    -0.230 C  
BRANCH   6   7
HETATM    7  C   UNL     1      -9.958  11.314  68.800  1.00  0.00    -0.193 A  
HETATM    8  S   UNL     1     -11.651  11.579  68.745  1.00  0.00    -0.342 SA 
HETATM    9  C   UNL     1      -9.268  12.280  68.096  1.00  0.00    -0.197 A  
HETATM   10  C   UNL     1     -10.140  13.230  67.490  1.00  0.00    -0.223 A  
HETATM   11  C   UNL     1     -11.462  12.962  67.761  1.00  0.00    -0.323 A  
ENDBRANCH   6   7
ENDBRANCH   5   6
ENDBRANCH   4   5
BRANCH   4  12
HETATM   12  C   UNL     1      -8.128   6.851  68.221  1.00  0.00    -0.119 C  
HETATM   13  C   UNL     1      -6.907   7.031  69.153  1.00  0.00    -0.061 C  
HETATM   14  C   UNL     1      -8.740   5.490  68.658  1.00  0.00    -0.108 C  
HETATM   15  C   UNL     1      -7.330   7.209  70.613  1.00  0.00    -0.075 C  
HETATM   16  C   UNL     1      -9.063   5.421  70.138  1.00  0.00    -0.165 A  
HETATM   17  C   UNL     1     -10.023   4.497  70.582  1.00  0.00    -0.273 A  
HETATM   18  C   UNL     1      -8.378   6.224  71.074  1.00  0.00    -0.124 A  
HETATM   19  C   UNL     1     -10.333   4.391  71.937  1.00  0.00    -0.167 A  
HETATM   20  C   UNL     1      -8.725   6.117  72.431  1.00  0.00    -0.125 A  
HETATM   21  O   UNL     1      -8.158   6.889  73.406  1.00  0.00    -0.101 OA 
HETATM   22  H   UNL     1      -8.392   6.817  74.324  1.00  0.00     0.000 HD 
HETATM   23  C   UNL     1      -9.687   5.205  72.861  1.00  0.00    -0.169 A  
ENDBRANCH   4  12
ENDBRANCH   3   4
ENDBRANCH   2   3
TORSDOF 6
ENDMDL
MODEL      206
REMARK 921   NORMALIZED FREE ENERGY PREDICTED BY IDOCK:   -2.59 KCAL/MOL
REMARK 922        TOTAL FREE ENERGY PREDICTED BY IDOCK:   -4.89 KCAL/MOL
REMARK 923 INTER-LIGAND FREE ENERGY PREDICTED BY IDOCK:   -4.18 KCAL/MOL
REMARK 924 INTRA-LIGAND FREE ENERGY PREDICTED BY IDOCK:   -0.71 KCAL/MOL
REMARK 927      BINDING AFFINITY PREDICTED BY RF-SCORE:    0.00 PKD
ROOT
HETATM    1  C   UNL     1     -10.439   7.638  67.543  1.00  0.00    -0.336 C  
HETATM    2  C   UNL     1     -10.478   8.631  68.697  1.00  0.00    -0.208 C  
ENDROOT
BRANCH   2   3
HETATM    3  C   UNL     1      -9.234   9.536  68.706  1.00  0.00    -0.140 C  
BRANCH   3   4
HETATM    4  N   UNL     1      -8.222   9.271  67.659  1.00  0.00    -0.114 NA 
BRANCH   4   5
HETATM    5  C   UNL     1      -7.332   8.147  68.013  1.00  0.00    -0.096 C  
BRANCH   5   6
HETATM    6  C   UNL     1      -6.108   8.569  68.850  1.00  0.00    -0.044 C  
BRANCH   6   7
HETATM    7  C   UNL     1      -6.271   8.153  70.285  1.00  0.00    -0.032 A  
HETATM    8  S   UNL     1      -5.976   9.278  71.544  1.00  0.00    -0.049 SA 
HETATM    9  C   UNL     1      -6.639   6.918  70.781  1.00  0.00    -0.052 A  
HETATM   10  C   UNL     1      -6.654   6.894  72.206  1.00  0.00    -0.057 A  
HETATM   11  C   UNL     1      -6.311   8.112  72.746  1.00  0.00    -0.080 A  
ENDBRANCH   6   7
ENDBRANCH   5   6
ENDBRANCH   4   5
BRANCH   4  12
HETATM   12  C   UNL     1      -7.505  10.490  67.187  1.00  0.00    -0.097 C  
HETATM   13  C   UNL     1      -6.881  10.360  65.778  1.00  0.00    -0.132 C  
HETATM   14  C   UNL     1      -8.413  11.749  67.084  1.00  0.00    -0.170 C  
HETATM   15  C   UNL     1      -7.938  10.030  64.720  1.00  0.00    -0.144 C  
HETATM   16  C   UNL     1      -9.422  11.673  65.955  1.00  0.00    -0.246 A  
HETATM   17  C   UNL     1     -10.581  12.463  66.025  1.00  0.00    -0.286 A  
HETATM   18  C   UNL     1      -9.189  10.871  64.818  1.00  0.00    -0.227 A  
HETATM   19  C   UNL     1     -11.523  12.435  64.997  1.00  0.00    -0.378 A  
HETATM   20  C   UNL     1     -10.163  10.840  63.807  1.00  0.00    -0.288 A  
HETATM   21  O   UNL     1     -10.054  10.054  62.693  1.00  0.00    -0.544 OA 
HETATM   22  H   UNL     1     -10.713  10.033  62.009  1.00  0.00     0.000 HD 
HETATM   23  C   UNL     1     -11.316  11.619  63.891  1.00  0.00    -0.457 A  
ENDBRANCH   4  12
ENDBRANCH   3   4
ENDBRANCH   2   3
TORSDOF 6
ENDMDL
MODEL      207
REMARK 921   NORMALIZED FREE ENERGY PREDICTED BY IDOCK:   -2.55 KCAL/MOL
REMARK 922        TOTAL FREE ENERGY PREDICTED BY IDOCK:   -4.84 KCAL/MOL
REMARK 923 INTER-LIGAND FREE ENERGY PREDICTED BY IDOCK:   -4.22 KCAL/MOL
REMARK 924 INTRA-LIGAND FREE ENERGY PREDICTED BY IDOCK:   -0.62 KCAL/MOL
REMARK 927      BINDING AFFINITY PREDICTED BY RF-SCORE:    0.00 PKD
ROOT
HETATM    1  C   UNL     1     -12.415   7.433  71.312  1.00  0.00    -0.381 C  
HETATM    2  C   UNL     1     -11.812   6.558  70.221  1.00  0.00    -0.361 C  
ENDROOT
BRANCH   2   3
HETATM    3  C   UNL     1     -10.329   6.891  69.985  1.00  0.00    -0.200 C  
BRANCH   3   4
HETATM    4  N   UNL     1      -9.823   6.695  68.608  1.00  0.00    -0.135 NA 
BRANCH   4   5
HETATM    5  C   UNL     1     -10.010   5.307  68.137  1.00  0.00    -0.155 C  
BRANCH   5   6
HETATM    6  C   UNL     1     -10.499   5.211  66.678  1.00  0.00    -0.328 C  
BRANCH   6   7
HETATM    7  C   UNL     1      -9.558   4.379  65.851  1.00  0.00    -0.188 A  
HETATM    8  S   UNL     1      -8.266   3.542  66.604  1.00  0.00    -0.101 SA 
HETATM    9  C   UNL     1      -9.568   4.178  64.486  1.00  0.00    -0.168 A  
HETATM   10  C   UNL     1      -8.493   3.350  64.056  1.00  0.00    -0.090 A  
HETATM   11  C   UNL     1      -7.707   2.937  65.108  1.00  0.00    -0.081 A  
ENDBRANCH   6   7
ENDBRANCH   5   6
ENDBRANCH   4   5
BRANCH   4  12
HETATM   12  C   UNL     1      -8.451   7.235  68.384  1.00  0.00    -0.125 C  
HETATM   13  C   UNL     1      -8.036   7.324  66.897  1.00  0.00    -0.112 C  
HETATM   14  C   UNL     1      -8.253   8.681  68.919  1.00  0.00    -0.123 C  
HETATM   15  C   UNL     1      -8.996   8.205  66.093  1.00  0.00    -0.218 C  
HETATM   16  C   UNL     1      -9.004   9.729  68.120  1.00  0.00    -0.119 A  
HETATM   17  C   UNL     1      -9.314  10.955  68.729  1.00  0.00    -0.190 A  
HETATM   18  C   UNL     1      -9.341   9.513  66.767  1.00  0.00    -0.196 A  
HETATM   19  C   UNL     1      -9.987  11.950  68.020  1.00  0.00    -0.192 A  
HETATM   20  C   UNL     1     -10.039  10.520  66.080  1.00  0.00    -0.246 A  
HETATM   21  O   UNL     1     -10.456  10.384  64.785  1.00  0.00    -0.261 OA 
HETATM   22  H   UNL     1     -10.928  11.065  64.321  1.00  0.00     0.000 HD 
HETATM   23  C   UNL     1     -10.353  11.729  66.697  1.00  0.00    -0.251 A  
ENDBRANCH   4  12
ENDBRANCH   3   4
ENDBRANCH   2   3
TORSDOF 6
ENDMDL
MODEL      208
REMARK 921   NORMALIZED FREE ENERGY PREDICTED BY IDOCK:   -2.54 KCAL/MOL
REMARK 922        TOTAL FREE ENERGY PREDICTED BY IDOCK:   -4.83 KCAL/MOL
REMARK 923 INTER-LIGAND FREE ENERGY PREDICTED BY IDOCK:   -3.82 KCAL/MOL
REMARK 924 INTRA-LIGAND FREE ENERGY PREDICTED BY IDOCK:   -1.01 KCAL/MOL
REMARK 927      BINDING AFFINITY PREDICTED BY RF-SCORE:    0.00 PKD
ROOT
HETATM    1  C   UNL     1      -7.027   3.336  68.634  1.00  0.00    -0.049 C  
HETATM    2  C   UNL     1      -7.624   4.735  68.560  1.00  0.00    -0.073 C  
ENDROOT
BRANCH   2   3
HETATM    3  C   UNL     1      -6.671   5.788  69.148  1.00  0.00    -0.060 C  
BRANCH   3   4
HETATM    4  N   UNL     1      -7.214   6.631  70.236  1.00  0.00    -0.075 NA 
BRANCH   4   5
HETATM    5  C   UNL     1      -7.208   8.066  69.888  1.00  0.00    -0.061 C  
BRANCH   5   6
HETATM    6  C   UNL     1      -8.059   8.405  68.647  1.00  0.00    -0.122 C  
BRANCH   6   7
HETATM    7  C   UNL     1      -9.307   9.144  69.039  1.00  0.00    -0.151 A  
HETATM    8  S   UNL     1      -9.928  10.379  68.024  1.00  0.00    -0.160 SA 
HETATM    9  C   UNL     1     -10.081   8.977  70.170  1.00  0.00    -0.220 A  
HETATM   10  C   UNL     1     -11.176   9.888  70.212  1.00  0.00    -0.364 A  
HETATM   11  C   UNL     1     -11.207  10.708  69.108  1.00  0.00    -0.265 A  
ENDBRANCH   6   7
ENDBRANCH   5   6
ENDBRANCH   4   5
BRANCH   4  12
HETATM   12  C   UNL     1      -6.642   6.329  71.580  1.00  0.00    -0.054 C  
HETATM   13  C   UNL     1      -6.989   7.369  72.671  1.00  0.00    -0.068 C  
HETATM   14  C   UNL     1      -7.129   4.978  72.177  1.00  0.00    -0.075 C  
HETATM   15  C   UNL     1      -8.502   7.512  72.855  1.00  0.00    -0.163 C  
HETATM   16  C   UNL     1      -8.588   4.991  72.589  1.00  0.00    -0.119 A  
HETATM   17  C   UNL     1      -9.279   3.773  72.683  1.00  0.00    -0.138 A  
HETATM   18  C   UNL     1      -9.239   6.195  72.933  1.00  0.00    -0.134 A  
HETATM   19  C   UNL     1     -10.617   3.744  73.078  1.00  0.00    -0.253 A  
HETATM   20  C   UNL     1     -10.593   6.143  73.304  1.00  0.00    -0.258 A  
HETATM   21  O   UNL     1     -11.325   7.259  73.603  1.00  0.00    -0.542 OA 
HETATM   22  H   UNL     1     -12.240   7.224  73.854  1.00  0.00     0.000 HD 
HETATM   23  C   UNL     1     -11.274   4.930  73.383  1.00  0.00    -0.415 A  
ENDBRANCH   4  12
ENDBRANCH   3   4
ENDBRANCH   2   3
TORSDOF 6
ENDMDL
MODEL      209
REMARK 921   NORMALIZED FREE ENERGY PREDICTED BY IDOCK:   -2.52 KCAL/MOL
REMARK 922        TOTAL FREE ENERGY PREDICTED BY IDOCK:   -4.80 KCAL/MOL
REMARK 923 INTER-LIGAND FREE ENERGY PREDICTED BY IDOCK:   -5.39 KCAL/MOL
REMARK 924 INTRA-LIGAND FREE ENERGY PREDICTED BY IDOCK:    0.59 KCAL/MOL
REMARK 927      BINDING AFFINITY PREDICTED BY RF-SCORE:    0.00 PKD
ROOT
HETATM    1  C   UNL     1      -7.453  10.979  66.419  1.00  0.00    -0.131 C  
HETATM    2  C   UNL     1      -7.179  12.011  67.505  1.00  0.00    -0.127 C  
ENDROOT
BRANCH   2   3
HETATM    3  C   UNL     1      -8.459  12.764  67.905  1.00  0.00    -0.173 C  
BRANCH   3   4
HETATM    4  N   UNL     1      -8.944  13.785  66.950  1.00  0.00    -0.239 NA 
BRANCH   4   5
HETATM    5  C   UNL     1      -8.820  15.156  67.487  1.00  0.00    -0.182 C  
BRANCH   5   6
HETATM    6  C   UNL     1      -7.874  15.260  68.701  1.00  0.00    -0.142 C  
BRANCH   6   7
HETATM    7  C   UNL     1      -7.163  16.585  68.713  1.00  0.00    -0.197 A  
HETATM    8  S   UNL     1      -7.605  17.807  67.595  1.00  0.00    -0.212 SA 
HETATM    9  C   UNL     1      -6.134  16.996  69.537  1.00  0.00    -0.233 A  
HETATM   10  C   UNL     1      -5.693  18.314  69.229  1.00  0.00    -0.224 A  
HETATM   11  C   UNL     1      -6.407  18.868  68.191  1.00  0.00    -0.218 A  
ENDBRANCH   6   7
ENDBRANCH   5   6
ENDBRANCH   4   5
BRANCH   4  12
HETATM   12  C   UNL     1     -10.282  13.481  66.365  1.00  0.00    -0.291 C  
HETATM   13  C   UNL     1     -10.772  12.035  66.611  1.00  0.00    -0.280 C  
HETATM   14  C   UNL     1     -11.428  14.369  66.928  1.00  0.00    -0.379 C  
HETATM   15  C   UNL     1     -10.858  11.713  68.106  1.00  0.00    -0.260 C  
HETATM   16  C   UNL     1     -11.776  14.062  68.371  1.00  0.00    -0.389 A  
HETATM   17  C   UNL     1     -12.412  15.048  69.141  1.00  0.00     0.023 A  
HETATM   18  C   UNL     1     -11.525  12.790  68.929  1.00  0.00    -0.352 A  
HETATM   19  C   UNL     1     -12.766  14.796  70.467  1.00  0.00    -0.397 A  
HETATM   20  C   UNL     1     -11.868  12.568  70.273  1.00  0.00    -0.223 A  
HETATM   21  O   UNL     1     -11.616  11.389  70.918  1.00  0.00    -0.310 OA 
HETATM   22  H   UNL     1     -11.848  11.238  71.827  1.00  0.00     0.000 HD 
HETATM   23  C   UNL     1     -12.488  13.557  71.033  1.00  0.00    -0.451 A  
ENDBRANCH   4  12
ENDBRANCH   3   4
ENDBRANCH   2   3
TORSDOF 6
ENDMDL
MODEL      210
REMARK 921   NORMALIZED FREE ENERGY PREDICTED BY IDOCK:   -2.48 KCAL/MOL
REMARK 922        TOTAL FREE ENERGY PREDICTED BY IDOCK:   -4.74 KCAL/MOL
REMARK 923 INTER-LIGAND FREE ENERGY PREDICTED BY IDOCK:   -5.24 KCAL/MOL
REMARK 924 INTRA-LIGAND FREE ENERGY PREDICTED BY IDOCK:    0.49 KCAL/MOL
REMARK 927      BINDING AFFINITY PREDICTED BY RF-SCORE:    0.00 PKD
ROOT
HETATM    1  C   UNL     1     -10.028  19.562  68.610  1.00  0.00    -0.538 C  
HETATM    2  C   UNL     1     -10.482  18.138  68.318  1.00  0.00    -0.333 C  
ENDROOT
BRANCH   2   3
HETATM    3  C   UNL     1      -9.381  17.116  68.646  1.00  0.00    -0.269 C  
BRANCH   3   4
HETATM    4  N   UNL     1      -8.694  16.497  67.491  1.00  0.00    -0.181 NA 
BRANCH   4   5
HETATM    5  C   UNL     1      -8.969  15.049  67.388  1.00  0.00    -0.186 C  
BRANCH   5   6
HETATM    6  C   UNL     1     -10.426  14.672  67.724  1.00  0.00    -0.246 C  
BRANCH   6   7
HETATM    7  C   UNL     1     -11.136  14.141  66.509  1.00  0.00    -0.318 A  
HETATM    8  S   UNL     1     -11.125  15.039  65.048  1.00  0.00    -0.420 SA 
HETATM    9  C   UNL     1     -11.851  12.968  66.381  1.00  0.00    -0.465 A  
HETATM   10  C   UNL     1     -12.411  12.819  65.080  1.00  0.00    -0.572 A  
HETATM   11  C   UNL     1     -12.095  13.876  64.258  1.00  0.00    -0.440 A  
ENDBRANCH   6   7
ENDBRANCH   5   6
ENDBRANCH   4   5
BRANCH   4  12
HETATM   12  C   UNL     1      -7.249  16.851  67.383  1.00  0.00    -0.159 C  
HETATM   13  C   UNL     1      -6.615  17.354  68.701  1.00  0.00    -0.193 C  
HETATM   14  C   UNL     1      -6.344  15.660  66.958  1.00  0.00     0.250 C  
HETATM   15  C   UNL     1      -6.735  16.314  69.819  1.00  0.00    -0.079 C  
HETATM   16  C   UNL     1      -6.201  14.598  68.031  1.00  0.00    -0.165 A  
HETATM   17  C   UNL     1      -5.841  13.295  67.653  1.00  0.00    -0.107 A  
HETATM   18  C   UNL     1      -6.366  14.912  69.396  1.00  0.00    -0.124 A  
HETATM   19  C   UNL     1      -5.681  12.295  68.613  1.00  0.00    -0.053 A  
HETATM   20  C   UNL     1      -6.224  13.883  70.343  1.00  0.00    -0.105 A  
HETATM   21  O   UNL     1      -6.417  14.075  71.683  1.00  0.00    -0.384 OA 
HETATM   22  H   UNL     1      -6.320  13.380  72.323  1.00  0.00     0.000 HD 
HETATM   23  C   UNL     1      -5.878  12.590  69.957  1.00  0.00    -0.150 A  
ENDBRANCH   4  12
ENDBRANCH   3   4
ENDBRANCH   2   3
TORSDOF 6
ENDMDL
MODEL      211
REMARK 921   NORMALIZED FREE ENERGY PREDICTED BY IDOCK:   -2.36 KCAL/MOL
REMARK 922        TOTAL FREE ENERGY PREDICTED BY IDOCK:   -4.58 KCAL/MOL
REMARK 923 INTER-LIGAND FREE ENERGY PREDICTED BY IDOCK:   -3.62 KCAL/MOL
REMARK 924 INTRA-LIGAND FREE ENERGY PREDICTED BY IDOCK:   -0.97 KCAL/MOL
REMARK 927      BINDING AFFINITY PREDICTED BY RF-SCORE:    0.00 PKD
ROOT
HETATM    1  C   UNL     1     -11.313   6.337  69.795  1.00  0.00    -0.506 C  
HETATM    2  C   UNL     1     -11.293   7.690  70.493  1.00  0.00    -0.266 C  
ENDROOT
BRANCH   2   3
HETATM    3  C   UNL     1     -10.080   7.824  71.429  1.00  0.00    -0.182 C  
BRANCH   3   4
HETATM    4  N   UNL     1      -8.749   7.638  70.809  1.00  0.00    -0.138 NA 
BRANCH   4   5
HETATM    5  C   UNL     1      -8.012   6.503  71.399  1.00  0.00    -0.108 C  
BRANCH   5   6
HETATM    6  C   UNL     1      -8.657   5.948  72.686  1.00  0.00    -0.119 C  
BRANCH   6   7
HETATM    7  C   UNL     1      -9.102   4.526  72.491  1.00  0.00    -0.123 A  
HETATM    8  S   UNL     1      -8.707   3.336  73.661  1.00  0.00    -0.073 SA 
HETATM    9  C   UNL     1      -9.820   3.990  71.442  1.00  0.00    -0.249 A  
HETATM   10  C   UNL     1     -10.026   2.588  71.591  1.00  0.00    -0.162 A  
HETATM   11  C   UNL     1      -9.469   2.106  72.753  1.00  0.00    -0.084 A  
ENDBRANCH   6   7
ENDBRANCH   5   6
ENDBRANCH   4   5
BRANCH   4  12
HETATM   12  C   UNL     1      -7.950   8.893  70.702  1.00  0.00    -0.129 C  
HETATM   13  C   UNL     1      -6.684   8.770  69.822  1.00  0.00    -0.045 C  
HETATM   14  C   UNL     1      -8.733  10.081  70.073  1.00  0.00    -0.118 C  
HETATM   15  C   UNL     1      -7.026   8.339  68.394  1.00  0.00    -0.073 C  
HETATM   16  C   UNL     1      -9.011   9.904  68.593  1.00  0.00    -0.128 A  
HETATM   17  C   UNL     1     -10.076  10.611  68.013  1.00  0.00    -0.181 A  
HETATM   18  C   UNL     1      -8.187   9.091  67.786  1.00  0.00    -0.109 A  
HETATM   19  C   UNL     1     -10.351  10.489  66.650  1.00  0.00    -0.295 A  
HETATM   20  C   UNL     1      -8.498   8.965  66.422  1.00  0.00    -0.117 A  
HETATM   21  O   UNL     1      -7.794   8.160  65.571  1.00  0.00    -0.093 OA 
HETATM   22  H   UNL     1      -8.003   8.074  64.648  1.00  0.00     0.000 HD 
HETATM   23  C   UNL     1      -9.565   9.661  65.857  1.00  0.00    -0.321 A  
ENDBRANCH   4  12
ENDBRANCH   3   4
ENDBRANCH   2   3
TORSDOF 6
ENDMDL
MODEL      212
REMARK 921   NORMALIZED FREE ENERGY PREDICTED BY IDOCK:   -2.36 KCAL/MOL
REMARK 922        TOTAL FREE ENERGY PREDICTED BY IDOCK:   -4.58 KCAL/MOL
REMARK 923 INTER-LIGAND FREE ENERGY PREDICTED BY IDOCK:   -4.63 KCAL/MOL
REMARK 924 INTRA-LIGAND FREE ENERGY PREDICTED BY IDOCK:    0.05 KCAL/MOL
REMARK 927      BINDING AFFINITY PREDICTED BY RF-SCORE:    0.00 PKD
ROOT
HETATM    1  C   UNL     1      -7.855   7.358  64.235  1.00  0.00    -0.127 C  
HETATM    2  C   UNL     1      -7.664   6.367  65.375  1.00  0.00    -0.098 C  
ENDROOT
BRANCH   2   3
HETATM    3  C   UNL     1      -8.289   6.883  66.682  1.00  0.00    -0.118 C  
BRANCH   3   4
HETATM    4  N   UNL     1      -8.902   8.229  66.630  1.00  0.00    -0.137 NA 
BRANCH   4   5
HETATM    5  C   UNL     1      -8.188   9.201  67.483  1.00  0.00    -0.108 C  
BRANCH   5   6
HETATM    6  C   UNL     1      -7.720  10.461  66.725  1.00  0.00    -0.114 C  
BRANCH   6   7
HETATM    7  C   UNL     1      -8.694  11.590  66.912  1.00  0.00    -0.181 A  
HETATM    8  S   UNL     1      -9.779  12.005  65.651  1.00  0.00    -0.187 SA 
HETATM    9  C   UNL     1      -8.857  12.407  68.013  1.00  0.00    -0.187 A  
HETATM   10  C   UNL     1      -9.864  13.393  67.807  1.00  0.00    -0.234 A  
HETATM   11  C   UNL     1     -10.442  13.288  66.563  1.00  0.00    -0.281 A  
ENDBRANCH   6   7
ENDBRANCH   5   6
ENDBRANCH   4   5
BRANCH   4  12
HETATM   12  C   UNL     1     -10.382   8.229  66.816  1.00  0.00    -0.290 C  
HETATM   13  C   UNL     1     -10.988   6.838  67.115  1.00  0.00    -0.458 C  
HETATM   14  C   UNL     1     -10.863   9.114  68.001  1.00  0.00    -0.135 C  
HETATM   15  C   UNL     1     -10.383   6.216  68.376  1.00  0.00    -0.240 C  
HETATM   16  C   UNL     1     -10.500   8.550  69.361  1.00  0.00    -0.223 A  
HETATM   17  C   UNL     1     -10.430   9.420  70.461  1.00  0.00    -0.335 A  
HETATM   18  C   UNL     1     -10.291   7.167  69.547  1.00  0.00    -0.224 A  
HETATM   19  C   UNL     1     -10.117   8.935  71.731  1.00  0.00    -0.407 A  
HETATM   20  C   UNL     1      -9.954   6.706  70.830  1.00  0.00    -0.187 A  
HETATM   21  O   UNL     1      -9.680   5.394  71.100  1.00  0.00    -0.162 OA 
HETATM   22  H   UNL     1      -9.453   5.081  71.968  1.00  0.00     0.000 HD 
HETATM   23  C   UNL     1      -9.875   7.579  71.913  1.00  0.00    -0.196 A  
ENDBRANCH   4  12
ENDBRANCH   3   4
ENDBRANCH   2   3
TORSDOF 6
ENDMDL
MODEL      213
REMARK 921   NORMALIZED FREE ENERGY PREDICTED BY IDOCK:   -2.31 KCAL/MOL
REMARK 922        TOTAL FREE ENERGY PREDICTED BY IDOCK:   -4.51 KCAL/MOL
REMARK 923 INTER-LIGAND FREE ENERGY PREDICTED BY IDOCK:   -4.39 KCAL/MOL
REMARK 924 INTRA-LIGAND FREE ENERGY PREDICTED BY IDOCK:   -0.12 KCAL/MOL
REMARK 927      BINDING AFFINITY PREDICTED BY RF-SCORE:    0.00 PKD
ROOT
HETATM    1  C   UNL     1      -7.891  16.379  68.083  1.00  0.00    -0.158 C  
HETATM    2  C   UNL     1      -7.955  15.390  69.240  1.00  0.00    -0.229 C  
ENDROOT
BRANCH   2   3
HETATM    3  C   UNL     1      -8.350  13.984  68.759  1.00  0.00    -0.048 C  
BRANCH   3   4
HETATM    4  N   UNL     1      -7.580  13.440  67.618  1.00  0.00    -0.159 NA 
BRANCH   4   5
HETATM    5  C   UNL     1      -8.443  13.117  66.465  1.00  0.00     0.265 C  
BRANCH   5   6
HETATM    6  C   UNL     1      -9.941  13.382  66.721  1.00  0.00    -0.264 C  
BRANCH   6   7
HETATM    7  C   UNL     1     -10.776  12.893  65.571  1.00  0.00    -0.279 A  
HETATM    8  S   UNL     1     -12.425  13.344  65.454  1.00  0.00    -0.480 SA 
HETATM    9  C   UNL     1     -10.397  12.073  64.526  1.00  0.00    -0.334 A  
HETATM   10  C   UNL     1     -11.477  11.798  63.639  1.00  0.00    -0.524 A  
HETATM   11  C   UNL     1     -12.638  12.425  64.030  1.00  0.00    -0.412 A  
ENDBRANCH   6   7
ENDBRANCH   5   6
ENDBRANCH   4   5
BRANCH   4  12
HETATM   12  C   UNL     1      -6.631  12.351  67.992  1.00  0.00    -0.081 C  
HETATM   13  C   UNL     1      -7.020  11.576  69.272  1.00  0.00    -0.098 C  
HETATM   14  C   UNL     1      -6.492  11.244  66.907  1.00  0.00    -0.128 C  
HETATM   15  C   UNL     1      -8.405  10.934  69.146  1.00  0.00    -0.077 C  
HETATM   16  C   UNL     1      -7.730  10.379  66.766  1.00  0.00    -0.114 A  
HETATM   17  C   UNL     1      -7.943   9.690  65.562  1.00  0.00    -0.115 A  
HETATM   18  C   UNL     1      -8.632  10.213  67.838  1.00  0.00    -0.118 A  
HETATM   19  C   UNL     1      -9.060   8.870  65.401  1.00  0.00    -0.222 A  
HETATM   20  C   UNL     1      -9.762   9.402  67.644  1.00  0.00    -0.155 A  
HETATM   21  O   UNL     1     -10.720   9.222  68.603  1.00  0.00    -0.309 OA 
HETATM   22  H   UNL     1     -11.484   8.672  68.472  1.00  0.00     0.000 HD 
HETATM   23  C   UNL     1      -9.971   8.731  66.441  1.00  0.00    -0.346 A  
ENDBRANCH   4  12
ENDBRANCH   3   4
ENDBRANCH   2   3
TORSDOF 6
ENDMDL
MODEL      214
REMARK 921   NORMALIZED FREE ENERGY PREDICTED BY IDOCK:   -2.28 KCAL/MOL
REMARK 922        TOTAL FREE ENERGY PREDICTED BY IDOCK:   -4.47 KCAL/MOL
REMARK 923 INTER-LIGAND FREE ENERGY PREDICTED BY IDOCK:   -4.53 KCAL/MOL
REMARK 924 INTRA-LIGAND FREE ENERGY PREDICTED BY IDOCK:    0.06 KCAL/MOL
REMARK 927      BINDING AFFINITY PREDICTED BY RF-SCORE:    0.00 PKD
ROOT
HETATM    1  C   UNL     1      -9.457  16.260  67.248  1.00  0.00    -0.231 C  
HETATM    2  C   UNL     1     -10.161  15.465  66.157  1.00  0.00    -0.325 C  
ENDROOT
BRANCH   2   3
HETATM    3  C   UNL     1      -9.581  14.047  66.028  1.00  0.00    -0.205 C  
BRANCH   3   4
HETATM    4  N   UNL     1     -10.035  13.059  67.032  1.00  0.00    -0.238 NA 
BRANCH   4   5
HETATM    5  C   UNL     1      -8.906  12.423  67.741  1.00  0.00    -0.176 C  
BRANCH   5   6
HETATM    6  C   UNL     1      -7.542  13.080  67.446  1.00  0.00    -0.141 C  
BRANCH   6   7
HETATM    7  C   UNL     1      -6.825  13.421  68.721  1.00  0.00    -0.101 A  
HETATM    8  S   UNL     1      -5.757  12.286  69.436  1.00  0.00    -0.093 SA 
HETATM    9  C   UNL     1      -6.903  14.583  69.463  1.00  0.00    -0.152 A  
HETATM   10  C   UNL     1      -6.097  14.528  70.636  1.00  0.00    -0.174 A  
HETATM   11  C   UNL     1      -5.424  13.332  70.744  1.00  0.00    -0.174 A  
ENDBRANCH   6   7
ENDBRANCH   5   6
ENDBRANCH   4   5
BRANCH   4  12
HETATM   12  C   UNL     1     -11.050  12.095  66.517  1.00  0.00    -0.307 C  
HETATM   13  C   UNL     1     -11.286  12.170  64.991  1.00  0.00    -0.379 C  
HETATM   14  C   UNL     1     -10.682  10.605  66.770  1.00  0.00    -0.272 C  
HETATM   15  C   UNL     1      -9.996  11.917  64.206  1.00  0.00    -0.272 C  
HETATM   16  C   UNL     1      -9.516  10.121  65.930  1.00  0.00    -0.249 A  
HETATM   17  C   UNL     1      -8.780   9.008  66.367  1.00  0.00    -0.149 A  
HETATM   18  C   UNL     1      -9.200  10.731  64.697  1.00  0.00    -0.249 A  
HETATM   19  C   UNL     1      -7.712   8.522  65.612  1.00  0.00    -0.095 A  
HETATM   20  C   UNL     1      -8.106  10.239  63.967  1.00  0.00    -0.137 A  
HETATM   21  O   UNL     1      -7.688  10.796  62.790  1.00  0.00    -0.309 OA 
HETATM   22  H   UNL     1      -6.949  10.463  62.295  1.00  0.00     0.000 HD 
HETATM   23  C   UNL     1      -7.373   9.142  64.414  1.00  0.00    -0.100 A  
ENDBRANCH   4  12
ENDBRANCH   3   4
ENDBRANCH   2   3
TORSDOF 6
ENDMDL
MODEL      215
REMARK 921   NORMALIZED FREE ENERGY PREDICTED BY IDOCK:   -2.21 KCAL/MOL
REMARK 922        TOTAL FREE ENERGY PREDICTED BY IDOCK:   -4.38 KCAL/MOL
REMARK 923 INTER-LIGAND FREE ENERGY PREDICTED BY IDOCK:   -4.59 KCAL/MOL
REMARK 924 INTRA-LIGAND FREE ENERGY PREDICTED BY IDOCK:    0.21 KCAL/MOL
REMARK 927      BINDING AFFINITY PREDICTED BY RF-SCORE:    0.00 PKD
ROOT
HETATM    1  C   UNL     1     -12.020  11.535  68.985  1.00  0.00    -0.377 C  
HETATM    2  C   UNL     1     -11.134  10.393  68.504  1.00  0.00    -0.318 C  
ENDROOT
BRANCH   2   3
HETATM    3  C   UNL     1      -9.719  10.487  69.099  1.00  0.00    -0.211 C  
BRANCH   3   4
HETATM    4  N   UNL     1      -8.734  11.277  68.327  1.00  0.00    -0.151 NA 
BRANCH   4   5
HETATM    5  C   UNL     1      -9.202  11.569  66.957  1.00  0.00    -0.176 C  
BRANCH   5   6
HETATM    6  C   UNL     1      -9.503  13.061  66.712  1.00  0.00    -0.250 C  
BRANCH   6   7
HETATM    7  C   UNL     1     -10.595  13.227  65.692  1.00  0.00    -0.283 A  
HETATM    8  S   UNL     1     -10.959  14.782  65.070  1.00  0.00    -0.428 SA 
HETATM    9  C   UNL     1     -11.411  12.256  65.147  1.00  0.00    -0.376 A  
HETATM   10  C   UNL     1     -12.356  12.800  64.231  1.00  0.00    -0.493 A  
HETATM   11  C   UNL     1     -12.221  14.163  64.099  1.00  0.00    -0.390 A  
ENDBRANCH   6   7
ENDBRANCH   5   6
ENDBRANCH   4   5
BRANCH   4  12
HETATM   12  C   UNL     1      -7.343  10.742  68.394  1.00  0.00    -0.092 C  
HETATM   13  C   UNL     1      -7.233   9.321  68.993  1.00  0.00    -0.071 C  
HETATM   14  C   UNL     1      -6.652  10.622  67.006  1.00  0.00    -0.081 C  
HETATM   15  C   UNL     1      -8.060   8.306  68.198  1.00  0.00    -0.124 C  
HETATM   16  C   UNL     1      -7.236   9.527  66.134  1.00  0.00    -0.093 A  
HETATM   17  C   UNL     1      -7.067   9.604  64.742  1.00  0.00    -0.115 A  
HETATM   18  C   UNL     1      -7.889   8.412  66.701  1.00  0.00    -0.093 A  
HETATM   19  C   UNL     1      -7.574   8.606  63.909  1.00  0.00    -0.127 A  
HETATM   20  C   UNL     1      -8.411   7.432  65.840  1.00  0.00    -0.150 A  
HETATM   21  O   UNL     1      -9.106   6.344  66.290  1.00  0.00    -0.153 OA 
HETATM   22  H   UNL     1      -9.460   5.681  65.708  1.00  0.00     0.000 HD 
HETATM   23  C   UNL     1      -8.250   7.523  64.460  1.00  0.00    -0.036 A  
ENDBRANCH   4  12
ENDBRANCH   3   4
ENDBRANCH   2   3
TORSDOF 6
ENDMDL
MODEL      216
REMARK 921   NORMALIZED FREE ENERGY PREDICTED BY IDOCK:   -2.20 KCAL/MOL
REMARK 922        TOTAL FREE ENERGY PREDICTED BY IDOCK:   -4.36 KCAL/MOL
REMARK 923 INTER-LIGAND FREE ENERGY PREDICTED BY IDOCK:   -5.39 KCAL/MOL
REMARK 924 INTRA-LIGAND FREE ENERGY PREDICTED BY IDOCK:    1.03 KCAL/MOL
REMARK 927      BINDING AFFINITY PREDICTED BY RF-SCORE:    0.00 PKD
ROOT
HETATM    1  C   UNL     1     -12.846  11.395  71.344  1.00  0.00    -0.502 C  
HETATM    2  C   UNL     1     -12.473  10.919  69.947  1.00  0.00    -0.292 C  
ENDROOT
BRANCH   2   3
HETATM    3  C   UNL     1     -10.962  11.050  69.690  1.00  0.00    -0.225 C  
BRANCH   3   4
HETATM    4  N   UNL     1     -10.558  11.368  68.302  1.00  0.00    -0.185 NA 
BRANCH   4   5
HETATM    5  C   UNL     1     -11.711  11.415  67.381  1.00  0.00    -0.089 C  
BRANCH   5   6
HETATM    6  C   UNL     1     -11.832  12.745  66.609  1.00  0.00    -0.462 C  
BRANCH   6   7
HETATM    7  C   UNL     1     -11.131  13.854  67.342  1.00  0.00    -0.298 A  
HETATM    8  S   UNL     1     -11.926  14.675  68.620  1.00  0.00    -0.224 SA 
HETATM    9  C   UNL     1      -9.863  14.355  67.126  1.00  0.00    -0.254 A  
HETATM   10  C   UNL     1      -9.555  15.436  68.002  1.00  0.00    -0.206 A  
HETATM   11  C   UNL     1     -10.592  15.713  68.863  1.00  0.00    -0.228 A  
ENDBRANCH   6   7
ENDBRANCH   5   6
ENDBRANCH   4   5
BRANCH   4  12
HETATM   12  C   UNL     1      -9.413  10.552  67.803  1.00  0.00    -0.149 C  
HETATM   13  C   UNL     1      -8.297  10.312  68.846  1.00  0.00    -0.136 C  
HETATM   14  C   UNL     1      -9.817   9.122  67.345  1.00  0.00    -0.237 C  
HETATM   15  C   UNL     1      -8.833   9.607  70.095  1.00  0.00    -0.266 C  
HETATM   16  C   UNL     1     -10.214   8.211  68.491  1.00  0.00    -0.233 A  
HETATM   17  C   UNL     1     -11.033   7.102  68.225  1.00  0.00    -0.092 A  
HETATM   18  C   UNL     1      -9.730   8.428  69.799  1.00  0.00    -0.180 A  
HETATM   19  C   UNL     1     -11.404   6.232  69.250  1.00  0.00    -0.411 A  
HETATM   20  C   UNL     1     -10.137   7.552  70.818  1.00  0.00    -0.192 A  
HETATM   21  O   UNL     1      -9.766   7.709  72.124  1.00  0.00    -0.162 OA 
HETATM   22  H   UNL     1     -10.040   7.117  72.814  1.00  0.00     0.000 HD 
HETATM   23  C   UNL     1     -10.960   6.461  70.547  1.00  0.00    -0.364 A  
ENDBRANCH   4  12
ENDBRANCH   3   4
ENDBRANCH   2   3
TORSDOF 6
ENDMDL
MODEL      217
REMARK 921   NORMALIZED FREE ENERGY PREDICTED BY IDOCK:   -2.15 KCAL/MOL
REMARK 922        TOTAL FREE ENERGY PREDICTED BY IDOCK:   -4.30 KCAL/MOL
REMARK 923 INTER-LIGAND FREE ENERGY PREDICTED BY IDOCK:   -4.15 KCAL/MOL
REMARK 924 INTRA-LIGAND FREE ENERGY PREDICTED BY IDOCK:   -0.15 KCAL/MOL
REMARK 927      BINDING AFFINITY PREDICTED BY RF-SCORE:    0.00 PKD
ROOT
HETATM    1  C   UNL     1     -12.876  10.568  71.177  1.00  0.00    -0.513 C  
HETATM    2  C   UNL     1     -11.917  11.462  70.402  1.00  0.00    -0.465 C  
ENDROOT
BRANCH   2   3
HETATM    3  C   UNL     1     -11.989  11.191  68.890  1.00  0.00    -0.298 C  
BRANCH   3   4
HETATM    4  N   UNL     1     -10.701  10.935  68.207  1.00  0.00    -0.189 NA 
BRANCH   4   5
HETATM    5  C   UNL     1     -10.431   9.492  68.046  1.00  0.00    -0.230 C  
BRANCH   5   6
HETATM    6  C   UNL     1      -9.530   8.905  69.152  1.00  0.00    -0.157 C  
BRANCH   6   7
HETATM    7  C   UNL     1      -9.736   7.421  69.279  1.00  0.00    -0.165 A  
HETATM    8  S   UNL     1      -9.623   6.417  67.894  1.00  0.00    -0.122 SA 
HETATM    9  C   UNL     1     -10.030   6.692  70.414  1.00  0.00    -0.193 A  
HETATM   10  C   UNL     1     -10.185   5.304  70.136  1.00  0.00    -0.350 A  
HETATM   11  C   UNL     1      -9.994   5.020  68.803  1.00  0.00    -0.155 A  
ENDBRANCH   6   7
ENDBRANCH   5   6
ENDBRANCH   4   5
BRANCH   4  12
HETATM   12  C   UNL     1      -9.555  11.710  68.764  1.00  0.00    -0.072 C  
HETATM   13  C   UNL     1      -8.369  11.888  67.787  1.00  0.00    -0.149 C  
HETATM   14  C   UNL     1      -9.926  13.163  69.177  1.00  0.00     0.350 C  
HETATM   15  C   UNL     1      -8.799  12.595  66.499  1.00  0.00    -0.067 C  
HETATM   16  C   UNL     1     -10.215  14.071  67.997  1.00  0.00    -0.238 A  
HETATM   17  C   UNL     1     -11.001  15.217  68.198  1.00  0.00    -0.287 A  
HETATM   18  C   UNL     1      -9.662  13.814  66.724  1.00  0.00    -0.277 A  
HETATM   19  C   UNL     1     -11.273  16.085  67.141  1.00  0.00    -0.002 A  
HETATM   20  C   UNL     1      -9.970  14.690  65.670  1.00  0.00    -0.351 A  
HETATM   21  O   UNL     1      -9.527  14.496  64.391  1.00  0.00     0.102 OA 
HETATM   22  H   UNL     1      -9.734  15.089  63.678  1.00  0.00     0.000 HD 
HETATM   23  C   UNL     1     -10.761  15.818  65.876  1.00  0.00    -0.320 A  
ENDBRANCH   4  12
ENDBRANCH   3   4
ENDBRANCH   2   3
TORSDOF 6
ENDMDL
MODEL      218
REMARK 921   NORMALIZED FREE ENERGY PREDICTED BY IDOCK:   -2.15 KCAL/MOL
REMARK 922        TOTAL FREE ENERGY PREDICTED BY IDOCK:   -4.30 KCAL/MOL
REMARK 923 INTER-LIGAND FREE ENERGY PREDICTED BY IDOCK:   -4.80 KCAL/MOL
REMARK 924 INTRA-LIGAND FREE ENERGY PREDICTED BY IDOCK:    0.50 KCAL/MOL
REMARK 927      BINDING AFFINITY PREDICTED BY RF-SCORE:    0.00 PKD
ROOT
HETATM    1  C   UNL     1     -10.337  18.743  69.285  1.00  0.00     0.199 C  
HETATM    2  C   UNL     1     -10.216  17.463  68.469  1.00  0.00    -0.369 C  
ENDROOT
BRANCH   2   3
HETATM    3  C   UNL     1      -8.786  16.898  68.515  1.00  0.00    -0.251 C  
BRANCH   3   4
HETATM    4  N   UNL     1      -8.438  15.908  67.471  1.00  0.00    -0.161 NA 
BRANCH   4   5
HETATM    5  C   UNL     1      -8.910  14.550  67.810  1.00  0.00    -0.183 C  
BRANCH   5   6
HETATM    6  C   UNL     1      -8.961  13.593  66.601  1.00  0.00    -0.138 C  
BRANCH   6   7
HETATM    7  C   UNL     1     -10.369  13.438  66.101  1.00  0.00    -0.295 A  
HETATM    8  S   UNL     1     -11.635  14.358  66.800  1.00  0.00    -0.392 SA 
HETATM    9  C   UNL     1     -10.836  12.607  65.102  1.00  0.00    -0.321 A  
HETATM   10  C   UNL     1     -12.246  12.712  64.929  1.00  0.00    -0.531 A  
HETATM   11  C   UNL     1     -12.804  13.627  65.792  1.00  0.00    -0.333 A  
ENDBRANCH   6   7
ENDBRANCH   5   6
ENDBRANCH   4   5
BRANCH   4  12
HETATM   12  C   UNL     1      -7.015  15.965  67.031  1.00  0.00    -0.138 C  
HETATM   13  C   UNL     1      -6.749  16.932  65.853  1.00  0.00     0.563 C  
HETATM   14  C   UNL     1      -6.036  16.445  68.141  1.00  0.00    -0.125 C  
HETATM   15  C   UNL     1      -7.167  18.365  66.192  1.00  0.00    -0.298 C  
HETATM   16  C   UNL     1      -6.189  17.913  68.487  1.00  0.00    -0.189 A  
HETATM   17  C   UNL     1      -5.750  18.365  69.742  1.00  0.00    -0.243 A  
HETATM   18  C   UNL     1      -6.708  18.834  67.553  1.00  0.00    -0.205 A  
HETATM   19  C   UNL     1      -5.856  19.711  70.089  1.00  0.00    -0.315 A  
HETATM   20  C   UNL     1      -6.828  20.181  67.934  1.00  0.00    -0.278 A  
HETATM   21  O   UNL     1      -7.368  21.138  67.120  1.00  0.00    -0.609 OA 
HETATM   22  H   UNL     1      -7.449  22.049  67.378  1.00  0.00     0.000 HD 
HETATM   23  C   UNL     1      -6.401  20.618  69.186  1.00  0.00    -0.185 A  
ENDBRANCH   4  12
ENDBRANCH   3   4
ENDBRANCH   2   3
TORSDOF 6
ENDMDL
MODEL      219
REMARK 921   NORMALIZED FREE ENERGY PREDICTED BY IDOCK:   -2.14 KCAL/MOL
REMARK 922        TOTAL FREE ENERGY PREDICTED BY IDOCK:   -4.28 KCAL/MOL
REMARK 923 INTER-LIGAND FREE ENERGY PREDICTED BY IDOCK:   -4.27 KCAL/MOL
REMARK 924 INTRA-LIGAND FREE ENERGY PREDICTED BY IDOCK:   -0.01 KCAL/MOL
REMARK 927      BINDING AFFINITY PREDICTED BY RF-SCORE:    0.00 PKD
ROOT
HETATM    1  C   UNL     1     -10.184  19.830  66.505  1.00  0.00    -0.606 C  
HETATM    2  C   UNL     1     -11.088  19.232  67.575  1.00  0.00    -0.257 C  
ENDROOT
BRANCH   2   3
HETATM    3  C   UNL     1     -10.752  17.754  67.835  1.00  0.00    -0.319 C  
BRANCH   3   4
HETATM    4  N   UNL     1      -9.585  17.208  67.107  1.00  0.00    -0.249 NA 
BRANCH   4   5
HETATM    5  C   UNL     1      -9.975  16.193  66.108  1.00  0.00    -0.335 C  
BRANCH   5   6
HETATM    6  C   UNL     1     -11.495  15.942  66.042  1.00  0.00     0.360 C  
BRANCH   6   7
HETATM    7  C   UNL     1     -11.789  14.563  65.521  1.00  0.00    -0.330 A  
HETATM    8  S   UNL     1     -11.367  14.146  63.912  1.00  0.00     0.419 SA 
HETATM    9  C   UNL     1     -12.394  13.511  66.178  1.00  0.00    -0.463 A  
HETATM   10  C   UNL     1     -12.531  12.364  65.344  1.00  0.00    -0.181 A  
HETATM   11  C   UNL     1     -12.017  12.576  64.086  1.00  0.00    -0.429 A  
ENDBRANCH   6   7
ENDBRANCH   5   6
ENDBRANCH   4   5
BRANCH   4  12
HETATM   12  C   UNL     1      -8.461  16.789  67.993  1.00  0.00    -0.205 C  
HETATM   13  C   UNL     1      -8.883  16.436  69.438  1.00  0.00     0.003 C  
HETATM   14  C   UNL     1      -7.714  15.518  67.496  1.00  0.00    -0.195 C  
HETATM   15  C   UNL     1      -9.914  15.304  69.465  1.00  0.00    -0.247 C  
HETATM   16  C   UNL     1      -8.535  14.249  67.618  1.00  0.00    -0.185 A  
HETATM   17  C   UNL     1      -8.214  13.152  66.803  1.00  0.00     0.128 A  
HETATM   18  C   UNL     1      -9.571  14.138  68.569  1.00  0.00    -0.214 A  
HETATM   19  C   UNL     1      -8.934  11.961  66.900  1.00  0.00    -0.196 A  
HETATM   20  C   UNL     1     -10.298  12.937  68.631  1.00  0.00    -0.188 A  
HETATM   21  O   UNL     1     -11.352  12.751  69.481  1.00  0.00    -0.395 OA 
HETATM   22  H   UNL     1     -11.844  11.939  69.524  1.00  0.00     0.000 HD 
HETATM   23  C   UNL     1      -9.980  11.857  67.811  1.00  0.00    -0.191 A  
ENDBRANCH   4  12
ENDBRANCH   3   4
ENDBRANCH   2   3
TORSDOF 6
ENDMDL
MODEL      220
REMARK 921   NORMALIZED FREE ENERGY PREDICTED BY IDOCK:   -2.09 KCAL/MOL
REMARK 922        TOTAL FREE ENERGY PREDICTED BY IDOCK:   -4.22 KCAL/MOL
REMARK 923 INTER-LIGAND FREE ENERGY PREDICTED BY IDOCK:   -5.30 KCAL/MOL
REMARK 924 INTRA-LIGAND FREE ENERGY PREDICTED BY IDOCK:    1.08 KCAL/MOL
REMARK 927      BINDING AFFINITY PREDICTED BY RF-SCORE:    0.00 PKD
ROOT
HETATM    1  C   UNL     1      -7.760   8.787  68.596  1.00  0.00    -0.098 C  
HETATM    2  C   UNL     1      -7.600  10.300  68.643  1.00  0.00    -0.089 C  
ENDROOT
BRANCH   2   3
HETATM    3  C   UNL     1      -8.921  10.997  69.011  1.00  0.00    -0.059 C  
BRANCH   3   4
HETATM    4  N   UNL     1      -9.576  11.772  67.934  1.00  0.00    -0.181 NA 
BRANCH   4   5
HETATM    5  C   UNL     1     -10.999  11.412  67.773  1.00  0.00    -0.247 C  
BRANCH   5   6
HETATM    6  C   UNL     1     -11.437  10.217  68.644  1.00  0.00    -0.178 C  
BRANCH   6   7
HETATM    7  C   UNL     1     -12.145  10.689  69.883  1.00  0.00    -0.299 A  
HETATM    8  S   UNL     1     -12.152  12.355  70.287  1.00  0.00    -0.213 SA 
HETATM    9  C   UNL     1     -12.832   9.936  70.815  1.00  0.00    -0.290 A  
HETATM   10  C   UNL     1     -13.345  10.733  71.878  1.00  0.00    -0.445 A  
HETATM   11  C   UNL     1     -13.044  12.066  71.715  1.00  0.00    -0.355 A  
ENDBRANCH   6   7
ENDBRANCH   5   6
ENDBRANCH   4   5
BRANCH   4  12
HETATM   12  C   UNL     1      -8.808  11.803  66.656  1.00  0.00    -0.189 C  
HETATM   13  C   UNL     1      -9.341  10.843  65.567  1.00  0.00    -0.237 C  
HETATM   14  C   UNL     1      -8.804  13.195  65.963  1.00  0.00     0.469 C  
HETATM   15  C   UNL     1     -10.801  11.141  65.215  1.00  0.00    -0.222 C  
HETATM   16  C   UNL     1     -10.151  13.586  65.386  1.00  0.00    -0.279 A  
HETATM   17  C   UNL     1     -10.430  14.945  65.173  1.00  0.00    -0.442 A  
HETATM   18  C   UNL     1     -11.096  12.608  65.009  1.00  0.00    -0.326 A  
HETATM   19  C   UNL     1     -11.651  15.342  64.626  1.00  0.00    -0.333 A  
HETATM   20  C   UNL     1     -12.327  13.033  64.483  1.00  0.00    -0.398 A  
HETATM   21  O   UNL     1     -13.327  12.166  64.139  1.00  0.00    -0.750 OA 
HETATM   22  H   UNL     1     -14.159  12.453  63.783  1.00  0.00     0.000 HD 
HETATM   23  C   UNL     1     -12.601  14.385  64.286  1.00  0.00    -0.144 A  
ENDBRANCH   4  12
ENDBRANCH   3   4
ENDBRANCH   2   3
TORSDOF 6
ENDMDL
MODEL      221
REMARK 921   NORMALIZED FREE ENERGY PREDICTED BY IDOCK:   -2.07 KCAL/MOL
REMARK 922        TOTAL FREE ENERGY PREDICTED BY IDOCK:   -4.19 KCAL/MOL
REMARK 923 INTER-LIGAND FREE ENERGY PREDICTED BY IDOCK:   -3.48 KCAL/MOL
REMARK 924 INTRA-LIGAND FREE ENERGY PREDICTED BY IDOCK:   -0.71 KCAL/MOL
REMARK 927      BINDING AFFINITY PREDICTED BY RF-SCORE:    0.00 PKD
ROOT
HETATM    1  C   UNL     1     -11.338  15.207  71.886  1.00  0.00    -0.381 C  
HETATM    2  C   UNL     1     -12.018  13.900  71.501  1.00  0.00     0.072 C  
ENDROOT
BRANCH   2   3
HETATM    3  C   UNL     1     -12.097  13.733  69.974  1.00  0.00    -0.349 C  
BRANCH   3   4
HETATM    4  N   UNL     1     -11.233  12.686  69.384  1.00  0.00    -0.186 NA 
BRANCH   4   5
HETATM    5  C   UNL     1     -10.107  13.258  68.618  1.00  0.00    -0.146 C  
BRANCH   5   6
HETATM    6  C   UNL     1     -10.297  13.180  67.089  1.00  0.00    -0.247 C  
BRANCH   6   7
HETATM    7  C   UNL     1     -10.455  14.553  66.498  1.00  0.00    -0.285 A  
HETATM    8  S   UNL     1     -10.584  14.747  64.800  1.00  0.00    -0.226 SA 
HETATM    9  C   UNL     1     -10.508  15.766  67.155  1.00  0.00    -0.309 A  
HETATM   10  C   UNL     1     -10.632  16.861  66.253  1.00  0.00    -0.191 A  
HETATM   11  C   UNL     1     -10.681  16.446  64.942  1.00  0.00    -0.191 A  
ENDBRANCH   6   7
ENDBRANCH   5   6
ENDBRANCH   4   5
BRANCH   4  12
HETATM   12  C   UNL     1     -11.982  11.619  68.659  1.00  0.00    -0.248 C  
HETATM   13  C   UNL     1     -11.137  10.375  68.301  1.00  0.00    -0.338 C  
HETATM   14  C   UNL     1     -13.182  11.042  69.464  1.00  0.00     1.291 C  
HETATM   15  C   UNL     1     -10.532   9.724  69.548  1.00  0.00    -0.250 C  
HETATM   16  C   UNL     1     -12.762  10.204  70.656  1.00  0.00    -0.334 A  
HETATM   17  C   UNL     1     -13.666  10.028  71.715  1.00  0.00    -0.222 A  
HETATM   18  C   UNL     1     -11.508   9.558  70.690  1.00  0.00    -0.362 A  
HETATM   19  C   UNL     1     -13.323   9.249  72.820  1.00  0.00    -0.196 A  
HETATM   20  C   UNL     1     -11.175   8.799  71.823  1.00  0.00    -0.340 A  
HETATM   21  O   UNL     1      -9.965   8.180  71.974  1.00  0.00    -0.193 OA 
HETATM   22  H   UNL     1      -9.740   7.666  72.740  1.00  0.00     0.000 HD 
HETATM   23  C   UNL     1     -12.075   8.639  72.875  1.00  0.00     0.155 A  
ENDBRANCH   4  12
ENDBRANCH   3   4
ENDBRANCH   2   3
TORSDOF 6
ENDMDL
MODEL      222
REMARK 921   NORMALIZED FREE ENERGY PREDICTED BY IDOCK:   -2.05 KCAL/MOL
REMARK 922        TOTAL FREE ENERGY PREDICTED BY IDOCK:   -4.16 KCAL/MOL
REMARK 923 INTER-LIGAND FREE ENERGY PREDICTED BY IDOCK:   -4.60 KCAL/MOL
REMARK 924 INTRA-LIGAND FREE ENERGY PREDICTED BY IDOCK:    0.44 KCAL/MOL
REMARK 927      BINDING AFFINITY PREDICTED BY RF-SCORE:    0.00 PKD
ROOT
HETATM    1  C   UNL     1      -8.092   6.048  65.316  1.00  0.00    -0.134 C  
HETATM    2  C   UNL     1      -7.700   5.386  66.631  1.00  0.00    -0.100 C  
ENDROOT
BRANCH   2   3
HETATM    3  C   UNL     1      -8.031   6.283  67.835  1.00  0.00    -0.111 C  
BRANCH   3   4
HETATM    4  N   UNL     1      -9.403   6.839  67.883  1.00  0.00    -0.115 NA 
BRANCH   4   5
HETATM    5  C   UNL     1      -9.458   8.129  68.599  1.00  0.00    -0.147 C  
BRANCH   5   6
HETATM    6  C   UNL     1     -10.194   9.237  67.820  1.00  0.00    -0.271 C  
BRANCH   6   7
HETATM    7  C   UNL     1      -9.458   9.584  66.556  1.00  0.00    -0.182 A  
HETATM    8  S   UNL     1      -7.767   9.866  66.598  1.00  0.00    -0.107 SA 
HETATM    9  C   UNL     1      -9.967   9.728  65.281  1.00  0.00    -0.251 A  
HETATM   10  C   UNL     1      -8.963  10.095  64.340  1.00  0.00    -0.264 A  
HETATM   11  C   UNL     1      -7.723  10.207  64.925  1.00  0.00    -0.143 A  
ENDBRANCH   6   7
ENDBRANCH   5   6
ENDBRANCH   4   5
BRANCH   4  12
HETATM   12  C   UNL     1     -10.439   5.858  68.315  1.00  0.00    -0.236 C  
HETATM   13  C   UNL     1      -9.876   4.600  69.016  1.00  0.00    -0.224 C  
HETATM   14  C   UNL     1     -11.459   6.435  69.337  1.00  0.00    -0.374 C  
HETATM   15  C   UNL     1      -9.062   4.963  70.261  1.00  0.00    -0.165 C  
HETATM   16  C   UNL     1     -10.860   6.695  70.706  1.00  0.00    -0.299 A  
HETATM   17  C   UNL     1     -11.481   7.625  71.555  1.00  0.00    -0.295 A  
HETATM   18  C   UNL     1      -9.730   5.980  71.157  1.00  0.00    -0.206 A  
HETATM   19  C   UNL     1     -10.970   7.876  72.828  1.00  0.00    -0.456 A  
HETATM   20  C   UNL     1      -9.219   6.268  72.433  1.00  0.00    -0.138 A  
HETATM   21  O   UNL     1      -8.099   5.668  72.938  1.00  0.00    -0.110 OA 
HETATM   22  H   UNL     1      -7.754   5.862  73.801  1.00  0.00     0.000 HD 
HETATM   23  C   UNL     1      -9.836   7.201  73.264  1.00  0.00    -0.275 A  
ENDBRANCH   4  12
ENDBRANCH   3   4
ENDBRANCH   2   3
TORSDOF 6
ENDMDL
MODEL      223
REMARK 921   NORMALIZED FREE ENERGY PREDICTED BY IDOCK:   -1.97 KCAL/MOL
REMARK 922        TOTAL FREE ENERGY PREDICTED BY IDOCK:   -4.06 KCAL/MOL
REMARK 923 INTER-LIGAND FREE ENERGY PREDICTED BY IDOCK:   -4.00 KCAL/MOL
REMARK 924 INTRA-LIGAND FREE ENERGY PREDICTED BY IDOCK:   -0.06 KCAL/MOL
REMARK 927      BINDING AFFINITY PREDICTED BY RF-SCORE:    0.00 PKD
ROOT
HETATM    1  C   UNL     1      -5.298   7.328  69.408  1.00  0.00    -0.015 C  
HETATM    2  C   UNL     1      -6.537   6.729  70.059  1.00  0.00    -0.044 C  
ENDROOT
BRANCH   2   3
HETATM    3  C   UNL     1      -7.773   6.868  69.155  1.00  0.00    -0.106 C  
BRANCH   3   4
HETATM    4  N   UNL     1      -8.290   8.241  68.957  1.00  0.00    -0.119 NA 
BRANCH   4   5
HETATM    5  C   UNL     1      -8.064   8.730  67.582  1.00  0.00    -0.106 C  
BRANCH   5   6
HETATM    6  C   UNL     1      -9.323   8.681  66.694  1.00  0.00    -0.246 C  
BRANCH   6   7
HETATM    7  C   UNL     1      -9.559  10.005  66.024  1.00  0.00    -0.222 A  
HETATM    8  S   UNL     1      -8.782  11.415  66.614  1.00  0.00    -0.181 SA 
HETATM    9  C   UNL     1     -10.364  10.284  64.938  1.00  0.00    -0.140 A  
HETATM   10  C   UNL     1     -10.360  11.670  64.607  1.00  0.00    -0.341 A  
HETATM   11  C   UNL     1      -9.543  12.397  65.442  1.00  0.00    -0.027 A  
ENDBRANCH   6   7
ENDBRANCH   5   6
ENDBRANCH   4   5
BRANCH   4  12
HETATM   12  C   UNL     1      -7.878   9.203  70.020  1.00  0.00    -0.099 C  
HETATM   13  C   UNL     1      -8.573  10.582  69.937  1.00  0.00     0.257 C  
HETATM   14  C   UNL     1      -8.187   8.710  71.463  1.00  0.00    -0.209 C  
HETATM   15  C   UNL     1     -10.096  10.454  70.021  1.00  0.00    -0.078 C  
HETATM   16  C   UNL     1      -9.668   8.687  71.788  1.00  0.00    -0.361 A  
HETATM   17  C   UNL     1     -10.125   7.849  72.817  1.00  0.00    -0.365 A  
HETATM   18  C   UNL     1     -10.577   9.533  71.117  1.00  0.00    -0.388 A  
HETATM   19  C   UNL     1     -11.477   7.815  73.159  1.00  0.00    -0.101 A  
HETATM   20  C   UNL     1     -11.937   9.463  71.461  1.00  0.00    -0.382 A  
HETATM   21  O   UNL     1     -12.901  10.201  70.833  1.00  0.00    -0.350 OA 
HETATM   22  H   UNL     1     -13.821  10.155  71.066  1.00  0.00     0.000 HD 
HETATM   23  C   UNL     1     -12.383   8.619  72.476  1.00  0.00    -0.378 A  
ENDBRANCH   4  12
ENDBRANCH   3   4
ENDBRANCH   2   3
TORSDOF 6
ENDMDL
MODEL      224
REMARK 921   NORMALIZED FREE ENERGY PREDICTED BY IDOCK:   -1.97 KCAL/MOL
REMARK 922        TOTAL FREE ENERGY PREDICTED BY IDOCK:   -4.06 KCAL/MOL
REMARK 923 INTER-LIGAND FREE ENERGY PREDICTED BY IDOCK:   -3.59 KCAL/MOL
REMARK 924 INTRA-LIGAND FREE ENERGY PREDICTED BY IDOCK:   -0.47 KCAL/MOL
REMARK 927      BINDING AFFINITY PREDICTED BY RF-SCORE:    0.00 PKD
ROOT
HETATM    1  C   UNL     1      -8.520   1.467  70.878  1.00  0.00    -0.075 C  
HETATM    2  C   UNL     1      -8.844   2.848  71.434  1.00  0.00    -0.134 C  
ENDROOT
BRANCH   2   3
HETATM    3  C   UNL     1      -9.291   3.813  70.323  1.00  0.00    -0.168 C  
BRANCH   3   4
HETATM    4  N   UNL     1      -8.284   4.794  69.861  1.00  0.00    -0.068 NA 
BRANCH   4   5
HETATM    5  C   UNL     1      -7.522   4.306  68.695  1.00  0.00    -0.059 C  
BRANCH   5   6
HETATM    6  C   UNL     1      -7.607   5.236  67.467  1.00  0.00    -0.088 C  
BRANCH   6   7
HETATM    7  C   UNL     1      -8.515   4.658  66.419  1.00  0.00    -0.109 A  
HETATM    8  S   UNL     1      -7.854   3.960  65.000  1.00  0.00    -0.086 SA 
HETATM    9  C   UNL     1      -9.895   4.605  66.417  1.00  0.00    -0.242 A  
HETATM   10  C   UNL     1     -10.409   4.008  65.230  1.00  0.00    -0.121 A  
HETATM   11  C   UNL     1      -9.405   3.616  64.374  1.00  0.00    -0.146 A  
ENDBRANCH   6   7
ENDBRANCH   5   6
ENDBRANCH   4   5
BRANCH   4  12
HETATM   12  C   UNL     1      -7.435   5.351  70.954  1.00  0.00    -0.087 C  
HETATM   13  C   UNL     1      -6.692   6.655  70.584  1.00  0.00    -0.057 C  
HETATM   14  C   UNL     1      -8.232   5.721  72.238  1.00  0.00    -0.108 C  
HETATM   15  C   UNL     1      -7.665   7.763  70.170  1.00  0.00    -0.090 C  
HETATM   16  C   UNL     1      -9.132   6.928  72.062  1.00  0.00    -0.141 A  
HETATM   17  C   UNL     1     -10.229   7.089  72.924  1.00  0.00    -0.243 A  
HETATM   18  C   UNL     1      -8.852   7.914  71.091  1.00  0.00    -0.150 A  
HETATM   19  C   UNL     1     -11.069   8.196  72.805  1.00  0.00    -0.407 A  
HETATM   20  C   UNL     1      -9.726   9.007  70.975  1.00  0.00    -0.278 A  
HETATM   21  O   UNL     1      -9.571   9.985  70.032  1.00  0.00    -0.314 OA 
HETATM   22  H   UNL     1     -10.161  10.725  69.953  1.00  0.00     0.000 HD 
HETATM   23  C   UNL     1     -10.819   9.152  71.827  1.00  0.00    -0.416 A  
ENDBRANCH   4  12
ENDBRANCH   3   4
ENDBRANCH   2   3
TORSDOF 6
ENDMDL
MODEL      225
REMARK 921   NORMALIZED FREE ENERGY PREDICTED BY IDOCK:   -1.91 KCAL/MOL
REMARK 922        TOTAL FREE ENERGY PREDICTED BY IDOCK:   -3.97 KCAL/MOL
REMARK 923 INTER-LIGAND FREE ENERGY PREDICTED BY IDOCK:   -4.31 KCAL/MOL
REMARK 924 INTRA-LIGAND FREE ENERGY PREDICTED BY IDOCK:    0.33 KCAL/MOL
REMARK 927      BINDING AFFINITY PREDICTED BY RF-SCORE:    0.00 PKD
ROOT
HETATM    1  C   UNL     1     -10.640  19.848  67.245  1.00  0.00    -0.519 C  
HETATM    2  C   UNL     1     -10.440  18.379  66.897  1.00  0.00    -0.419 C  
ENDROOT
BRANCH   2   3
HETATM    3  C   UNL     1      -9.980  17.567  68.120  1.00  0.00    -0.321 C  
BRANCH   3   4
HETATM    4  N   UNL     1      -9.155  16.371  67.841  1.00  0.00    -0.200 NA 
BRANCH   4   5
HETATM    5  C   UNL     1      -9.889  15.114  68.092  1.00  0.00    -0.218 C  
BRANCH   5   6
HETATM    6  C   UNL     1      -9.551  13.990  67.093  1.00  0.00    -0.245 C  
BRANCH   6   7
HETATM    7  C   UNL     1      -8.279  13.291  67.484  1.00  0.00    -0.184 A  
HETATM    8  S   UNL     1      -7.494  12.251  66.370  1.00  0.00     0.838 SA 
HETATM    9  C   UNL     1      -7.602  13.355  68.685  1.00  0.00    -0.101 A  
HETATM   10  C   UNL     1      -6.445  12.524  68.695  1.00  0.00    -0.078 A  
HETATM   11  C   UNL     1      -6.272  11.866  67.500  1.00  0.00    -0.102 A  
ENDBRANCH   6   7
ENDBRANCH   5   6
ENDBRANCH   4   5
BRANCH   4  12
HETATM   12  C   UNL     1      -7.796  16.415  68.455  1.00  0.00    -0.197 C  
HETATM   13  C   UNL     1      -6.654  15.978  67.509  1.00  0.00    -0.207 C  
HETATM   14  C   UNL     1      -7.371  17.834  68.931  1.00  0.00    -0.245 C  
HETATM   15  C   UNL     1      -6.599  16.845  66.249  1.00  0.00     0.016 C  
HETATM   16  C   UNL     1      -7.097  18.795  67.791  1.00  0.00    -0.237 A  
HETATM   17  C   UNL     1      -7.178  20.176  68.033  1.00  0.00    -0.316 A  
HETATM   18  C   UNL     1      -6.709  18.328  66.518  1.00  0.00    -0.241 A  
HETATM   19  C   UNL     1      -6.914  21.092  67.014  1.00  0.00    -0.373 A  
HETATM   20  C   UNL     1      -6.472  19.268  65.501  1.00  0.00    -0.264 A  
HETATM   21  O   UNL     1      -6.143  18.913  64.223  1.00  0.00    -0.453 OA 
HETATM   22  H   UNL     1      -5.983  19.549  63.535  1.00  0.00     0.000 HD 
HETATM   23  C   UNL     1      -6.566  20.636  65.747  1.00  0.00    -0.239 A  
ENDBRANCH   4  12
ENDBRANCH   3   4
ENDBRANCH   2   3
TORSDOF 6
ENDMDL
MODEL      226
REMARK 921   NORMALIZED FREE ENERGY PREDICTED BY IDOCK:   -1.86 KCAL/MOL
REMARK 922        TOTAL FREE ENERGY PREDICTED BY IDOCK:   -3.90 KCAL/MOL
REMARK 923 INTER-LIGAND FREE ENERGY PREDICTED BY IDOCK:   -4.64 KCAL/MOL
REMARK 924 INTRA-LIGAND FREE ENERGY PREDICTED BY IDOCK:    0.74 KCAL/MOL
REMARK 927      BINDING AFFINITY PREDICTED BY RF-SCORE:    0.00 PKD
ROOT
HETATM    1  C   UNL     1      -7.732   6.376  64.798  1.00  0.00    -0.105 C  
HETATM    2  C   UNL     1      -7.688   5.845  66.224  1.00  0.00    -0.102 C  
ENDROOT
BRANCH   2   3
HETATM    3  C   UNL     1      -8.284   6.853  67.221  1.00  0.00    -0.118 C  
BRANCH   3   4
HETATM    4  N   UNL     1      -8.862   8.086  66.640  1.00  0.00    -0.138 NA 
BRANCH   4   5
HETATM    5  C   UNL     1      -8.177   9.304  67.120  1.00  0.00    -0.117 C  
BRANCH   5   6
HETATM    6  C   UNL     1      -8.394  10.533  66.214  1.00  0.00    -0.152 C  
BRANCH   6   7
HETATM    7  C   UNL     1      -8.219  10.168  64.766  1.00  0.00    -0.161 A  
HETATM    8  S   UNL     1      -6.646   9.947  64.120  1.00  0.00    -0.130 SA 
HETATM    9  C   UNL     1      -9.194   9.977  63.808  1.00  0.00    -0.314 A  
HETATM   10  C   UNL     1      -8.641   9.672  62.531  1.00  0.00    -0.208 A  
HETATM   11  C   UNL     1      -7.266   9.627  62.562  1.00  0.00    -0.105 A  
ENDBRANCH   6   7
ENDBRANCH   5   6
ENDBRANCH   4   5
BRANCH   4  12
HETATM   12  C   UNL     1     -10.350   8.154  66.719  1.00  0.00    -0.291 C  
HETATM   13  C   UNL     1     -11.035   6.802  67.025  1.00  0.00    -0.439 C  
HETATM   14  C   UNL     1     -10.874   9.104  67.834  1.00  0.00    -0.147 C  
HETATM   15  C   UNL     1     -10.547   6.206  68.349  1.00  0.00    -0.324 C  
HETATM   16  C   UNL     1     -10.632   8.580  69.236  1.00  0.00    -0.193 A  
HETATM   17  C   UNL     1     -10.601   9.490  70.305  1.00  0.00    -0.317 A  
HETATM   18  C   UNL     1     -10.497   7.198  69.487  1.00  0.00    -0.236 A  
HETATM   19  C   UNL     1     -10.400   9.044  71.611  1.00  0.00    -0.420 A  
HETATM   20  C   UNL     1     -10.271   6.775  70.807  1.00  0.00    -0.195 A  
HETATM   21  O   UNL     1     -10.074   5.465  71.144  1.00  0.00    -0.193 OA 
HETATM   22  H   UNL     1      -9.921   5.178  72.037  1.00  0.00     0.000 HD 
HETATM   23  C   UNL     1     -10.229   7.687  71.860  1.00  0.00    -0.234 A  
ENDBRANCH   4  12
ENDBRANCH   3   4
ENDBRANCH   2   3
TORSDOF 6
ENDMDL
MODEL      227
REMARK 921   NORMALIZED FREE ENERGY PREDICTED BY IDOCK:   -1.85 KCAL/MOL
REMARK 922        TOTAL FREE ENERGY PREDICTED BY IDOCK:   -3.89 KCAL/MOL
REMARK 923 INTER-LIGAND FREE ENERGY PREDICTED BY IDOCK:   -4.34 KCAL/MOL
REMARK 924 INTRA-LIGAND FREE ENERGY PREDICTED BY IDOCK:    0.45 KCAL/MOL
REMARK 927      BINDING AFFINITY PREDICTED BY RF-SCORE:    0.00 PKD
ROOT
HETATM    1  C   UNL     1      -7.950   6.838  67.817  1.00  0.00    -0.113 C  
HETATM    2  C   UNL     1      -8.981   7.384  68.795  1.00  0.00    -0.129 C  
ENDROOT
BRANCH   2   3
HETATM    3  C   UNL     1      -8.523   7.211  70.253  1.00  0.00    -0.138 C  
BRANCH   3   4
HETATM    4  N   UNL     1      -9.078   6.048  70.982  1.00  0.00    -0.143 NA 
BRANCH   4   5
HETATM    5  C   UNL     1     -10.171   5.391  70.237  1.00  0.00    -0.267 C  
BRANCH   5   6
HETATM    6  C   UNL     1      -9.921   3.893  69.967  1.00  0.00     0.006 C  
BRANCH   6   7
HETATM    7  C   UNL     1      -8.462   3.560  70.106  1.00  0.00    -0.059 A  
HETATM    8  S   UNL     1      -7.873   2.880  71.566  1.00  0.00    -0.052 SA 
HETATM    9  C   UNL     1      -7.453   3.735  69.181  1.00  0.00    -0.053 A  
HETATM   10  C   UNL     1      -6.184   3.329  69.686  1.00  0.00    -0.028 A  
HETATM   11  C   UNL     1      -6.271   2.848  70.973  1.00  0.00    -0.019 A  
ENDBRANCH   6   7
ENDBRANCH   5   6
ENDBRANCH   4   5
BRANCH   4  12
HETATM   12  C   UNL     1      -9.397   6.326  72.412  1.00  0.00    -0.141 C  
HETATM   13  C   UNL     1      -8.972   7.730  72.901  1.00  0.00    -0.243 C  
HETATM   14  C   UNL     1     -10.917   6.256  72.738  1.00  0.00    -0.291 C  
HETATM   15  C   UNL     1      -9.630   8.840  72.076  1.00  0.00    -0.356 C  
HETATM   16  C   UNL     1     -11.715   7.398  72.139  1.00  0.00    -0.328 A  
HETATM   17  C   UNL     1     -13.093   7.229  71.934  1.00  0.00    -0.290 A  
HETATM   18  C   UNL     1     -11.108   8.637  71.842  1.00  0.00    -0.416 A  
HETATM   19  C   UNL     1     -13.864   8.263  71.402  1.00  0.00    -0.311 A  
HETATM   20  C   UNL     1     -11.900   9.655  71.286  1.00  0.00    -0.381 A  
HETATM   21  O   UNL     1     -11.395  10.870  70.915  1.00  0.00    -0.335 OA 
HETATM   22  H   UNL     1     -11.930  11.559  70.539  1.00  0.00     0.000 HD 
HETATM   23  C   UNL     1     -13.265   9.474  71.074  1.00  0.00    -0.250 A  
ENDBRANCH   4  12
ENDBRANCH   3   4
ENDBRANCH   2   3
TORSDOF 6
ENDMDL
MODEL      228
REMARK 921   NORMALIZED FREE ENERGY PREDICTED BY IDOCK:   -1.75 KCAL/MOL
REMARK 922        TOTAL FREE ENERGY PREDICTED BY IDOCK:   -3.75 KCAL/MOL
REMARK 923 INTER-LIGAND FREE ENERGY PREDICTED BY IDOCK:   -3.64 KCAL/MOL
REMARK 924 INTRA-LIGAND FREE ENERGY PREDICTED BY IDOCK:   -0.12 KCAL/MOL
REMARK 927      BINDING AFFINITY PREDICTED BY RF-SCORE:    0.00 PKD
ROOT
HETATM    1  C   UNL     1     -10.911   5.674  69.180  1.00  0.00    -0.281 C  
HETATM    2  C   UNL     1     -10.648   6.703  68.089  1.00  0.00    -0.294 C  
ENDROOT
BRANCH   2   3
HETATM    3  C   UNL     1      -9.172   7.134  68.063  1.00  0.00    -0.130 C  
BRANCH   3   4
HETATM    4  N   UNL     1      -8.806   8.163  67.063  1.00  0.00    -0.129 NA 
BRANCH   4   5
HETATM    5  C   UNL     1      -7.701   7.723  66.188  1.00  0.00    -0.089 C  
BRANCH   5   6
HETATM    6  C   UNL     1      -7.041   6.405  66.640  1.00  0.00    -0.069 C  
BRANCH   6   7
HETATM    7  C   UNL     1      -7.070   5.385  65.537  1.00  0.00    -0.067 A  
HETATM    8  S   UNL     1      -5.773   5.291  64.420  1.00  0.00    -0.017 SA 
HETATM    9  C   UNL     1      -8.050   4.453  65.259  1.00  0.00    -0.102 A  
HETATM   10  C   UNL     1      -7.741   3.675  64.107  1.00  0.00    -0.080 A  
HETATM   11  C   UNL     1      -6.532   4.030  63.553  1.00  0.00    -0.033 A  
ENDBRANCH   6   7
ENDBRANCH   5   6
ENDBRANCH   4   5
BRANCH   4  12
HETATM   12  C   UNL     1      -8.622   9.527  67.637  1.00  0.00    -0.122 C  
HETATM   13  C   UNL     1      -7.414  10.304  67.063  1.00  0.00    -0.093 C  
HETATM   14  C   UNL     1      -9.831  10.475  67.396  1.00  0.00    -0.204 C  
HETATM   15  C   UNL     1      -7.520  10.472  65.544  1.00  0.00    -0.111 C  
HETATM   16  C   UNL     1      -9.987  10.897  65.948  1.00  0.00    -0.294 A  
HETATM   17  C   UNL     1     -11.245  11.329  65.498  1.00  0.00    -0.069 A  
HETATM   18  C   UNL     1      -8.884  10.916  65.069  1.00  0.00    -0.151 A  
HETATM   19  C   UNL     1     -11.424  11.743  64.178  1.00  0.00    -0.409 A  
HETATM   20  C   UNL     1      -9.093  11.314  63.738  1.00  0.00    -0.007 A  
HETATM   21  O   UNL     1      -8.100  11.315  62.798  1.00  0.00    -0.438 OA 
HETATM   22  H   UNL     1      -8.242  11.584  61.898  1.00  0.00     0.000 HD 
HETATM   23  C   UNL     1     -10.348  11.730  63.297  1.00  0.00    -0.446 A  
ENDBRANCH   4  12
ENDBRANCH   3   4
ENDBRANCH   2   3
TORSDOF 6
ENDMDL
MODEL      229
REMARK 921   NORMALIZED FREE ENERGY PREDICTED BY IDOCK:   -1.71 KCAL/MOL
REMARK 922        TOTAL FREE ENERGY PREDICTED BY IDOCK:   -3.71 KCAL/MOL
REMARK 923 INTER-LIGAND FREE ENERGY PREDICTED BY IDOCK:   -3.42 KCAL/MOL
REMARK 924 INTRA-LIGAND FREE ENERGY PREDICTED BY IDOCK:   -0.29 KCAL/MOL
REMARK 927      BINDING AFFINITY PREDICTED BY RF-SCORE:    0.00 PKD
ROOT
HETATM    1  C   UNL     1     -10.798   1.896  73.506  1.00  0.00    -0.252 C  
HETATM    2  C   UNL     1      -9.738   2.699  74.247  1.00  0.00    -0.132 C  
ENDROOT
BRANCH   2   3
HETATM    3  C   UNL     1      -8.447   2.829  73.420  1.00  0.00    -0.075 C  
BRANCH   3   4
HETATM    4  N   UNL     1      -8.263   4.101  72.687  1.00  0.00    -0.095 NA 
BRANCH   4   5
HETATM    5  C   UNL     1      -8.177   3.897  71.227  1.00  0.00    -0.068 C  
BRANCH   5   6
HETATM    6  C   UNL     1      -9.548   3.695  70.550  1.00  0.00    -0.256 C  
BRANCH   6   7
HETATM    7  C   UNL     1     -10.467   4.847  70.846  1.00  0.00    -0.092 A  
HETATM    8  S   UNL     1     -10.849   5.978  69.616  1.00  0.00    -0.393 SA 
HETATM    9  C   UNL     1     -11.087   5.162  72.039  1.00  0.00    -0.085 A  
HETATM   10  C   UNL     1     -11.862   6.353  71.944  1.00  0.00    -0.380 A  
HETATM   11  C   UNL     1     -11.816   6.899  70.682  1.00  0.00    -0.368 A  
ENDBRANCH   6   7
ENDBRANCH   5   6
ENDBRANCH   4   5
BRANCH   4  12
HETATM   12  C   UNL     1      -7.187   4.971  73.244  1.00  0.00    -0.086 C  
HETATM   13  C   UNL     1      -5.995   5.205  72.287  1.00  0.00    -0.025 C  
HETATM   14  C   UNL     1      -7.667   6.405  73.607  1.00  0.00    -0.092 C  
HETATM   15  C   UNL     1      -6.443   5.843  70.970  1.00  0.00    -0.041 C  
HETATM   16  C   UNL     1      -7.993   7.257  72.395  1.00  0.00    -0.105 A  
HETATM   17  C   UNL     1      -8.862   8.349  72.545  1.00  0.00    -0.296 A  
HETATM   18  C   UNL     1      -7.395   7.004  71.142  1.00  0.00    -0.076 A  
HETATM   19  C   UNL     1      -9.170   9.167  71.458  1.00  0.00    -0.156 A  
HETATM   20  C   UNL     1      -7.739   7.826  70.056  1.00  0.00    -0.091 A  
HETATM   21  O   UNL     1      -7.255   7.628  68.793  1.00  0.00    -0.077 OA 
HETATM   22  H   UNL     1      -7.488   8.184  68.058  1.00  0.00     0.000 HD 
HETATM   23  C   UNL     1      -8.612   8.900  70.212  1.00  0.00    -0.178 A  
ENDBRANCH   4  12
ENDBRANCH   3   4
ENDBRANCH   2   3
TORSDOF 6
ENDMDL
MODEL      230
REMARK 921   NORMALIZED FREE ENERGY PREDICTED BY IDOCK:   -1.59 KCAL/MOL
REMARK 922        TOTAL FREE ENERGY PREDICTED BY IDOCK:   -3.55 KCAL/MOL
REMARK 923 INTER-LIGAND FREE ENERGY PREDICTED BY IDOCK:   -4.15 KCAL/MOL
REMARK 924 INTRA-LIGAND FREE ENERGY PREDICTED BY IDOCK:    0.60 KCAL/MOL
REMARK 927      BINDING AFFINITY PREDICTED BY RF-SCORE:    0.00 PKD
ROOT
HETATM    1  C   UNL     1      -7.672   6.341  66.367  1.00  0.00    -0.099 C  
HETATM    2  C   UNL     1      -7.970   7.835  66.381  1.00  0.00    -0.099 C  
ENDROOT
BRANCH   2   3
HETATM    3  C   UNL     1      -7.398   8.513  67.637  1.00  0.00    -0.089 C  
BRANCH   3   4
HETATM    4  N   UNL     1      -7.784   9.925  67.854  1.00  0.00    -0.090 NA 
BRANCH   4   5
HETATM    5  C   UNL     1      -9.138  10.052  68.432  1.00  0.00    -0.121 C  
BRANCH   5   6
HETATM    6  C   UNL     1      -9.366   9.165  69.672  1.00  0.00    -0.177 C  
BRANCH   6   7
HETATM    7  C   UNL     1     -10.591   9.601  70.425  1.00  0.00    -0.295 A  
HETATM    8  S   UNL     1     -11.670  10.736  69.725  1.00  0.00    -0.347 SA 
HETATM    9  C   UNL     1     -11.008   9.210  71.681  1.00  0.00    -0.445 A  
HETATM   10  C   UNL     1     -12.209   9.866  72.078  1.00  0.00    -0.198 A  
HETATM   11  C   UNL     1     -12.672  10.725  71.108  1.00  0.00    -0.431 A  
ENDBRANCH   6   7
ENDBRANCH   5   6
ENDBRANCH   4   5
BRANCH   4  12
HETATM   12  C   UNL     1      -7.540  10.808  66.677  1.00  0.00    -0.134 C  
HETATM   13  C   UNL     1      -8.824  11.367  66.020  1.00  0.00    -0.177 C  
HETATM   14  C   UNL     1      -6.702  12.076  67.009  1.00  0.00    -0.099 C  
HETATM   15  C   UNL     1      -9.662  12.176  67.014  1.00  0.00    -0.208 C  
HETATM   16  C   UNL     1      -7.450  13.088  67.855  1.00  0.00    -0.137 A  
HETATM   17  C   UNL     1      -6.716  14.012  68.615  1.00  0.00    -0.096 A  
HETATM   18  C   UNL     1      -8.860  13.152  67.843  1.00  0.00    -0.196 A  
HETATM   19  C   UNL     1      -7.369  14.971  69.390  1.00  0.00    -0.194 A  
HETATM   20  C   UNL     1      -9.495  14.110  68.651  1.00  0.00    -0.163 A  
HETATM   21  O   UNL     1     -10.854  14.215  68.749  1.00  0.00    -0.244 OA 
HETATM   22  H   UNL     1     -11.284  14.863  69.294  1.00  0.00     0.000 HD 
HETATM   23  C   UNL     1      -8.758  15.015  69.411  1.00  0.00    -0.113 A  
ENDBRANCH   4  12
ENDBRANCH   3   4
ENDBRANCH   2   3
TORSDOF 6
ENDMDL
MODEL      231
REMARK 921   NORMALIZED FREE ENERGY PREDICTED BY IDOCK:   -1.59 KCAL/MOL
REMARK 922        TOTAL FREE ENERGY PREDICTED BY IDOCK:   -3.54 KCAL/MOL
REMARK 923 INTER-LIGAND FREE ENERGY PREDICTED BY IDOCK:   -3.81 KCAL/MOL
REMARK 924 INTRA-LIGAND FREE ENERGY PREDICTED BY IDOCK:    0.26 KCAL/MOL
REMARK 927      BINDING AFFINITY PREDICTED BY RF-SCORE:    0.00 PKD
ROOT
HETATM    1  C   UNL     1      -9.983  14.969  65.383  1.00  0.00    -0.365 C  
HETATM    2  C   UNL     1      -9.416  15.366  66.740  1.00  0.00    -0.260 C  
ENDROOT
BRANCH   2   3
HETATM    3  C   UNL     1      -8.893  14.144  67.513  1.00  0.00    -0.201 C  
BRANCH   3   4
HETATM    4  N   UNL     1      -9.898  13.371  68.276  1.00  0.00    -0.233 NA 
BRANCH   4   5
HETATM    5  C   UNL     1      -9.473  11.975  68.506  1.00  0.00    -0.133 C  
BRANCH   5   6
HETATM    6  C   UNL     1      -8.497  11.814  69.689  1.00  0.00     1.330 C  
BRANCH   6   7
HETATM    7  C   UNL     1      -7.987  10.402  69.774  1.00  0.00    -0.067 A  
HETATM    8  S   UNL     1      -6.386  10.036  69.285  1.00  0.00    -0.047 SA 
HETATM    9  C   UNL     1      -8.657   9.276  70.208  1.00  0.00    -0.234 A  
HETATM   10  C   UNL     1      -7.855   8.103  70.114  1.00  0.00    -0.098 A  
HETATM   11  C   UNL     1      -6.598   8.376  69.624  1.00  0.00    -0.037 A  
ENDBRANCH   6   7
ENDBRANCH   5   6
ENDBRANCH   4   5
BRANCH   4  12
HETATM   12  C   UNL     1     -11.289  13.505  67.756  1.00  0.00    -0.296 C  
HETATM   13  C   UNL     1     -12.144  12.222  67.879  1.00  0.00    -0.052 C  
HETATM   14  C   UNL     1     -12.129  14.591  68.488  1.00  0.00    -0.257 C  
HETATM   15  C   UNL     1     -12.258  11.756  69.334  1.00  0.00    -0.219 C  
HETATM   16  C   UNL     1     -12.493  14.214  69.911  1.00  0.00    -0.313 A  
HETATM   17  C   UNL     1     -12.808  15.233  70.824  1.00  0.00    -0.494 A  
HETATM   18  C   UNL     1     -12.576  12.863  70.311  1.00  0.00    -0.084 A  
HETATM   19  C   UNL     1     -13.167  14.924  72.136  1.00  0.00    -0.455 A  
HETATM   20  C   UNL     1     -12.915  12.578  71.644  1.00  0.00    -0.302 A  
HETATM   21  O   UNL     1     -12.969  11.306  72.141  1.00  0.00    -0.413 OA 
HETATM   22  H   UNL     1     -13.198  11.113  73.042  1.00  0.00     0.000 HD 
HETATM   23  C   UNL     1     -13.215  13.597  72.546  1.00  0.00    -0.578 A  
ENDBRANCH   4  12
ENDBRANCH   3   4
ENDBRANCH   2   3
TORSDOF 6
ENDMDL
MODEL      232
REMARK 921   NORMALIZED FREE ENERGY PREDICTED BY IDOCK:   -1.50 KCAL/MOL
REMARK 922        TOTAL FREE ENERGY PREDICTED BY IDOCK:   -3.42 KCAL/MOL
REMARK 923 INTER-LIGAND FREE ENERGY PREDICTED BY IDOCK:   -4.79 KCAL/MOL
REMARK 924 INTRA-LIGAND FREE ENERGY PREDICTED BY IDOCK:    1.37 KCAL/MOL
REMARK 927      BINDING AFFINITY PREDICTED BY RF-SCORE:    0.00 PKD
ROOT
HETATM    1  C   UNL     1     -11.002  19.343  65.807  1.00  0.00    -0.238 C  
HETATM    2  C   UNL     1     -10.922  19.221  67.322  1.00  0.00    -0.443 C  
ENDROOT
BRANCH   2   3
HETATM    3  C   UNL     1     -10.717  17.761  67.762  1.00  0.00    -0.324 C  
BRANCH   3   4
HETATM    4  N   UNL     1      -9.423  17.445  68.406  1.00  0.00    -0.283 NA 
BRANCH   4   5
HETATM    5  C   UNL     1      -8.272  17.776  67.541  1.00  0.00    -0.225 C  
BRANCH   5   6
HETATM    6  C   UNL     1      -7.722  19.200  67.762  1.00  0.00    -0.292 C  
BRANCH   6   7
HETATM    7  C   UNL     1      -6.804  19.240  68.951  1.00  0.00    -0.331 A  
HETATM    8  S   UNL     1      -5.881  20.648  69.275  1.00  0.00    -0.315 SA 
HETATM    9  C   UNL     1      -6.565  18.249  69.882  1.00  0.00     0.104 A  
HETATM   10  C   UNL     1      -5.599  18.644  70.852  1.00  0.00    -0.131 A  
HETATM   11  C   UNL     1      -5.145  19.925  70.636  1.00  0.00    -0.215 A  
ENDBRANCH   6   7
ENDBRANCH   5   6
ENDBRANCH   4   5
BRANCH   4  12
HETATM   12  C   UNL     1      -9.362  16.081  69.005  1.00  0.00    -0.239 C  
HETATM   13  C   UNL     1     -10.728  15.526  69.472  1.00  0.00    -0.272 C  
HETATM   14  C   UNL     1      -8.825  14.994  68.030  1.00  0.00    -0.165 C  
HETATM   15  C   UNL     1     -11.735  15.460  68.320  1.00  0.00    -0.313 C  
HETATM   16  C   UNL     1      -9.787  14.665  66.905  1.00  0.00    -0.252 A  
HETATM   17  C   UNL     1      -9.282  14.097  65.724  1.00  0.00     0.218 A  
HETATM   18  C   UNL     1     -11.176  14.867  67.048  1.00  0.00    -0.344 A  
HETATM   19  C   UNL     1     -10.138  13.764  64.674  1.00  0.00    -0.193 A  
HETATM   20  C   UNL     1     -12.015  14.547  65.968  1.00  0.00    -0.311 A  
HETATM   21  O   UNL     1     -13.366  14.755  65.990  1.00  0.00     0.146 OA 
HETATM   22  H   UNL     1     -13.934  14.538  65.260  1.00  0.00     0.000 HD 
HETATM   23  C   UNL     1     -11.504  13.994  64.796  1.00  0.00    -0.371 A  
ENDBRANCH   4  12
ENDBRANCH   3   4
ENDBRANCH   2   3
TORSDOF 6
ENDMDL
MODEL      233
REMARK 921   NORMALIZED FREE ENERGY PREDICTED BY IDOCK:   -1.50 KCAL/MOL
REMARK 922        TOTAL FREE ENERGY PREDICTED BY IDOCK:   -3.41 KCAL/MOL
REMARK 923 INTER-LIGAND FREE ENERGY PREDICTED BY IDOCK:   -3.60 KCAL/MOL
REMARK 924 INTRA-LIGAND FREE ENERGY PREDICTED BY IDOCK:    0.19 KCAL/MOL
REMARK 927      BINDING AFFINITY PREDICTED BY RF-SCORE:    0.00 PKD
ROOT
HETATM    1  C   UNL     1     -10.659   5.763  69.695  1.00  0.00    -0.396 C  
HETATM    2  C   UNL     1     -11.409   7.066  69.451  1.00  0.00    -0.090 C  
ENDROOT
BRANCH   2   3
HETATM    3  C   UNL     1     -10.444   8.253  69.300  1.00  0.00    -0.210 C  
BRANCH   3   4
HETATM    4  N   UNL     1      -9.077   7.933  68.829  1.00  0.00    -0.141 NA 
BRANCH   4   5
HETATM    5  C   UNL     1      -8.036   8.461  69.733  1.00  0.00    -0.117 C  
BRANCH   5   6
HETATM    6  C   UNL     1      -8.586   8.954  71.087  1.00  0.00    -0.263 C  
BRANCH   6   7
HETATM    7  C   UNL     1      -8.337   7.940  72.168  1.00  0.00    -0.131 A  
HETATM    8  S   UNL     1      -7.627   8.424  73.652  1.00  0.00    -0.031 SA 
HETATM    9  C   UNL     1      -8.601   6.585  72.147  1.00  0.00    -0.123 A  
HETATM   10  C   UNL     1      -8.195   5.940  73.351  1.00  0.00    -0.115 A  
HETATM   11  C   UNL     1      -7.648   6.824  74.251  1.00  0.00    -0.097 A  
ENDBRANCH   6   7
ENDBRANCH   5   6
ENDBRANCH   4   5
BRANCH   4  12
HETATM   12  C   UNL     1      -8.846   8.242  67.388  1.00  0.00    -0.131 C  
HETATM   13  C   UNL     1     -10.041   8.921  66.680  1.00  0.00    -0.357 C  
HETATM   14  C   UNL     1      -7.657   9.214  67.141  1.00  0.00    -0.091 C  
HETATM   15  C   UNL     1     -10.427  10.238  67.360  1.00  0.00    -0.303 C  
HETATM   16  C   UNL     1      -7.934  10.633  67.598  1.00  0.00    -0.106 A  
HETATM   17  C   UNL     1      -6.849  11.478  67.884  1.00  0.00    -0.073 A  
HETATM   18  C   UNL     1      -9.252  11.130  67.683  1.00  0.00    -0.151 A  
HETATM   19  C   UNL     1      -7.063  12.795  68.290  1.00  0.00    -0.104 A  
HETATM   20  C   UNL     1      -9.443  12.453  68.117  1.00  0.00    -0.214 A  
HETATM   21  O   UNL     1     -10.681  13.008  68.283  1.00  0.00    -0.230 OA 
HETATM   22  H   UNL     1     -10.811  13.902  68.575  1.00  0.00     0.000 HD 
HETATM   23  C   UNL     1      -8.361  13.280  68.410  1.00  0.00    -0.131 A  
ENDBRANCH   4  12
ENDBRANCH   3   4
ENDBRANCH   2   3
TORSDOF 6
ENDMDL
MODEL      234
REMARK 921   NORMALIZED FREE ENERGY PREDICTED BY IDOCK:   -0.97 KCAL/MOL
REMARK 922        TOTAL FREE ENERGY PREDICTED BY IDOCK:   -2.70 KCAL/MOL
REMARK 923 INTER-LIGAND FREE ENERGY PREDICTED BY IDOCK:   -4.10 KCAL/MOL
REMARK 924 INTRA-LIGAND FREE ENERGY PREDICTED BY IDOCK:    1.40 KCAL/MOL
REMARK 927      BINDING AFFINITY PREDICTED BY RF-SCORE:    0.00 PKD
ROOT
HETATM    1  C   UNL     1      -7.674   6.378  66.356  1.00  0.00    -0.099 C  
HETATM    2  C   UNL     1      -7.942   7.873  66.250  1.00  0.00    -0.103 C  
ENDROOT
BRANCH   2   3
HETATM    3  C   UNL     1      -7.432   8.627  67.489  1.00  0.00    -0.090 C  
BRANCH   3   4
HETATM    4  N   UNL     1      -7.745  10.073  67.553  1.00  0.00    -0.091 NA 
BRANCH   4   5
HETATM    5  C   UNL     1      -9.149  10.324  67.937  1.00  0.00    -0.131 C  
BRANCH   5   6
HETATM    6  C   UNL     1      -9.546   9.684  69.283  1.00  0.00    -0.190 C  
BRANCH   6   7
HETATM    7  C   UNL     1     -10.827  10.276  69.800  1.00  0.00    -0.287 A  
HETATM    8  S   UNL     1     -11.605   9.583  71.161  1.00  0.00    -0.397 SA 
HETATM    9  C   UNL     1     -11.527  11.360  69.310  1.00  0.00    -0.370 A  
HETATM   10  C   UNL     1     -12.721  11.606  70.047  1.00  0.00     0.084 A  
HETATM   11  C   UNL     1     -12.885  10.710  71.078  1.00  0.00    -0.402 A  
ENDBRANCH   6   7
ENDBRANCH   5   6
ENDBRANCH   4   5
BRANCH   4  12
HETATM   12  C   UNL     1      -7.293  10.844  66.360  1.00  0.00    -0.141 C  
HETATM   13  C   UNL     1      -8.186  10.668  65.110  1.00  0.00    -0.092 C  
HETATM   14  C   UNL     1      -7.258  12.383  66.586  1.00  0.00     0.400 C  
HETATM   15  C   UNL     1      -9.633  11.085  65.385  1.00  0.00    -0.267 C  
HETATM   16  C   UNL     1      -8.635  13.006  66.705  1.00  0.00    -0.061 A  
HETATM   17  C   UNL     1      -8.769  14.237  67.367  1.00  0.00    -0.217 A  
HETATM   18  C   UNL     1      -9.765  12.400  66.116  1.00  0.00    -0.254 A  
HETATM   19  C   UNL     1     -10.016  14.850  67.480  1.00  0.00    -0.219 A  
HETATM   20  C   UNL     1     -11.015  13.025  66.264  1.00  0.00    -0.284 A  
HETATM   21  O   UNL     1     -12.175  12.490  65.777  1.00  0.00    -0.578 OA 
HETATM   22  H   UNL     1     -13.020  12.912  65.877  1.00  0.00     0.000 HD 
HETATM   23  C   UNL     1     -11.140  14.241  66.933  1.00  0.00    -0.315 A  
ENDBRANCH   4  12
ENDBRANCH   3   4
ENDBRANCH   2   3
TORSDOF 6
ENDMDL
MODEL      235
REMARK 921   NORMALIZED FREE ENERGY PREDICTED BY IDOCK:   -0.90 KCAL/MOL
REMARK 922        TOTAL FREE ENERGY PREDICTED BY IDOCK:   -2.61 KCAL/MOL
REMARK 923 INTER-LIGAND FREE ENERGY PREDICTED BY IDOCK:   -2.68 KCAL/MOL
REMARK 924 INTRA-LIGAND FREE ENERGY PREDICTED BY IDOCK:    0.07 KCAL/MOL
REMARK 927      BINDING AFFINITY PREDICTED BY RF-SCORE:    0.00 PKD
ROOT
HETATM    1  C   UNL     1     -11.782   2.088  73.385  1.00  0.00    -0.218 C  
HETATM    2  C   UNL     1     -10.287   2.074  73.095  1.00  0.00    -0.209 C  
ENDROOT
BRANCH   2   3
HETATM    3  C   UNL     1      -9.977   2.640  71.699  1.00  0.00    -0.089 C  
BRANCH   3   4
HETATM    4  N   UNL     1      -9.019   3.766  71.645  1.00  0.00    -0.103 NA 
BRANCH   4   5
HETATM    5  C   UNL     1      -8.721   4.180  70.258  1.00  0.00    -0.074 C  
BRANCH   5   6
HETATM    6  C   UNL     1      -9.936   4.094  69.313  1.00  0.00    -0.015 C  
BRANCH   6   7
HETATM    7  C   UNL     1      -9.985   5.282  68.394  1.00  0.00    -0.159 A  
HETATM    8  S   UNL     1      -8.569   5.792  67.574  1.00  0.00    -0.104 SA 
HETATM    9  C   UNL     1     -11.065   6.087  68.094  1.00  0.00    -0.246 A  
HETATM   10  C   UNL     1     -10.719   7.143  67.202  1.00  0.00    -0.422 A  
HETATM   11  C   UNL     1      -9.391   7.099  66.844  1.00  0.00    -0.155 A  
ENDBRANCH   6   7
ENDBRANCH   5   6
ENDBRANCH   4   5
BRANCH   4  12
HETATM   12  C   UNL     1      -7.809   3.574  72.496  1.00  0.00    -0.068 C  
HETATM   13  C   UNL     1      -6.479   3.972  71.815  1.00  0.00    -0.018 C  
HETATM   14  C   UNL     1      -7.828   4.411  73.807  1.00  0.00    -0.086 C  
HETATM   15  C   UNL     1      -6.485   5.440  71.376  1.00  0.00    -0.036 C  
HETATM   16  C   UNL     1      -7.663   5.901  73.574  1.00  0.00    -0.101 A  
HETATM   17  C   UNL     1      -8.126   6.796  74.551  1.00  0.00    -0.149 A  
HETATM   18  C   UNL     1      -7.005   6.393  72.427  1.00  0.00    -0.074 A  
HETATM   19  C   UNL     1      -7.976   8.173  74.381  1.00  0.00    -0.308 A  
HETATM   20  C   UNL     1      -6.887   7.783  72.266  1.00  0.00    -0.062 A  
HETATM   21  O   UNL     1      -6.314   8.357  71.165  1.00  0.00    -0.034 OA 
HETATM   22  H   UNL     1      -6.234   9.298  71.056  1.00  0.00     0.000 HD 
HETATM   23  C   UNL     1      -7.360   8.665  73.235  1.00  0.00     0.050 A  
ENDBRANCH   4  12
ENDBRANCH   3   4
ENDBRANCH   2   3
TORSDOF 6
ENDMDL
MODEL      236
REMARK 921   NORMALIZED FREE ENERGY PREDICTED BY IDOCK:   -0.75 KCAL/MOL
REMARK 922        TOTAL FREE ENERGY PREDICTED BY IDOCK:   -2.41 KCAL/MOL
REMARK 923 INTER-LIGAND FREE ENERGY PREDICTED BY IDOCK:   -3.43 KCAL/MOL
REMARK 924 INTRA-LIGAND FREE ENERGY PREDICTED BY IDOCK:    1.03 KCAL/MOL
REMARK 927      BINDING AFFINITY PREDICTED BY RF-SCORE:    0.00 PKD
ROOT
HETATM    1  C   UNL     1      -8.080  20.668  66.240  1.00  0.00     0.115 C  
HETATM    2  C   UNL     1      -8.245  20.321  67.713  1.00  0.00    -0.271 C  
ENDROOT
BRANCH   2   3
HETATM    3  C   UNL     1      -8.461  18.812  67.918  1.00  0.00    -0.292 C  
BRANCH   3   4
HETATM    4  N   UNL     1      -7.609  17.912  67.109  1.00  0.00    -0.197 NA 
BRANCH   4   5
HETATM    5  C   UNL     1      -8.080  16.512  67.150  1.00  0.00    -0.183 C  
BRANCH   5   6
HETATM    6  C   UNL     1      -9.413  16.286  66.407  1.00  0.00    -0.322 C  
BRANCH   6   7
HETATM    7  C   UNL     1     -10.241  15.241  67.100  1.00  0.00    -0.252 A  
HETATM    8  S   UNL     1     -10.764  15.490  68.713  1.00  0.00    -0.263 SA 
HETATM    9  C   UNL     1     -10.669  14.024  66.608  1.00  0.00    -0.281 A  
HETATM   10  C   UNL     1     -11.411  13.285  67.573  1.00  0.00    -0.329 A  
HETATM   11  C   UNL     1     -11.534  13.966  68.762  1.00  0.00    -0.292 A  
ENDBRANCH   6   7
ENDBRANCH   5   6
ENDBRANCH   4   5
BRANCH   4  12
HETATM   12  C   UNL     1      -6.148  18.070  67.362  1.00  0.00    -0.151 C  
HETATM   13  C   UNL     1      -5.775  18.260  68.851  1.00  0.00    -0.206 C  
HETATM   14  C   UNL     1      -5.300  16.846  66.913  1.00  0.00    -0.170 C  
HETATM   15  C   UNL     1      -6.248  17.083  69.708  1.00  0.00    -0.198 C  
HETATM   16  C   UNL     1      -5.511  15.617  67.775  1.00  0.00    -0.141 A  
HETATM   17  C   UNL     1      -5.213  14.353  67.241  1.00  0.00     0.629 A  
HETATM   18  C   UNL     1      -5.943  15.728  69.114  1.00  0.00    -0.112 A  
HETATM   19  C   UNL     1      -5.376  13.201  68.010  1.00  0.00    -0.106 A  
HETATM   20  C   UNL     1      -6.123  14.552  69.861  1.00  0.00    -0.141 A  
HETATM   21  O   UNL     1      -6.588  14.552  71.146  1.00  0.00    -0.183 OA 
HETATM   22  H   UNL     1      -6.710  13.757  71.651  1.00  0.00     0.000 HD 
HETATM   23  C   UNL     1      -5.836  13.301  69.318  1.00  0.00    -0.088 A  
ENDBRANCH   4  12
ENDBRANCH   3   4
ENDBRANCH   2   3
TORSDOF 6
ENDMDL
MODEL      237
REMARK 921   NORMALIZED FREE ENERGY PREDICTED BY IDOCK:   -0.59 KCAL/MOL
REMARK 922        TOTAL FREE ENERGY PREDICTED BY IDOCK:   -2.19 KCAL/MOL
REMARK 923 INTER-LIGAND FREE ENERGY PREDICTED BY IDOCK:   -2.43 KCAL/MOL
REMARK 924 INTRA-LIGAND FREE ENERGY PREDICTED BY IDOCK:    0.24 KCAL/MOL
REMARK 927      BINDING AFFINITY PREDICTED BY RF-SCORE:    0.00 PKD
ROOT
HETATM    1  C   UNL     1     -11.794   2.406  73.247  1.00  0.00     0.016 C  
HETATM    2  C   UNL     1     -10.320   2.421  72.864  1.00  0.00    -0.239 C  
ENDROOT
BRANCH   2   3
HETATM    3  C   UNL     1     -10.108   3.010  71.459  1.00  0.00     0.066 C  
BRANCH   3   4
HETATM    4  N   UNL     1      -9.141   4.126  71.354  1.00  0.00    -0.121 NA 
BRANCH   4   5
HETATM    5  C   UNL     1      -9.625   5.204  70.469  1.00  0.00    -0.180 C  
BRANCH   5   6
HETATM    6  C   UNL     1     -11.106   5.571  70.695  1.00  0.00    -0.094 C  
BRANCH   6   7
HETATM    7  C   UNL     1     -11.305   7.059  70.625  1.00  0.00    -0.307 A  
HETATM    8  S   UNL     1     -10.655   7.952  69.314  1.00  0.00    -0.144 SA 
HETATM    9  C   UNL     1     -11.969   7.876  71.518  1.00  0.00    -0.333 A  
HETATM   10  C   UNL     1     -11.922   9.246  71.132  1.00  0.00    -0.394 A  
HETATM   11  C   UNL     1     -11.234   9.426  69.954  1.00  0.00    -0.155 A  
ENDBRANCH   6   7
ENDBRANCH   5   6
ENDBRANCH   4   5
BRANCH   4  12
HETATM   12  C   UNL     1      -7.742   3.690  71.074  1.00  0.00    -0.047 C  
HETATM   13  C   UNL     1      -7.100   4.361  69.838  1.00  0.00    -0.046 C  
HETATM   14  C   UNL     1      -6.748   3.999  72.230  1.00  0.00    -0.036 C  
HETATM   15  C   UNL     1      -7.071   5.886  69.972  1.00  0.00    -0.071 C  
HETATM   16  C   UNL     1      -6.458   5.478  72.398  1.00  0.00    -0.053 A  
HETATM   17  C   UNL     1      -5.994   5.942  73.639  1.00  0.00    -0.060 A  
HETATM   18  C   UNL     1      -6.591   6.376  71.318  1.00  0.00    -0.051 A  
HETATM   19  C   UNL     1      -5.698   7.292  73.826  1.00  0.00    -0.053 A  
HETATM   20  C   UNL     1      -6.311   7.735  71.538  1.00  0.00    -0.038 A  
HETATM   21  O   UNL     1      -6.461   8.689  70.571  1.00  0.00    -0.035 OA 
HETATM   22  H   UNL     1      -6.271   9.608  70.719  1.00  0.00     0.000 HD 
HETATM   23  C   UNL     1      -5.862   8.189  72.776  1.00  0.00    -0.054 A  
ENDBRANCH   4  12
ENDBRANCH   3   4
ENDBRANCH   2   3
TORSDOF 6
ENDMDL
MODEL      238
REMARK 921   NORMALIZED FREE ENERGY PREDICTED BY IDOCK:   -0.46 KCAL/MOL
REMARK 922        TOTAL FREE ENERGY PREDICTED BY IDOCK:   -2.01 KCAL/MOL
REMARK 923 INTER-LIGAND FREE ENERGY PREDICTED BY IDOCK:   -3.12 KCAL/MOL
REMARK 924 INTRA-LIGAND FREE ENERGY PREDICTED BY IDOCK:    1.10 KCAL/MOL
REMARK 927      BINDING AFFINITY PREDICTED BY RF-SCORE:    0.00 PKD
ROOT
HETATM    1  C   UNL     1      -9.942   6.538  71.101  1.00  0.00    -0.202 C  
HETATM    2  C   UNL     1      -8.984   7.182  70.108  1.00  0.00    -0.145 C  
ENDROOT
BRANCH   2   3
HETATM    3  C   UNL     1      -9.318   6.784  68.660  1.00  0.00    -0.131 C  
BRANCH   3   4
HETATM    4  N   UNL     1      -8.815   7.685  67.599  1.00  0.00    -0.125 NA 
BRANCH   4   5
HETATM    5  C   UNL     1      -9.853   8.621  67.123  1.00  0.00    -0.207 C  
BRANCH   5   6
HETATM    6  C   UNL     1      -9.330   9.661  66.110  1.00  0.00    -0.248 C  
BRANCH   6   7
HETATM    7  C   UNL     1      -9.301  11.034  66.720  1.00  0.00    -0.181 A  
HETATM    8  S   UNL     1     -10.727  11.706  67.393  1.00  0.00    -0.247 SA 
HETATM    9  C   UNL     1      -8.232  11.902  66.823  1.00  0.00    -0.129 A  
HETATM   10  C   UNL     1      -8.596  13.134  67.437  1.00  0.00    -0.204 A  
HETATM   11  C   UNL     1      -9.925  13.160  67.793  1.00  0.00    -0.227 A  
ENDBRANCH   6   7
ENDBRANCH   5   6
ENDBRANCH   4   5
BRANCH   4  12
HETATM   12  C   UNL     1      -8.080   6.984  66.507  1.00  0.00    -0.111 C  
HETATM   13  C   UNL     1      -6.634   6.576  66.871  1.00  0.00    -0.051 C  
HETATM   14  C   UNL     1      -8.748   5.652  66.059  1.00  0.00    -0.144 C  
HETATM   15  C   UNL     1      -6.596   5.655  68.094  1.00  0.00    -0.049 C  
HETATM   16  C   UNL     1      -8.648   4.550  67.096  1.00  0.00    -0.104 A  
HETATM   17  C   UNL     1      -9.575   3.496  67.057  1.00  0.00    -0.155 A  
HETATM   18  C   UNL     1      -7.612   4.537  68.053  1.00  0.00    -0.077 A  
HETATM   19  C   UNL     1      -9.505   2.454  67.982  1.00  0.00    -0.199 A  
HETATM   20  C   UNL     1      -7.575   3.490  68.989  1.00  0.00    -0.052 A  
HETATM   21  O   UNL     1      -6.644   3.418  69.987  1.00  0.00    -0.032 OA 
HETATM   22  H   UNL     1      -6.619   2.710  70.619  1.00  0.00     0.000 HD 
HETATM   23  C   UNL     1      -8.507   2.455  68.950  1.00  0.00    -0.097 A  
ENDBRANCH   4  12
ENDBRANCH   3   4
ENDBRANCH   2   3
TORSDOF 6
ENDMDL
MODEL      239
REMARK 921   NORMALIZED FREE ENERGY PREDICTED BY IDOCK:   -0.30 KCAL/MOL
REMARK 922        TOTAL FREE ENERGY PREDICTED BY IDOCK:   -1.80 KCAL/MOL
REMARK 923 INTER-LIGAND FREE ENERGY PREDICTED BY IDOCK:   -2.38 KCAL/MOL
REMARK 924 INTRA-LIGAND FREE ENERGY PREDICTED BY IDOCK:    0.58 KCAL/MOL
REMARK 927      BINDING AFFINITY PREDICTED BY RF-SCORE:    0.00 PKD
ROOT
HETATM    1  C   UNL     1      -9.548   3.516  68.030  1.00  0.00    -0.166 C  
HETATM    2  C   UNL     1      -9.343   4.490  69.183  1.00  0.00    -0.214 C  
ENDROOT
BRANCH   2   3
HETATM    3  C   UNL     1      -7.910   5.047  69.204  1.00  0.00    -0.080 C  
BRANCH   3   4
HETATM    4  N   UNL     1      -7.568   6.020  68.142  1.00  0.00    -0.092 NA 
BRANCH   4   5
HETATM    5  C   UNL     1      -7.346   5.368  66.836  1.00  0.00    -0.083 C  
BRANCH   5   6
HETATM    6  C   UNL     1      -8.562   5.449  65.890  1.00  0.00    -0.131 C  
BRANCH   6   7
HETATM    7  C   UNL     1      -8.431   4.463  64.764  1.00  0.00    -0.123 A  
HETATM    8  S   UNL     1      -6.877   3.990  64.214  1.00  0.00    -0.046 SA 
HETATM    9  C   UNL     1      -9.435   3.843  64.048  1.00  0.00    -0.157 A  
HETATM   10  C   UNL     1      -8.922   2.992  63.027  1.00  0.00    -0.091 A  
HETATM   11  C   UNL     1      -7.546   2.983  63.007  1.00  0.00    -0.062 A  
ENDBRANCH   6   7
ENDBRANCH   5   6
ENDBRANCH   4   5
BRANCH   4  12
HETATM   12  C   UNL     1      -6.502   6.988  68.528  1.00  0.00    -0.036 C  
HETATM   13  C   UNL     1      -5.660   7.517  67.343  1.00  0.00    -0.034 C  
HETATM   14  C   UNL     1      -7.044   8.276  69.212  1.00  0.00    -0.060 C  
HETATM   15  C   UNL     1      -6.533   8.214  66.296  1.00  0.00    -0.047 C  
HETATM   16  C   UNL     1      -7.797   9.190  68.265  1.00  0.00    -0.102 A  
HETATM   17  C   UNL     1      -8.724  10.102  68.795  1.00  0.00    -0.138 A  
HETATM   18  C   UNL     1      -7.541   9.177  66.877  1.00  0.00    -0.091 A  
HETATM   19  C   UNL     1      -9.422  10.972  67.957  1.00  0.00    -0.169 A  
HETATM   20  C   UNL     1      -8.274  10.045  66.052  1.00  0.00    -0.126 A  
HETATM   21  O   UNL     1      -8.137  10.069  64.692  1.00  0.00    -0.143 OA 
HETATM   22  H   UNL     1      -8.632  10.656  64.133  1.00  0.00     0.000 HD 
HETATM   23  C   UNL     1      -9.200  10.939  66.585  1.00  0.00    -0.184 A  
ENDBRANCH   4  12
ENDBRANCH   3   4
ENDBRANCH   2   3
TORSDOF 6
ENDMDL
MODEL      240
REMARK 921   NORMALIZED FREE ENERGY PREDICTED BY IDOCK:   -0.29 KCAL/MOL
REMARK 922        TOTAL FREE ENERGY PREDICTED BY IDOCK:   -1.79 KCAL/MOL
REMARK 923 INTER-LIGAND FREE ENERGY PREDICTED BY IDOCK:   -2.79 KCAL/MOL
REMARK 924 INTRA-LIGAND FREE ENERGY PREDICTED BY IDOCK:    1.01 KCAL/MOL
REMARK 927      BINDING AFFINITY PREDICTED BY RF-SCORE:    0.00 PKD
ROOT
HETATM    1  C   UNL     1      -9.946   7.041  66.420  1.00  0.00    -0.077 C  
HETATM    2  C   UNL     1      -9.804   8.245  67.342  1.00  0.00    -0.246 C  
ENDROOT
BRANCH   2   3
HETATM    3  C   UNL     1      -9.079   7.873  68.646  1.00  0.00    -0.136 C  
BRANCH   3   4
HETATM    4  N   UNL     1      -9.933   7.418  69.766  1.00  0.00    -0.186 NA 
BRANCH   4   5
HETATM    5  C   UNL     1     -10.381   8.539  70.618  1.00  0.00    -0.199 C  
BRANCH   5   6
HETATM    6  C   UNL     1      -9.223   9.382  71.189  1.00  0.00    -0.100 C  
BRANCH   6   7
HETATM    7  C   UNL     1      -8.577   8.684  72.353  1.00  0.00    -0.075 A  
HETATM    8  S   UNL     1      -9.517   7.697  73.393  1.00  0.00    -0.286 SA 
HETATM    9  C   UNL     1      -7.254   8.724  72.747  1.00  0.00     0.117 A  
HETATM   10  C   UNL     1      -7.021   7.957  73.924  1.00  0.00    -0.139 A  
HETATM   11  C   UNL     1      -8.168   7.349  74.380  1.00  0.00    -0.190 A  
ENDBRANCH   6   7
ENDBRANCH   5   6
ENDBRANCH   4   5
BRANCH   4  12
HETATM   12  C   UNL     1      -9.374   6.263  70.525  1.00  0.00    -0.162 C  
HETATM   13  C   UNL     1     -10.059   4.909  70.224  1.00  0.00    -0.322 C  
HETATM   14  C   UNL     1      -7.869   5.996  70.237  1.00  0.00    -0.102 C  
HETATM   15  C   UNL     1      -9.973   4.548  68.739  1.00  0.00    -0.120 C  
HETATM   16  C   UNL     1      -7.607   5.455  68.844  1.00  0.00    -0.079 A  
HETATM   17  C   UNL     1      -6.331   5.617  68.281  1.00  0.00    -0.041 A  
HETATM   18  C   UNL     1      -8.602   4.747  68.137  1.00  0.00    -0.106 A  
HETATM   19  C   UNL     1      -6.047   5.116  67.011  1.00  0.00    -0.031 A  
HETATM   20  C   UNL     1      -8.300   4.273  66.849  1.00  0.00    -0.101 A  
HETATM   21  O   UNL     1      -9.211   3.623  66.064  1.00  0.00    -0.148 OA 
HETATM   22  H   UNL     1      -9.007   3.303  65.194  1.00  0.00     0.000 HD 
HETATM   23  C   UNL     1      -7.034   4.449  66.294  1.00  0.00    -0.066 A  
ENDBRANCH   4  12
ENDBRANCH   3   4
ENDBRANCH   2   3
TORSDOF 6
ENDMDL
MODEL      241
REMARK 921   NORMALIZED FREE ENERGY PREDICTED BY IDOCK:   -0.13 KCAL/MOL
REMARK 922        TOTAL FREE ENERGY PREDICTED BY IDOCK:   -1.57 KCAL/MOL
REMARK 923 INTER-LIGAND FREE ENERGY PREDICTED BY IDOCK:   -1.54 KCAL/MOL
REMARK 924 INTRA-LIGAND FREE ENERGY PREDICTED BY IDOCK:   -0.03 KCAL/MOL
REMARK 927      BINDING AFFINITY PREDICTED BY RF-SCORE:    0.00 PKD
ROOT
HETATM    1  C   UNL     1      -9.971   7.054  65.981  1.00  0.00     0.356 C  
HETATM    2  C   UNL     1      -9.129   7.655  67.099  1.00  0.00    -0.146 C  
ENDROOT
BRANCH   2   3
HETATM    3  C   UNL     1      -8.397   6.566  67.902  1.00  0.00    -0.115 C  
BRANCH   3   4
HETATM    4  N   UNL     1      -8.943   6.262  69.244  1.00  0.00    -0.125 NA 
BRANCH   4   5
HETATM    5  C   UNL     1      -9.324   7.483  69.982  1.00  0.00    -0.154 C  
BRANCH   5   6
HETATM    6  C   UNL     1      -8.152   8.136  70.742  1.00  0.00    -0.102 C  
BRANCH   6   7
HETATM    7  C   UNL     1      -7.580   9.285  69.960  1.00  0.00    -0.099 A  
HETATM    8  S   UNL     1      -5.909   9.315  69.575  1.00  0.00    -0.033 SA 
HETATM    9  C   UNL     1      -8.234  10.401  69.477  1.00  0.00    -0.137 A  
HETATM   10  C   UNL     1      -7.349  11.295  68.808  1.00  0.00    -0.109 A  
HETATM   11  C   UNL     1      -6.056  10.826  68.792  1.00  0.00    -0.040 A  
ENDBRANCH   6   7
ENDBRANCH   5   6
ENDBRANCH   4   5
BRANCH   4  12
HETATM   12  C   UNL     1      -8.113   5.307  70.034  1.00  0.00    -0.084 C  
HETATM   13  C   UNL     1      -8.732   3.898  70.186  1.00  0.00    -0.120 C  
HETATM   14  C   UNL     1      -6.711   5.040  69.417  1.00  0.00    -0.052 C  
HETATM   15  C   UNL     1      -8.989   3.243  68.826  1.00  0.00    -0.186 C  
HETATM   16  C   UNL     1      -6.760   4.234  68.133  1.00  0.00    -0.047 A  
HETATM   17  C   UNL     1      -5.685   4.321  67.235  1.00  0.00    -0.022 A  
HETATM   18  C   UNL     1      -7.834   3.361  67.859  1.00  0.00    -0.072 A  
HETATM   19  C   UNL     1      -5.685   3.581  66.053  1.00  0.00    -0.018 A  
HETATM   20  C   UNL     1      -7.824   2.644  66.651  1.00  0.00    -0.076 A  
HETATM   21  O   UNL     1      -8.843   1.816  66.271  1.00  0.00    -0.117 OA 
HETATM   22  H   UNL     1      -8.836   1.330  65.454  1.00  0.00     0.000 HD 
HETATM   23  C   UNL     1      -6.758   2.746  65.760  1.00  0.00    -0.043 A  
ENDBRANCH   4  12
ENDBRANCH   3   4
ENDBRANCH   2   3
TORSDOF 6
ENDMDL
MODEL      242
REMARK 921   NORMALIZED FREE ENERGY PREDICTED BY IDOCK:    0.58 KCAL/MOL
REMARK 922        TOTAL FREE ENERGY PREDICTED BY IDOCK:   -0.62 KCAL/MOL
REMARK 923 INTER-LIGAND FREE ENERGY PREDICTED BY IDOCK:   -1.58 KCAL/MOL
REMARK 924 INTRA-LIGAND FREE ENERGY PREDICTED BY IDOCK:    0.97 KCAL/MOL
REMARK 927      BINDING AFFINITY PREDICTED BY RF-SCORE:    0.00 PKD
ROOT
HETATM    1  C   UNL     1     -10.103  14.179  69.543  1.00  0.00     0.292 C  
HETATM    2  C   UNL     1      -9.129  15.170  70.165  1.00  0.00     0.494 C  
ENDROOT
BRANCH   2   3
HETATM    3  C   UNL     1      -7.802  15.221  69.390  1.00  0.00    -0.227 C  
BRANCH   3   4
HETATM    4  N   UNL     1      -7.818  14.653  68.023  1.00  0.00    -0.122 NA 
BRANCH   4   5
HETATM    5  C   UNL     1      -7.479  13.216  68.011  1.00  0.00    -0.132 C  
BRANCH   5   6
HETATM    6  C   UNL     1      -7.699  12.540  66.642  1.00  0.00     0.306 C  
BRANCH   6   7
HETATM    7  C   UNL     1      -7.608  11.044  66.763  1.00  0.00    -0.139 A  
HETATM    8  S   UNL     1      -7.756  10.296  68.298  1.00  0.00    -0.094 SA 
HETATM    9  C   UNL     1      -7.401  10.117  65.762  1.00  0.00    -0.128 A  
HETATM   10  C   UNL     1      -7.341   8.786  66.266  1.00  0.00    -0.087 A  
HETATM   11  C   UNL     1      -7.516   8.743  67.630  1.00  0.00    -0.093 A  
ENDBRANCH   6   7
ENDBRANCH   5   6
ENDBRANCH   4   5
BRANCH   4  12
HETATM   12  C   UNL     1      -7.069  15.464  67.020  1.00  0.00     0.035 C  
HETATM   13  C   UNL     1      -7.909  16.564  66.332  1.00  0.00    -0.324 C  
HETATM   14  C   UNL     1      -5.856  16.233  67.619  1.00  0.00    -0.169 C  
HETATM   15  C   UNL     1      -8.496  17.548  67.349  1.00  0.00    -0.222 C  
HETATM   16  C   UNL     1      -6.258  17.377  68.529  1.00  0.00    -0.170 A  
HETATM   17  C   UNL     1      -5.341  17.837  69.488  1.00  0.00    -0.196 A  
HETATM   18  C   UNL     1      -7.507  18.019  68.389  1.00  0.00    -0.281 A  
HETATM   19  C   UNL     1      -5.667  18.900  70.330  1.00  0.00    -0.241 A  
HETATM   20  C   UNL     1      -7.822  19.072  69.264  1.00  0.00    -0.045 A  
HETATM   21  O   UNL     1      -9.025  19.720  69.243  1.00  0.00    -0.148 OA 
HETATM   22  H   UNL     1      -9.239  20.432  69.834  1.00  0.00     0.000 HD 
HETATM   23  C   UNL     1      -6.910  19.513  70.220  1.00  0.00     0.109 A  
ENDBRANCH   4  12
ENDBRANCH   3   4
ENDBRANCH   2   3
TORSDOF 6
ENDMDL
MODEL      243
REMARK 921   NORMALIZED FREE ENERGY PREDICTED BY IDOCK:    1.64 KCAL/MOL
REMARK 922        TOTAL FREE ENERGY PREDICTED BY IDOCK:    0.83 KCAL/MOL
REMARK 923 INTER-LIGAND FREE ENERGY PREDICTED BY IDOCK:   -0.11 KCAL/MOL
REMARK 924 INTRA-LIGAND FREE ENERGY PREDICTED BY IDOCK:    0.93 KCAL/MOL
REMARK 927      BINDING AFFINITY PREDICTED BY RF-SCORE:    0.00 PKD
ROOT
HETATM    1  C   UNL     1      -7.920   9.114  67.302  1.00  0.00    -0.102 C  
HETATM    2  C   UNL     1      -7.277  10.048  68.318  1.00  0.00    -0.077 C  
ENDROOT
BRANCH   2   3
HETATM    3  C   UNL     1      -8.332  10.880  69.067  1.00  0.00    -0.114 C  
BRANCH   3   4
HETATM    4  N   UNL     1      -8.143  12.348  69.049  1.00  0.00     0.201 NA 
BRANCH   4   5
HETATM    5  C   UNL     1      -9.346  13.059  68.571  1.00  0.00    -0.078 C  
BRANCH   5   6
HETATM    6  C   UNL     1     -10.486  12.119  68.130  1.00  0.00    -0.225 C  
BRANCH   6   7
HETATM    7  C   UNL     1     -11.311  12.749  67.043  1.00  0.00    -0.314 A  
HETATM    8  S   UNL     1     -11.239  14.442  66.784  1.00  0.00    -0.347 SA 
HETATM    9  C   UNL     1     -12.183  12.136  66.166  1.00  0.00     0.158 A  
HETATM   10  C   UNL     1     -12.811  13.068  65.292  1.00  0.00    -0.284 A  
HETATM   11  C   UNL     1     -12.390  14.357  65.524  1.00  0.00    -0.345 A  
ENDBRANCH   6   7
ENDBRANCH   5   6
ENDBRANCH   4   5
BRANCH   4  12
HETATM   12  C   UNL     1      -6.877  12.788  68.396  1.00  0.00    -0.091 C  
HETATM   13  C   UNL     1      -7.066  13.428  67.001  1.00  0.00     0.425 C  
HETATM   14  C   UNL     1      -6.099  13.866  69.204  1.00  0.00    -0.096 C  
HETATM   15  C   UNL     1      -7.983  14.653  67.060  1.00  0.00    -0.106 C  
HETATM   16  C   UNL     1      -6.785  15.218  69.222  1.00  0.00    -0.148 A  
HETATM   17  C   UNL     1      -6.486  16.118  70.257  1.00  0.00     0.238 A  
HETATM   18  C   UNL     1      -7.668  15.604  68.190  1.00  0.00    -0.127 A  
HETATM   19  C   UNL     1      -7.083  17.379  70.297  1.00  0.00     1.592 A  
HETATM   20  C   UNL     1      -8.275  16.868  68.265  1.00  0.00    -0.222 A  
HETATM   21  O   UNL     1      -9.183  17.311  67.344  1.00  0.00    -0.228 OA 
HETATM   22  H   UNL     1      -9.593  18.167  67.394  1.00  0.00     0.000 HD 
HETATM   23  C   UNL     1      -7.981  17.750  69.302  1.00  0.00     0.181 A  
ENDBRANCH   4  12
ENDBRANCH   3   4
ENDBRANCH   2   3
TORSDOF 6
ENDMDL
MODEL      244
REMARK 921   NORMALIZED FREE ENERGY PREDICTED BY IDOCK:    1.66 KCAL/MOL
REMARK 922        TOTAL FREE ENERGY PREDICTED BY IDOCK:    0.85 KCAL/MOL
REMARK 923 INTER-LIGAND FREE ENERGY PREDICTED BY IDOCK:   -0.32 KCAL/MOL
REMARK 924 INTRA-LIGAND FREE ENERGY PREDICTED BY IDOCK:    1.17 KCAL/MOL
REMARK 927      BINDING AFFINITY PREDICTED BY RF-SCORE:    0.00 PKD
ROOT
HETATM    1  C   UNL     1     -10.261   7.033  65.675  1.00  0.00     1.568 C  
HETATM    2  C   UNL     1      -9.740   7.391  67.060  1.00  0.00    -0.248 C  
ENDROOT
BRANCH   2   3
HETATM    3  C   UNL     1      -9.399   6.133  67.877  1.00  0.00    -0.113 C  
BRANCH   3   4
HETATM    4  N   UNL     1     -10.423   5.681  68.846  1.00  0.00    -0.237 NA 
BRANCH   4   5
HETATM    5  C   UNL     1     -11.472   6.698  69.064  1.00  0.00    -0.073 C  
BRANCH   5   6
HETATM    6  C   UNL     1     -12.338   6.433  70.312  1.00  0.00     0.447 C  
BRANCH   6   7
HETATM    7  C   UNL     1     -11.654   6.931  71.555  1.00  0.00    -0.290 A  
HETATM    8  S   UNL     1     -11.509   5.909  72.923  1.00  0.00    -0.105 SA 
HETATM    9  C   UNL     1     -11.092   8.171  71.783  1.00  0.00    -0.329 A  
HETATM   10  C   UNL     1     -10.561   8.287  73.100  1.00  0.00     0.109 A  
HETATM   11  C   UNL     1     -10.725   7.129  73.826  1.00  0.00    -0.150 A  
ENDBRANCH   6   7
ENDBRANCH   5   6
ENDBRANCH   4   5
BRANCH   4  12
HETATM   12  C   UNL     1      -9.858   5.110  70.102  1.00  0.00    -0.230 C  
HETATM   13  C   UNL     1      -9.724   3.569  70.098  1.00  0.00    -0.155 C  
HETATM   14  C   UNL     1      -8.423   5.613  70.428  1.00  0.00    -0.127 C  
HETATM   15  C   UNL     1      -8.836   3.080  68.951  1.00  0.00    -0.158 C  
HETATM   16  C   UNL     1      -7.366   5.077  69.482  1.00  0.00    -0.057 A  
HETATM   17  C   UNL     1      -6.160   5.782  69.341  1.00  0.00    -0.031 A  
HETATM   18  C   UNL     1      -7.552   3.859  68.793  1.00  0.00    -0.054 A  
HETATM   19  C   UNL     1      -5.157   5.310  68.495  1.00  0.00     0.000 A  
HETATM   20  C   UNL     1      -6.537   3.417  67.928  1.00  0.00    -0.038 A  
HETATM   21  O   UNL     1      -6.645   2.280  67.177  1.00  0.00    -0.037 OA 
HETATM   22  H   UNL     1      -5.959   1.980  66.592  1.00  0.00     0.000 HD 
HETATM   23  C   UNL     1      -5.349   4.130  67.785  1.00  0.00    -0.015 A  
ENDBRANCH   4  12
ENDBRANCH   3   4
ENDBRANCH   2   3
TORSDOF 6
ENDMDL
MODEL      245
REMARK 921   NORMALIZED FREE ENERGY PREDICTED BY IDOCK:    2.30 KCAL/MOL
REMARK 922        TOTAL FREE ENERGY PREDICTED BY IDOCK:    1.72 KCAL/MOL
REMARK 923 INTER-LIGAND FREE ENERGY PREDICTED BY IDOCK:   -2.41 KCAL/MOL
REMARK 924 INTRA-LIGAND FREE ENERGY PREDICTED BY IDOCK:    4.12 KCAL/MOL
REMARK 927      BINDING AFFINITY PREDICTED BY RF-SCORE:    0.00 PKD
ROOT
HETATM    1  C   UNL     1      -7.440   6.638  66.867  1.00  0.00    -0.087 C  
HETATM    2  C   UNL     1      -7.709   7.952  67.589  1.00  0.00    -0.117 C  
ENDROOT
BRANCH   2   3
HETATM    3  C   UNL     1      -6.501   8.387  68.436  1.00  0.00    -0.059 C  
BRANCH   3   4
HETATM    4  N   UNL     1      -6.798   9.214  69.627  1.00  0.00    -0.052 NA 
BRANCH   4   5
HETATM    5  C   UNL     1      -8.101   8.874  70.232  1.00  0.00    -0.123 C  
BRANCH   5   6
HETATM    6  C   UNL     1      -8.757   7.619  69.621  1.00  0.00    -0.136 C  
BRANCH   6   7
HETATM    7  C   UNL     1     -10.158   7.442  70.136  1.00  0.00    -0.197 A  
HETATM    8  S   UNL     1     -10.521   6.158  71.213  1.00  0.00    -0.232 SA 
HETATM    9  C   UNL     1     -11.276   8.200  69.852  1.00  0.00    -0.030 A  
HETATM   10  C   UNL     1     -12.442   7.706  70.506  1.00  0.00     0.221 A  
HETATM   11  C   UNL     1     -12.171   6.597  71.274  1.00  0.00    -0.314 A  
ENDBRANCH   6   7
ENDBRANCH   5   6
ENDBRANCH   4   5
BRANCH   4  12
HETATM   12  C   UNL     1      -6.587  10.676  69.418  1.00  0.00    -0.075 C  
HETATM   13  C   UNL     1      -5.322  11.028  68.601  1.00  0.00    -0.040 C  
HETATM   14  C   UNL     1      -7.743  11.370  68.642  1.00  0.00    -0.137 C  
HETATM   15  C   UNL     1      -5.345  10.381  67.214  1.00  0.00    -0.041 C  
HETATM   16  C   UNL     1      -7.810  10.975  67.179  1.00  0.00    -0.135 A  
HETATM   17  C   UNL     1      -9.025  11.120  66.491  1.00  0.00    -0.185 A  
HETATM   18  C   UNL     1      -6.664  10.523  66.491  1.00  0.00    -0.105 A  
HETATM   19  C   UNL     1      -9.121  10.785  65.140  1.00  0.00    -0.225 A  
HETATM   20  C   UNL     1      -6.791  10.170  65.137  1.00  0.00    -0.134 A  
HETATM   21  O   UNL     1      -5.753   9.672  64.400  1.00  0.00    -0.072 OA 
HETATM   22  H   UNL     1      -5.838   9.433  63.484  1.00  0.00     0.000 HD 
HETATM   23  C   UNL     1      -8.004  10.305  64.466  1.00  0.00    -0.133 A  
ENDBRANCH   4  12
ENDBRANCH   3   4
ENDBRANCH   2   3
TORSDOF 6
ENDMDL
MODEL      246
REMARK 921   NORMALIZED FREE ENERGY PREDICTED BY IDOCK:    2.67 KCAL/MOL
REMARK 922        TOTAL FREE ENERGY PREDICTED BY IDOCK:    2.22 KCAL/MOL
REMARK 923 INTER-LIGAND FREE ENERGY PREDICTED BY IDOCK:   -2.20 KCAL/MOL
REMARK 924 INTRA-LIGAND FREE ENERGY PREDICTED BY IDOCK:    4.42 KCAL/MOL
REMARK 927      BINDING AFFINITY PREDICTED BY RF-SCORE:    0.00 PKD
ROOT
HETATM    1  C   UNL     1      -7.809  11.399  67.596  1.00  0.00    -0.122 C  
HETATM    2  C   UNL     1      -7.678  12.474  66.526  1.00  0.00     0.488 C  
ENDROOT
BRANCH   2   3
HETATM    3  C   UNL     1      -7.499  13.870  67.146  1.00  0.00     0.121 C  
BRANCH   3   4
HETATM    4  N   UNL     1      -7.639  13.956  68.617  1.00  0.00    -0.131 NA 
BRANCH   4   5
HETATM    5  C   UNL     1      -7.383  12.661  69.280  1.00  0.00     0.232 C  
BRANCH   5   6
HETATM    6  C   UNL     1      -5.937  12.506  69.794  1.00  0.00    -0.135 C  
BRANCH   6   7
HETATM    7  C   UNL     1      -5.709  11.124  70.340  1.00  0.00    -0.137 A  
HETATM    8  S   UNL     1      -5.209   9.860  69.295  1.00  0.00    -0.035 SA 
HETATM    9  C   UNL     1      -5.857  10.682  71.639  1.00  0.00     0.430 A  
HETATM   10  C   UNL     1      -5.580   9.290  71.769  1.00  0.00    -0.073 A  
HETATM   11  C   UNL     1      -5.219   8.723  70.568  1.00  0.00    -0.020 A  
ENDBRANCH   6   7
ENDBRANCH   5   6
ENDBRANCH   4   5
BRANCH   4  12
HETATM   12  C   UNL     1      -8.888  14.634  69.069  1.00  0.00    -0.090 C  
HETATM   13  C   UNL     1      -9.219  15.938  68.305  1.00  0.00    -0.189 C  
HETATM   14  C   UNL     1     -10.166  13.764  68.903  1.00  0.00    -0.111 C  
HETATM   15  C   UNL     1      -9.367  15.690  66.801  1.00  0.00    -0.268 C  
HETATM   16  C   UNL     1     -10.573  13.558  67.457  1.00  0.00    -0.247 A  
HETATM   17  C   UNL     1     -11.372  12.452  67.127  1.00  0.00    -0.390 A  
HETATM   18  C   UNL     1     -10.211  14.486  66.457  1.00  0.00    -0.282 A  
HETATM   19  C   UNL     1     -11.782  12.240  65.810  1.00  0.00    -0.445 A  
HETATM   20  C   UNL     1     -10.615  14.237  65.134  1.00  0.00    -0.406 A  
HETATM   21  O   UNL     1     -10.269  15.047  64.088  1.00  0.00    -0.042 OA 
HETATM   22  H   UNL     1     -10.543  14.880  63.194  1.00  0.00     0.000 HD 
HETATM   23  C   UNL     1     -11.398  13.131  64.814  1.00  0.00    -0.352 A  
ENDBRANCH   4  12
ENDBRANCH   3   4
ENDBRANCH   2   3
TORSDOF 6
ENDMDL
MODEL      247
REMARK 921   NORMALIZED FREE ENERGY PREDICTED BY IDOCK:    3.23 KCAL/MOL
REMARK 922        TOTAL FREE ENERGY PREDICTED BY IDOCK:    2.97 KCAL/MOL
REMARK 923 INTER-LIGAND FREE ENERGY PREDICTED BY IDOCK:   -3.56 KCAL/MOL
REMARK 924 INTRA-LIGAND FREE ENERGY PREDICTED BY IDOCK:    6.53 KCAL/MOL
REMARK 927      BINDING AFFINITY PREDICTED BY RF-SCORE:    0.00 PKD
ROOT
HETATM    1  C   UNL     1     -10.254  13.379  68.174  1.00  0.00    -0.246 C  
HETATM    2  C   UNL     1      -8.864  13.471  67.559  1.00  0.00    -0.209 C  
ENDROOT
BRANCH   2   3
HETATM    3  C   UNL     1      -8.544  14.903  67.097  1.00  0.00    -0.225 C  
BRANCH   3   4
HETATM    4  N   UNL     1      -9.308  15.989  67.750  1.00  0.00    -0.210 NA 
BRANCH   4   5
HETATM    5  C   UNL     1     -10.516  15.488  68.436  1.00  0.00    -0.240 C  
BRANCH   5   6
HETATM    6  C   UNL     1     -11.801  15.609  67.592  1.00  0.00     0.156 C  
BRANCH   6   7
HETATM    7  C   UNL     1     -11.736  14.713  66.387  1.00  0.00    -0.322 A  
HETATM    8  S   UNL     1     -11.482  15.385  64.831  1.00  0.00    -0.248 SA 
HETATM    9  C   UNL     1     -11.867  13.340  66.334  1.00  0.00    -0.446 A  
HETATM   10  C   UNL     1     -11.780  12.843  65.002  1.00  0.00    -0.381 A  
HETATM   11  C   UNL     1     -11.574  13.850  64.087  1.00  0.00    -0.298 A  
ENDBRANCH   6   7
ENDBRANCH   5   6
ENDBRANCH   4   5
BRANCH   4  12
HETATM   12  C   UNL     1      -9.552  17.170  66.873  1.00  0.00    -0.262 C  
HETATM   13  C   UNL     1     -10.500  18.231  67.479  1.00  0.00    -0.431 C  
HETATM   14  C   UNL     1      -8.263  17.969  66.527  1.00  0.00    -0.298 C  
HETATM   15  C   UNL     1      -9.969  18.770  68.811  1.00  0.00    -0.442 C  
HETATM   16  C   UNL     1      -7.686  18.724  67.708  1.00  0.00    -0.257 A  
HETATM   17  C   UNL     1      -6.327  19.076  67.691  1.00  0.00    -0.212 A  
HETATM   18  C   UNL     1      -8.501  19.125  68.788  1.00  0.00    -0.376 A  
HETATM   19  C   UNL     1      -5.764  19.788  68.751  1.00  0.00    -0.252 A  
HETATM   20  C   UNL     1      -7.906  19.820  69.855  1.00  0.00     0.569 A  
HETATM   21  O   UNL     1      -8.599  20.203  70.969  1.00  0.00     1.344 OA 
HETATM   22  H   UNL     1      -8.198  20.673  71.690  1.00  0.00     0.000 HD 
HETATM   23  C   UNL     1      -6.554  20.154  69.834  1.00  0.00    -0.272 A  
ENDBRANCH   4  12
ENDBRANCH   3   4
ENDBRANCH   2   3
TORSDOF 6
ENDMDL
MODEL      248
REMARK 921   NORMALIZED FREE ENERGY PREDICTED BY IDOCK:    3.38 KCAL/MOL
REMARK 922        TOTAL FREE ENERGY PREDICTED BY IDOCK:    3.17 KCAL/MOL
REMARK 923 INTER-LIGAND FREE ENERGY PREDICTED BY IDOCK:    0.37 KCAL/MOL
REMARK 924 INTRA-LIGAND FREE ENERGY PREDICTED BY IDOCK:    2.80 KCAL/MOL
REMARK 927      BINDING AFFINITY PREDICTED BY RF-SCORE:    0.00 PKD
ROOT
HETATM    1  C   UNL     1     -10.111   3.316  68.011  1.00  0.00     0.808 C  
HETATM    2  C   UNL     1     -10.369   3.783  69.437  1.00  0.00     1.120 C  
ENDROOT
BRANCH   2   3
HETATM    3  C   UNL     1      -9.056   4.069  70.184  1.00  0.00    -0.117 C  
BRANCH   3   4
HETATM    4  N   UNL     1      -8.215   5.158  69.640  1.00  0.00    -0.092 NA 
BRANCH   4   5
HETATM    5  C   UNL     1      -7.767   4.882  68.260  1.00  0.00    -0.082 C  
BRANCH   5   6
HETATM    6  C   UNL     1      -7.878   6.099  67.319  1.00  0.00    -0.102 C  
BRANCH   6   7
HETATM    7  C   UNL     1      -7.675   5.689  65.887  1.00  0.00    -0.095 A  
HETATM    8  S   UNL     1      -8.949   4.935  65.022  1.00  0.00    -0.122 SA 
HETATM    9  C   UNL     1      -6.543   5.828  65.110  1.00  0.00    -0.043 A  
HETATM   10  C   UNL     1      -6.719   5.289  63.803  1.00  0.00    -0.041 A  
HETATM   11  C   UNL     1      -7.980   4.769  63.625  1.00  0.00    -0.091 A  
ENDBRANCH   6   7
ENDBRANCH   5   6
ENDBRANCH   4   5
BRANCH   4  12
HETATM   12  C   UNL     1      -7.124   5.598  70.558  1.00  0.00    -0.066 C  
HETATM   13  C   UNL     1      -5.730   5.691  69.894  1.00  0.00    -0.016 C  
HETATM   14  C   UNL     1      -7.349   7.012  71.164  1.00  0.00    -0.076 C  
HETATM   15  C   UNL     1      -5.731   6.661  68.709  1.00  0.00    -0.017 C  
HETATM   16  C   UNL     1      -7.209   8.132  70.151  1.00  0.00    -0.056 A  
HETATM   17  C   UNL     1      -7.832   9.364  70.409  1.00  0.00    -0.179 A  
HETATM   18  C   UNL     1      -6.422   7.974  68.990  1.00  0.00    -0.040 A  
HETATM   19  C   UNL     1      -7.710  10.423  69.510  1.00  0.00    -0.159 A  
HETATM   20  C   UNL     1      -6.334   9.047  68.088  1.00  0.00    -0.055 A  
HETATM   21  O   UNL     1      -5.640   8.974  66.912  1.00  0.00    -0.040 OA 
HETATM   22  H   UNL     1      -5.581   9.699  66.302  1.00  0.00     0.000 HD 
HETATM   23  C   UNL     1      -6.965  10.262  68.347  1.00  0.00    -0.069 A  
ENDBRANCH   4  12
ENDBRANCH   3   4
ENDBRANCH   2   3
TORSDOF 6
ENDMDL
MODEL      249
REMARK 921   NORMALIZED FREE ENERGY PREDICTED BY IDOCK:   51.64 KCAL/MOL
REMARK 922        TOTAL FREE ENERGY PREDICTED BY IDOCK:   68.35 KCAL/MOL
REMARK 923 INTER-LIGAND FREE ENERGY PREDICTED BY IDOCK:   33.40 KCAL/MOL
REMARK 924 INTRA-LIGAND FREE ENERGY PREDICTED BY IDOCK:   34.95 KCAL/MOL
REMARK 927      BINDING AFFINITY PREDICTED BY RF-SCORE:    0.00 PKD
ROOT
HETATM    1  C   UNL     1     -11.846  15.315  70.406  1.00  0.00    -0.361 C  
HETATM    2  C   UNL     1     -10.744  14.266  70.362  1.00  0.00     0.529 C  
ENDROOT
BRANCH   2   3
HETATM    3  C   UNL     1     -11.096  13.116  69.403  1.00  0.00    -0.079 C  
BRANCH   3   4
HETATM    4  N   UNL     1     -10.518  13.195  68.043  1.00  0.00    -0.232 NA 
BRANCH   4   5
HETATM    5  C   UNL     1     -11.345  14.011  67.131  1.00  0.00    -0.331 C  
BRANCH   5   6
HETATM    6  C   UNL     1     -12.055  13.187  66.037  1.00  0.00    -0.495 C  
BRANCH   6   7
HETATM    7  C   UNL     1     -11.412  11.838  65.881  1.00  0.00    -0.207 A  
HETATM    8  S   UNL     1     -12.282  10.419  66.293  1.00  0.00     5.654 SA 
HETATM    9  C   UNL     1     -10.139  11.543  65.434  1.00  0.00    -0.304 A  
HETATM   10  C   UNL     1      -9.873  10.144  65.454  1.00  0.00    -0.375 A  
HETATM   11  C   UNL     1     -10.953   9.420  65.903  1.00  0.00     1.505 A  
ENDBRANCH   6   7
ENDBRANCH   5   6
ENDBRANCH   4   5
BRANCH   4  12
HETATM   12  C   UNL     1     -10.112  11.876  67.479  1.00  0.00    -0.193 C  
HETATM   13  C   UNL     1      -9.989  11.850  65.938  1.00  0.00    -0.261 C  
HETATM   14  C   UNL     1      -8.722  11.384  67.977  1.00  0.00    -0.148 C  
HETATM   15  C   UNL     1      -8.973  12.879  65.434  1.00  0.00     0.925 C  
HETATM   16  C   UNL     1      -7.564  12.192  67.427  1.00  0.00    -0.155 A  
HETATM   17  C   UNL     1      -6.345  12.194  68.124  1.00  0.00    -0.055 A  
HETATM   18  C   UNL     1      -7.674  12.889  66.204  1.00  0.00     1.727 A  
HETATM   19  C   UNL     1      -5.251  12.910  67.638  1.00  0.00    -0.090 A  
HETATM   20  C   UNL     1      -6.566  13.622  65.748  1.00  0.00     7.499 A  
HETATM   21  O   UNL     1      -6.591  14.371  64.605  1.00  0.00    15.304 OA 
HETATM   22  H   UNL     1      -5.842  14.867  64.296  1.00  0.00     0.000 HD 
HETATM   23  C   UNL     1      -5.364  13.628  66.453  1.00  0.00     3.545 A  
ENDBRANCH   4  12
ENDBRANCH   3   4
ENDBRANCH   2   3
TORSDOF 6
ENDMDL
MODEL      250
REMARK 921   NORMALIZED FREE ENERGY PREDICTED BY IDOCK:   54.59 KCAL/MOL
REMARK 922        TOTAL FREE ENERGY PREDICTED BY IDOCK:   72.34 KCAL/MOL
REMARK 923 INTER-LIGAND FREE ENERGY PREDICTED BY IDOCK:   12.13 KCAL/MOL
REMARK 924 INTRA-LIGAND FREE ENERGY PREDICTED BY IDOCK:   60.21 KCAL/MOL
REMARK 927      BINDING AFFINITY PREDICTED BY RF-SCORE:    0.00 PKD
ROOT
HETATM    1  C   UNL     1      -9.664  14.041  67.791  1.00  0.00    -0.228 C  
HETATM    2  C   UNL     1      -8.809  15.224  68.224  1.00  0.00    -0.171 C  
ENDROOT
BRANCH   2   3
HETATM    3  C   UNL     1      -7.608  15.427  67.284  1.00  0.00    -0.212 C  
BRANCH   3   4
HETATM    4  N   UNL     1      -6.306  15.698  67.933  1.00  0.00    -0.135 NA 
BRANCH   4   5
HETATM    5  C   UNL     1      -6.258  15.196  69.321  1.00  0.00    -0.112 C  
BRANCH   5   6
HETATM    6  C   UNL     1      -7.029  16.079  70.324  1.00  0.00     0.628 C  
BRANCH   6   7
HETATM    7  C   UNL     1      -6.375  17.424  70.468  1.00  0.00     0.827 A  
HETATM    8  S   UNL     1      -5.674  17.882  71.964  1.00  0.00     1.616 SA 
HETATM    9  C   UNL     1      -6.248  18.419  69.520  1.00  0.00    -0.262 A  
HETATM   10  C   UNL     1      -5.592  19.573  70.036  1.00  0.00    -0.266 A  
HETATM   11  C   UNL     1      -5.230  19.414  71.354  1.00  0.00    -0.334 A  
ENDBRANCH   6   7
ENDBRANCH   5   6
ENDBRANCH   4   5
BRANCH   4  12
HETATM   12  C   UNL     1      -5.832  17.104  67.777  1.00  0.00    -0.125 C  
HETATM   13  C   UNL     1      -6.674  17.956  66.799  1.00  0.00    -0.218 C  
HETATM   14  C   UNL     1      -5.850  17.920  69.101  1.00  0.00    -0.213 C  
HETATM   15  C   UNL     1      -8.141  18.028  67.229  1.00  0.00    -0.218 C  
HETATM   16  C   UNL     1      -7.248  18.242  69.593  1.00  0.00     0.268 A  
HETATM   17  C   UNL     1      -7.440  18.529  70.953  1.00  0.00     3.708 A  
HETATM   18  C   UNL     1      -8.338  18.315  68.699  1.00  0.00    -0.305 A  
HETATM   19  C   UNL     1      -8.708  18.849  71.439  1.00  0.00     6.391 A  
HETATM   20  C   UNL     1      -9.609  18.615  69.216  1.00  0.00    -0.004 A  
HETATM   21  O   UNL     1     -10.735  18.656  68.441  1.00  0.00    -0.332 OA 
HETATM   22  H   UNL     1     -11.594  18.860  68.790  1.00  0.00     0.000 HD 
HETATM   23  C   UNL     1      -9.792  18.887  70.570  1.00  0.00     1.829 A  
ENDBRANCH   4  12
ENDBRANCH   3   4
ENDBRANCH   2   3
TORSDOF 6
ENDMDL
